data_PCOD8051169
_publ_section_title
;
Structure prediction by ZEFSAII (Michael W. Deem and Ramdas Pophale) SiO2 
 PCOD8051169
Probable space group: C 2
;
_chemical_formula_sum "Si O2"
_cell_formula_units_Z 24
_cell_length_a 13.023329
_cell_length_b 11.659717
_cell_length_c 18.935216
_cell_angle_alpha 90.000000
_cell_angle_beta 23.320265
_cell_angle_gamma 90.000000
_cell_volume 1138.238397
_symmetry_space_group_name_H-M "C 2"
_symmetry_group_IT_number 5
_symmetry_cell_setting 'monoclinic'
loop_
_space_group_symop_operation_xyz
x,y,z
-x,y,-z
1/2+x,1/2+y,z
1/2-x,1/2+y,-z
loop_
_atom_site_type_symbol
_atom_site_label
_atom_site_fract_x
_atom_site_fract_y
_atom_site_fract_z
Si Si1 0.973639 0.822910 0.098904
Si Si2 0.265494 0.904495 0.201342
Si Si3 0.639767 0.225784 0.550834
Si Si4 0.206902 0.553886 0.311266
Si Si5 0.931725 0.135473 0.619970
Si Si6 0.541574 0.769152 0.787958
O O1 0.777336 0.734774 0.258177
O O2 0.245012 0.804946 0.966716
O O3 0.865318 0.950508 0.177357
O O4 0.000000 0.795848 0.000000
O O5 0.329192 0.856600 0.238770
O O6 0.034284 0.831481 0.312378
O O7 0.181632 0.036158 0.259078
O O8 0.500000 0.893920 0.000000
O O9 0.455912 0.119922 0.645654
O O10 0.810507 0.277515 0.379521
O O11 0.812382 0.186875 0.506651
O O12 0.424019 0.638774 0.206750
O O13 0.000000 0.509974 0.500000
O O14 0.000000 0.085778 0.500000
#
# Coordination Sequence:
#
# PCOD8051169 Si02
#       6
#     4   4   4   4   4   4
#     4  12  25  41  66 103 132 170 225 282 327 387
#     4  11  26  45  71 100 133 179 222 274 336 397
#     4  10  23  47  70  94 134 180 222 270 334 401
#     4   9  22  43  69  93 128 178 218 270 335 393
#     4  12  27  43  69  99 138 176 228 274 335 390
#     4  10  23  46  69  94 139 174 222 270 336 397
#
# _framework density 21.085215000000002
#
# number of rings (size 3 to 8) (size 9 to 14) (size 15 to 20)
#    0.000    1.333    1.667    3.500    7.000    5.333 
#    0.000    0.000    0.000    0.000    0.000    0.000 
#    0.000    0.000    0.000    0.000    0.000    0.000 
#
# Total GULP energy -148857.565826 kJ/mol
# GULP energy per Si atom -12404.797152 kJ/mol
# Density = 2.103722 g / cm^3
# Si number density = 21.085215 Si / 1000 Ang^3
#
#
#
# Elastic Constant Matrix: (Units=GPa)
#
#
# Indices 1 2 3 4 5 6 
#
# 1 94.6156 24.9424 42.4429 0.0080 -13.6585 -0.0143
# 2 24.9424 116.0644 61.7380 0.0612 -12.6658 0.0382
# 3 42.4429 61.7380 120.6646 0.2529 -15.4512 -0.1313
# 4 0.0080 0.0612 0.2529 42.3843 0.1247 -3.1872
# 5 -13.6585 -12.6658 -15.4512 0.1247 44.1836 0.0429
# 6 -0.0143 0.0382 -0.1313 -3.1872 0.0429 16.1559
#
#
#
# Elastic Compliance Matrix: (Units=1/GPa)
#
#
# Indices 1 2 3 4 5 6 
#
# 1 0.012817 -0.000351 -0.004014 0.000013 0.002458 -0.000024
# 2 -0.000351 0.011923 -0.005814 0.000008 0.001276 -0.000078
# 3 -0.004014 -0.005814 0.012879 -0.000065 0.001596 0.000098
# 4 0.000013 0.000008 -0.000065 0.023950 -0.000089 0.004724
# 5 0.002458 0.001276 0.001596 -0.000089 0.024317 -0.000070
# 6 -0.000024 -0.000078 0.000098 0.004724 -0.000070 0.062830
#
#
# Mechanical properties :
#
#
# Convention : Reuss Voigt Hill
#
# Bulk Modulus (GPa) = 57.93299 65.51010 61.72155
# Shear Modulus (GPa) = 28.59976 34.02618 31.31297
#
# Velocity S-wave (km/s) = 3.68691 4.02150 3.85784
# Velocity P-wave (km/s) = 6.75720 7.25948 7.01284
#
# Compressibility (1/GPa) = 0.01726132
#
# Stress axis : x y z
#
# Youngs Moduli (GPa) = 78.02114 83.87087 77.64848
#
# Poissons Ratio (x) = 0.02944 0.31168
# Poissons Ratio (y) = 0.02739 0.45142
# Poissons Ratio (z) = 0.31318 0.48759
#
# Static dielectric constant tensor:
#      x y z
#    x 3.784390 -0.000170 -0.144920 
#    y -0.000170 3.803710 0.000140 
#    z -0.144920 0.000140 3.889820 
# 
# 
# High freq. dielectric constant tensor:
#      x y z
#    x 1.827110 -0.000010 -0.006490 
#    y -0.000010 1.832420 0.000020 
#    z -0.006490 0.000020 1.837330 
# 
# From -- ./inp_files/44654.got.cif
#   From: 2010.03.12/outbox.cif.g09.slc.cpg/sg5_23_cif.got.tgz:44654.got - 2010.03.31 09:47:26.
