data_PCOD8051569
_publ_section_title
;
Structure prediction by ZEFSAII (Michael W. Deem and Ramdas Pophale) SiO2 
 PCOD8051569
Probable space group: C 2
;
_chemical_formula_sum "Si O2"
_cell_formula_units_Z 24
_cell_length_a 19.143799
_cell_length_b 7.424581
_cell_length_c 9.626082
_cell_angle_alpha 90.000000
_cell_angle_beta 106.492255
_cell_angle_gamma 90.000000
_cell_volume 1311.909817
_symmetry_space_group_name_H-M "C 2"
_symmetry_group_IT_number 5
_symmetry_cell_setting 'monoclinic'
loop_
_space_group_symop_operation_xyz
x,y,z
-x,y,-z
1/2+x,1/2+y,z
1/2-x,1/2+y,-z
loop_
_atom_site_type_symbol
_atom_site_label
_atom_site_fract_x
_atom_site_fract_y
_atom_site_fract_z
Si Si1 0.484582 0.377390 0.839201
Si Si2 0.887424 0.160327 0.481027
Si Si3 0.530194 0.705372 0.727698
Si Si4 0.452508 0.094174 0.332965
Si Si5 0.328614 0.367006 0.623264
Si Si6 0.181072 0.526026 0.566467
O O1 0.520950 0.579534 0.858630
O O2 0.527014 0.267287 0.744223
O O3 0.397864 0.370884 0.764569
O O4 0.500000 0.296212 0.000000
O O5 0.896068 0.165018 0.318500
O O6 0.855637 0.348436 0.519972
O O7 0.964460 0.135170 0.596700
O O8 0.838797 0.989566 0.492154
O O9 0.529502 0.920216 0.754093
O O10 0.500000 0.081838 0.500000
O O11 0.367680 0.101739 0.332674
O O12 0.260215 0.457359 0.666158
O O13 0.312453 0.167491 0.556694
#
# Coordination Sequence:
#
# PCOD8051569 Si02
#       6
#     4   4   4   4   4   4
#     4  11  24  38  58  84 120 158 193 231 290 360
#     4   9  16  29  51  83 108 133 178 239 288 324
#     4   9  17  32  55  82 107 140 190 237 282 326
#     4  11  19  35  62  88 112 149 198 248 288 334
#     4  11  20  32  55  84 118 142 187 242 290 336
#     4  11  19  31  55  90 111 143 185 251 297 323
#
# _framework density 18.293939999999999
#
# number of rings (size 3 to 8) (size 9 to 14) (size 15 to 20)
#    0.000    1.667    6.667    1.000    2.333    0.667 
#    0.000    0.000    7.333    0.000    0.000    0.000 
#    0.000    0.000    0.000    0.000    0.000    0.000 
#
# Total GULP energy -148658.201121 kJ/mol
# GULP energy per Si atom -12388.183427 kJ/mol
# Density = 1.825230 g / cm^3
# Si number density = 18.293940 Si / 1000 Ang^3
#
#
#
# Elastic Constant Matrix: (Units=GPa)
#
#
# Indices 1 2 3 4 5 6 
#
# 1 128.0096 37.7913 35.1422 0.0000 -5.0657 0.0000
# 2 37.7913 98.8170 30.6783 0.0000 -0.6593 0.0000
# 3 35.1422 30.6783 53.7891 0.0000 0.5430 0.0000
# 4 0.0000 0.0000 0.0000 16.2026 0.0000 -8.2809
# 5 -5.0657 -0.6593 0.5430 0.0000 11.5833 0.0000
# 6 0.0000 0.0000 0.0000 -8.2809 0.0000 34.6086
#
#
#
# Elastic Compliance Matrix: (Units=1/GPa)
#
#
# Indices 1 2 3 4 5 6 
#
# 1 0.010118 -0.002154 -0.005428 0.000000 0.004557 0.000000
# 2 -0.002154 0.012768 -0.005875 0.000000 0.000060 0.000000
# 3 -0.005428 -0.005875 0.025528 0.000000 -0.003905 0.000000
# 4 0.000000 0.000000 0.000000 0.070317 0.000000 0.016825
# 5 0.004557 0.000060 -0.003905 0.000000 0.088510 0.000000
# 6 0.000000 0.000000 0.000000 0.016825 0.000000 0.032920
#
#
# Mechanical properties :
#
#
# Convention : Reuss Voigt Hill
#
# Bulk Modulus (GPa) = 46.51362 54.20437 50.35900
# Shear Modulus (GPa) = 18.23195 24.27917 21.25556
#
# Velocity S-wave (km/s) = 3.16034 3.64699 3.41235
# Velocity P-wave (km/s) = 6.22880 6.88680 6.56605
#
# Compressibility (1/GPa) = 0.02149908
#
# Stress axis : x y z
#
# Youngs Moduli (GPa) = 98.83059 78.32100 39.17274
#
# Poissons Ratio (x) = 0.16871 0.21263
# Poissons Ratio (y) = 0.21288 0.23016
# Poissons Ratio (z) = 0.53646 0.46017
#
# Static dielectric constant tensor:
#      x y z
#    x 3.722930 0.000000 -0.316980 
#    y 0.000000 3.608120 0.000000 
#    z -0.316980 0.000000 2.948900 
# 
# 
# High freq. dielectric constant tensor:
#      x y z
#    x 1.715870 0.000000 -0.023300 
#    y 0.000000 1.731980 0.000000 
#    z -0.023300 0.000000 1.637450 
# 
# From -- ./inp_files/26483.got.cif
#   From: 2010.03.12/outbox.cif.g09.slc.cpg/sg5_14_cif.got.tgz:26483.got - 2010.03.31 09:47:26.
