data_PCOD8051129
_publ_section_title
;
Structure prediction by ZEFSAII (Michael W. Deem and Ramdas Pophale) SiO2 
 PCOD8051129
Probable space group: C 2
;
_chemical_formula_sum "Si O2"
_cell_formula_units_Z 30
_cell_length_a 12.096137
_cell_length_b 8.665197
_cell_length_c 13.216422
_cell_angle_alpha 90.000000
_cell_angle_beta 67.274429
_cell_angle_gamma 90.000000
_cell_volume 1277.739179
_symmetry_space_group_name_H-M "C 2"
_symmetry_group_IT_number 5
_symmetry_cell_setting 'monoclinic'
loop_
_space_group_symop_operation_xyz
x,y,z
-x,y,-z
1/2+x,1/2+y,z
1/2-x,1/2+y,-z
loop_
_atom_site_type_symbol
_atom_site_label
_atom_site_fract_x
_atom_site_fract_y
_atom_site_fract_z
Si Si1 0.032891 0.567350 0.791817
Si Si2 0.208970 0.994785 0.607123
Si Si3 0.582130 0.807393 0.065863
Si Si4 0.318906 0.171510 0.751721
Si Si5 0.699740 0.518349 0.980351
Si Si6 0.000000 0.777627 0.000000
Si Si7 0.727725 0.654181 0.391434
Si Si8 0.044682 0.940597 0.378273
O O1 0.997827 0.671171 0.901570
O O2 0.169965 0.597658 0.720611
O O3 0.006426 0.385114 0.820733
O O4 0.952837 0.605569 0.721723
O O5 0.279212 0.835858 0.593626
O O6 0.065857 0.963481 0.659296
O O7 0.244239 0.099226 0.687993
O O8 0.251796 0.075352 0.490249
O O9 0.688240 0.932943 0.007133
O O10 0.500000 0.774866 0.000000
O O11 0.633101 0.637482 0.082018
O O12 0.346388 0.349094 0.714332
O O13 0.242444 0.141651 0.879804
O O14 0.616206 0.387671 0.961134
O O15 0.600260 0.605533 0.389669
O O16 0.000000 0.859619 0.500000
#
# Coordination Sequence:
#
# PCOD8051129 Si02
#       8
#     4   4   4   4   4   2   4   4
#     4  11  25  45  72 102 138 190 231 290 356 410
#     4  11  23  48  68 102 144 175 230 289 339 418
#     4  11  24  47  67 101 139 177 235 287 350 411
#     4  11  24  44  72 102 138 183 228 277 354 413
#     4  11  25  44  71 105 136 186 235 288 355 418
#     4  12  24  48  76  96 146 186 238 302 344 416
#     4  11  24  46  74 101 138 187 228 282 353 408
#     4  10  23  44  68 100 141 184 225 282 342 409
#
# _framework density 23.478971999999999
#
# number of rings (size 3 to 8) (size 9 to 14) (size 15 to 20)
#    0.000    1.067    2.667    4.000    1.867    0.000 
#    9.600    1.333    0.000    0.000    0.000    0.000 
#    0.000    0.000    0.000    0.000    0.000    0.000 
#
# Total GULP energy -185927.341179 kJ/mol
# GULP energy per Si atom -12395.156079 kJ/mol
# Density = 2.342553 g / cm^3
# Si number density = 23.478972 Si / 1000 Ang^3
#
#
#
# Elastic Constant Matrix: (Units=GPa)
#
#
# Indices 1 2 3 4 5 6 
#
# 1 92.7302 40.2652 26.6973 0.0000 14.6676 0.0000
# 2 40.2652 107.4127 16.8757 0.0000 8.1491 0.0000
# 3 26.6973 16.8757 58.9881 0.0000 -0.7135 0.0000
# 4 0.0000 0.0000 0.0000 53.4388 0.0000 -6.6573
# 5 14.6676 8.1491 -0.7135 0.0000 34.3257 0.0000
# 6 0.0000 0.0000 0.0000 -6.6573 0.0000 42.7072
#
#
#
# Elastic Compliance Matrix: (Units=1/GPa)
#
#
# Indices 1 2 3 4 5 6 
#
# 1 0.015210 -0.004383 -0.005697 0.000000 -0.005577 0.000000
# 2 -0.004383 0.011208 -0.001233 0.000000 -0.000814 0.000000
# 3 -0.005697 -0.001233 0.019922 0.000000 0.003141 0.000000
# 4 0.000000 0.000000 0.000000 0.019084 0.000000 0.002975
# 5 -0.005577 -0.000814 0.003141 0.000000 0.031774 0.000000
# 6 0.000000 0.000000 0.000000 0.002975 0.000000 0.023879
#
#
# Mechanical properties :
#
#
# Convention : Reuss Voigt Hill
#
# Bulk Modulus (GPa) = 42.16992 47.42304 44.79648
# Shear Modulus (GPa) = 32.97994 37.78052 35.38023
#
# Velocity S-wave (km/s) = 3.75194 4.01574 3.88608
# Velocity P-wave (km/s) = 6.06376 6.46092 6.26549
#
# Compressibility (1/GPa) = 0.02371358
#
# Stress axis : x y z
#
# Youngs Moduli (GPa) = 65.74756 89.21863 50.19665
#
# Poissons Ratio (x) = 0.39108 0.28598
# Poissons Ratio (y) = 0.28820 0.06187
# Poissons Ratio (z) = 0.37457 0.10997
#
# Static dielectric constant tensor:
#      x y z
#    x 4.509210 0.000000 -0.118010 
#    y 0.000000 4.349970 0.000000 
#    z -0.118010 0.000000 4.153500 
# 
# 
# High freq. dielectric constant tensor:
#      x y z
#    x 1.950820 0.000000 -0.000030 
#    y 0.000000 1.934210 0.000000 
#    z -0.000030 0.000000 1.907200 
# 
# From -- ./inp_files/41717.got.cif
#   From: 2010.03.12/outbox.cif.g09.slc.cpg/sg5_21_cif.got.tgz:41717.got - 2010.03.31 09:47:26.
