data_PCOD8051527
_publ_section_title
;
Structure prediction by ZEFSAII (Michael W. Deem and Ramdas Pophale) SiO2 
 PCOD8051527
Probable space group: C 2
;
_chemical_formula_sum "Si O2"
_cell_formula_units_Z 18
_cell_length_a 14.253158
_cell_length_b 4.839504
_cell_length_c 19.260238
_cell_angle_alpha 90.000000
_cell_angle_beta 147.269977
_cell_angle_gamma 90.000000
_cell_volume 718.314891
_symmetry_space_group_name_H-M "C 2"
_symmetry_group_IT_number 5
_symmetry_cell_setting 'monoclinic'
loop_
_space_group_symop_operation_xyz
x,y,z
-x,y,-z
1/2+x,1/2+y,z
1/2-x,1/2+y,-z
loop_
_atom_site_type_symbol
_atom_site_label
_atom_site_fract_x
_atom_site_fract_y
_atom_site_fract_z
Si Si1 0.858710 0.125000 0.548239
Si Si2 0.275506 0.552320 0.186841
Si Si3 0.695935 0.556563 0.228061
Si Si4 0.500000 0.903208 0.500000
Si Si5 0.831375 0.818626 0.020841
O O1 0.786439 0.387272 0.545867
O O2 0.018994 0.993763 0.693426
O O3 0.915254 0.207935 0.505845
O O4 0.274636 0.796891 0.239658
O O5 0.170365 0.299452 0.155981
O O6 0.179778 0.649434 0.057535
O O7 0.513666 0.468867 0.148408
O O8 0.846090 0.612982 0.378502
O O9 0.803693 0.577976 0.061598
#
# Coordination Sequence:
#
# PCOD8051527 Si02
#       5
#     4   4   4   2   4
#     4  11  25  43  74 108 154 203 247 319 375 467
#     4  11  25  47  71 107 146 199 255 297 393 437
#     4  11  25  47  75 106 148 201 245 315 368 470
#     4  10  26  46  76 114 154 198 258 308 398 446
#     4  12  27  44  73 112 150 196 251 314 374 450
#
# _framework density 25.05865
#
# number of rings (size 3 to 8) (size 9 to 14) (size 15 to 20)
#    0.000    0.889    0.000    6.000    6.222    9.778 
#    0.000    0.000    0.000    0.000    0.000    0.000 
#    0.000    0.000    0.000    0.000    0.000    0.000 
#
# Total GULP energy -111549.891034 kJ/mol
# GULP energy per Si atom -12394.432337 kJ/mol
# Density = 2.500162 g / cm^3
# Si number density = 25.058650 Si / 1000 Ang^3
#
#
#
# Elastic Constant Matrix: (Units=GPa)
#
#
# Indices 1 2 3 4 5 6 
#
# 1 117.2999 53.9313 49.8727 0.0004 20.3618 0.0021
# 2 53.9313 159.9963 41.7777 0.0006 18.0306 0.0017
# 3 49.8727 41.7777 136.3483 0.0002 0.4638 0.0006
# 4 0.0004 0.0006 0.0002 35.6740 0.0000 9.5657
# 5 20.3618 18.0306 0.4638 0.0000 34.6283 -0.0011
# 6 0.0021 0.0017 0.0006 9.5657 -0.0011 61.3764
#
#
#
# Elastic Compliance Matrix: (Units=1/GPa)
#
#
# Indices 1 2 3 4 5 6 
#
# 1 0.012268 -0.002509 -0.003699 0.000000 -0.005858 0.000000
# 2 -0.002509 0.007762 -0.001452 0.000000 -0.002547 0.000000
# 3 -0.003699 -0.001452 0.009122 0.000000 0.002809 0.000000
# 4 0.000000 0.000000 0.000000 0.029254 0.000000 -0.004559
# 5 -0.005858 -0.002547 0.002809 0.000000 0.033611 0.000001
# 6 0.000000 0.000000 0.000000 -0.004559 0.000001 0.017003
#
#
# Mechanical properties :
#
#
# Convention : Reuss Voigt Hill
#
# Bulk Modulus (GPa) = 72.29093 78.31200 75.30147
# Shear Modulus (GPa) = 38.77413 44.20659 41.49036
#
# Velocity S-wave (km/s) = 3.93789 4.20471 4.07348
# Velocity P-wave (km/s) = 7.04182 7.40892 7.22770
#
# Compressibility (1/GPa) = 0.01383299
#
# Stress axis : x y z
#
# Youngs Moduli (GPa) = 81.51074 128.83088 109.62169
#
# Poissons Ratio (x) = 0.32330 0.40545
# Poissons Ratio (y) = 0.20455 0.15915
# Poissons Ratio (z) = 0.30147 0.18703
#
# Static dielectric constant tensor:
#      x y z
#    x 4.593680 0.000000 0.250210 
#    y 0.000000 4.572970 0.000000 
#    z 0.250210 0.000000 4.630900 
# 
# 
# High freq. dielectric constant tensor:
#      x y z
#    x 1.998740 0.000000 0.017240 
#    y 0.000000 2.006950 0.000000 
#    z 0.017240 0.000000 1.999950 
# 
# From -- ./inp_files/65585.got.cif
#   From: 2010.03.12/outbox.cif.g09.slc.cpg/sg5_33_cif.got.tgz:65585.got - 2010.03.31 09:47:26.
