data_PCOD8051466
_publ_section_title
;
Structure prediction by ZEFSAII (Michael W. Deem and Ramdas Pophale) SiO2 
 PCOD8051466
Probable space group: C 2
;
_chemical_formula_sum "Si O2"
_cell_formula_units_Z 18
_cell_length_a 13.053495
_cell_length_b 5.006597
_cell_length_c 11.468413
_cell_angle_alpha 90.000000
_cell_angle_beta 99.932148
_cell_angle_gamma 90.000000
_cell_volume 738.268941
_symmetry_space_group_name_H-M "C 2"
_symmetry_group_IT_number 5
_symmetry_cell_setting 'monoclinic'
loop_
_space_group_symop_operation_xyz
x,y,z
-x,y,-z
1/2+x,1/2+y,z
1/2-x,1/2+y,-z
loop_
_atom_site_type_symbol
_atom_site_label
_atom_site_fract_x
_atom_site_fract_y
_atom_site_fract_z
Si Si1 0.000000 0.870880 0.000000
Si Si2 0.813695 0.284634 0.378930
Si Si3 0.960165 0.254262 0.200868
Si Si4 0.677193 0.792207 0.355366
Si Si5 0.319584 0.075536 0.020126
O O1 0.099015 0.687888 0.061744
O O2 0.048700 0.037757 0.903436
O O3 0.903251 0.181547 0.309896
O O4 0.767246 0.577944 0.342254
O O5 0.860316 0.259840 0.518187
O O6 0.717688 0.088445 0.344867
O O7 0.896909 0.516599 0.144579
O O8 0.081317 0.281266 0.248846
O O9 0.235442 0.304983 0.036172
#
# Coordination Sequence:
#
# PCOD8051466 Si02
#       5
#     2   4   4   4   4
#     4  12  30  48  70 112 146 200 248 298 356 436
#     4  10  25  46  75 107 146 184 232 307 360 433
#     4  12  28  46  79 104 144 198 241 295 361 436
#     4  10  25  48  73 110 142 181 244 297 368 424
#     4  12  29  49  69 103 151 195 247 300 356 427
#
# _framework density 24.381357000000001
#
# number of rings (size 3 to 8) (size 9 to 14) (size 15 to 20)
#    0.000    0.889    2.222    1.333    9.333    1.778 
#    0.000    6.667    0.000    0.000    0.000    0.000 
#    0.000    0.000    0.000    0.000    0.000    0.000 
#
# Total GULP energy -111528.410272 kJ/mol
# GULP energy per Si atom -12392.045586 kJ/mol
# Density = 2.432586 g / cm^3
# Si number density = 24.381357 Si / 1000 Ang^3
#
#
#
# Elastic Constant Matrix: (Units=GPa)
#
#
# Indices 1 2 3 4 5 6 
#
# 1 99.7397 35.5563 26.3576 0.0000 17.7277 0.0000
# 2 35.5563 124.0555 29.5691 0.0000 7.3789 0.0000
# 3 26.3576 29.5691 58.6771 0.0000 3.7191 0.0000
# 4 0.0000 0.0000 0.0000 22.5958 0.0000 6.0726
# 5 17.7277 7.3789 3.7191 0.0000 54.3036 0.0000
# 6 0.0000 0.0000 0.0000 6.0726 0.0000 24.9189
#
#
#
# Elastic Compliance Matrix: (Units=1/GPa)
#
#
# Indices 1 2 3 4 5 6 
#
# 1 0.012625 -0.002399 -0.004240 0.000000 -0.003505 0.000000
# 2 -0.002399 0.009665 -0.003775 0.000000 -0.000271 0.000000
# 3 -0.004240 -0.003775 0.020820 0.000000 0.000471 0.000000
# 4 0.000000 0.000000 0.000000 0.047357 0.000000 -0.011541
# 5 -0.003505 -0.000271 0.000471 0.000000 0.019564 0.000000
# 6 0.000000 0.000000 0.000000 -0.011541 0.000000 0.042943
#
#
# Mechanical properties :
#
#
# Convention : Reuss Voigt Hill
#
# Bulk Modulus (GPa) = 44.88312 51.71536 48.29924
# Shear Modulus (GPa) = 27.58947 33.09629 30.34288
#
# Velocity S-wave (km/s) = 3.36755 3.68835 3.53159
# Velocity P-wave (km/s) = 5.79390 6.27659 6.04007
#
# Compressibility (1/GPa) = 0.02228009
#
# Stress axis : x y z
#
# Youngs Moduli (GPa) = 79.20861 103.47022 48.03187
#
# Poissons Ratio (x) = 0.24827 0.20364
# Poissons Ratio (y) = 0.19006 0.18133
# Poissons Ratio (z) = 0.33583 0.39063
#
# Static dielectric constant tensor:
#      x y z
#    x 4.481290 0.000000 0.021550 
#    y 0.000000 4.500190 0.000000 
#    z 0.021550 0.000000 4.449100 
# 
# 
# High freq. dielectric constant tensor:
#      x y z
#    x 1.981300 0.000000 -0.000100 
#    y 0.000000 1.978190 0.000000 
#    z -0.000100 0.000000 1.958820 
# 
# From -- ./inp_files/37781.got.cif
#   From: 2010.03.12/outbox.cif.g09.slc.cpg/sg5_19_cif.got.tgz:37781.got - 2010.03.31 09:47:26.
