data_PCOD8051037
_publ_section_title
;
Structure prediction by ZEFSAII (Michael W. Deem and Ramdas Pophale) SiO2 
 PCOD8051037
Probable space group: C 2
;
_chemical_formula_sum "Si O2"
_cell_formula_units_Z 22
_cell_length_a 21.162680
_cell_length_b 9.288846
_cell_length_c 8.366928
_cell_angle_alpha 90.000000
_cell_angle_beta 146.128530
_cell_angle_gamma 90.000000
_cell_volume 916.668352
_symmetry_space_group_name_H-M "C 2"
_symmetry_group_IT_number 5
_symmetry_cell_setting 'monoclinic'
loop_
_space_group_symop_operation_xyz
x,y,z
-x,y,-z
1/2+x,1/2+y,z
1/2-x,1/2+y,-z
loop_
_atom_site_type_symbol
_atom_site_label
_atom_site_fract_x
_atom_site_fract_y
_atom_site_fract_z
Si Si1 0.532793 0.697960 0.736006
Si Si2 0.189621 0.836615 0.469731
Si Si3 0.719316 0.228988 0.849796
Si Si4 0.650733 0.929231 0.661795
Si Si5 0.500000 0.546659 0.000000
Si Si6 0.134895 0.526860 0.283804
O O1 0.500000 0.612124 0.500000
O O2 0.472251 0.854991 0.586189
O O3 0.487483 0.637265 0.809449
O O4 0.667833 0.703895 0.021610
O O5 0.144262 0.812225 0.557627
O O6 0.183798 0.687307 0.357685
O O7 0.315543 0.910480 0.738077
O O8 0.110132 0.949128 0.212272
O O9 0.657805 0.080843 0.775853
O O10 0.749399 0.322755 0.067387
O O11 0.683794 0.969682 0.553140
O O12 0.000000 0.527152 0.000000
#
# Coordination Sequence:
#
# PCOD8051037 Si02
#       6
#     4   4   4   4   2   4
#     4  10  24  44  70 102 138 185 238 287 355 424
#     4  11  25  42  69 102 140 186 238 291 359 423
#     4  10  23  44  66 102 137 182 240 286 355 423
#     4  10  23  41  71  95 135 183 225 297 347 414
#     4  12  24  44  74 106 146 194 230 304 358 416
#     4  11  24  45  68 103 141 182 239 294 350 430
#
# _framework density 23.999956000000001
#
# number of rings (size 3 to 8) (size 9 to 14) (size 15 to 20)
#    0.000    1.455    0.909    3.273   11.455    0.000 
#    0.000    0.000    8.000    0.000    0.000    0.000 
#    0.000    0.000    0.000    0.000    0.000    0.000 
#
# Total GULP energy -136287.171296 kJ/mol
# GULP energy per Si atom -12389.742845 kJ/mol
# Density = 2.394533 g / cm^3
# Si number density = 23.999956 Si / 1000 Ang^3
#
#
#
# Elastic Constant Matrix: (Units=GPa)
#
#
# Indices 1 2 3 4 5 6 
#
# 1 83.4252 58.0388 29.2098 0.0000 -14.0964 0.0000
# 2 58.0388 175.3647 68.9163 0.0000 -0.2918 0.0000
# 3 29.2098 68.9163 97.5187 0.0000 -2.8686 0.0000
# 4 0.0000 0.0000 0.0000 39.3284 0.0000 -0.2247
# 5 -14.0964 -0.2918 -2.8686 0.0000 48.1237 0.0000
# 6 0.0000 0.0000 0.0000 -0.2247 0.0000 39.8867
#
#
#
# Elastic Compliance Matrix: (Units=1/GPa)
#
#
# Indices 1 2 3 4 5 6 
#
# 1 0.016751 -0.005011 -0.001335 0.000000 0.004797 0.000000
# 2 -0.005011 0.009398 -0.005191 0.000000 -0.001720 0.000000
# 3 -0.001335 -0.005191 0.014336 0.000000 0.000432 0.000000
# 4 0.000000 0.000000 0.000000 0.025428 0.000000 0.000143
# 5 0.004797 -0.001720 0.000432 0.000000 0.022200 0.000000
# 6 0.000000 0.000000 0.000000 0.000143 0.000000 0.025072
#
#
# Mechanical properties :
#
#
# Convention : Reuss Voigt Hill
#
# Bulk Modulus (GPa) = 57.43825 74.29315 65.86570
# Shear Modulus (GPa) = 35.19569 38.81068 37.00318
#
# Velocity S-wave (km/s) = 3.83363 4.02570 3.93084
# Velocity P-wave (km/s) = 6.60153 7.25473 6.93582
#
# Compressibility (1/GPa) = 0.01741000
#
# Stress axis : x y z
#
# Youngs Moduli (GPa) = 59.69764 106.40328 69.75634
#
# Poissons Ratio (x) = 0.53323 0.09311
# Poissons Ratio (y) = 0.29917 0.36212
# Poissons Ratio (z) = 0.07969 0.55236
#
# Static dielectric constant tensor:
#      x y z
#    x 3.952470 0.000000 -0.257620 
#    y 0.000000 4.581640 0.000000 
#    z -0.257620 0.000000 4.482810 
# 
# 
# High freq. dielectric constant tensor:
#      x y z
#    x 1.923350 0.000000 -0.017770 
#    y 0.000000 1.954010 0.000000 
#    z -0.017770 0.000000 1.967760 
# 
# From -- ./inp_files/29060.got.cif
#   From: 2010.03.12/outbox.cif.g09.slc.cpg/sg5_15_cif.got.tgz:29060.got - 2010.03.31 09:47:26.
