data_PCOD8051426
_publ_section_title
;
Structure prediction by ZEFSAII (Michael W. Deem and Ramdas Pophale) SiO2 
 PCOD8051426
Probable space group: C 2
;
_chemical_formula_sum "Si O2"
_cell_formula_units_Z 28
_cell_length_a 20.268281
_cell_length_b 5.121192
_cell_length_c 22.804949
_cell_angle_alpha 90.000000
_cell_angle_beta 153.523737
_cell_angle_gamma 90.000000
_cell_volume 1055.318278
_symmetry_space_group_name_H-M "C 2"
_symmetry_group_IT_number 5
_symmetry_cell_setting 'monoclinic'
loop_
_space_group_symop_operation_xyz
x,y,z
-x,y,-z
1/2+x,1/2+y,z
1/2-x,1/2+y,-z
loop_
_atom_site_type_symbol
_atom_site_label
_atom_site_fract_x
_atom_site_fract_y
_atom_site_fract_z
Si Si1 0.232811 0.877050 0.845336
Si Si2 0.000000 0.111918 0.000000
Si Si3 0.148025 0.113002 0.536343
Si Si4 0.821750 0.576616 0.037134
Si Si5 0.686292 0.475647 0.257187
Si Si6 0.500000 0.251792 0.500000
Si Si7 0.905321 0.332409 0.708819
Si Si8 0.047402 0.362973 0.701634
O O1 0.108965 0.653015 0.755781
O O2 0.166464 0.154317 0.771966
O O3 0.361452 0.794805 0.903870
O O4 0.307620 0.917645 0.966691
O O5 0.065106 0.946001 0.107638
O O6 0.262397 0.190000 0.679641
O O7 0.081020 0.367439 0.450574
O O8 0.243284 0.945676 0.565298
O O9 0.016520 0.932738 0.455889
O O10 0.994120 0.579127 0.190167
O O11 0.760582 0.872010 0.983114
O O12 0.846678 0.597150 0.365791
O O13 0.606931 0.619369 0.248990
O O14 0.980808 0.233743 0.708508
#
# Coordination Sequence:
#
# PCOD8051426 Si02
#       8
#     4   2   4   4   4   2   4   4
#     4  12  27  49  75 114 152 203 256 319 386 464
#     4  12  28  48  78 114 156 204 268 322 384 462
#     4  11  28  45  77 108 154 204 260 319 383 467
#     4  12  23  46  73 106 152 196 250 311 389 458
#     4  11  26  48  75 106 154 200 264 321 387 456
#     4  10  24  52  72 106 150 212 252 322 384 468
#     4  11  26  45  73 109 147 198 253 325 383 461
#     4  12  29  48  79 112 157 203 256 319 397 461
#
# _framework density 26.532281000000001
#
# number of rings (size 3 to 8) (size 9 to 14) (size 15 to 20)
#    0.000    0.571    4.286    1.286   14.000    1.714 
#    0.000    0.000    0.000    0.000    0.000    0.000 
#    0.000    0.000    0.000    0.000    0.000    0.000 
#
# Total GULP energy -173447.065668 kJ/mol
# GULP energy per Si atom -12389.076119 kJ/mol
# Density = 2.647189 g / cm^3
# Si number density = 26.532281 Si / 1000 Ang^3
#
#
#
# Elastic Constant Matrix: (Units=GPa)
#
#
# Indices 1 2 3 4 5 6 
#
# 1 78.8125 -3.8471 29.0188 -0.0200 20.1299 -0.2744
# 2 -3.8471 63.0312 -0.3718 -0.0322 6.5572 -0.4435
# 3 29.0188 -0.3718 110.2956 -0.0062 -11.6480 -0.1046
# 4 -0.0200 -0.0322 -0.0062 30.5980 0.0081 -6.4590
# 5 20.1299 6.5572 -11.6480 0.0081 47.3893 -0.0306
# 6 -0.2744 -0.4435 -0.1046 -6.4590 -0.0306 19.7557
#
#
#
# Elastic Compliance Matrix: (Units=1/GPa)
#
#
# Indices 1 2 3 4 5 6 
#
# 1 0.017029 0.001928 -0.005406 0.000069 -0.008829 0.000260
# 2 0.001928 0.016322 -0.000797 0.000108 -0.003273 0.000419
# 3 -0.005406 -0.000797 0.011027 -0.000010 0.005117 -0.000030
# 4 0.000069 0.000108 -0.000010 0.035106 -0.000045 0.011481
# 5 -0.008829 -0.003273 0.005117 -0.000045 0.026563 -0.000143
# 6 0.000260 0.000419 -0.000030 0.011481 -0.000143 0.054384
#
#
# Mechanical properties :
#
#
# Convention : Reuss Voigt Hill
#
# Bulk Modulus (GPa) = 27.91282 33.52657 30.71970
# Shear Modulus (GPa) = 27.63614 34.70456 31.17035
#
# Velocity S-wave (km/s) = 3.23089 3.62057 3.43127
# Velocity P-wave (km/s) = 4.94584 5.49014 5.22508
#
# Compressibility (1/GPa) = 0.03582583
#
# Stress axis : x y z
#
# Youngs Moduli (GPa) = 58.72392 61.26839 90.69054
#
# Poissons Ratio (x) = -0.11811 0.49027
# Poissons Ratio (y) = -0.11321 0.07232
# Poissons Ratio (z) = 0.31746 0.04886
#
# Static dielectric constant tensor:
#      x y z
#    x 4.969940 0.000020 0.042410 
#    y 0.000020 4.428550 0.000000 
#    z 0.042410 0.000000 5.140290 
# 
# 
# High freq. dielectric constant tensor:
#      x y z
#    x 2.070200 0.000000 0.007930 
#    y 0.000000 2.047620 0.000000 
#    z 0.007930 0.000000 2.080990 
# 
# From -- ./inp_files/69360.got.cif
#   From: 2010.03.12/outbox.cif.g09.slc.cpg/sg5_35_cif.got.tgz:69360.got - 2010.03.31 09:47:26.
