data_PCOD8051649
_publ_section_title
;
Structure prediction by ZEFSAII (Michael W. Deem and Ramdas Pophale) SiO2 
 PCOD8051649
Probable space group: C 2
;
_chemical_formula_sum "Si O2"
_cell_formula_units_Z 28
_cell_length_a 17.395980
_cell_length_b 5.305202
_cell_length_c 14.762709
_cell_angle_alpha 90.000000
_cell_angle_beta 61.068050
_cell_angle_gamma 90.000000
_cell_volume 1192.399157
_symmetry_space_group_name_H-M "C 2"
_symmetry_group_IT_number 5
_symmetry_cell_setting 'monoclinic'
loop_
_space_group_symop_operation_xyz
x,y,z
-x,y,-z
1/2+x,1/2+y,z
1/2-x,1/2+y,-z
loop_
_atom_site_type_symbol
_atom_site_label
_atom_site_fract_x
_atom_site_fract_y
_atom_site_fract_z
Si Si1 0.263322 0.780430 0.108571
Si Si2 0.912741 0.287177 0.722128
Si Si3 0.993810 0.788029 0.397096
Si Si4 0.372945 0.532172 0.912544
Si Si5 0.223639 0.902144 0.756853
Si Si6 0.092603 0.667949 0.964029
Si Si7 0.204276 0.825484 0.557832
O O1 0.272798 0.689174 0.207006
O O2 0.163463 0.867715 0.152119
O O3 0.340302 0.969212 0.033390
O O4 0.284256 0.560040 0.024347
O O5 0.953368 0.559380 0.678825
O O6 0.916482 0.262202 0.831335
O O7 0.812638 0.265029 0.741044
O O8 0.968990 0.064088 0.645713
O O9 0.894260 0.777658 0.418630
O O10 0.000000 0.741096 0.500000
O O11 0.436349 0.380688 0.944357
O O12 0.137252 0.772420 0.847426
O O13 0.212205 0.910414 0.657016
O O14 0.000000 0.529203 0.000000
O O15 0.256062 0.561445 0.519856
#
# Coordination Sequence:
#
# PCOD8051649 Si02
#       7
#     4   4   4   4   4   4   4
#     4  11  21  42  69  99 146 194 250 295 357 443
#     4  12  25  44  78 106 146 191 254 304 359 444
#     4  12  27  49  76 113 144 192 248 311 368 445
#     4  11  22  40  69 103 137 198 244 296 361 432
#     4  11  26  45  70 106 146 197 243 308 378 429
#     4  11  26  43  68 104 153 194 248 305 365 444
#     4  12  28  51  79 110 152 193 241 307 382 447
#
# _framework density 23.48207
#
# number of rings (size 3 to 8) (size 9 to 14) (size 15 to 20)
#    0.000    0.571    2.857    4.714    6.000    2.286 
#    0.000    0.000    0.000    0.000    0.000    0.000 
#    0.000    0.000    0.000    0.000    0.000    0.000 
#
# Total GULP energy -173449.900914 kJ/mol
# GULP energy per Si atom -12389.278637 kJ/mol
# Density = 2.342862 g / cm^3
# Si number density = 23.482070 Si / 1000 Ang^3
#
#
#
# Elastic Constant Matrix: (Units=GPa)
#
#
# Indices 1 2 3 4 5 6 
#
# 1 95.1183 13.3583 45.6531 0.0023 -5.0934 -0.0035
# 2 13.3583 94.7785 30.7756 0.0132 -5.7904 0.0065
# 3 45.6531 30.7756 121.0616 0.0036 19.3776 0.0034
# 4 0.0023 0.0132 0.0036 31.6668 0.0002 -8.2988
# 5 -5.0934 -5.7904 19.3776 0.0002 44.4553 0.0016
# 6 -0.0035 0.0065 0.0034 -8.2988 0.0016 24.3804
#
#
#
# Elastic Compliance Matrix: (Units=1/GPa)
#
#
# Indices 1 2 3 4 5 6 
#
# 1 0.013485 0.000234 -0.005802 0.000000 0.004104 0.000003
# 2 0.000234 0.011884 -0.003613 -0.000006 0.003150 -0.000005
# 3 -0.005802 -0.003613 0.012415 0.000000 -0.006547 -0.000001
# 4 0.000000 -0.000006 0.000000 0.034672 -0.000001 0.011802
# 5 0.004104 0.003150 -0.006547 -0.000001 0.026229 -0.000002
# 6 0.000003 -0.000005 -0.000001 0.011802 -0.000002 0.045034
#
#
# Mechanical properties :
#
#
# Convention : Reuss Voigt Hill
#
# Bulk Modulus (GPa) = 51.49083 54.50361 52.99722
# Shear Modulus (GPa) = 29.66432 34.84527 32.25479
#
# Velocity S-wave (km/s) = 3.55811 3.85633 3.71022
# Velocity P-wave (km/s) = 6.23342 6.56426 6.40098
#
# Compressibility (1/GPa) = 0.01942093
#
# Stress axis : x y z
#
# Youngs Moduli (GPa) = 74.15817 84.14899 80.55056
#
# Poissons Ratio (x) = -0.01969 0.46732
# Poissons Ratio (y) = -0.01736 0.29106
# Poissons Ratio (z) = 0.43024 0.30407
#
# Static dielectric constant tensor:
#      x y z
#    x 4.114810 -0.000010 -0.079940 
#    y -0.000010 4.543900 0.000020 
#    z -0.079940 0.000020 4.546050 
# 
# 
# High freq. dielectric constant tensor:
#      x y z
#    x 1.923860 0.000000 0.001980 
#    y 0.000000 1.940790 0.000000 
#    z 0.001980 0.000000 1.940880 
# 
# From -- ./inp_files/55408.got.cif
#   From: 2010.03.12/outbox.cif.g09.slc.cpg/sg5_28_cif.got.tgz:55408.got - 2010.03.31 09:47:26.
