data_PCOD8051505
_publ_section_title
;
Structure prediction by ZEFSAII (Michael W. Deem and Ramdas Pophale) SiO2 
 PCOD8051505
Probable space group: C 2
;
_chemical_formula_sum "Si O2"
_cell_formula_units_Z 28
_cell_length_a 22.426436
_cell_length_b 5.488377
_cell_length_c 12.460606
_cell_angle_alpha 90.000000
_cell_angle_beta 126.896861
_cell_angle_gamma 90.000000
_cell_volume 1226.535122
_symmetry_space_group_name_H-M "C 2"
_symmetry_group_IT_number 5
_symmetry_cell_setting 'monoclinic'
loop_
_space_group_symop_operation_xyz
x,y,z
-x,y,-z
1/2+x,1/2+y,z
1/2-x,1/2+y,-z
loop_
_atom_site_type_symbol
_atom_site_label
_atom_site_fract_x
_atom_site_fract_y
_atom_site_fract_z
Si Si1 0.207866 0.669020 0.925692
Si Si2 0.645134 0.187932 0.628869
Si Si3 0.446401 0.845379 0.600171
Si Si4 0.500000 0.480324 0.500000
Si Si5 0.500000 0.840334 0.000000
Si Si6 0.792274 0.817986 0.524701
Si Si7 0.045265 0.663401 0.846847
Si Si8 0.426450 0.528741 0.766460
O O1 0.199186 0.645544 0.787607
O O2 0.131290 0.686235 0.909636
O O3 0.248639 0.420907 0.005722
O O4 0.573422 0.324773 0.595846
O O5 0.683387 0.339428 0.573692
O O6 0.617212 0.930288 0.551297
O O7 0.498839 0.643481 0.604808
O O8 0.403426 0.731950 0.654460
O O9 0.499837 0.064901 0.694672
O O10 0.568511 0.667499 0.114389
O O11 0.465904 0.996479 0.059920
O O12 0.757533 0.552709 0.504465
O O13 0.862576 0.823053 0.684959
O O14 0.009553 0.925135 0.834668
#
# Coordination Sequence:
#
# PCOD8051505 Si02
#       8
#     4   4   4   2   2   4   4   4
#     4  12  32  52  74 110 161 206 249 310 386 472
#     4  12  26  49  73 115 142 205 247 323 386 451
#     4  11  21  40  79 109 139 184 261 324 369 432
#     4  12  22  38  82 110 138 188 258 332 378 434
#     4  10  26  42  82 110 146 200 262 308 374 450
#     4  12  28  49  77 114 158 196 250 322 389 459
#     4  11  24  50  75 110 148 199 263 314 369 454
#     4  11  23  47  74 108 149 197 255 312 370 450
#
# _framework density 22.828536
#
# number of rings (size 3 to 8) (size 9 to 14) (size 15 to 20)
#    0.000    0.571    2.857    4.286   10.000    1.143 
#    5.143    0.000    0.000    0.000    0.000    0.000 
#    0.000    0.000    0.000    0.000    0.000    0.000 
#
# Total GULP energy -173552.349847 kJ/mol
# GULP energy per Si atom -12396.596418 kJ/mol
# Density = 2.277658 g / cm^3
# Si number density = 22.828536 Si / 1000 Ang^3
#
#
#
# Elastic Constant Matrix: (Units=GPa)
#
#
# Indices 1 2 3 4 5 6 
#
# 1 90.4971 34.6334 43.4279 0.0000 12.1150 0.0000
# 2 34.6334 127.5615 55.2990 0.0000 9.4497 0.0000
# 3 43.4279 55.2990 163.2017 0.0000 -9.7101 0.0000
# 4 0.0000 0.0000 0.0000 44.0003 0.0000 -1.8119
# 5 12.1150 9.4497 -9.7101 0.0000 33.0240 0.0000
# 6 0.0000 0.0000 0.0000 -1.8119 0.0000 48.6924
#
#
#
# Elastic Compliance Matrix: (Units=1/GPa)
#
#
# Indices 1 2 3 4 5 6 
#
# 1 0.014214 -0.001937 -0.003464 0.000000 -0.005679 0.000000
# 2 -0.001937 0.009896 -0.003017 0.000000 -0.003008 0.000000
# 3 -0.003464 -0.003017 0.008344 0.000000 0.004587 0.000000
# 4 0.000000 0.000000 0.000000 0.022762 0.000000 0.000847
# 5 -0.005679 -0.003008 0.004587 0.000000 0.034574 0.000000
# 6 0.000000 0.000000 0.000000 0.000847 0.000000 0.020569
#
#
# Mechanical properties :
#
#
# Convention : Reuss Voigt Hill
#
# Bulk Modulus (GPa) = 64.02420 71.99788 68.01104
# Shear Modulus (GPa) = 37.76455 41.67001 39.71728
#
# Velocity S-wave (km/s) = 4.07168 4.27704 4.17563
# Velocity P-wave (km/s) = 7.08600 7.48317 7.28729
#
# Compressibility (1/GPa) = 0.01561909
#
# Stress axis : x y z
#
# Youngs Moduli (GPa) = 70.35432 101.05304 119.84329
#
# Poissons Ratio (x) = 0.19572 0.41512
# Poissons Ratio (y) = 0.13626 0.36153
# Poissons Ratio (z) = 0.24370 0.30484
#
# Static dielectric constant tensor:
#      x y z
#    x 4.160750 0.000000 -0.091860 
#    y 0.000000 4.279830 0.000000 
#    z -0.091860 0.000000 4.326870 
# 
# 
# High freq. dielectric constant tensor:
#      x y z
#    x 1.894460 0.000000 -0.010760 
#    y 0.000000 1.920290 0.000000 
#    z -0.010760 0.000000 1.906230 
# 
# From -- ./inp_files/45609.got.cif
#   From: 2010.03.12/outbox.cif.g09.slc.cpg/sg5_23_cif.got.tgz:45609.got - 2010.03.31 09:47:26.
