data_PCOD8051824
_publ_section_title
;
Structure prediction by ZEFSAII (Michael W. Deem and Ramdas Pophale) SiO2 
 PCOD8051824
Probable space group: C 2
;
_chemical_formula_sum "Si O2"
_cell_formula_units_Z 26
_cell_length_a 9.091360
_cell_length_b 19.367268
_cell_length_c 9.415901
_cell_angle_alpha 90.000000
_cell_angle_beta 132.926110
_cell_angle_gamma 90.000000
_cell_volume 1213.970603
_symmetry_space_group_name_H-M "C 2"
_symmetry_group_IT_number 5
_symmetry_cell_setting 'monoclinic'
loop_
_space_group_symop_operation_xyz
x,y,z
-x,y,-z
1/2+x,1/2+y,z
1/2-x,1/2+y,-z
loop_
_atom_site_type_symbol
_atom_site_label
_atom_site_fract_x
_atom_site_fract_y
_atom_site_fract_z
Si Si1 0.082475 0.241330 0.902173
Si Si2 0.683658 0.479660 0.834505
Si Si3 0.869434 0.331720 0.549061
Si Si4 0.940370 0.090717 0.812077
Si Si5 0.428427 0.974939 0.727679
Si Si6 0.043904 0.837048 0.865949
Si Si7 0.000000 0.563699 0.500000
O O1 0.942503 0.264842 0.680958
O O2 0.078436 0.158595 0.885442
O O3 0.305199 0.272170 0.031533
O O4 0.000000 0.265970 0.000000
O O5 0.498695 0.532582 0.735492
O O6 0.742516 0.491757 0.709203
O O7 0.623645 0.401358 0.828418
O O8 0.868310 0.495433 0.059182
O O9 0.899098 0.394312 0.677327
O O10 0.649631 0.313122 0.348341
O O11 0.000000 0.350494 0.500000
O O12 0.700760 0.109293 0.658492
O O13 0.000000 0.055628 0.000000
O O14 0.429317 0.016667 0.583407
O O15 0.000000 0.859399 0.000000
#
# Coordination Sequence:
#
# PCOD8051824 Si02
#       7
#     4   4   4   4   4   4   2
#     4  11  26  46  66 100 138 179 234 287 340 413
#     4  11  23  44  69 102 139 179 225 294 342 402
#     4  12  23  43  69 101 133 177 228 284 343 408
#     4  11  25  46  69  99 142 183 227 285 348 408
#     4  11  23  41  71 104 134 174 232 283 345 410
#     4  12  24  43  74  99 136 186 231 283 353 403
#     4  12  24  44  72 100 134 184 228 278 352 410
#
# _framework density 21.417321000000001
#
# number of rings (size 3 to 8) (size 9 to 14) (size 15 to 20)
#    0.000    0.615    5.385    2.308    0.000    6.769 
#    5.538    0.000    0.000    0.000    0.000    0.000 
#    0.000    0.000    0.000    0.000    0.000    0.000 
#
# Total GULP energy -161162.827224 kJ/mol
# GULP energy per Si atom -12397.140556 kJ/mol
# Density = 2.136857 g / cm^3
# Si number density = 21.417321 Si / 1000 Ang^3
#
#
#
# Elastic Constant Matrix: (Units=GPa)
#
#
# Indices 1 2 3 4 5 6 
#
# 1 140.3683 50.5785 63.3853 0.0000 5.5836 0.0000
# 2 50.5785 95.3042 24.2636 0.0000 8.4569 0.0000
# 3 63.3853 24.2636 97.9514 0.0000 -0.1373 0.0000
# 4 0.0000 0.0000 0.0000 18.6983 0.0000 1.4921
# 5 5.5836 8.4569 -0.1373 0.0000 43.5474 0.0000
# 6 0.0000 0.0000 0.0000 1.4921 0.0000 30.8360
#
#
#
# Elastic Compliance Matrix: (Units=1/GPa)
#
#
# Indices 1 2 3 4 5 6 
#
# 1 0.011682 -0.004502 -0.006446 0.000000 -0.000644 0.000000
# 2 -0.004502 0.013145 -0.000346 0.000000 -0.001977 0.000000
# 3 -0.006446 -0.000346 0.014467 0.000000 0.000939 0.000000
# 4 0.000000 0.000000 0.000000 0.053688 0.000000 -0.002598
# 5 -0.000644 -0.001977 0.000939 0.000000 0.023433 0.000000
# 6 0.000000 0.000000 0.000000 -0.002598 0.000000 0.032555
#
#
# Mechanical properties :
#
#
# Convention : Reuss Voigt Hill
#
# Bulk Modulus (GPa) = 59.85005 67.78652 63.81829
# Shear Modulus (GPa) = 28.22828 31.64275 29.93552
#
# Velocity S-wave (km/s) = 3.63438 3.84791 3.74267
# Velocity P-wave (km/s) = 6.75404 7.17363 6.96699
#
# Compressibility (1/GPa) = 0.01670842
#
# Stress axis : x y z
#
# Youngs Moduli (GPa) = 85.59840 76.07282 69.12215
#
# Poissons Ratio (x) = 0.34247 0.44553
# Poissons Ratio (y) = 0.38535 0.02390
# Poissons Ratio (z) = 0.55173 0.02631
#
# Static dielectric constant tensor:
#      x y z
#    x 4.126770 0.000000 -0.012380 
#    y 0.000000 3.487630 0.000000 
#    z -0.012380 0.000000 4.006500 
# 
# 
# High freq. dielectric constant tensor:
#      x y z
#    x 1.853820 0.000000 -0.001970 
#    y 0.000000 1.817230 0.000000 
#    z -0.001970 0.000000 1.860320 
# 
# From -- ./inp_files/16738.got.cif
#   From: 2010.03.12/outbox.cif.g09.slc.cpg/sg5_9_cif.got.tgz:16738.got - 2010.03.31 09:47:26.
