data_PCOD8051631
_publ_section_title
;
Structure prediction by ZEFSAII (Michael W. Deem and Ramdas Pophale) SiO2 
 PCOD8051631
Probable space group: C 2
;
_chemical_formula_sum "Si O2"
_cell_formula_units_Z 32
_cell_length_a 8.753233
_cell_length_b 22.344779
_cell_length_c 15.424174
_cell_angle_alpha 90.000000
_cell_angle_beta 149.356800
_cell_angle_gamma 90.000000
_cell_volume 1537.633382
_symmetry_space_group_name_H-M "C 2"
_symmetry_group_IT_number 5
_symmetry_cell_setting 'monoclinic'
loop_
_space_group_symop_operation_xyz
x,y,z
-x,y,-z
1/2+x,1/2+y,z
1/2-x,1/2+y,-z
loop_
_atom_site_type_symbol
_atom_site_label
_atom_site_fract_x
_atom_site_fract_y
_atom_site_fract_z
Si Si1 0.784299 0.892170 0.578482
Si Si2 0.833258 0.690273 0.328810
Si Si3 0.827434 0.973565 0.136029
Si Si4 0.740928 0.892629 0.942234
Si Si5 0.159374 0.549997 0.667450
Si Si6 0.212053 0.757351 0.022134
Si Si7 0.321310 0.963478 0.628909
Si Si8 0.142799 0.762450 0.331359
O O1 0.500000 0.901060 0.500000
O O2 0.683822 0.901834 0.430298
O O3 0.934950 0.827970 0.668408
O O4 0.009446 0.948563 0.698926
O O5 0.836384 0.619920 0.314046
O O6 0.489606 0.711910 0.159200
O O7 0.000000 0.707429 0.500000
O O8 0.015677 0.715673 0.337257
O O9 0.500000 0.997270 0.000000
O O10 0.848346 0.913266 0.088693
O O11 0.997207 0.028013 0.172140
O O12 0.644577 0.823453 0.900130
O O13 0.478153 0.939442 0.792281
O O14 0.000000 0.901369 0.000000
O O15 0.000000 0.532878 0.500000
O O16 0.998022 0.517192 0.668633
O O17 0.000000 0.742494 0.000000
O O18 0.013725 0.752028 0.838006
O O19 0.000000 0.988996 0.500000
O O20 0.500000 0.753940 0.500000
#
# Coordination Sequence:
#
# PCOD8051631 Si02
#       8
#     4   4   4   4   4   4   4   4
#     4  11  21  40  68  93 137 174 215 267 348 408
#     4  11  27  47  72  95 133 192 238 279 334 406
#     4  12  22  39  65  99 130 175 214 271 337 404
#     4  11  23  38  62 101 143 164 212 282 341 399
#     4  11  24  49  67  91 136 180 226 271 329 404
#     4  11  25  44  68 102 141 177 227 286 340 403
#     4  12  24  39  65 101 132 177 217 277 339 402
#     4  11  25  43  70 103 135 182 226 284 343 407
#
# _framework density 20.811202000000002
#
# number of rings (size 3 to 8) (size 9 to 14) (size 15 to 20)
#    0.000    0.750    5.000    1.875   10.500    1.000 
#    4.500    0.000    0.000    0.000    0.000    0.000 
#    0.000    0.000    0.000    0.000    0.000    0.000 
#
# Total GULP energy -198390.337097 kJ/mol
# GULP energy per Si atom -12399.396069 kJ/mol
# Density = 2.076383 g / cm^3
# Si number density = 20.811202 Si / 1000 Ang^3
#
#
#
# Elastic Constant Matrix: (Units=GPa)
#
#
# Indices 1 2 3 4 5 6 
#
# 1 119.0485 55.5851 42.7160 0.0165 15.4085 -0.0015
# 2 55.5851 114.7643 52.2723 -0.0350 7.3604 -0.0034
# 3 42.7160 52.2723 111.5244 -0.1038 12.0487 0.0025
# 4 0.0165 -0.0350 -0.1038 82.3482 -0.0347 -0.0799
# 5 15.4085 7.3604 12.0487 -0.0347 41.2954 0.0018
# 6 -0.0015 -0.0034 0.0025 -0.0799 0.0018 17.5907
#
#
#
# Elastic Compliance Matrix: (Units=1/GPa)
#
#
# Indices 1 2 3 4 5 6 
#
# 1 0.011613 -0.004520 -0.002012 -0.000008 -0.002940 0.000001
# 2 -0.004520 0.012847 -0.004363 0.000001 0.000669 0.000003
# 3 -0.002012 -0.004363 0.011995 0.000013 -0.001972 -0.000002
# 4 -0.000008 0.000001 0.000013 0.012144 0.000009 0.000055
# 5 -0.002940 0.000669 -0.001972 0.000009 0.025769 -0.000002
# 6 0.000001 0.000003 -0.000002 0.000055 -0.000002 0.056849
#
#
# Mechanical properties :
#
#
# Convention : Reuss Voigt Hill
#
# Bulk Modulus (GPa) = 68.18335 71.83155 70.00745
# Shear Modulus (GPa) = 31.66722 41.23110 36.44916
#
# Velocity S-wave (km/s) = 3.90506 4.45589 4.18954
# Velocity P-wave (km/s) = 7.29154 7.81435 7.55747
#
# Compressibility (1/GPa) = 0.01466634
#
# Stress axis : x y z
#
# Youngs Moduli (GPa) = 86.11313 77.84150 83.36811
#
# Poissons Ratio (x) = 0.35181 0.16772
# Poissons Ratio (y) = 0.38919 0.36370
# Poissons Ratio (z) = 0.17325 0.33959
#
# Static dielectric constant tensor:
#      x y z
#    x 3.729770 0.000030 0.038570 
#    y 0.000030 3.661720 -0.000200 
#    z 0.038570 -0.000200 3.641660 
# 
# 
# High freq. dielectric constant tensor:
#      x y z
#    x 1.827680 0.000000 -0.002720 
#    y 0.000000 1.799050 0.000000 
#    z -0.002720 0.000000 1.829180 
# 
# From -- ./inp_files/25616.got.cif
#   From: 2010.03.12/outbox.cif.g09.slc.cpg/sg5_13_cif.got.tgz:25616.got - 2010.03.31 09:47:26.
