data_PCOD8051852
_publ_section_title
;
Structure prediction by ZEFSAII (Michael W. Deem and Ramdas Pophale) SiO2 
 PCOD8051852
Probable space group: C 2
;
_chemical_formula_sum "Si O2"
_cell_formula_units_Z 26
_cell_length_a 23.977402
_cell_length_b 8.545821
_cell_length_c 8.653652
_cell_angle_alpha 90.000000
_cell_angle_beta 42.897443
_cell_angle_gamma 90.000000
_cell_volume 1206.989660
_symmetry_space_group_name_H-M "C 2"
_symmetry_group_IT_number 5
_symmetry_cell_setting 'monoclinic'
loop_
_space_group_symop_operation_xyz
x,y,z
-x,y,-z
1/2+x,1/2+y,z
1/2-x,1/2+y,-z
loop_
_atom_site_type_symbol
_atom_site_label
_atom_site_fract_x
_atom_site_fract_y
_atom_site_fract_z
Si Si1 0.780511 0.967950 0.266500
Si Si2 0.864422 0.209370 0.922331
Si Si3 0.351311 0.195078 0.323516
Si Si4 0.000000 0.034229 0.500000
Si Si5 0.551713 0.272769 0.582768
Si Si6 0.407857 0.050249 0.904280
Si Si7 0.203894 0.756015 0.053389
O O1 0.799030 0.838209 0.358653
O O2 0.701619 0.065371 0.479826
O O3 0.765985 0.888745 0.127851
O O4 0.854393 0.092286 0.089711
O O5 0.908619 0.364004 0.895881
O O6 0.920210 0.142488 0.672121
O O7 0.774761 0.228545 0.032064
O O8 0.415106 0.271051 0.312111
O O9 0.403698 0.107738 0.088384
O O10 0.001113 0.929711 0.340077
O O11 0.492998 0.122989 0.665471
O O12 0.623336 0.299201 0.312812
O O13 0.324350 0.103282 0.986000
#
# Coordination Sequence:
#
# PCOD8051852 Si02
#       7
#     4   4   4   2   4   4   4
#     4  11  23  45  67 104 135 179 234 279 337 414
#     4  12  25  42  68 104 135 175 231 288 338 397
#     4  11  25  42  72  97 140 184 221 283 341 415
#     4  12  26  40  68 102 136 170 228 294 332 402
#     4  12  23  46  68  98 136 185 225 276 351 399
#     4  11  25  42  68 103 140 177 229 280 343 411
#     4  11  23  43  73  95 137 183 230 278 337 409
#
# _framework density 21.541195999999999
#
# number of rings (size 3 to 8) (size 9 to 14) (size 15 to 20)
#    0.000    0.615    4.615    3.231    2.154    1.231 
#    0.000    3.077    0.000    0.000    0.000    0.000 
#    0.000    0.000    0.000    0.000    0.000    0.000 
#
# Total GULP energy -161128.720493 kJ/mol
# GULP energy per Si atom -12394.516961 kJ/mol
# Density = 2.149217 g / cm^3
# Si number density = 21.541196 Si / 1000 Ang^3
#
#
#
# Elastic Constant Matrix: (Units=GPa)
#
#
# Indices 1 2 3 4 5 6 
#
# 1 111.0033 35.8896 37.5122 0.0000 8.7055 0.0000
# 2 35.8896 124.8036 40.4798 0.0000 3.5681 0.0000
# 3 37.5122 40.4798 102.4750 0.0000 -1.2081 0.0000
# 4 0.0000 0.0000 0.0000 49.5152 0.0000 4.2065
# 5 8.7055 3.5681 -1.2081 0.0000 36.6764 0.0000
# 6 0.0000 0.0000 0.0000 4.2065 0.0000 14.2179
#
#
#
# Elastic Compliance Matrix: (Units=1/GPa)
#
#
# Indices 1 2 3 4 5 6 
#
# 1 0.010956 -0.002028 -0.003239 0.000000 -0.002510 0.000000
# 2 -0.002028 0.009603 -0.003058 0.000000 -0.000554 0.000000
# 3 -0.003239 -0.003058 0.012169 0.000000 0.001467 0.000000
# 4 0.000000 0.000000 0.000000 0.020717 0.000000 -0.006129
# 5 -0.002510 -0.000554 0.001467 0.000000 0.027963 0.000000
# 6 0.000000 0.000000 0.000000 -0.006129 0.000000 0.072147
#
#
# Mechanical properties :
#
#
# Convention : Reuss Voigt Hill
#
# Bulk Modulus (GPa) = 62.19308 62.89389 62.54348
# Shear Modulus (GPa) = 28.47952 35.04194 31.76073
#
# Velocity S-wave (km/s) = 3.64001 4.03766 3.84398
# Velocity P-wave (km/s) = 6.82646 7.14124 6.98563
#
# Compressibility (1/GPa) = 0.01607896
#
# Stress axis : x y z
#
# Youngs Moduli (GPa) = 91.27491 104.12967 82.17443
#
# Poissons Ratio (x) = 0.21120 0.26616
# Poissons Ratio (y) = 0.18513 0.25126
# Poissons Ratio (z) = 0.29563 0.31839
#
# Static dielectric constant tensor:
#      x y z
#    x 3.745640 0.000000 0.053200 
#    y 0.000000 4.047030 0.000000 
#    z 0.053200 0.000000 4.018640 
# 
# 
# High freq. dielectric constant tensor:
#      x y z
#    x 1.833840 0.000000 0.000580 
#    y 0.000000 1.851710 0.000000 
#    z 0.000580 0.000000 1.858870 
# 
# From -- ./inp_files/26538.got.cif
#   From: 2010.03.12/outbox.cif.g09.slc.cpg/sg5_14_cif.got.tgz:26538.got - 2010.03.31 09:47:26.
