data_PCOD8051851
_publ_section_title
;
Structure prediction by ZEFSAII (Michael W. Deem and Ramdas Pophale) SiO2 
 PCOD8051851
Probable space group: C 2
;
_chemical_formula_sum "Si O2"
_cell_formula_units_Z 18
_cell_length_a 17.755713
_cell_length_b 6.950388
_cell_length_c 15.840731
_cell_angle_alpha 90.000000
_cell_angle_beta 24.048978
_cell_angle_gamma 90.000000
_cell_volume 796.651835
_symmetry_space_group_name_H-M "C 2"
_symmetry_group_IT_number 5
_symmetry_cell_setting 'monoclinic'
loop_
_space_group_symop_operation_xyz
x,y,z
-x,y,-z
1/2+x,1/2+y,z
1/2-x,1/2+y,-z
loop_
_atom_site_type_symbol
_atom_site_label
_atom_site_fract_x
_atom_site_fract_y
_atom_site_fract_z
Si Si1 0.051089 0.043190 0.854559
Si Si2 0.500000 0.582467 0.500000
Si Si3 0.798890 0.713666 0.073509
Si Si4 0.708955 0.795002 0.983327
Si Si5 0.434878 0.212043 0.479338
O O1 0.265915 0.084673 0.617215
O O2 0.947248 0.149467 0.885602
O O3 0.000000 0.123665 0.000000
O O4 0.986646 0.819992 0.912670
O O5 0.646346 0.721246 0.303953
O O6 0.391094 0.438736 0.545681
O O7 0.710053 0.818708 0.082964
O O8 0.844285 0.494542 0.005901
O O9 0.906190 0.709375 0.753330
O O10 0.500000 0.110694 0.500000
#
# Coordination Sequence:
#
# PCOD8051851 Si02
#       5
#     4   2   4   4   4
#     4  12  23  41  74 103 136 190 237 285 359 417
#     4   8  20  44  76 100 144 188 232 296 354 418
#     4  11  23  43  73 104 144 186 238 289 359 420
#     4  11  23  46  67 102 149 183 231 306 341 424
#     4   9  20  43  72  95 142 187 229 286 358 412
#
# _framework density 22.594560999999999
#
# number of rings (size 3 to 8) (size 9 to 14) (size 15 to 20)
#    0.667    0.889    4.444    0.000    0.000    4.444 
#    4.000    2.222    0.000    0.000    0.000    0.000 
#    0.000    0.000    0.000    0.000    0.000    0.000 
#
# Total GULP energy -111549.845279 kJ/mol
# GULP energy per Si atom -12394.427253 kJ/mol
# Density = 2.254314 g / cm^3
# Si number density = 22.594561 Si / 1000 Ang^3
#
#
#
# Elastic Constant Matrix: (Units=GPa)
#
#
# Indices 1 2 3 4 5 6 
#
# 1 94.1072 21.6251 52.2015 0.0001 -4.8361 -0.0001
# 2 21.6251 99.0720 75.7929 -0.0001 -12.8514 -0.0007
# 3 52.2015 75.7929 157.7811 -0.0005 -20.1787 -0.0002
# 4 0.0001 -0.0001 -0.0005 48.5562 -0.0002 -10.0755
# 5 -4.8361 -12.8514 -20.1787 -0.0002 32.5334 0.0004
# 6 -0.0001 -0.0007 -0.0002 -10.0755 0.0004 39.2918
#
#
#
# Elastic Compliance Matrix: (Units=1/GPa)
#
#
# Indices 1 2 3 4 5 6 
#
# 1 0.013063 0.000683 -0.004743 0.000000 -0.000730 0.000000
# 2 0.000683 0.016079 -0.007738 0.000000 0.001653 0.000000
# 3 -0.004743 -0.007738 0.012103 0.000000 0.003745 0.000000
# 4 0.000000 0.000000 0.000000 0.021752 0.000000 0.005578
# 5 -0.000730 0.001653 0.003745 0.000000 0.033605 0.000000
# 6 0.000000 0.000000 0.000000 0.005578 0.000000 0.026881
#
#
# Mechanical properties :
#
#
# Convention : Reuss Voigt Hill
#
# Bulk Modulus (GPa) = 56.66474 72.24437 64.45455
# Shear Modulus (GPa) = 32.68752 37.49899 35.09325
#
# Velocity S-wave (km/s) = 3.80768 4.07830 3.94531
# Velocity P-wave (km/s) = 6.66818 7.36344 7.02442
#
# Compressibility (1/GPa) = 0.01764766
#
# Stress axis : x y z
#
# Youngs Moduli (GPa) = 76.55325 62.19234 82.62196
#
# Poissons Ratio (x) = -0.04245 0.39188
# Poissons Ratio (y) = -0.05225 0.63935
# Poissons Ratio (z) = 0.36310 0.48126
#
# Static dielectric constant tensor:
#      x y z
#    x 4.125510 0.000000 0.091060 
#    y 0.000000 4.037250 0.000000 
#    z 0.091060 0.000000 3.894370 
# 
# 
# High freq. dielectric constant tensor:
#      x y z
#    x 1.885710 0.000000 0.011300 
#    y 0.000000 1.896040 0.000000 
#    z 0.011300 0.000000 1.867520 
# 
# From -- ./inp_files/62214.got.cif
#   From: 2010.03.12/outbox.cif.g09.slc.cpg/sg5_32_cif.got.tgz:62214.got - 2010.03.31 09:47:26.
