data_PCOD8051288
_publ_section_title
;
Structure prediction by ZEFSAII (Michael W. Deem and Ramdas Pophale) SiO2 
 PCOD8051288
Probable space group: C 2
;
_chemical_formula_sum "Si O2"
_cell_formula_units_Z 20
_cell_length_a 12.137553
_cell_length_b 7.417885
_cell_length_c 20.263727
_cell_angle_alpha 90.000000
_cell_angle_beta 152.609564
_cell_angle_gamma 90.000000
_cell_volume 839.338393
_symmetry_space_group_name_H-M "C 2"
_symmetry_group_IT_number 5
_symmetry_cell_setting 'monoclinic'
loop_
_space_group_symop_operation_xyz
x,y,z
-x,y,-z
1/2+x,1/2+y,z
1/2-x,1/2+y,-z
loop_
_atom_site_type_symbol
_atom_site_label
_atom_site_fract_x
_atom_site_fract_y
_atom_site_fract_z
Si Si1 0.503981 0.867730 0.431090
Si Si2 0.088436 0.410400 0.858405
Si Si3 0.387414 0.087713 0.629471
Si Si4 0.546359 0.209775 0.124973
Si Si5 0.839468 0.334977 0.854120
O O1 0.500000 0.966354 0.500000
O O2 0.634927 0.676500 0.513686
O O3 0.240781 0.841649 0.260606
O O4 0.655435 0.992234 0.463074
O O5 0.952700 0.430188 0.716487
O O6 0.103879 0.613256 0.896051
O O7 0.945673 0.288382 0.837167
O O8 0.352282 0.331280 0.982798
O O9 0.583031 0.245445 0.726737
O O10 0.672755 0.055706 0.146657
O O11 0.000000 0.261183 0.000000
#
# Coordination Sequence:
#
# PCOD8051288 Si02
#       5
#     4   4   4   4   4
#     4  12  27  47  70 102 143 194 234 292 352 434
#     4  10  24  44  73 106 142 182 240 299 347 422
#     4  12  27  47  72 101 150 185 241 289 362 416
#     4  10  24  44  73 104 144 180 244 289 358 411
#     4  10  24  43  70 105 142 178 235 298 346 418
#
# _framework density 23.828292000000001
#
# number of rings (size 3 to 8) (size 9 to 14) (size 15 to 20)
#    1.200    0.000    2.000    2.400    8.400    1.600 
#    0.000    0.000    0.000    0.000    0.000    0.000 
#    0.000    0.000    0.000    0.000    0.000    0.000 
#
# Total GULP energy -123937.518250 kJ/mol
# GULP energy per Si atom -12393.751825 kJ/mol
# Density = 2.377406 g / cm^3
# Si number density = 23.828292 Si / 1000 Ang^3
#
#
#
# Elastic Constant Matrix: (Units=GPa)
#
#
# Indices 1 2 3 4 5 6 
#
# 1 128.7048 21.9513 32.0553 0.0000 -27.4326 0.0000
# 2 21.9513 40.0817 15.6750 0.0004 -2.4425 0.0000
# 3 32.0553 15.6750 88.6605 0.0034 -9.1037 0.0000
# 4 0.0000 0.0004 0.0034 48.6721 0.0001 5.0363
# 5 -27.4326 -2.4425 -9.1037 0.0001 41.5510 -0.0001
# 6 0.0000 0.0000 0.0000 5.0363 -0.0001 36.5489
#
#
#
# Elastic Compliance Matrix: (Units=1/GPa)
#
#
# Indices 1 2 3 4 5 6 
#
# 1 0.010408 -0.004406 -0.002358 0.000000 0.006096 0.000000
# 2 -0.004406 0.028680 -0.003686 0.000000 -0.002031 0.000000
# 3 -0.002358 -0.003686 0.012891 -0.000001 0.001051 0.000000
# 4 0.000000 0.000000 -0.000001 0.020843 0.000000 -0.002872
# 5 0.006096 -0.002031 0.001051 0.000000 0.028202 0.000000
# 6 0.000000 0.000000 0.000000 -0.002872 0.000000 0.027756
#
#
# Mechanical properties :
#
#
# Convention : Reuss Voigt Hill
#
# Bulk Modulus (GPa) = 32.17688 44.09003 38.13345
# Shear Modulus (GPa) = 31.24213 37.87211 34.55712
#
# Velocity S-wave (km/s) = 3.62489 3.99102 3.81235
# Velocity P-wave (km/s) = 5.57250 6.30722 5.95121
#
# Compressibility (1/GPa) = 0.03107821
#
# Stress axis : x y z
#
# Youngs Moduli (GPa) = 96.08174 34.86751 77.57291
#
# Poissons Ratio (x) = 0.15364 0.18292
# Poissons Ratio (y) = 0.42337 0.28593
# Poissons Ratio (z) = 0.22656 0.12852
#
# Static dielectric constant tensor:
#      x y z
#    x 4.224620 0.000000 -0.212520 
#    y 0.000000 3.948900 0.000000 
#    z -0.212520 0.000000 4.026250 
# 
# 
# High freq. dielectric constant tensor:
#      x y z
#    x 1.948150 0.000000 -0.009710 
#    y 0.000000 1.922770 0.000000 
#    z -0.009710 0.000000 1.938840 
# 
# From -- ./inp_files/68605.got.cif
#   From: 2010.03.12/outbox.cif.g09.slc.cpg/sg5_35_cif.got.tgz:68605.got - 2010.03.31 09:47:26.
