data_PCOD8051554
_publ_section_title
;
Structure prediction by ZEFSAII (Michael W. Deem and Ramdas Pophale) SiO2 
 PCOD8051554
Probable space group: C 2
;
_chemical_formula_sum "Si O2"
_cell_formula_units_Z 26
_cell_length_a 9.234548
_cell_length_b 14.227837
_cell_length_c 16.741698
_cell_angle_alpha 90.000000
_cell_angle_beta 145.101356
_cell_angle_gamma 90.000000
_cell_volume 1258.479263
_symmetry_space_group_name_H-M "C 2"
_symmetry_group_IT_number 5
_symmetry_cell_setting 'monoclinic'
loop_
_space_group_symop_operation_xyz
x,y,z
-x,y,-z
1/2+x,1/2+y,z
1/2-x,1/2+y,-z
loop_
_atom_site_type_symbol
_atom_site_label
_atom_site_fract_x
_atom_site_fract_y
_atom_site_fract_z
Si Si1 0.782459 0.881330 0.963061
Si Si2 0.048026 0.047830 0.723936
Si Si3 0.617165 0.173652 0.724545
Si Si4 0.166831 0.169665 0.923981
Si Si5 0.959258 0.565432 0.795154
Si Si6 0.500000 0.119864 0.500000
Si Si7 0.298884 0.355699 0.145767
O O1 0.667026 0.778044 0.894809
O O2 0.565099 0.960470 0.859422
O O3 0.910721 0.878032 0.108758
O O4 0.000000 0.908121 0.000000
O O5 0.192843 0.107681 0.856680
O O6 0.166743 0.076598 0.691639
O O7 0.746129 0.055648 0.595853
O O8 0.135245 0.941415 0.768572
O O9 0.474239 0.089930 0.707690
O O10 0.524696 0.183518 0.590616
O O11 0.566011 0.268768 0.749842
O O12 0.911268 0.147129 0.855934
O O13 0.385374 0.144176 0.085028
O O14 0.000000 0.336804 0.000000
#
# Coordination Sequence:
#
# PCOD8051554 Si02
#       7
#     4   4   4   4   4   2   4
#     4  12  23  33  59 109 136 156 197 253 354 397
#     4  11  23  42  64  90 134 170 214 262 312 397
#     4  11  23  42  66  90 134 172 216 262 309 394
#     4  11  20  37  61  99 136 161 198 269 342 381
#     4  12  21  36  66  99 128 161 211 276 332 374
#     4  10  28  48  60  84 128 192 226 248 308 372
#     4  12  20  41  70 102 128 160 205 277 343 373
#
# _framework density 20.659855
#
# number of rings (size 3 to 8) (size 9 to 14) (size 15 to 20)
#    0.000    0.615    6.154    2.769    2.154    0.615 
#    0.000    6.154    0.000    0.000    0.000    0.000 
#    0.000    0.000    0.000    0.000    0.000    0.000 
#
# Total GULP energy -161151.112628 kJ/mol
# GULP energy per Si atom -12396.239433 kJ/mol
# Density = 2.061283 g / cm^3
# Si number density = 20.659855 Si / 1000 Ang^3
#
#
#
# Elastic Constant Matrix: (Units=GPa)
#
#
# Indices 1 2 3 4 5 6 
#
# 1 169.2440 28.3057 44.2369 -0.0004 -11.4602 -0.0008
# 2 28.3057 118.8204 28.5580 -0.0001 -13.5462 -0.0003
# 3 44.2369 28.5580 83.1325 0.0002 -9.4168 -0.0008
# 4 -0.0004 -0.0001 0.0002 13.9011 -0.0004 0.6614
# 5 -11.4602 -13.5462 -9.4168 -0.0004 26.7195 -0.0005
# 6 -0.0008 -0.0003 -0.0008 0.6614 -0.0005 22.8004
#
#
#
# Elastic Compliance Matrix: (Units=1/GPa)
#
#
# Indices 1 2 3 4 5 6 
#
# 1 0.006992 -0.000701 -0.003312 0.000000 0.001476 0.000000
# 2 -0.000701 0.009606 -0.002509 0.000000 0.003685 0.000000
# 3 -0.003312 -0.002509 0.014945 0.000000 0.002574 0.000000
# 4 0.000000 0.000000 0.000000 0.072036 0.000001 -0.002089
# 5 0.001476 0.003685 0.002574 0.000001 0.040834 0.000001
# 6 0.000000 0.000000 0.000000 -0.002089 0.000001 0.043920
#
#
# Mechanical properties :
#
#
# Convention : Reuss Voigt Hill
#
# Bulk Modulus (GPa) = 54.06232 63.71091 58.88661
# Shear Modulus (GPa) = 24.09113 30.69061 27.39087
#
# Velocity S-wave (km/s) = 3.41850 3.85842 3.64511
# Velocity P-wave (km/s) = 6.46577 7.12425 6.80298
#
# Compressibility (1/GPa) = 0.01849717
#
# Stress axis : x y z
#
# Youngs Moduli (GPa) = 143.02829 104.09774 66.91099
#
# Poissons Ratio (x) = 0.07299 0.22163
# Poissons Ratio (y) = 0.10029 0.16791
# Poissons Ratio (z) = 0.47376 0.26123
#
# Static dielectric constant tensor:
#      x y z
#    x 4.164680 0.000000 -0.185470 
#    y 0.000000 3.776260 0.000000 
#    z -0.185470 0.000000 3.494240 
# 
# 
# High freq. dielectric constant tensor:
#      x y z
#    x 1.837050 0.000000 -0.013140 
#    y 0.000000 1.810710 0.000000 
#    z -0.013140 0.000000 1.762370 
# 
# From -- ./inp_files/35811.got.cif
#   From: 2010.03.12/outbox.cif.g09.slc.cpg/sg5_18_cif.got.tgz:35811.got - 2010.03.31 09:47:26.
