data_PCOD8051615
_publ_section_title
;
Structure prediction by ZEFSAII (Michael W. Deem and Ramdas Pophale) SiO2 
 PCOD8051615
Probable space group: C 2
;
_chemical_formula_sum "Si O2"
_cell_formula_units_Z 26
_cell_length_a 11.459729
_cell_length_b 10.004816
_cell_length_c 18.621409
_cell_angle_alpha 90.000000
_cell_angle_beta 139.594404
_cell_angle_gamma 90.000000
_cell_volume 1383.888767
_symmetry_space_group_name_H-M "C 2"
_symmetry_group_IT_number 5
_symmetry_cell_setting 'monoclinic'
loop_
_space_group_symop_operation_xyz
x,y,z
-x,y,-z
1/2+x,1/2+y,z
1/2-x,1/2+y,-z
loop_
_atom_site_type_symbol
_atom_site_label
_atom_site_fract_x
_atom_site_fract_y
_atom_site_fract_z
Si Si1 0.899644 0.174380 0.315163
Si Si2 0.000000 0.342333 0.500000
Si Si3 0.239372 0.077478 0.395803
Si Si4 0.792877 0.429545 0.731594
Si Si5 0.500000 0.303043 0.500000
Si Si6 0.149705 0.334426 0.845479
Si Si7 0.000000 0.991633 0.000000
Si Si8 0.920056 0.165575 0.825957
O O1 0.935667 0.246213 0.406812
O O2 0.838799 0.286564 0.230825
O O3 0.067543 0.085783 0.366689
O O4 0.731576 0.071968 0.242119
O O5 0.838041 0.436023 0.453169
O O6 0.364036 0.202841 0.478165
O O7 0.189316 0.089217 0.287864
O O8 0.612730 0.403377 0.601862
O O9 0.814881 0.303909 0.796995
O O10 0.976300 0.433969 0.769359
O O11 0.115436 0.208815 0.883941
O O12 0.336209 0.404071 0.953642
O O13 0.068764 0.079692 0.097851
#
# Coordination Sequence:
#
# PCOD8051615 Si02
#       8
#     4   2   4   4   2   4   2   4
#     4  11  21  38  56  85 125 152 192 241 288 340
#     4  11  23  32  56  96 107 163 210 212 280 367
#     4   9  20  38  56  83 127 154 192 242 279 342
#     4   9  20  39  56  90 119 151 195 236 281 364
#     4   9  15  36  64  76 125 161 180 232 284 345
#     4   9  23  41  58  88 118 150 194 249 297 334
#     4  12  20  42  70  80 112 158 196 254 298 344
#     4   8  20  42  56  88 114 151 199 237 301 342
#
# _framework density 18.787638000000001
#
# number of rings (size 3 to 8) (size 9 to 14) (size 15 to 20)
#    0.923    1.538    1.538    1.385    2.154    2.462 
#    8.308    0.000    0.000    0.000    0.000    0.000 
#    0.000    0.000    0.000    0.000    0.000    0.000 
#
# Total GULP energy -161066.054766 kJ/mol
# GULP energy per Si atom -12389.696520 kJ/mol
# Density = 1.874488 g / cm^3
# Si number density = 18.787638 Si / 1000 Ang^3
#
#
#
# Elastic Constant Matrix: (Units=GPa)
#
#
# Indices 1 2 3 4 5 6 
#
# 1 64.1805 33.7041 20.8049 0.0000 11.8435 0.0000
# 2 33.7041 71.9351 18.5614 0.0000 15.7927 0.0000
# 3 20.8049 18.5614 64.4209 0.0000 22.0211 0.0000
# 4 0.0000 0.0000 0.0000 24.3390 0.0000 11.3155
# 5 11.8435 15.7927 22.0211 0.0000 23.3272 0.0000
# 6 0.0000 0.0000 0.0000 11.3155 0.0000 30.0282
#
#
#
# Elastic Compliance Matrix: (Units=1/GPa)
#
#
# Indices 1 2 3 4 5 6 
#
# 1 0.021793 -0.008898 -0.004062 0.000000 -0.001206 0.000000
# 2 -0.008898 0.020043 0.000285 0.000000 -0.009321 0.000000
# 3 -0.004062 0.000285 0.023791 0.000000 -0.020589 0.000000
# 4 0.000000 0.000000 0.000000 0.049813 0.000000 -0.018771
# 5 -0.001206 -0.009321 -0.020589 0.000000 0.069227 0.000000
# 6 0.000000 0.000000 0.000000 -0.018771 0.000000 0.040376
#
#
# Mechanical properties :
#
#
# Convention : Reuss Voigt Hill
#
# Bulk Modulus (GPa) = 24.82859 38.51971 31.67415
# Shear Modulus (GPa) = 18.95238 24.03662 21.49450
#
# Velocity S-wave (km/s) = 3.17956 3.58073 3.38609
# Velocity P-wave (km/s) = 5.16948 6.13536 5.67302
#
# Compressibility (1/GPa) = 0.04027616
#
# Stress axis : x y z
#
# Youngs Moduli (GPa) = 45.88607 49.89226 42.03316
#
# Poissons Ratio (x) = 0.44394 0.17075
# Poissons Ratio (y) = 0.40829 -0.01197
# Poissons Ratio (z) = 0.18640 -0.01420
#
# Static dielectric constant tensor:
#      x y z
#    x 3.243080 0.000000 0.176670 
#    y 0.000000 3.392570 0.000000 
#    z 0.176670 0.000000 3.295000 
# 
# 
# High freq. dielectric constant tensor:
#      x y z
#    x 1.715440 0.000000 0.012100 
#    y 0.000000 1.729990 0.000000 
#    z 0.012100 0.000000 1.716250 
# 
# From -- ./inp_files/60242.got.cif
#   From: 2010.03.12/outbox.cif.g09.slc.cpg/sg5_31_cif.got.tgz:60242.got - 2010.03.31 09:47:26.
