data_PCOD8051465
_publ_section_title
;
Structure prediction by ZEFSAII (Michael W. Deem and Ramdas Pophale) SiO2 
 PCOD8051465
Probable space group: C 2
;
_chemical_formula_sum "Si O2"
_cell_formula_units_Z 20
_cell_length_a 11.459598
_cell_length_b 9.011459
_cell_length_c 18.574726
_cell_angle_alpha 90.000000
_cell_angle_beta 154.071321
_cell_angle_gamma 90.000000
_cell_volume 838.723315
_symmetry_space_group_name_H-M "C 2"
_symmetry_group_IT_number 5
_symmetry_cell_setting 'monoclinic'
loop_
_space_group_symop_operation_xyz
x,y,z
-x,y,-z
1/2+x,1/2+y,z
1/2-x,1/2+y,-z
loop_
_atom_site_type_symbol
_atom_site_label
_atom_site_fract_x
_atom_site_fract_y
_atom_site_fract_z
Si Si1 0.338470 0.926460 0.605521
Si Si2 0.992815 0.006910 0.215338
Si Si3 0.000000 0.718526 0.500000
Si Si4 0.342518 0.428009 0.977195
Si Si5 0.000000 0.652455 0.000000
Si Si6 0.695361 0.750796 0.546158
O O1 0.068962 0.831522 0.472430
O O2 0.535604 0.907893 0.782565
O O3 0.453160 0.855825 0.595025
O O4 0.294788 0.099546 0.563904
O O5 0.245281 0.114209 0.345818
O O6 0.773525 0.058751 0.152716
O O7 0.068752 0.844289 0.285599
O O8 0.851591 0.004975 0.059095
O O9 0.500000 0.517814 0.000000
O O10 0.480270 0.263626 0.058555
O O11 0.500000 0.698322 0.500000
#
# Coordination Sequence:
#
# PCOD8051465 Si02
#       6
#     4   4   2   4   2   4
#     4  12  27  46  78 111 152 200 257 306 384 448
#     4  12  26  48  81 107 157 196 258 309 387 436
#     4  12  24  50  82 118 144 206 254 318 370 462
#     4  10  25  46  74 106 157 196 242 315 375 448
#     4  10  26  48  70 110 156 194 244 318 368 454
#     4  12  28  47  74 112 149 198 253 320 370 450
#
# _framework density 23.845766000000001
#
# number of rings (size 3 to 8) (size 9 to 14) (size 15 to 20)
#    0.600    0.000    4.000    2.400    5.600    1.600 
#    1.800    0.000    0.000    0.000    0.000    0.000 
#    0.000    0.000    0.000    0.000    0.000    0.000 
#
# Total GULP energy -123906.179248 kJ/mol
# GULP energy per Si atom -12390.617925 kJ/mol
# Density = 2.379149 g / cm^3
# Si number density = 23.845766 Si / 1000 Ang^3
#
#
#
# Elastic Constant Matrix: (Units=GPa)
#
#
# Indices 1 2 3 4 5 6 
#
# 1 81.9497 58.1399 52.4449 -0.0017 6.0533 0.0041
# 2 58.1399 159.9156 55.3848 0.0083 0.4709 0.0026
# 3 52.4449 55.3848 130.8402 0.0286 -2.2744 0.0137
# 4 -0.0017 0.0083 0.0286 20.1115 -0.0004 0.9820
# 5 6.0533 0.4709 -2.2744 -0.0004 50.1812 0.0036
# 6 0.0041 0.0026 0.0137 0.9820 0.0036 30.0377
#
#
#
# Elastic Compliance Matrix: (Units=1/GPa)
#
#
# Indices 1 2 3 4 5 6 
#
# 1 0.019764 -0.005178 -0.005775 0.000012 -0.002597 0.000000
# 2 -0.005178 0.008686 -0.001593 -0.000002 0.000471 0.000001
# 3 -0.005775 -0.001593 0.010653 -0.000015 0.001194 -0.000004
# 4 0.000012 -0.000002 -0.000015 0.049802 -0.000002 -0.001628
# 5 -0.002597 0.000471 0.001194 -0.000002 0.020291 -0.000003
# 6 0.000000 0.000001 -0.000004 -0.001628 -0.000003 0.033345
#
#
# Mechanical properties :
#
#
# Convention : Reuss Voigt Hill
#
# Bulk Modulus (GPa) = 71.37565 78.29388 74.83476
# Shear Modulus (GPa) = 29.01853 33.84847 31.43350
#
# Velocity S-wave (km/s) = 3.49223 3.77168 3.63464
# Velocity P-wave (km/s) = 6.80133 7.20223 7.00465
#
# Compressibility (1/GPa) = 0.01401038
#
# Stress axis : x y z
#
# Youngs Moduli (GPa) = 50.59760 115.12617 93.86919
#
# Poissons Ratio (x) = 0.59607 0.54214
# Poissons Ratio (y) = 0.26197 0.14957
# Poissons Ratio (z) = 0.29222 0.18344
#
# Static dielectric constant tensor:
#      x y z
#    x 4.384770 0.000000 0.158170 
#    y 0.000000 4.343090 -0.000010 
#    z 0.158170 -0.000010 4.040550 
# 
# 
# High freq. dielectric constant tensor:
#      x y z
#    x 1.949320 0.000000 0.007180 
#    y 0.000000 1.950380 0.000000 
#    z 0.007180 0.000000 1.925880 
# 
# From -- ./inp_files/60332.got.cif
#   From: 2010.03.12/outbox.cif.g09.slc.cpg/sg5_31_cif.got.tgz:60332.got - 2010.03.31 09:47:26.
