data_PCOD8051113
_publ_section_title
;
Structure prediction by ZEFSAII (Michael W. Deem and Ramdas Pophale) SiO2 
 PCOD8051113
Probable space group: C 2
;
_chemical_formula_sum "Si O2"
_cell_formula_units_Z 32
_cell_length_a 16.679521
_cell_length_b 10.708070
_cell_length_c 14.544086
_cell_angle_alpha 90.000000
_cell_angle_beta 146.368142
_cell_angle_gamma 90.000000
_cell_volume 1438.722281
_symmetry_space_group_name_H-M "C 2"
_symmetry_group_IT_number 5
_symmetry_cell_setting 'monoclinic'
loop_
_space_group_symop_operation_xyz
x,y,z
-x,y,-z
1/2+x,1/2+y,z
1/2-x,1/2+y,-z
loop_
_atom_site_type_symbol
_atom_site_label
_atom_site_fract_x
_atom_site_fract_y
_atom_site_fract_z
Si Si1 0.267640 0.799510 0.134663
Si Si2 0.152545 0.974339 0.173449
Si Si3 0.458009 0.957384 0.198927
Si Si4 0.414519 0.100705 0.505224
Si Si5 0.548933 0.376174 0.406687
Si Si6 0.055016 0.773744 0.217748
Si Si7 0.678978 0.010536 0.277947
Si Si8 0.237726 0.029827 0.840670
O O1 0.247278 0.922802 0.178438
O O2 0.391415 0.832956 0.179314
O O3 0.323550 0.670852 0.235315
O O4 0.117539 0.763173 0.943267
O O5 0.108519 0.848398 0.181709
O O6 0.245765 0.065429 0.327414
O O7 0.000000 0.042398 0.000000
O O8 0.579071 0.912479 0.239746
O O9 0.525677 0.047915 0.341625
O O10 0.331907 0.029726 0.023496
O O11 0.500000 0.042734 0.500000
O O12 0.432339 0.249394 0.518251
O O13 0.599560 0.347389 0.351616
O O14 0.652540 0.484303 0.543973
O O15 0.387413 0.427572 0.266361
O O16 0.130174 0.640056 0.278749
O O17 0.658046 0.001325 0.147693
#
# Coordination Sequence:
#
# PCOD8051113 Si02
#       8
#     4   4   4   4   4   4   4   4
#     4  11  22  45  73 105 136 189 249 306 355 436
#     4  10  23  43  77 103 135 186 246 299 360 433
#     4  12  25  44  73 106 138 193 241 306 364 429
#     4  12  24  46  69 101 150 185 234 302 369 438
#     4  12  27  46  69 107 154 194 235 305 381 432
#     4  11  22  44  73 102 142 181 250 309 354 429
#     4  12  25  46  73 105 145 195 243 304 362 438
#     4  12  25  47  74 104 148 195 250 299 371 438
#
# _framework density 22.241955999999998
#
# number of rings (size 3 to 8) (size 9 to 14) (size 15 to 20)
#    0.000    0.500    6.250    2.250    0.000    2.000 
#    2.250    2.500    0.000    0.000    0.000    0.000 
#    0.000    0.000    0.000    0.000    0.000    0.000 
#
# Total GULP energy -198310.650501 kJ/mol
# GULP energy per Si atom -12394.415656 kJ/mol
# Density = 2.219133 g / cm^3
# Si number density = 22.241956 Si / 1000 Ang^3
#
#
#
# Elastic Constant Matrix: (Units=GPa)
#
#
# Indices 1 2 3 4 5 6 
#
# 1 149.6791 39.1709 50.1899 0.0000 -4.9366 0.0000
# 2 39.1709 87.2504 68.5963 0.0000 4.5993 0.0000
# 3 50.1899 68.5963 140.6527 0.0000 4.6346 0.0000
# 4 0.0000 0.0000 0.0000 34.0187 0.0000 4.0028
# 5 -4.9366 4.5993 4.6346 0.0000 33.3245 0.0000
# 6 0.0000 0.0000 0.0000 4.0028 0.0000 36.0369
#
#
#
# Elastic Compliance Matrix: (Units=1/GPa)
#
#
# Indices 1 2 3 4 5 6 
#
# 1 0.007925 -0.002240 -0.001793 0.000000 0.001733 0.000000
# 2 -0.002240 0.019279 -0.008544 0.000000 -0.001804 0.000000
# 3 -0.001793 -0.008544 0.011941 0.000000 -0.000747 0.000000
# 4 0.000000 0.000000 0.000000 0.029785 0.000000 -0.003308
# 5 0.001733 -0.001804 -0.000747 0.000000 0.030618 0.000000
# 6 0.000000 0.000000 0.000000 -0.003308 0.000000 0.028117
#
#
# Mechanical properties :
#
#
# Convention : Reuss Voigt Hill
#
# Bulk Modulus (GPa) = 71.46660 77.05515 74.26088
# Shear Modulus (GPa) = 31.74982 35.31771 33.53377
#
# Velocity S-wave (km/s) = 3.78229 3.98915 3.88710
# Velocity P-wave (km/s) = 7.16069 7.47911 7.32163
#
# Compressibility (1/GPa) = 0.01399255
#
# Stress axis : x y z
#
# Youngs Moduli (GPa) = 126.17608 51.86987 83.74682
#
# Poissons Ratio (x) = 0.11619 0.15013
# Poissons Ratio (y) = 0.28263 0.71550
# Poissons Ratio (z) = 0.22620 0.44316
#
# Static dielectric constant tensor:
#      x y z
#    x 4.317090 0.000000 -0.066770 
#    y 0.000000 3.772920 0.000000 
#    z -0.066770 0.000000 4.081110 
# 
# 
# High freq. dielectric constant tensor:
#      x y z
#    x 1.894690 0.000000 -0.005200 
#    y 0.000000 1.857560 0.000000 
#    z -0.005200 0.000000 1.875310 
# 
# From -- ./inp_files/56041.got.cif
#   From: 2010.03.12/outbox.cif.g09.slc.cpg/sg5_29_cif.got.tgz:56041.got - 2010.03.31 09:47:26.
