data_PCOD8051156
_publ_section_title
;
Structure prediction by ZEFSAII (Michael W. Deem and Ramdas Pophale) SiO2 
 PCOD8051156
Probable space group: C 2
;
_chemical_formula_sum "Si O2"
_cell_formula_units_Z 20
_cell_length_a 12.921588
_cell_length_b 6.793256
_cell_length_c 17.600289
_cell_angle_alpha 90.000000
_cell_angle_beta 147.928532
_cell_angle_gamma 90.000000
_cell_volume 820.330967
_symmetry_space_group_name_H-M "C 2"
_symmetry_group_IT_number 5
_symmetry_cell_setting 'monoclinic'
loop_
_space_group_symop_operation_xyz
x,y,z
-x,y,-z
1/2+x,1/2+y,z
1/2-x,1/2+y,-z
loop_
_atom_site_type_symbol
_atom_site_label
_atom_site_fract_x
_atom_site_fract_y
_atom_site_fract_z
Si Si1 0.803886 0.625000 0.843139
Si Si2 0.499943 0.890993 0.585876
Si Si3 0.369681 0.124091 0.642984
Si Si4 0.968403 0.343412 0.826592
Si Si5 0.388466 0.459202 0.133023
O O1 0.708768 0.787975 0.729500
O O2 0.860385 0.423738 0.834151
O O3 0.652590 0.573506 0.814426
O O4 0.000000 0.720280 0.000000
O O5 0.500000 0.972623 0.500000
O O6 0.338680 0.722289 0.499128
O O7 0.463639 0.075598 0.619226
O O8 0.503846 0.258782 0.779914
O O9 0.355100 0.921293 0.681350
O O10 0.969049 0.104788 0.826483
O O11 0.194758 0.411799 0.965173
#
# Coordination Sequence:
#
# PCOD8051156 Si02
#       5
#     4   4   4   4   4
#     4  10  23  45  71 109 145 186 245 302 358 444
#     4  12  26  48  72 110 150 198 244 304 369 435
#     4  12  26  46  73 106 146 196 248 297 369 444
#     4  11  22  43  77 104 146 189 239 307 364 435
#     4  11  23  45  72 110 144 190 247 301 368 433
#
# _framework density 24.380403999999999
#
# number of rings (size 3 to 8) (size 9 to 14) (size 15 to 20)
#    0.000    0.800    6.000    1.200    0.000    1.600 
#    0.000    1.000    0.000    0.000    0.000    0.000 
#    0.000    0.000    0.000    0.000    0.000    0.000 
#
# Total GULP energy -124033.060460 kJ/mol
# GULP energy per Si atom -12403.306046 kJ/mol
# Density = 2.432491 g / cm^3
# Si number density = 24.380404 Si / 1000 Ang^3
#
#
#
# Elastic Constant Matrix: (Units=GPa)
#
#
# Indices 1 2 3 4 5 6 
#
# 1 89.7856 32.8910 28.0741 0.0000 -13.6937 0.0000
# 2 32.8910 108.8006 40.0654 0.0000 -2.4092 0.0000
# 3 28.0741 40.0654 107.0677 0.0002 -8.3279 0.0001
# 4 0.0000 0.0000 0.0002 35.3206 0.0001 -1.5814
# 5 -13.6937 -2.4092 -8.3279 0.0001 34.5703 0.0000
# 6 0.0000 0.0000 0.0001 -1.5814 0.0000 50.8185
#
#
#
# Elastic Compliance Matrix: (Units=1/GPa)
#
#
# Indices 1 2 3 4 5 6 
#
# 1 0.013687 -0.003302 -0.001987 0.000000 0.004713 0.000000
# 2 -0.003302 0.011458 -0.003528 0.000000 -0.001359 0.000000
# 3 -0.001987 -0.003528 0.011313 0.000000 0.001692 0.000000
# 4 0.000000 0.000000 0.000000 0.028352 0.000000 0.000882
# 5 0.004713 -0.001359 0.001692 0.000000 0.031106 0.000000
# 6 0.000000 0.000000 0.000000 0.000882 0.000000 0.019705
#
#
# Mechanical properties :
#
#
# Convention : Reuss Voigt Hill
#
# Bulk Modulus (GPa) = 53.11940 56.41276 54.76608
# Shear Modulus (GPa) = 35.83486 37.78343 36.80915
#
# Velocity S-wave (km/s) = 3.83799 3.94095 3.88981
# Velocity P-wave (km/s) = 6.44013 6.62548 6.53346
#
# Compressibility (1/GPa) = 0.01882551
#
# Stress axis : x y z
#
# Youngs Moduli (GPa) = 73.06105 87.27356 88.39729
#
# Poissons Ratio (x) = 0.28815 0.17563
# Poissons Ratio (y) = 0.24123 0.31184
# Poissons Ratio (z) = 0.14516 0.30788
#
# Static dielectric constant tensor:
#      x y z
#    x 4.358440 0.000000 -0.081800 
#    y 0.000000 4.297880 0.000000 
#    z -0.081800 0.000000 4.461380 
# 
# 
# High freq. dielectric constant tensor:
#      x y z
#    x 1.967320 0.000000 -0.011790 
#    y 0.000000 1.957380 0.000000 
#    z -0.011790 0.000000 1.977930 
# 
# From -- ./inp_files/65752.got.cif
#   From: 2010.03.12/outbox.cif.g09.slc.cpg/sg5_33_cif.got.tgz:65752.got - 2010.03.31 09:47:26.
