data_PCOD8051121
_publ_section_title
;
Structure prediction by ZEFSAII (Michael W. Deem and Ramdas Pophale) SiO2 
 PCOD8051121
Probable space group: C 2
;
_chemical_formula_sum "Si O2"
_cell_formula_units_Z 30
_cell_length_a 13.506833
_cell_length_b 9.008017
_cell_length_c 11.653593
_cell_angle_alpha 90.000000
_cell_angle_beta 70.826946
_cell_angle_gamma 90.000000
_cell_volume 1339.241066
_symmetry_space_group_name_H-M "C 2"
_symmetry_group_IT_number 5
_symmetry_cell_setting 'monoclinic'
loop_
_space_group_symop_operation_xyz
x,y,z
-x,y,-z
1/2+x,1/2+y,z
1/2-x,1/2+y,-z
loop_
_atom_site_type_symbol
_atom_site_label
_atom_site_fract_x
_atom_site_fract_y
_atom_site_fract_z
Si Si1 0.068631 0.465090 0.343620
Si Si2 0.942333 0.143666 0.706735
Si Si3 0.665834 0.161058 0.484778
Si Si4 0.747908 0.516096 0.894686
Si Si5 0.879238 0.548562 0.270948
Si Si6 0.500000 0.406620 0.500000
Si Si7 0.785372 0.689105 0.098640
Si Si8 0.643951 0.707633 0.756602
O O1 0.034821 0.294728 0.372973
O O2 0.089150 0.532953 0.462122
O O3 0.176612 0.469698 0.235811
O O4 0.990317 0.561915 0.294048
O O5 0.830369 0.146625 0.811667
O O6 0.032433 0.135649 0.768614
O O7 0.950860 0.003303 0.620733
O O8 0.598051 0.312060 0.510796
O O9 0.771714 0.171130 0.373246
O O10 0.700743 0.109474 0.599798
O O11 0.695402 0.358763 0.948578
O O12 0.669621 0.639221 0.871689
O O13 0.807247 0.585139 0.980855
O O14 0.871395 0.655308 0.164110
O O15 0.858075 0.384653 0.232164
#
# Coordination Sequence:
#
# PCOD8051121 Si02
#       8
#     4   4   4   4   4   2   4   4
#     4   9  21  44  63  89 124 169 209 243 316 378
#     4  10  25  40  62  93 126 169 204 254 312 378
#     4  11  23  38  61  95 130 163 206 259 302 373
#     4  10  23  44  66  89 121 162 211 265 305 368
#     4  11  22  39  62  90 125 166 206 250 310 377
#     4  12  24  36  60  94 138 156 206 266 310 356
#     4  11  24  43  65  91 125 161 211 259 315 367
#     4  10  24  40  65  89 122 171 210 250 312 367
#
# _framework density 22.400746999999999
#
# number of rings (size 3 to 8) (size 9 to 14) (size 15 to 20)
#    0.000    1.600    1.333    1.600    9.333    3.200 
#    0.000    5.333    0.000    0.000    0.000    0.000 
#    0.000    0.000    0.000    0.000    0.000    0.000 
#
# Total GULP energy -185971.270010 kJ/mol
# GULP energy per Si atom -12398.084667 kJ/mol
# Density = 2.234976 g / cm^3
# Si number density = 22.400747 Si / 1000 Ang^3
#
#
#
# Elastic Constant Matrix: (Units=GPa)
#
#
# Indices 1 2 3 4 5 6 
#
# 1 64.3170 21.2179 6.7398 0.0000 22.0380 0.0000
# 2 21.2179 129.6508 40.3123 0.0000 31.2994 0.0000
# 3 6.7398 40.3123 71.1680 0.0000 36.3453 0.0000
# 4 0.0000 0.0000 0.0000 38.5409 0.0000 8.3986
# 5 22.0380 31.2994 36.3453 0.0000 45.8093 0.0000
# 6 0.0000 0.0000 0.0000 8.3986 0.0000 25.6466
#
#
#
# Elastic Compliance Matrix: (Units=1/GPa)
#
#
# Indices 1 2 3 4 5 6 
#
# 1 0.020002 -0.001967 0.005796 0.000000 -0.012878 0.000000
# 2 -0.001967 0.009940 -0.004134 0.000000 -0.002565 0.000000
# 3 0.005796 -0.004134 0.026606 0.000000 -0.021073 0.000000
# 4 0.000000 0.000000 0.000000 0.027940 0.000000 -0.009150
# 5 -0.012878 -0.002565 -0.021073 0.000000 0.046497 0.000000
# 6 0.000000 0.000000 0.000000 -0.009150 0.000000 0.041988
#
#
# Mechanical properties :
#
#
# Convention : Reuss Voigt Hill
#
# Bulk Modulus (GPa) = 17.87662 44.63063 31.25362
# Shear Modulus (GPa) = 26.01081 35.12374 30.56727
#
# Velocity S-wave (km/s) = 3.41127 3.96406 3.69801
# Velocity P-wave (km/s) = 4.84906 6.39677 5.67592
#
# Compressibility (1/GPa) = 0.05593900
#
# Stress axis : x y z
#
# Youngs Moduli (GPa) = 49.99519 100.60853 37.58545
#
# Poissons Ratio (x) = 0.19788 -0.21786
# Poissons Ratio (y) = 0.09833 0.15537
# Poissons Ratio (z) = -0.28979 0.41590
#
# Static dielectric constant tensor:
#      x y z
#    x 4.027680 0.000000 0.112710 
#    y 0.000000 4.282910 0.000000 
#    z 0.112710 0.000000 3.905850 
# 
# 
# High freq. dielectric constant tensor:
#      x y z
#    x 1.879570 0.000000 0.008240 
#    y 0.000000 1.891720 0.000000 
#    z 0.008240 0.000000 1.877190 
# 
# From -- ./inp_files/41792.got.cif
#   From: 2010.03.12/outbox.cif.g09.slc.cpg/sg5_21_cif.got.tgz:41792.got - 2010.03.31 09:47:26.
