data_PCOD8051252
_publ_section_title
;
Structure prediction by ZEFSAII (Michael W. Deem and Ramdas Pophale) SiO2 
 PCOD8051252
Probable space group: C 2
;
_chemical_formula_sum "Si O2"
_cell_formula_units_Z 26
_cell_length_a 10.917964
_cell_length_b 13.851799
_cell_length_c 9.075880
_cell_angle_alpha 90.000000
_cell_angle_beta 63.737752
_cell_angle_gamma 90.000000
_cell_volume 1230.896718
_symmetry_space_group_name_H-M "C 2"
_symmetry_group_IT_number 5
_symmetry_cell_setting 'monoclinic'
loop_
_space_group_symop_operation_xyz
x,y,z
-x,y,-z
1/2+x,1/2+y,z
1/2-x,1/2+y,-z
loop_
_atom_site_type_symbol
_atom_site_label
_atom_site_fract_x
_atom_site_fract_y
_atom_site_fract_z
Si Si1 0.452780 0.299680 0.864340
Si Si2 0.365790 0.252078 0.488729
Si Si3 0.232115 0.062722 0.611479
Si Si4 0.917088 0.014208 0.807698
Si Si5 0.500000 0.994823 0.000000
Si Si6 0.803095 0.610500 0.896228
Si Si7 0.732554 0.938393 0.672805
O O1 0.588986 0.295907 0.691611
O O2 0.396003 0.408731 0.893742
O O3 0.336034 0.224932 0.870078
O O4 0.500000 0.268694 0.000000
O O5 0.500000 0.211807 0.500000
O O6 0.258809 0.166049 0.520298
O O7 0.296654 0.332979 0.626508
O O8 0.301374 0.062867 0.735129
O O9 0.301796 0.981382 0.470608
O O10 0.071838 0.044984 0.708567
O O11 0.845139 0.009718 0.686107
O O12 0.843619 0.093399 0.949634
O O13 0.421728 0.061215 0.926189
O O14 0.601318 0.929001 0.849030
#
# Coordination Sequence:
#
# PCOD8051252 Si02
#       7
#     4   4   4   4   2   4   4
#     4  12  23  43  69  96 131 177 226 262 335 403
#     4  12  23  43  69  96 126 182 220 276 333 395
#     4  12  23  40  71  97 133 170 230 271 327 401
#     4  11  24  44  67  99 135 176 218 277 335 395
#     4  10  24  42  66  98 136 174 216 282 336 382
#     4  11  23  41  67 103 132 175 220 277 329 394
#     4  11  23  45  69  93 137 174 221 272 337 398
#
# _framework density 21.122812
#
# number of rings (size 3 to 8) (size 9 to 14) (size 15 to 20)
#    0.000    0.615    5.385    2.769    2.154    0.000 
#    8.308    0.000    3.385    0.000    0.000    0.000 
#    0.000    0.000    0.000    0.000    0.000    0.000 
#
# Total GULP energy -161223.405746 kJ/mol
# GULP energy per Si atom -12401.800442 kJ/mol
# Density = 2.107474 g / cm^3
# Si number density = 21.122812 Si / 1000 Ang^3
#
#
#
# Elastic Constant Matrix: (Units=GPa)
#
#
# Indices 1 2 3 4 5 6 
#
# 1 94.9844 36.3154 61.7689 0.0000 -5.9945 0.0000
# 2 36.3154 108.9319 47.7515 0.0000 -26.4302 0.0000
# 3 61.7689 47.7515 132.3486 0.0000 -12.4538 0.0000
# 4 0.0000 0.0000 0.0000 36.4709 0.0000 -6.6298
# 5 -5.9945 -26.4302 -12.4538 0.0000 43.6053 0.0000
# 6 0.0000 0.0000 0.0000 -6.6298 0.0000 33.2503
#
#
#
# Elastic Compliance Matrix: (Units=1/GPa)
#
#
# Indices 1 2 3 4 5 6 
#
# 1 0.015689 -0.002721 -0.006467 0.000000 -0.001339 0.000000
# 2 -0.002721 0.012915 -0.002763 0.000000 0.006665 0.000000
# 3 -0.006467 -0.002763 0.011642 0.000000 0.000761 0.000000
# 4 0.000000 0.000000 0.000000 0.028450 0.000000 0.005673
# 5 -0.001339 0.006665 0.000761 0.000000 0.027006 0.000000
# 6 0.000000 0.000000 0.000000 0.005673 0.000000 0.031206
#
#
# Mechanical properties :
#
#
# Convention : Reuss Voigt Hill
#
# Bulk Modulus (GPa) = 61.17557 69.77072 65.47315
# Shear Modulus (GPa) = 31.99818 35.36055 33.67936
#
# Velocity S-wave (km/s) = 3.89635 4.09595 3.99739
# Velocity P-wave (km/s) = 7.01903 7.44794 7.23666
#
# Compressibility (1/GPa) = 0.01634639
#
# Stress axis : x y z
#
# Youngs Moduli (GPa) = 63.73881 77.42708 85.89248
#
# Poissons Ratio (x) = 0.21064 0.55544
# Poissons Ratio (y) = 0.17340 0.23732
# Poissons Ratio (z) = 0.41218 0.21393
#
# Static dielectric constant tensor:
#      x y z
#    x 3.804100 0.000000 0.061710 
#    y 0.000000 3.710390 0.000000 
#    z 0.061710 0.000000 4.186110 
# 
# 
# High freq. dielectric constant tensor:
#      x y z
#    x 1.816280 0.000000 0.007520 
#    y 0.000000 1.816810 0.000000 
#    z 0.007520 0.000000 1.852540 
# 
# From -- ./inp_files/20252.got.cif
#   From: 2010.03.12/outbox.cif.g09.slc.cpg/sg5_11_cif.got.tgz:20252.got - 2010.03.31 09:47:26.
