data_PCOD8051179
_publ_section_title
;
Structure prediction by ZEFSAII (Michael W. Deem and Ramdas Pophale) SiO2 
 PCOD8051179
Probable space group: C 2
;
_chemical_formula_sum "Si O2"
_cell_formula_units_Z 30
_cell_length_a 18.492394
_cell_length_b 6.762373
_cell_length_c 22.080760
_cell_angle_alpha 90.000000
_cell_angle_beta 31.598671
_cell_angle_gamma 90.000000
_cell_volume 1446.803358
_symmetry_space_group_name_H-M "C 2"
_symmetry_group_IT_number 5
_symmetry_cell_setting 'monoclinic'
loop_
_space_group_symop_operation_xyz
x,y,z
-x,y,-z
1/2+x,1/2+y,z
1/2-x,1/2+y,-z
loop_
_atom_site_type_symbol
_atom_site_label
_atom_site_fract_x
_atom_site_fract_y
_atom_site_fract_z
Si Si1 0.238610 0.490390 0.706830
Si Si2 0.348384 0.313626 0.748645
Si Si3 0.932427 0.489191 0.432871
Si Si4 0.696769 0.465303 0.902956
Si Si5 0.600493 0.365977 0.840804
Si Si6 0.554365 0.703523 0.254825
Si Si7 0.000000 0.255173 0.500000
Si Si8 0.836654 0.132003 0.315604
O O1 0.275724 0.350522 0.736382
O O2 0.111033 0.634718 0.815348
O O3 0.366585 0.618425 0.592928
O O4 0.195554 0.355818 0.680948
O O5 0.486152 0.186412 0.642570
O O6 0.390149 0.519367 0.747459
O O7 0.239696 0.196801 0.869464
O O8 0.774890 0.547234 0.557622
O O9 0.939690 0.327872 0.373960
O O10 0.008211 0.395872 0.436444
O O11 0.686858 0.391524 0.840712
O O12 0.814662 0.341914 0.853266
O O13 0.556275 0.435845 0.039363
O O14 0.667015 0.493780 0.740317
O O15 0.485444 0.629099 0.241868
#
# Coordination Sequence:
#
# PCOD8051179 Si02
#       8
#     4   4   4   4   4   4   2   4
#     4  12  22  40  69  99 128 175 220 269 333 392
#     4  11  21  43  70  94 127 177 221 261 338 395
#     4  11  24  39  67  97 139 169 221 276 323 401
#     4  10  23  47  70  96 130 174 229 279 325 394
#     4  11  23  45  71  99 131 167 231 286 320 388
#     4  11  26  45  65  98 136 179 217 271 340 399
#     4  12  20  40  68  96 134 168 224 278 318 398
#     4  12  27  42  65 105 137 173 221 274 337 397
#
# _framework density 20.735365999999999
#
# number of rings (size 3 to 8) (size 9 to 14) (size 15 to 20)
#    0.000    0.800    5.333    2.400    1.867    3.200 
#    4.800    0.000    0.000    0.000    0.000    0.000 
#    0.000    0.000    0.000    0.000    0.000    0.000 
#
# Total GULP energy -186062.981023 kJ/mol
# GULP energy per Si atom -12404.198735 kJ/mol
# Density = 2.068817 g / cm^3
# Si number density = 20.735366 Si / 1000 Ang^3
#
#
#
# Elastic Constant Matrix: (Units=GPa)
#
#
# Indices 1 2 3 4 5 6 
#
# 1 63.6675 7.5851 3.9479 0.0126 -12.4172 0.0161
# 2 7.5851 106.8066 34.7856 0.0181 -4.6073 0.0497
# 3 3.9479 34.7856 105.5986 -0.0001 -15.3921 -0.0097
# 4 0.0126 0.0181 -0.0001 22.3769 -0.0051 -3.0718
# 5 -12.4172 -4.6073 -15.3921 -0.0051 25.1238 -0.0026
# 6 0.0161 0.0497 -0.0097 -3.0718 -0.0026 23.5271
#
#
#
# Elastic Compliance Matrix: (Units=1/GPa)
#
#
# Indices 1 2 3 4 5 6 
#
# 1 0.017561 -0.001202 0.001068 -0.000008 0.009113 -0.000009
# 2 -0.001202 0.010571 -0.003559 -0.000011 -0.000836 -0.000025
# 3 0.001068 -0.003559 0.011622 0.000006 0.006995 0.000013
# 4 -0.000008 -0.000011 0.000006 0.045504 0.000007 0.005941
# 5 0.009113 -0.000836 0.006995 0.000007 0.048439 0.000005
# 6 -0.000009 -0.000025 0.000013 0.005941 0.000005 0.043280
#
#
# Mechanical properties :
#
#
# Convention : Reuss Voigt Hill
#
# Bulk Modulus (GPa) = 30.89520 40.96776 35.93148
# Shear Modulus (GPa) = 25.62085 29.52251 27.57168
#
# Velocity S-wave (km/s) = 3.51894 3.77739 3.65045
# Velocity P-wave (km/s) = 5.60738 6.23099 5.92739
#
# Compressibility (1/GPa) = 0.03236749
#
# Stress axis : x y z
#
# Youngs Moduli (GPa) = 56.94473 94.59655 86.04376
#
# Poissons Ratio (x) = 0.11368 -0.09186
# Poissons Ratio (y) = 0.06843 0.30625
# Poissons Ratio (z) = -0.06080 0.33669
#
# Static dielectric constant tensor:
#      x y z
#    x 3.545040 -0.000030 0.004320 
#    y -0.000030 3.953680 0.000020 
#    z 0.004320 0.000020 3.715580 
# 
# 
# High freq. dielectric constant tensor:
#      x y z
#    x 1.797540 0.000000 -0.005800 
#    y 0.000000 1.829820 0.000000 
#    z -0.005800 0.000000 1.808210 
# 
# From -- ./inp_files/69369.got.cif
#   From: 2010.03.12/outbox.cif.g09.slc.cpg/sg5_35_cif.got.tgz:69369.got - 2010.03.31 09:47:26.
