data_PCOD8051655
_publ_section_title
;
Structure prediction by ZEFSAII (Michael W. Deem and Ramdas Pophale) SiO2 
 PCOD8051655
Probable space group: C 2
;
_chemical_formula_sum "Si O2"
_cell_formula_units_Z 28
_cell_length_a 12.724768
_cell_length_b 13.049109
_cell_length_c 8.236383
_cell_angle_alpha 90.000000
_cell_angle_beta 72.944613
_cell_angle_gamma 90.000000
_cell_volume 1307.479852
_symmetry_space_group_name_H-M "C 2"
_symmetry_group_IT_number 5
_symmetry_cell_setting 'monoclinic'
loop_
_space_group_symop_operation_xyz
x,y,z
-x,y,-z
1/2+x,1/2+y,z
1/2-x,1/2+y,-z
loop_
_atom_site_type_symbol
_atom_site_label
_atom_site_fract_x
_atom_site_fract_y
_atom_site_fract_z
Si Si1 0.977757 0.706870 0.827908
Si Si2 0.615411 0.611369 0.030604
Si Si3 0.314986 0.148685 0.481132
Si Si4 0.118463 0.049287 0.388841
Si Si5 0.683954 0.337429 0.298256
Si Si6 0.669169 0.033216 0.214272
Si Si7 0.381083 0.849749 0.978301
O O1 0.915003 0.800503 0.771957
O O2 0.903333 0.605570 0.868704
O O3 0.087733 0.680416 0.681383
O O4 0.000000 0.742900 0.000000
O O5 0.624486 0.550592 0.192800
O O6 0.632836 0.731200 0.061652
O O7 0.500000 0.590743 0.000000
O O8 0.704147 0.564048 0.868250
O O9 0.209455 0.121372 0.424831
O O10 0.277809 0.245185 0.605037
O O11 0.354804 0.056127 0.583541
O O12 0.000000 0.088342 0.500000
O O13 0.140273 0.931116 0.428523
O O14 0.789182 0.378707 0.151907
O O15 0.640581 0.916734 0.175481
O O16 0.500000 0.874324 0.000000
#
# Coordination Sequence:
#
# PCOD8051655 Si02
#       7
#     4   4   4   4   4   4   4
#     4  11  23  43  72  98 131 178 233 287 336 402
#     4  11  23  43  68  97 136 180 222 280 341 406
#     4  11  25  44  71  98 140 175 231 289 336 404
#     4  12  26  43  67 100 139 180 225 281 347 404
#     4  11  24  47  66 100 136 182 227 284 339 400
#     4  11  21  43  68  99 132 176 232 274 345 398
#     4  11  24  41  72  99 138 179 226 283 335 411
#
# _framework density 21.415244999999999
#
# number of rings (size 3 to 8) (size 9 to 14) (size 15 to 20)
#    0.000    0.857    4.286    4.714    4.000    1.714 
#    2.571    1.429    0.000    0.000    0.000    0.000 
#    0.000    0.000    0.000    0.000    0.000    0.000 
#
# Total GULP energy -173655.185356 kJ/mol
# GULP energy per Si atom -12403.941811 kJ/mol
# Density = 2.136650 g / cm^3
# Si number density = 21.415245 Si / 1000 Ang^3
#
#
#
# Elastic Constant Matrix: (Units=GPa)
#
#
# Indices 1 2 3 4 5 6 
#
# 1 154.2171 45.0573 53.0423 0.0000 -9.0227 0.0000
# 2 45.0573 79.5741 20.4864 0.0000 6.6882 0.0000
# 3 53.0423 20.4864 114.1746 0.0000 -1.9150 0.0000
# 4 0.0000 0.0000 0.0000 28.0035 0.0000 1.2467
# 5 -9.0227 6.6882 -1.9150 0.0000 42.8363 0.0000
# 6 0.0000 0.0000 0.0000 1.2467 0.0000 22.2667
#
#
#
# Elastic Compliance Matrix: (Units=1/GPa)
#
#
# Indices 1 2 3 4 5 6 
#
# 1 0.009104 -0.004492 -0.003382 0.000000 0.002468 0.000000
# 2 -0.004492 0.015595 -0.000769 0.000000 -0.003415 0.000000
# 3 -0.003382 -0.000769 0.010466 0.000000 -0.000125 0.000000
# 4 0.000000 0.000000 0.000000 0.035799 0.000000 -0.002004
# 5 0.002468 -0.003415 -0.000125 0.000000 0.024392 0.000000
# 6 0.000000 0.000000 0.000000 -0.002004 0.000000 0.045022
#
#
# Mechanical properties :
#
#
# Convention : Reuss Voigt Hill
#
# Bulk Modulus (GPa) = 55.92966 65.01530 60.47248
# Shear Modulus (GPa) = 30.55769 33.91327 32.23548
#
# Velocity S-wave (km/s) = 3.78155 3.98377 3.88398
# Velocity P-wave (km/s) = 6.72609 7.18233 6.95795
#
# Compressibility (1/GPa) = 0.01787960
#
# Stress axis : x y z
#
# Youngs Moduli (GPa) = 109.83627 64.12178 95.55034
#
# Poissons Ratio (x) = 0.28803 0.32318
# Poissons Ratio (y) = 0.49337 0.07346
# Poissons Ratio (z) = 0.37150 0.04929
#
# Static dielectric constant tensor:
#      x y z
#    x 4.008010 0.000000 -0.093070 
#    y 0.000000 3.843670 0.000000 
#    z -0.093070 0.000000 3.858650 
# 
# 
# High freq. dielectric constant tensor:
#      x y z
#    x 1.853800 0.000000 -0.009630 
#    y 0.000000 1.840170 0.000000 
#    z -0.009630 0.000000 1.837180 
# 
# From -- ./inp_files/20343.got.cif
#   From: 2010.03.12/outbox.cif.g09.slc.cpg/sg5_11_cif.got.tgz:20343.got - 2010.03.31 09:47:26.
