data_PCOD8051445
_publ_section_title
;
Structure prediction by ZEFSAII (Michael W. Deem and Ramdas Pophale) SiO2 
 PCOD8051445
Probable space group: C 2
;
_chemical_formula_sum "Si O2"
_cell_formula_units_Z 32
_cell_length_a 8.936059
_cell_length_b 16.544166
_cell_length_c 10.529292
_cell_angle_alpha 90.000000
_cell_angle_beta 123.726955
_cell_angle_gamma 90.000000
_cell_volume 1294.652229
_symmetry_space_group_name_H-M "C 2"
_symmetry_group_IT_number 5
_symmetry_cell_setting 'monoclinic'
loop_
_space_group_symop_operation_xyz
x,y,z
-x,y,-z
1/2+x,1/2+y,z
1/2-x,1/2+y,-z
loop_
_atom_site_type_symbol
_atom_site_label
_atom_site_fract_x
_atom_site_fract_y
_atom_site_fract_z
Si Si1 0.904593 0.220020 0.290611
Si Si2 0.254480 0.651940 0.476750
Si Si3 0.330511 0.854602 0.626345
Si Si4 0.838977 0.803505 0.016132
Si Si5 0.690915 0.571466 0.151392
Si Si6 0.412912 0.955930 0.089616
Si Si7 0.704438 0.986741 0.559957
Si Si8 0.107799 0.733068 0.690873
O O1 0.787897 0.186632 0.352151
O O2 0.068824 0.156547 0.348442
O O3 0.015471 0.302359 0.372280
O O4 0.783665 0.233964 0.109368
O O5 0.200103 0.558657 0.452472
O O6 0.094341 0.709751 0.457960
O O7 0.426147 0.926359 0.746807
O O8 0.201615 0.804431 0.657167
O O9 0.216293 0.903960 0.465185
O O10 0.919651 0.763287 0.178893
O O11 0.725261 0.882202 0.997689
O O12 0.000000 0.830413 0.000000
O O13 0.817842 0.534702 0.102479
O O14 0.676309 0.506563 0.259684
O O15 0.773972 0.652109 0.251642
O O16 0.500000 0.591544 0.000000
O O17 0.500000 0.985145 0.000000
O O18 0.500000 0.969823 0.500000
#
# Coordination Sequence:
#
# PCOD8051445 Si02
#       8
#     4   4   4   4   4   4   4   4
#     4  10  25  43  74 109 153 202 259 321 383 455
#     4  11  24  47  72 109 151 199 262 319 384 465
#     4  11  25  46  79 108 152 210 258 322 384 466
#     4  11  23  43  74 112 158 210 259 317 391 467
#     4  12  29  49  79 115 160 208 257 323 402 470
#     4  11  23  47  73 112 157 202 258 321 387 469
#     4  12  25  51  78 104 154 209 255 318 401 458
#     4  12  25  47  77 117 153 206 268 320 387 466
#
# _framework density 24.717063
#
# number of rings (size 3 to 8) (size 9 to 14) (size 15 to 20)
#    0.000    0.750    5.000    1.125    7.000    0.500 
#    4.500    5.000    0.000    0.000    0.000    0.000 
#    0.000    0.000    0.000    0.000    0.000    0.000 
#
# Total GULP energy -198349.158512 kJ/mol
# GULP energy per Si atom -12396.822407 kJ/mol
# Density = 2.466081 g / cm^3
# Si number density = 24.717063 Si / 1000 Ang^3
#
#
#
# Elastic Constant Matrix: (Units=GPa)
#
#
# Indices 1 2 3 4 5 6 
#
# 1 155.8323 54.1447 41.7506 0.0000 -9.3050 0.0000
# 2 54.1447 102.7361 19.7876 0.0000 -13.1844 0.0000
# 3 41.7506 19.7876 83.5188 0.0000 11.0638 0.0000
# 4 0.0000 0.0000 0.0000 26.9395 0.0000 -18.9954
# 5 -9.3050 -13.1844 11.0638 0.0000 48.4926 0.0000
# 6 0.0000 0.0000 0.0000 -18.9954 0.0000 30.6383
#
#
#
# Elastic Compliance Matrix: (Units=1/GPa)
#
#
# Indices 1 2 3 4 5 6 
#
# 1 0.008799 -0.003726 -0.003718 0.000000 0.001524 0.000000
# 2 -0.003726 0.012361 -0.001461 0.000000 0.002979 0.000000
# 3 -0.003718 -0.001461 0.014771 0.000000 -0.004481 0.000000
# 4 0.000000 0.000000 0.000000 0.065952 0.000000 0.040890
# 5 0.001524 0.002979 -0.004481 0.000000 0.022746 0.000000
# 6 0.000000 0.000000 0.000000 0.040890 0.000000 0.057990
#
#
# Mechanical properties :
#
#
# Convention : Reuss Voigt Hill
#
# Bulk Modulus (GPa) = 55.17857 63.71699 59.44778
# Shear Modulus (GPa) = 24.21678 36.30768 30.26223
#
# Velocity S-wave (km/s) = 3.13351 3.83682 3.50286
# Velocity P-wave (km/s) = 5.95520 6.74261 6.36110
#
# Compressibility (1/GPa) = 0.01812298
#
# Stress axis : x y z
#
# Youngs Moduli (GPa) = 113.65457 80.90064 67.69839
#
# Poissons Ratio (x) = 0.30140 0.25167
# Poissons Ratio (y) = 0.42343 0.09890
# Poissons Ratio (z) = 0.42251 0.11818
#
# Static dielectric constant tensor:
#      x y z
#    x 4.654260 0.000000 -0.168470 
#    y 0.000000 4.502130 0.000000 
#    z -0.168470 0.000000 4.923980 
# 
# 
# High freq. dielectric constant tensor:
#      x y z
#    x 1.992840 0.000000 -0.011390 
#    y 0.000000 1.985890 0.000000 
#    z -0.011390 0.000000 1.992060 
# 
# From -- ./inp_files/37019.got.cif
#   From: 2010.03.12/outbox.cif.g09.slc.cpg/sg5_19_cif.got.tgz:37019.got - 2010.03.31 09:47:26.
