data_PCOD8051634
_publ_section_title
;
Structure prediction by ZEFSAII (Michael W. Deem and Ramdas Pophale) SiO2 
 PCOD8051634
Probable space group: C 2
;
_chemical_formula_sum "Si O2"
_cell_formula_units_Z 24
_cell_length_a 15.987516
_cell_length_b 13.399970
_cell_length_c 9.305713
_cell_angle_alpha 90.000000
_cell_angle_beta 35.521391
_cell_angle_gamma 90.000000
_cell_volume 1158.285801
_symmetry_space_group_name_H-M "C 2"
_symmetry_group_IT_number 5
_symmetry_cell_setting 'monoclinic'
loop_
_space_group_symop_operation_xyz
x,y,z
-x,y,-z
1/2+x,1/2+y,z
1/2-x,1/2+y,-z
loop_
_atom_site_type_symbol
_atom_site_label
_atom_site_fract_x
_atom_site_fract_y
_atom_site_fract_z
Si Si1 0.404066 0.855320 0.271568
Si Si2 0.329363 0.369682 0.868584
Si Si3 0.768877 0.164908 0.906841
Si Si4 0.569383 0.991313 0.258125
Si Si5 0.421989 0.655347 0.408890
Si Si6 0.368714 0.433428 0.486392
O O1 0.452383 0.932645 0.326761
O O2 0.422161 0.738917 0.285937
O O3 0.237275 0.871777 0.467251
O O4 0.500000 0.879062 0.000000
O O5 0.333539 0.416814 0.703545
O O6 0.470218 0.393706 0.765264
O O7 0.306856 0.251232 0.894781
O O8 0.189815 0.413087 0.143193
O O9 0.823945 0.201057 0.673907
O O10 0.913274 0.126534 0.783390
O O11 0.648735 0.079018 0.059410
O O12 0.500000 0.035670 0.500000
O O13 0.352567 0.549316 0.462661
#
# Coordination Sequence:
#
# PCOD8051634 Si02
#       6
#     4   4   4   4   4   4
#     4  12  24  44  67 101 139 170 218 282 333 391
#     4  11  21  42  68  94 131 176 222 268 329 399
#     4  11  21  40  70  98 127 177 228 265 325 405
#     4  12  24  42  67 101 132 176 223 271 327 394
#     4  11  21  42  70  94 130 178 219 270 341 388
#     4  11  23  43  66  94 134 174 215 279 334 385
#
# _framework density 20.720274
#
# number of rings (size 3 to 8) (size 9 to 14) (size 15 to 20)
#    0.000    0.667    6.667    2.000    2.333    1.333 
#    3.000    5.000    0.000    0.000    0.000    0.000 
#    0.000    0.000    0.000    0.000    0.000    0.000 
#
# Total GULP energy -148774.013099 kJ/mol
# GULP energy per Si atom -12397.834425 kJ/mol
# Density = 2.067311 g / cm^3
# Si number density = 20.720274 Si / 1000 Ang^3
#
#
#
# Elastic Constant Matrix: (Units=GPa)
#
#
# Indices 1 2 3 4 5 6 
#
# 1 92.8478 22.9118 52.4964 0.0000 -26.2418 0.0000
# 2 22.9118 110.4624 21.7763 0.0000 -6.7103 0.0000
# 3 52.4964 21.7763 71.6828 0.0000 -9.5017 0.0000
# 4 0.0000 0.0000 0.0000 39.3229 0.0000 -5.0203
# 5 -26.2418 -6.7103 -9.5017 0.0000 33.5314 0.0000
# 6 0.0000 0.0000 0.0000 -5.0203 0.0000 27.8738
#
#
#
# Elastic Compliance Matrix: (Units=1/GPa)
#
#
# Indices 1 2 3 4 5 6 
#
# 1 0.023437 -0.001061 -0.015002 0.000000 0.013878 0.000000
# 2 -0.001061 0.009720 -0.002107 0.000000 0.000518 0.000000
# 3 -0.015002 -0.002107 0.024900 0.000000 -0.005106 0.000000
# 4 0.000000 0.000000 0.000000 0.026029 0.000000 0.004688
# 5 0.013878 0.000518 -0.005106 0.000000 0.039341 0.000000
# 6 0.000000 0.000000 0.000000 0.004688 0.000000 0.036720
#
#
# Mechanical properties :
#
#
# Convention : Reuss Voigt Hill
#
# Bulk Modulus (GPa) = 46.04709 52.15131 49.09920
# Shear Modulus (GPa) = 24.54292 31.99952 28.27122
#
# Velocity S-wave (km/s) = 3.44537 3.93410 3.69782
# Velocity P-wave (km/s) = 6.17243 6.77200 6.47916
#
# Compressibility (1/GPa) = 0.02171690
#
# Stress axis : x y z
#
# Youngs Moduli (GPa) = 42.66844 102.88334 40.16048
#
# Poissons Ratio (x) = 0.10913 0.60248
# Poissons Ratio (y) = 0.04526 0.08463
# Poissons Ratio (z) = 0.64010 0.21681
#
# Static dielectric constant tensor:
#      x y z
#    x 3.602370 0.000000 -0.272540 
#    y 0.000000 3.758370 0.000000 
#    z -0.272540 0.000000 3.841090 
# 
# 
# High freq. dielectric constant tensor:
#      x y z
#    x 1.784140 0.000000 -0.019070 
#    y 0.000000 1.820370 0.000000 
#    z -0.019070 0.000000 1.817520 
# 
# From -- ./inp_files/24489.got.cif
#   From: 2010.03.12/outbox.cif.g09.slc.cpg/sg5_13_cif.got.tgz:24489.got - 2010.03.31 09:47:26.
