data_PCOD8051719
_publ_section_title
;
Structure prediction by ZEFSAII (Michael W. Deem and Ramdas Pophale) SiO2 
 PCOD8051719
Probable space group: C 2
;
_chemical_formula_sum "Si O2"
_cell_formula_units_Z 24
_cell_length_a 25.290534
_cell_length_b 6.501255
_cell_length_c 12.414116
_cell_angle_alpha 90.000000
_cell_angle_beta 148.773108
_cell_angle_gamma 90.000000
_cell_volume 1058.180615
_symmetry_space_group_name_H-M "C 2"
_symmetry_group_IT_number 5
_symmetry_cell_setting 'monoclinic'
loop_
_space_group_symop_operation_xyz
x,y,z
-x,y,-z
1/2+x,1/2+y,z
1/2-x,1/2+y,-z
loop_
_atom_site_type_symbol
_atom_site_label
_atom_site_fract_x
_atom_site_fract_y
_atom_site_fract_z
Si Si1 0.054264 0.450300 0.943116
Si Si2 0.500000 0.561874 0.500000
Si Si3 0.826159 0.561568 0.490963
Si Si4 0.382138 0.183921 0.370844
Si Si5 0.000000 0.092144 0.000000
Si Si6 0.085199 0.436854 0.762352
Si Si7 0.329122 0.270111 0.705603
O O1 0.121984 0.436778 0.950774
O O2 0.945312 0.546925 0.725356
O O3 0.035204 0.225728 0.958710
O O4 0.111856 0.589329 0.129975
O O5 0.419315 0.417991 0.422764
O O6 0.570668 0.699797 0.701136
O O7 0.805090 0.670032 0.337928
O O8 0.764710 0.346425 0.383204
O O9 0.778425 0.694672 0.505263
O O10 0.474659 0.037533 0.564609
O O11 0.340126 0.076416 0.185725
O O12 0.904760 0.951862 0.803286
#
# Coordination Sequence:
#
# PCOD8051719 Si02
#       7
#     4   2   4   4   2   4   4
#     4  11  22  42  64  97 130 171 223 273 332 398
#     4   8  14  30  54  96 120 158 210 264 342 374
#     4  11  22  42  64  93 133 171 219 274 325 399
#     4   8  17  33  57  91 124 161 217 267 325 391
#     4  12  22  40  62  94 130 172 226 266 336 392
#     4   8  17  32  59  92 122 162 215 269 322 395
#     4  12  25  42  64  96 134 178 220 276 334 391
#
# _framework density 22.680440000000001
#
# number of rings (size 3 to 8) (size 9 to 14) (size 15 to 20)
#    0.000    2.333    3.333    1.000    2.333    1.333 
#    3.000    0.000    3.667    0.000    0.000    0.000 
#    0.000    0.000    0.000    0.000    0.000    0.000 
#
# Total GULP energy -148670.942296 kJ/mol
# GULP energy per Si atom -12389.245191 kJ/mol
# Density = 2.262882 g / cm^3
# Si number density = 22.680440 Si / 1000 Ang^3
#
#
#
# Elastic Constant Matrix: (Units=GPa)
#
#
# Indices 1 2 3 4 5 6 
#
# 1 156.0426 52.9255 37.6490 0.0000 -44.5066 0.0000
# 2 52.9255 128.2407 21.1376 0.0000 -15.0257 0.0000
# 3 37.6490 21.1376 39.9104 0.0000 -6.2639 0.0000
# 4 0.0000 0.0000 0.0000 18.1615 0.0000 4.2592
# 5 -44.5066 -15.0257 -6.2639 0.0000 27.4938 0.0000
# 6 0.0000 0.0000 0.0000 4.2592 0.0000 23.7369
#
#
#
# Elastic Compliance Matrix: (Units=1/GPa)
#
#
# Indices 1 2 3 4 5 6 
#
# 1 0.016113 -0.002296 -0.010461 0.000000 0.022446 0.000000
# 2 -0.002296 0.009266 -0.002624 0.000000 0.000750 0.000000
# 3 -0.010461 -0.002624 0.034671 0.000000 -0.010470 0.000000
# 4 0.000000 0.000000 0.000000 0.057480 0.000000 -0.010314
# 5 0.022446 0.000750 -0.010470 0.000000 0.070731 0.000000
# 6 0.000000 0.000000 0.000000 -0.010314 0.000000 0.043979
#
#
# Mechanical properties :
#
#
# Convention : Reuss Voigt Hill
#
# Bulk Modulus (GPa) = 34.14397 60.84645 47.49521
# Shear Modulus (GPa) = 18.33077 28.04389 23.18733
#
# Velocity S-wave (km/s) = 2.84600 3.52018 3.20089
# Velocity P-wave (km/s) = 5.08790 6.58849 5.88621
#
# Compressibility (1/GPa) = 0.02928774
#
# Stress axis : x y z
#
# Youngs Moduli (GPa) = 62.06082 107.92559 28.84230
#
# Poissons Ratio (x) = 0.24777 0.30173
# Poissons Ratio (y) = 0.14248 0.07568
# Poissons Ratio (z) = 0.64925 0.28320
#
# Static dielectric constant tensor:
#      x y z
#    x 5.628930 0.000000 -0.612920 
#    y 0.000000 4.148170 0.000000 
#    z -0.612920 0.000000 3.823880 
# 
# 
# High freq. dielectric constant tensor:
#      x y z
#    x 1.906920 0.000000 -0.016100 
#    y 0.000000 1.898070 0.000000 
#    z -0.016100 0.000000 1.860450 
# 
# From -- ./inp_files/58270.got.cif
#   From: 2010.03.12/outbox.cif.g09.slc.cpg/sg5_30_cif.got.tgz:58270.got - 2010.03.31 09:47:26.
