data_PCOD8051112
_publ_section_title
;
Structure prediction by ZEFSAII (Michael W. Deem and Ramdas Pophale) SiO2 
 PCOD8051112
Probable space group: C 2
;
_chemical_formula_sum "Si O2"
_cell_formula_units_Z 16
_cell_length_a 17.688332
_cell_length_b 7.236112
_cell_length_c 5.153502
_cell_angle_alpha 90.000000
_cell_angle_beta 72.888804
_cell_angle_gamma 90.000000
_cell_volume 630.423430
_symmetry_space_group_name_H-M "C 2"
_symmetry_group_IT_number 5
_symmetry_cell_setting 'monoclinic'
loop_
_space_group_symop_operation_xyz
x,y,z
-x,y,-z
1/2+x,1/2+y,z
1/2-x,1/2+y,-z
loop_
_atom_site_type_symbol
_atom_site_label
_atom_site_fract_x
_atom_site_fract_y
_atom_site_fract_z
Si Si1 0.703848 0.546000 0.898368
Si Si2 0.538631 0.073495 0.713425
Si Si3 0.968167 0.981815 0.784450
Si Si4 0.793060 0.450652 0.310889
O O1 0.732456 0.430911 0.615900
O O2 0.684688 0.748941 0.813074
O O3 0.625831 0.452424 0.101957
O O4 0.763507 0.561167 0.083989
O O5 0.500000 0.976815 0.500000
O O6 0.515931 0.288822 0.732970
O O7 0.632867 0.054652 0.634308
O O8 0.500000 0.973491 0.000000
O O9 0.000000 0.092113 0.500000
O O10 0.000000 0.096150 0.000000
#
# Coordination Sequence:
#
# PCOD8051112 Si02
#       4
#     4   4   4   4
#     4  12  28  47  77 118 160 205 261 321 396 467
#     4  10  23  43  76 106 148 200 256 311 390 451
#     4  10  23  43  76 106 148 200 256 311 390 451
#     4  12  28  47  77 118 160 205 261 321 396 467
#
# _framework density 25.379766
#
# number of rings (size 3 to 8) (size 9 to 14) (size 15 to 20)
#    0.000    1.000    0.000    4.500   21.000    1.000 
#    0.000    2.500    0.000    0.000    0.000    0.000 
#    0.000    0.000    0.000    0.000    0.000    0.000 
#
# Total GULP energy -99136.972212 kJ/mol
# GULP energy per Si atom -12392.121526 kJ/mol
# Density = 2.532200 g / cm^3
# Si number density = 25.379766 Si / 1000 Ang^3
#
#
#
# Elastic Constant Matrix: (Units=GPa)
#
#
# Indices 1 2 3 4 5 6 
#
# 1 179.9718 32.6361 81.3393 0.0000 21.7520 0.0000
# 2 32.6361 66.6975 12.9913 0.0000 -5.6785 0.0000
# 3 81.3393 12.9913 247.6593 0.0000 28.5668 0.0000
# 4 0.0000 0.0000 0.0000 20.6970 0.0000 -6.8542
# 5 21.7520 -5.6785 28.5668 0.0000 66.6414 0.0000
# 6 0.0000 0.0000 0.0000 -6.8542 0.0000 60.5085
#
#
#
# Elastic Compliance Matrix: (Units=1/GPa)
#
#
# Indices 1 2 3 4 5 6 
#
# 1 0.007286 -0.003327 -0.002011 0.000000 -0.001800 0.000000
# 2 -0.003327 0.016856 -0.000087 0.000000 0.002559 0.000000
# 3 -0.002011 -0.000087 0.004869 0.000000 -0.001438 0.000000
# 4 0.000000 0.000000 0.000000 0.050199 0.000000 0.005686
# 5 -0.001800 0.002559 -0.001438 0.000000 0.016428 0.000000
# 6 0.000000 0.000000 0.000000 0.005686 0.000000 0.017171
#
#
# Mechanical properties :
#
#
# Convention : Reuss Voigt Hill
#
# Bulk Modulus (GPa) = 55.06116 83.14021 69.10069
# Shear Modulus (GPa) = 38.54729 54.06016 46.30372
#
# Velocity S-wave (km/s) = 3.90143 4.62025 4.27597
# Velocity P-wave (km/s) = 6.48359 7.82891 7.18779
#
# Compressibility (1/GPa) = 0.01816162
#
# Stress axis : x y z
#
# Youngs Moduli (GPa) = 137.24897 59.32714 205.39481
#
# Poissons Ratio (x) = 0.19736 0.41302
# Poissons Ratio (y) = 0.45659 0.01783
# Poissons Ratio (z) = 0.27599 0.00515
#
# Static dielectric constant tensor:
#      x y z
#    x 0.841210 0.000000 -7.989530 
#    y 0.000000 3.972050 0.000000 
#    z -7.989530 0.000000 -13.264990 
# 
# 
# High freq. dielectric constant tensor:
#      x y z
#    x 2.019100 0.000000 0.018460 
#    y 0.000000 1.986310 0.000000 
#    z 0.018460 0.000000 2.048450 
# 
# From -- ./inp_files/7966.got.cif
#   From: 2010.03.12/outbox.cif.g09.slc.cpg/sg5_4_cif.got.tgz:7966.got - 2010.03.31 09:47:26.
