data_PCOD8051094
_publ_section_title
;
Structure prediction by ZEFSAII (Michael W. Deem and Ramdas Pophale) SiO2 
 PCOD8051094
Probable space group: C 2
;
_chemical_formula_sum "Si O2"
_cell_formula_units_Z 20
_cell_length_a 15.486999
_cell_length_b 6.692815
_cell_length_c 8.488299
_cell_angle_alpha 90.000000
_cell_angle_beta 88.942234
_cell_angle_gamma 90.000000
_cell_volume 879.676006
_symmetry_space_group_name_H-M "C 2"
_symmetry_group_IT_number 5
_symmetry_cell_setting 'monoclinic'
loop_
_space_group_symop_operation_xyz
x,y,z
-x,y,-z
1/2+x,1/2+y,z
1/2-x,1/2+y,-z
loop_
_atom_site_type_symbol
_atom_site_label
_atom_site_fract_x
_atom_site_fract_y
_atom_site_fract_z
Si Si1 0.314993 0.867870 0.170881
Si Si2 0.821535 0.141407 0.690571
Si Si3 0.924213 0.128579 0.392428
Si Si4 0.835150 0.548334 0.838034
Si Si5 0.964783 0.886035 0.825787
O O1 0.397664 0.793711 0.265743
O O2 0.248758 0.686916 0.146657
O O3 0.271377 0.049589 0.267192
O O4 0.351033 0.944922 0.004899
O O5 0.844026 0.076664 0.510175
O O6 0.818432 0.381162 0.705981
O O7 0.892953 0.059120 0.810872
O O8 0.000000 0.219191 0.500000
O O9 0.957853 0.928554 0.301252
O O10 0.920353 0.673733 0.789015
O O11 0.000000 0.891604 0.000000
#
# Coordination Sequence:
#
# PCOD8051094 Si02
#       5
#     4   4   4   4   4
#     4  11  23  42  72 101 140 179 237 287 340 416
#     4  10  23  44  66 105 139 181 231 283 354 407
#     4  10  24  45  67  99 148 181 224 286 343 419
#     4  11  23  42  71 104 133 184 234 290 342 404
#     4  10  23  43  68 100 141 181 230 288 339 417
#
# _framework density 22.735645000000002
#
# number of rings (size 3 to 8) (size 9 to 14) (size 15 to 20)
#    0.000    1.600    2.000    1.200    5.600    4.000 
#    0.000   19.000    0.000    0.000    0.000    0.000 
#    0.000    0.000    0.000    0.000    0.000    0.000 
#
# Total GULP energy -124019.697574 kJ/mol
# GULP energy per Si atom -12401.969757 kJ/mol
# Density = 2.268390 g / cm^3
# Si number density = 22.735645 Si / 1000 Ang^3
#
#
#
# Elastic Constant Matrix: (Units=GPa)
#
#
# Indices 1 2 3 4 5 6 
#
# 1 74.4618 54.5907 51.4893 0.0000 -7.0688 0.0000
# 2 54.5907 153.0531 59.7715 0.0000 -11.2292 0.0000
# 3 51.4893 59.7715 128.3090 0.0000 -7.6490 0.0000
# 4 0.0000 0.0000 0.0000 19.4603 0.0000 -7.8412
# 5 -7.0688 -11.2292 -7.6490 0.0000 49.6074 0.0000
# 6 0.0000 0.0000 0.0000 -7.8412 0.0000 40.5489
#
#
#
# Elastic Compliance Matrix: (Units=1/GPa)
#
#
# Indices 1 2 3 4 5 6 
#
# 1 0.021633 -0.005230 -0.006188 0.000000 0.000945 0.000000
# 2 -0.005230 0.009328 -0.002185 0.000000 0.001029 0.000000
# 3 -0.006188 -0.002185 0.011317 0.000000 0.000368 0.000000
# 4 0.000000 0.000000 0.000000 0.055729 0.000000 0.010777
# 5 0.000945 0.001029 0.000368 0.000000 0.020583 0.000000
# 6 0.000000 0.000000 0.000000 0.010777 0.000000 0.026746
#
#
# Mechanical properties :
#
#
# Convention : Reuss Voigt Hill
#
# Bulk Modulus (GPa) = 66.35449 76.39188 71.37319
# Shear Modulus (GPa) = 28.15855 34.58815 31.37335
#
# Velocity S-wave (km/s) = 3.52308 3.90464 3.71876
# Velocity P-wave (km/s) = 6.76742 7.34856 7.06397
#
# Compressibility (1/GPa) = 0.01507057
#
# Stress axis : x y z
#
# Youngs Moduli (GPa) = 46.22600 107.20399 88.36249
#
# Poissons Ratio (x) = 0.56067 0.54683
# Poissons Ratio (y) = 0.24176 0.19310
# Poissons Ratio (z) = 0.28607 0.23427
#
# Static dielectric constant tensor:
#      x y z
#    x 4.120690 0.000000 -0.112440 
#    y 0.000000 4.108680 0.000000 
#    z -0.112440 0.000000 4.172560 
# 
# 
# High freq. dielectric constant tensor:
#      x y z
#    x 1.893110 0.000000 -0.002740 
#    y 0.000000 1.887370 0.000000 
#    z -0.002740 0.000000 1.903640 
# 
# From -- ./inp_files/25989.got.cif
#   From: 2010.03.12/outbox.cif.g09.slc.cpg/sg5_13_cif.got.tgz:25989.got - 2010.03.31 09:47:26.
