data_PCOD8051986
_publ_section_title
;
Structure prediction by ZEFSAII (Michael W. Deem and Ramdas Pophale) SiO2 
 PCOD8051986
Probable space group: C 2
;
_chemical_formula_sum "Si O2"
_cell_formula_units_Z 28
_cell_length_a 15.324348
_cell_length_b 8.041265
_cell_length_c 10.087674
_cell_angle_alpha 90.000000
_cell_angle_beta 66.621869
_cell_angle_gamma 90.000000
_cell_volume 1141.026409
_symmetry_space_group_name_H-M "C 2"
_symmetry_group_IT_number 5
_symmetry_cell_setting 'monoclinic'
loop_
_space_group_symop_operation_xyz
x,y,z
-x,y,-z
1/2+x,1/2+y,z
1/2-x,1/2+y,-z
loop_
_atom_site_type_symbol
_atom_site_label
_atom_site_fract_x
_atom_site_fract_y
_atom_site_fract_z
Si Si1 0.141603 0.744960 0.843734
Si Si2 0.313416 0.898859 0.598027
Si Si3 0.347519 0.754866 0.058555
Si Si4 0.000000 0.474782 0.000000
Si Si5 0.970949 0.877367 0.320241
Si Si6 0.334952 0.426453 0.906558
Si Si7 0.500000 0.084354 0.500000
Si Si8 0.343587 0.654425 0.354274
O O1 0.252117 0.765828 0.726151
O O2 0.082266 0.572202 0.867489
O O3 0.076997 0.867703 0.796319
O O4 0.137982 0.790639 0.999632
O O5 0.330388 0.822197 0.444086
O O6 0.413784 0.963083 0.600676
O O7 0.257129 0.068039 0.608783
O O8 0.258230 0.880029 0.119548
O O9 0.381249 0.700614 0.184853
O O10 0.317495 0.603121 0.984452
O O11 0.437097 0.854991 0.941161
O O12 0.080578 0.928665 0.249929
O O13 0.959869 0.706895 0.409004
O O14 0.912817 0.038780 0.405898
#
# Coordination Sequence:
#
# PCOD8051986 Si02
#       8
#     4   4   4   2   4   4   2   4
#     4  11  24  46  78 102 147 198 243 308 374 444
#     4  11  25  48  75 106 149 193 255 302 371 444
#     4  12  27  45  73 112 150 196 249 308 370 450
#     4  12  26  44  72 110 144 198 246 292 386 436
#     4  11  24  47  78 101 153 192 252 306 380 436
#     4  12  24  48  71 112 146 193 247 315 366 435
#     4  12  28  48  74 112 148 196 250 320 368 440
#     4  11  25  48  76 105 145 206 244 299 373 454
#
# _framework density 24.539307999999998
#
# number of rings (size 3 to 8) (size 9 to 14) (size 15 to 20)
#    0.000    0.571    4.286    4.286    4.000    0.571 
#    7.714    0.000    0.000    0.000    0.000    0.000 
#    0.000    0.000    0.000    0.000    0.000    0.000 
#
# Total GULP energy -173435.647440 kJ/mol
# GULP energy per Si atom -12388.260531 kJ/mol
# Density = 2.448346 g / cm^3
# Si number density = 24.539308 Si / 1000 Ang^3
#
#
#
# Elastic Constant Matrix: (Units=GPa)
#
#
# Indices 1 2 3 4 5 6 
#
# 1 137.2781 47.4841 37.9384 0.0000 -41.5073 0.0000
# 2 47.4841 107.7539 38.8150 0.0000 -18.1676 0.0000
# 3 37.9384 38.8150 74.4488 0.0000 -18.9537 0.0000
# 4 0.0000 0.0000 0.0000 38.3582 0.0000 -11.8829
# 5 -41.5073 -18.1676 -18.9537 0.0000 47.0682 0.0000
# 6 0.0000 0.0000 0.0000 -11.8829 0.0000 62.8306
#
#
#
# Elastic Compliance Matrix: (Units=1/GPa)
#
#
# Indices 1 2 3 4 5 6 
#
# 1 0.011290 -0.002820 -0.002257 0.000000 0.007959 0.000000
# 2 -0.002820 0.012347 -0.004925 0.000000 0.000295 0.000000
# 3 -0.002257 -0.004925 0.018005 0.000000 0.003359 0.000000
# 4 0.000000 0.000000 0.000000 0.027693 0.000000 0.005237
# 5 0.007959 0.000295 0.003359 0.000000 0.029731 0.000000
# 6 0.000000 0.000000 0.000000 0.005237 0.000000 0.016906
#
#
# Mechanical properties :
#
#
# Convention : Reuss Voigt Hill
#
# Bulk Modulus (GPa) = 46.21441 63.10621 54.66031
# Shear Modulus (GPa) = 34.91887 42.66763 38.79325
#
# Velocity S-wave (km/s) = 3.77633 4.17435 3.98032
# Velocity P-wave (km/s) = 6.15532 7.00042 6.59142
#
# Compressibility (1/GPa) = 0.02163827
#
# Stress axis : x y z
#
# Youngs Moduli (GPa) = 88.57252 80.99030 55.54040
#
# Poissons Ratio (x) = 0.22843 0.12533
# Poissons Ratio (y) = 0.24982 0.27353
# Poissons Ratio (z) = 0.19987 0.39887
#
# Static dielectric constant tensor:
#      x y z
#    x 4.507980 0.000000 -0.263700 
#    y 0.000000 4.709080 0.000000 
#    z -0.263700 0.000000 4.203260 
# 
# 
# High freq. dielectric constant tensor:
#      x y z
#    x 1.986100 0.000000 -0.022200 
#    y 0.000000 1.989940 0.000000 
#    z -0.022200 0.000000 1.947820 
# 
# From -- ./inp_files/41656.got.cif
#   From: 2010.03.12/outbox.cif.g09.slc.cpg/sg5_21_cif.got.tgz:41656.got - 2010.03.31 09:47:26.
