data_PCOD8051969
_publ_section_title
;
Structure prediction by ZEFSAII (Michael W. Deem and Ramdas Pophale) SiO2 
 PCOD8051969
Probable space group: C 2
;
_chemical_formula_sum "Si O2"
_cell_formula_units_Z 30
_cell_length_a 13.356115
_cell_length_b 17.284595
_cell_length_c 6.922223
_cell_angle_alpha 90.000000
_cell_angle_beta 116.346951
_cell_angle_gamma 90.000000
_cell_volume 1432.031577
_symmetry_space_group_name_H-M "C 2"
_symmetry_group_IT_number 5
_symmetry_cell_setting 'monoclinic'
loop_
_space_group_symop_operation_xyz
x,y,z
-x,y,-z
1/2+x,1/2+y,z
1/2-x,1/2+y,-z
loop_
_atom_site_type_symbol
_atom_site_label
_atom_site_fract_x
_atom_site_fract_y
_atom_site_fract_z
Si Si1 0.373229 0.087280 0.429381
Si Si2 0.215628 0.423509 0.767412
Si Si3 0.786557 0.160737 0.015072
Si Si4 0.301966 0.324643 0.492169
Si Si5 0.880295 0.313711 0.984328
Si Si6 0.881404 0.680646 0.792789
Si Si7 0.500000 0.419248 0.500000
Si Si8 0.918508 0.014189 0.093950
O O1 0.500000 0.112798 0.500000
O O2 0.356332 0.103529 0.643975
O O3 0.356599 0.997598 0.361622
O O4 0.288865 0.142200 0.237697
O O5 0.236748 0.370650 0.601500
O O6 0.150958 0.378423 0.882963
O O7 0.336350 0.448976 0.943233
O O8 0.710212 0.188852 0.122717
O O9 0.851109 0.083766 0.133475
O O10 0.879512 0.227654 0.072712
O O11 0.207128 0.301962 0.261868
O O12 0.371626 0.254082 0.643180
O O13 0.388872 0.370445 0.434055
O O14 0.000000 0.336336 0.000000
O O15 0.000000 0.676535 0.000000
O O16 0.496864 0.473971 0.313717
O O17 0.000000 0.048101 0.000000
#
# Coordination Sequence:
#
# PCOD8051969 Si02
#       8
#     4   4   4   4   4   4   2   4
#     4  11  25  45  70  99 141 185 234 296 349 415
#     4  11  26  46  68 102 142 183 238 286 353 425
#     4  11  25  47  68 101 140 185 239 288 353 429
#     4  12  27  44  74 106 141 181 242 295 354 423
#     4  12  27  49  72 101 144 191 236 293 355 425
#     4  12  26  43  76 105 141 186 238 296 359 420
#     4  12  26  42  74 106 138 178 232 302 362 412
#     4  11  24  45  70 101 137 182 228 294 357 418
#
# _framework density 20.949256999999999
#
# number of rings (size 3 to 8) (size 9 to 14) (size 15 to 20)
#    0.000    0.533    6.667    0.400    8.400    0.000 
#    2.400    0.000    0.000    0.000    0.000    0.000 
#    0.000    0.000    0.000    0.000    0.000    0.000 
#
# Total GULP energy -185995.677745 kJ/mol
# GULP energy per Si atom -12399.711850 kJ/mol
# Density = 2.090158 g / cm^3
# Si number density = 20.949257 Si / 1000 Ang^3
#
#
#
# Elastic Constant Matrix: (Units=GPa)
#
#
# Indices 1 2 3 4 5 6 
#
# 1 112.7654 24.9347 21.9173 0.0000 -8.4902 0.0000
# 2 24.9347 102.4314 42.8717 0.0000 -2.9971 0.0000
# 3 21.9173 42.8717 97.0777 0.0000 -4.1167 0.0000
# 4 0.0000 0.0000 0.0000 34.5885 0.0000 -5.0032
# 5 -8.4902 -2.9971 -4.1167 0.0000 36.5473 0.0000
# 6 0.0000 0.0000 0.0000 -5.0032 0.0000 31.2351
#
#
#
# Elastic Compliance Matrix: (Units=1/GPa)
#
#
# Indices 1 2 3 4 5 6 
#
# 1 0.009658 -0.001737 -0.001331 0.000000 0.001951 0.000000
# 2 -0.001737 0.012294 -0.005036 0.000000 0.000037 0.000000
# 3 -0.001331 -0.005036 0.012856 0.000000 0.000726 0.000000
# 4 0.000000 0.000000 0.000000 0.029597 0.000000 0.004741
# 5 0.001951 0.000037 0.000726 0.000000 0.027900 0.000000
# 6 0.000000 0.000000 0.000000 0.004741 0.000000 0.032775
#
#
# Mechanical properties :
#
#
# Convention : Reuss Voigt Hill
#
# Bulk Modulus (GPa) = 53.75912 54.63575 54.19743
# Shear Modulus (GPa) = 33.90144 35.31088 34.60616
#
# Velocity S-wave (km/s) = 4.02713 4.10999 4.06877
# Velocity P-wave (km/s) = 6.88048 6.97563 6.92822
#
# Compressibility (1/GPa) = 0.01860150
#
# Stress axis : x y z
#
# Youngs Moduli (GPa) = 103.54576 81.33941 77.78420
#
# Poissons Ratio (x) = 0.14128 0.10350
# Poissons Ratio (y) = 0.17985 0.39169
# Poissons Ratio (z) = 0.13778 0.40960
#
# Static dielectric constant tensor:
#      x y z
#    x 3.563740 0.000000 0.031850 
#    y 0.000000 3.827900 0.000000 
#    z 0.031850 0.000000 3.936550 
# 
# 
# High freq. dielectric constant tensor:
#      x y z
#    x 1.828510 0.000000 -0.004490 
#    y 0.000000 1.827500 0.000000 
#    z -0.004490 0.000000 1.830140 
# 
# From -- ./inp_files/7371.got.cif
#   From: 2010.03.12/outbox.cif.g09.slc.cpg/sg5_4_cif.got.tgz:7371.got - 2010.03.31 09:47:26.
