data_PCOD8051310
_publ_section_title
;
Structure prediction by ZEFSAII (Michael W. Deem and Ramdas Pophale) SiO2 
 PCOD8051310
Probable space group: C 2
;
_chemical_formula_sum "Si O2"
_cell_formula_units_Z 20
_cell_length_a 13.060380
_cell_length_b 12.079709
_cell_length_c 5.140248
_cell_angle_alpha 90.000000
_cell_angle_beta 98.325549
_cell_angle_gamma 90.000000
_cell_volume 802.407870
_symmetry_space_group_name_H-M "C 2"
_symmetry_group_IT_number 5
_symmetry_cell_setting 'monoclinic'
loop_
_space_group_symop_operation_xyz
x,y,z
-x,y,-z
1/2+x,1/2+y,z
1/2-x,1/2+y,-z
loop_
_atom_site_type_symbol
_atom_site_label
_atom_site_fract_x
_atom_site_fract_y
_atom_site_fract_z
Si Si1 0.111032 0.248480 0.629250
Si Si2 0.763245 0.614878 0.364684
Si Si3 0.115759 0.667820 0.113508
Si Si4 0.434046 0.508421 0.227385
Si Si5 0.210276 0.890954 0.139471
O O1 0.094382 0.138264 0.793766
O O2 0.172149 0.341748 0.819109
O O3 0.000000 0.297464 0.500000
O O4 0.180805 0.210950 0.407322
O O5 0.849963 0.598955 0.620539
O O6 0.703408 0.497275 0.329434
O O7 0.811614 0.642859 0.104872
O O8 0.130109 0.796046 0.200587
O O9 0.000000 0.636473 0.000000
O O10 0.500000 0.472998 0.500000
O O11 0.500000 0.478264 0.000000
O O12 0.327957 0.435198 0.160025
#
# Coordination Sequence:
#
# PCOD8051310 Si02
#       5
#     4   4   4   4   4
#     4  10  24  44  69 101 139 181 226 276 334 402
#     4  11  25  45  68 101 141 177 222 283 338 399
#     4  11  26  46  70 100 136 178 228 281 338 401
#     4  11  24  44  69  98 136 180 227 281 337 397
#     4  11  23  43  71 102 135 178 228 279 334 401
#
# _framework density 24.924980999999999
#
# number of rings (size 3 to 8) (size 9 to 14) (size 15 to 20)
#    0.000    1.200    0.000    6.000    0.000   12.800 
#    0.000    1.000    0.000    0.000    0.000    0.000 
#    0.000    0.000    0.000    0.000    0.000    0.000 
#
# Total GULP energy -123938.406195 kJ/mol
# GULP energy per Si atom -12393.840619 kJ/mol
# Density = 2.486825 g / cm^3
# Si number density = 24.924981 Si / 1000 Ang^3
#
#
#
# Elastic Constant Matrix: (Units=GPa)
#
#
# Indices 1 2 3 4 5 6 
#
# 1 94.4007 26.4668 57.6678 0.0000 31.4768 0.0000
# 2 26.4668 93.4463 74.9465 0.0000 16.7622 0.0000
# 3 57.6678 74.9465 201.7174 0.0000 43.0290 0.0000
# 4 0.0000 0.0000 0.0000 41.9169 0.0000 21.9730
# 5 31.4768 16.7622 43.0290 0.0000 64.5822 0.0000
# 6 0.0000 0.0000 0.0000 21.9730 0.0000 32.4511
#
#
#
# Elastic Compliance Matrix: (Units=1/GPa)
#
#
# Indices 1 2 3 4 5 6 
#
# 1 0.014098 -0.001026 -0.002612 0.000000 -0.004865 0.000000
# 2 -0.001026 0.015321 -0.005429 0.000000 0.000141 0.000000
# 3 -0.002612 -0.005429 0.008333 0.000000 -0.002870 0.000000
# 4 0.000000 0.000000 0.000000 0.036984 0.000000 -0.025042
# 5 -0.004865 0.000141 -0.002870 0.000000 0.019731 0.000000
# 6 0.000000 0.000000 0.000000 -0.025042 0.000000 0.047772
#
#
# Mechanical properties :
#
#
# Convention : Reuss Voigt Hill
#
# Bulk Modulus (GPa) = 50.96911 78.63629 64.80270
# Shear Modulus (GPa) = 29.95581 43.15562 36.55571
#
# Velocity S-wave (km/s) = 3.47052 4.16555 3.83381
# Velocity P-wave (km/s) = 6.04588 7.39955 6.75670
#
# Compressibility (1/GPa) = 0.01961973
#
# Stress axis : x y z
#
# Youngs Moduli (GPa) = 70.93044 65.27010 119.99822
#
# Poissons Ratio (x) = 0.06696 0.31338
# Poissons Ratio (y) = 0.07276 0.65148
# Poissons Ratio (z) = 0.18524 0.35436
#
# Static dielectric constant tensor:
#      x y z
#    x 4.531970 0.000000 0.537150 
#    y 0.000000 4.586530 0.000000 
#    z 0.537150 0.000000 4.852120 
# 
# 
# High freq. dielectric constant tensor:
#      x y z
#    x 1.982210 0.000000 0.028850 
#    y 0.000000 1.979700 0.000000 
#    z 0.028850 0.000000 2.011350 
# 
# From -- ./inp_files/8325.got.cif
#   From: 2010.03.12/outbox.cif.g09.slc.cpg/sg5_5_cif.got.tgz:8325.got - 2010.03.31 09:47:26.
