data_PCOD8051147
_publ_section_title
;
Structure prediction by ZEFSAII (Michael W. Deem and Ramdas Pophale) SiO2 
 PCOD8051147
Probable space group: C 2
;
_chemical_formula_sum "Si O2"
_cell_formula_units_Z 22
_cell_length_a 15.858091
_cell_length_b 10.166455
_cell_length_c 14.556336
_cell_angle_alpha 90.000000
_cell_angle_beta 26.737891
_cell_angle_gamma 90.000000
_cell_volume 1055.839447
_symmetry_space_group_name_H-M "C 2"
_symmetry_group_IT_number 5
_symmetry_cell_setting 'monoclinic'
loop_
_space_group_symop_operation_xyz
x,y,z
-x,y,-z
1/2+x,1/2+y,z
1/2-x,1/2+y,-z
loop_
_atom_site_type_symbol
_atom_site_label
_atom_site_fract_x
_atom_site_fract_y
_atom_site_fract_z
Si Si1 0.605055 0.678010 0.241398
Si Si2 0.034930 0.462087 0.572044
Si Si3 0.000000 0.994864 0.500000
Si Si4 0.172573 0.140527 0.638083
Si Si5 0.625351 0.895942 0.789771
Si Si6 0.024617 0.613112 0.204506
O O1 0.498822 0.809495 0.374908
O O2 0.619370 0.584119 0.314585
O O3 0.494000 0.602797 0.268951
O O4 0.817278 0.701052 0.998327
O O5 0.249901 0.508655 0.385800
O O6 0.899652 0.543941 0.773937
O O7 0.000000 0.496486 0.500000
O O8 0.846748 0.908141 0.596255
O O9 0.095284 0.248231 0.783588
O O10 0.345494 0.202129 0.408369
O O11 0.556777 0.998194 0.780757
O O12 0.500000 0.918400 0.000000
#
# Coordination Sequence:
#
# PCOD8051147 Si02
#       6
#     4   4   2   4   4   4
#     4  12  22  44  72  93 139 184 223 280 338 410
#     4  10  23  45  65  97 133 174 224 275 337 398
#     4  12  24  38  74 104 134 182 228 284 342 402
#     4  10  24  44  66  96 141 170 224 286 336 395
#     4  12  24  42  70 105 136 175 233 282 338 414
#     4  10  24  43  67 101 134 176 230 271 348 398
#
# _framework density 20.836500999999998
#
# number of rings (size 3 to 8) (size 9 to 14) (size 15 to 20)
#    1.091    0.000    6.364    0.000    1.273    4.364 
#    0.000    0.000    0.000    0.000    0.000    0.000 
#    0.000    0.000    0.000    0.000    0.000    0.000 
#
# Total GULP energy -136270.437952 kJ/mol
# GULP energy per Si atom -12388.221632 kJ/mol
# Density = 2.078908 g / cm^3
# Si number density = 20.836501 Si / 1000 Ang^3
#
#
#
# Elastic Constant Matrix: (Units=GPa)
#
#
# Indices 1 2 3 4 5 6 
#
# 1 111.8388 19.4942 31.7264 -0.0005 12.3978 0.0000
# 2 19.4942 52.9990 -1.7328 -0.0021 3.4741 0.0014
# 3 31.7264 -1.7328 82.5749 -0.0014 6.4632 0.0015
# 4 -0.0005 -0.0021 -0.0014 27.8428 0.0014 -2.2232
# 5 12.3978 3.4741 6.4632 0.0014 38.0407 -0.0010
# 6 0.0000 0.0014 0.0015 -2.2232 -0.0010 22.4881
#
#
#
# Elastic Compliance Matrix: (Units=1/GPa)
#
#
# Indices 1 2 3 4 5 6 
#
# 1 0.011109 -0.004055 -0.004154 0.000000 -0.002544 0.000000
# 2 -0.004055 0.020486 0.002058 0.000002 -0.000899 -0.000001
# 3 -0.004154 0.002058 0.013842 0.000001 -0.001186 -0.000001
# 4 0.000000 0.000002 0.000001 0.036202 -0.000002 0.003579
# 5 -0.002544 -0.000899 -0.001186 -0.000002 0.027400 0.000001
# 6 0.000000 -0.000001 -0.000001 0.003579 0.000001 0.044822
#
#
# Mechanical properties :
#
#
# Convention : Reuss Voigt Hill
#
# Bulk Modulus (GPa) = 30.17923 38.48759 34.33341
# Shear Modulus (GPa) = 28.21542 30.86930 29.54236
#
# Velocity S-wave (km/s) = 3.68385 3.85320 3.76948
# Velocity P-wave (km/s) = 5.71048 6.18931 5.95471
#
# Compressibility (1/GPa) = 0.03313537
#
# Stress axis : x y z
#
# Youngs Moduli (GPa) = 90.01911 48.81363 72.24234
#
# Poissons Ratio (x) = 0.19794 0.30010
# Poissons Ratio (y) = 0.36504 -0.14870
# Poissons Ratio (z) = 0.37395 -0.10047
#
# Static dielectric constant tensor:
#      x y z
#    x 3.910250 0.000000 0.179340 
#    y 0.000000 3.342590 0.000000 
#    z 0.179340 0.000000 3.824060 
# 
# 
# High freq. dielectric constant tensor:
#      x y z
#    x 1.827370 0.000000 0.015500 
#    y 0.000000 1.787890 0.000000 
#    z 0.015500 0.000000 1.814860 
# 
# From -- ./inp_files/42648.got.cif
#   From: 2010.03.12/outbox.cif.g09.slc.cpg/sg5_22_cif.got.tgz:42648.got - 2010.03.31 09:47:26.
