data_PCOD8051247
_publ_section_title
;
Structure prediction by ZEFSAII (Michael W. Deem and Ramdas Pophale) SiO2 
 PCOD8051247
Probable space group: C 2
;
_chemical_formula_sum "Si O2"
_cell_formula_units_Z 32
_cell_length_a 14.101680
_cell_length_b 11.308401
_cell_length_c 17.178052
_cell_angle_alpha 90.000000
_cell_angle_beta 149.613289
_cell_angle_gamma 90.000000
_cell_volume 1385.650587
_symmetry_space_group_name_H-M "C 2"
_symmetry_group_IT_number 5
_symmetry_cell_setting 'monoclinic'
loop_
_space_group_symop_operation_xyz
x,y,z
-x,y,-z
1/2+x,1/2+y,z
1/2-x,1/2+y,-z
loop_
_atom_site_type_symbol
_atom_site_label
_atom_site_fract_x
_atom_site_fract_y
_atom_site_fract_z
Si Si1 0.703927 0.998360 0.182671
Si Si2 0.784828 0.796093 0.362386
Si Si3 0.051142 0.211838 0.949463
Si Si4 0.746441 0.942748 0.052151
Si Si5 0.877967 0.386013 0.595189
Si Si6 0.109260 0.850321 0.270027
Si Si7 0.071423 0.602331 0.815191
Si Si8 0.861041 0.248988 0.330942
O O1 0.742788 0.915095 0.283441
O O2 0.831680 0.959314 0.199438
O O3 0.746226 0.132149 0.231994
O O4 0.500000 0.981752 0.000000
O O5 0.647228 0.688345 0.236103
O O6 0.742443 0.822534 0.422581
O O7 0.000000 0.757077 0.500000
O O8 0.131412 0.323125 0.959061
O O9 0.215517 0.114897 0.066970
O O10 0.000000 0.248684 0.000000
O O11 0.929725 0.932967 0.127225
O O12 0.604219 0.046923 0.924687
O O13 0.743059 0.413110 0.427387
O O14 0.963483 0.510620 0.683424
O O15 0.041588 0.299086 0.678069
O O16 0.211477 0.842569 0.259211
O O17 0.046966 0.721820 0.260866
O O18 0.000000 0.217772 0.500000
#
# Coordination Sequence:
#
# PCOD8051247 Si02
#       8
#     4   4   4   4   4   4   4   4
#     4  12  21  38  68 103 132 172 229 285 345 399
#     4  12  23  40  70  99 137 176 231 289 340 408
#     4  11  23  44  65 100 139 181 235 285 346 415
#     4  11  21  41  67  98 138 176 226 287 341 411
#     4  11  24  45  67  98 140 182 229 286 350 406
#     4  10  24  43  67  96 136 179 233 286 338 418
#     4  11  25  43  71  98 144 182 227 292 349 413
#     4  10  24  42  64  97 136 177 231 284 339 417
#
# _framework density 23.093847
#
# number of rings (size 3 to 8) (size 9 to 14) (size 15 to 20)
#    0.000    1.000    3.750    2.625    3.500    5.000 
#    0.000    0.000    0.000    0.000    0.000    0.000 
#    0.000    0.000    0.000    0.000    0.000    0.000 
#
# Total GULP energy -198272.912718 kJ/mol
# GULP energy per Si atom -12392.057045 kJ/mol
# Density = 2.304128 g / cm^3
# Si number density = 23.093847 Si / 1000 Ang^3
#
#
#
# Elastic Constant Matrix: (Units=GPa)
#
#
# Indices 1 2 3 4 5 6 
#
# 1 130.8552 7.7764 37.7590 0.0041 12.0874 0.0018
# 2 7.7764 42.1457 21.3439 0.0133 -3.7718 0.0038
# 3 37.7590 21.3439 93.4194 0.0242 15.2260 0.0058
# 4 0.0041 0.0133 0.0242 43.4232 0.0038 3.3394
# 5 12.0874 -3.7718 15.2260 0.0038 39.5865 0.0005
# 6 0.0018 0.0038 0.0058 3.3394 0.0005 23.7133
#
#
#
# Elastic Compliance Matrix: (Units=1/GPa)
#
#
# Indices 1 2 3 4 5 6 
#
# 1 0.008723 -0.000075 -0.003279 0.000001 -0.001409 0.000000
# 2 -0.000075 0.027893 -0.007233 -0.000005 0.005462 -0.000002
# 3 -0.003279 -0.007233 0.014543 -0.000005 -0.005282 -0.000001
# 4 0.000001 -0.000005 -0.000005 0.023281 -0.000001 -0.003279
# 5 -0.001409 0.005462 -0.005282 -0.000001 0.028243 0.000000
# 6 0.000000 -0.000002 -0.000001 -0.003279 0.000000 0.042632
#
#
# Mechanical properties :
#
#
# Convention : Reuss Voigt Hill
#
# Bulk Modulus (GPa) = 33.34960 44.46432 38.90696
# Shear Modulus (GPa) = 28.33122 34.64732 31.48927
#
# Velocity S-wave (km/s) = 3.50635 3.87755 3.69661
# Velocity P-wave (km/s) = 5.55562 6.27238 5.92485
#
# Compressibility (1/GPa) = 0.02998537
#
# Stress axis : x y z
#
# Youngs Moduli (GPa) = 114.64208 35.85153 68.76183
#
# Poissons Ratio (x) = 0.00269 0.22545
# Poissons Ratio (y) = 0.00862 0.49733
# Poissons Ratio (z) = 0.37588 0.25930
#
# Static dielectric constant tensor:
#      x y z
#    x 4.806310 -0.000010 0.235440 
#    y -0.000010 3.860520 -0.000010 
#    z 0.235440 -0.000010 4.417150 
# 
# 
# High freq. dielectric constant tensor:
#      x y z
#    x 1.930280 0.000000 0.013630 
#    y 0.000000 1.885770 0.000000 
#    z 0.013630 0.000000 1.921760 
# 
# From -- ./inp_files/61723.got.cif
#   From: 2010.03.12/outbox.cif.g09.slc.cpg/sg5_31_cif.got.tgz:61723.got - 2010.03.31 09:47:26.
