data_PCOD8051858
_publ_section_title
;
Structure prediction by ZEFSAII (Michael W. Deem and Ramdas Pophale) SiO2 
 PCOD8051858
Probable space group: C 2
;
_chemical_formula_sum "Si O2"
_cell_formula_units_Z 26
_cell_length_a 7.359579
_cell_length_b 23.941742
_cell_length_c 7.770330
_cell_angle_alpha 90.000000
_cell_angle_beta 125.737488
_cell_angle_gamma 90.000000
_cell_volume 1111.333884
_symmetry_space_group_name_H-M "C 2"
_symmetry_group_IT_number 5
_symmetry_cell_setting 'monoclinic'
loop_
_space_group_symop_operation_xyz
x,y,z
-x,y,-z
1/2+x,1/2+y,z
1/2-x,1/2+y,-z
loop_
_atom_site_type_symbol
_atom_site_label
_atom_site_fract_x
_atom_site_fract_y
_atom_site_fract_z
Si Si1 0.072123 0.706220 0.310724
Si Si2 0.007301 0.408338 0.805759
Si Si3 0.170042 0.986633 0.435814
Si Si4 0.143505 0.112235 0.407194
Si Si5 0.500000 0.429849 0.000000
Si Si6 0.627078 0.794219 0.392790
Si Si7 0.657088 0.697722 0.888690
O O1 0.144729 0.653667 0.465871
O O2 0.132152 0.765953 0.431392
O O3 0.195224 0.700265 0.199000
O O4 0.806065 0.702966 0.141998
O O5 0.900715 0.455547 0.620425
O O6 0.855449 0.352927 0.697520
O O7 0.000000 0.428219 0.000000
O O8 0.268108 0.395248 0.899752
O O9 0.043290 0.964542 0.197052
O O10 0.000000 0.981935 0.500000
O O11 0.231230 0.050171 0.418662
O O12 0.000000 0.111976 0.500000
O O13 0.976615 0.138994 0.172104
O O14 0.500000 0.805848 0.500000
O O15 0.503075 0.750856 0.200938
#
# Coordination Sequence:
#
# PCOD8051858 Si02
#       7
#     4   4   4   4   2   4   4
#     4   8  14  28  52  87 127 165 210 270 336 403
#     4  12  26  46  67  99 139 187 237 288 346 414
#     4  11  23  44  68 100 137 182 236 285 350 414
#     4   8  16  30  54  88 128 164 215 277 329 407
#     4  12  26  46  72  96 138 186 230 296 346 406
#     4   9  18  33  57  88 128 169 217 278 332 403
#     4   8  14  27  51  89 121 165 216 261 342 403
#
# _framework density 23.395308
#
# number of rings (size 3 to 8) (size 9 to 14) (size 15 to 20)
#    0.000    2.462    1.538    3.231    0.000    4.923 
#    2.769    0.000    6.769    0.000    0.000    0.000 
#    0.000    0.000    0.000    0.000    0.000    0.000 
#
# Total GULP energy -161057.783918 kJ/mol
# GULP energy per Si atom -12389.060301 kJ/mol
# Density = 2.334206 g / cm^3
# Si number density = 23.395308 Si / 1000 Ang^3
#
#
#
# Elastic Constant Matrix: (Units=GPa)
#
#
# Indices 1 2 3 4 5 6 
#
# 1 58.4425 12.1302 37.1793 0.0000 -3.1040 0.0000
# 2 12.1302 173.4053 81.2372 0.0000 22.2440 0.0000
# 3 37.1793 81.2372 189.5467 0.0000 27.2110 0.0000
# 4 0.0000 0.0000 0.0000 37.3973 0.0000 33.6416
# 5 -3.1040 22.2440 27.2110 0.0000 42.3483 0.0000
# 6 0.0000 0.0000 0.0000 33.6416 0.0000 62.0660
#
#
#
# Elastic Compliance Matrix: (Units=1/GPa)
#
#
# Indices 1 2 3 4 5 6 
#
# 1 0.020292 0.000221 -0.004706 0.000000 0.004395 0.000000
# 2 0.000221 0.007373 -0.002919 0.000000 -0.001981 0.000000
# 3 -0.004706 -0.002919 0.008019 0.000000 -0.003964 0.000000
# 4 0.000000 0.000000 0.000000 0.052185 0.000000 -0.028286
# 5 0.004395 -0.001981 -0.003964 0.000000 0.027524 0.000000
# 6 0.000000 0.000000 0.000000 -0.028286 0.000000 0.031444
#
#
# Mechanical properties :
#
#
# Convention : Reuss Voigt Hill
#
# Bulk Modulus (GPa) = 47.90010 75.83198 61.86604
# Shear Modulus (GPa) = 29.65546 47.75217 38.70381
#
# Velocity S-wave (km/s) = 3.56417 4.52276 4.07177
# Velocity P-wave (km/s) = 6.12017 7.73029 6.97187
#
# Compressibility (1/GPa) = 0.02087678
#
# Stress axis : x y z
#
# Youngs Moduli (GPa) = 49.28004 135.63095 124.70366
#
# Poissons Ratio (x) = -0.03004 0.58687
# Poissons Ratio (y) = -0.01091 0.36401
# Poissons Ratio (z) = 0.23192 0.39591
#
# Static dielectric constant tensor:
#      x y z
#    x 4.056290 0.000000 0.133980 
#    y 0.000000 4.244490 0.000000 
#    z 0.133980 0.000000 2.662000 
# 
# 
# High freq. dielectric constant tensor:
#      x y z
#    x 1.925840 0.000000 -0.003220 
#    y 0.000000 1.906800 0.000000 
#    z -0.003220 0.000000 1.941270 
# 
# From -- ./inp_files/17358.got.cif
#   From: 2010.03.12/outbox.cif.g09.slc.cpg/sg5_9_cif.got.tgz:17358.got - 2010.03.31 09:47:26.
