data_PCOD8051512
_publ_section_title
;
Structure prediction by ZEFSAII (Michael W. Deem and Ramdas Pophale) SiO2 
 PCOD8051512
Probable space group: C 2
;
_chemical_formula_sum "Si O2"
_cell_formula_units_Z 30
_cell_length_a 18.501470
_cell_length_b 7.448964
_cell_length_c 20.682488
_cell_angle_alpha 90.000000
_cell_angle_beta 152.342831
_cell_angle_gamma 90.000000
_cell_volume 1323.096012
_symmetry_space_group_name_H-M "C 2"
_symmetry_group_IT_number 5
_symmetry_cell_setting 'monoclinic'
loop_
_space_group_symop_operation_xyz
x,y,z
-x,y,-z
1/2+x,1/2+y,z
1/2-x,1/2+y,-z
loop_
_atom_site_type_symbol
_atom_site_label
_atom_site_fract_x
_atom_site_fract_y
_atom_site_fract_z
Si Si1 0.278879 0.222610 0.936953
Si Si2 0.369436 0.652140 0.442115
Si Si3 0.652880 0.051752 0.586082
Si Si4 0.375375 0.868152 0.782557
Si Si5 0.078991 0.503293 0.841499
Si Si6 0.638357 0.165464 0.435575
Si Si7 0.000000 0.580811 0.000000
Si Si8 0.539270 0.571516 0.351153
O O1 0.212616 0.423520 0.899118
O O2 0.130644 0.091660 0.813946
O O3 0.366637 0.172679 0.072797
O O4 0.387723 0.204286 0.957928
O O5 0.500000 0.568259 0.500000
O O6 0.232430 0.510463 0.340116
O O7 0.456238 0.678529 0.578377
O O8 0.305918 0.844063 0.365379
O O9 0.500000 0.121331 0.500000
O O10 0.798401 0.171934 0.724694
O O11 0.600237 0.062316 0.470466
O O12 0.525994 0.857310 0.854652
O O13 0.405181 0.945728 0.878104
O O14 0.933593 0.563133 0.682496
O O15 0.570919 0.363138 0.384877
O O16 0.826800 0.167731 0.584591
#
# Coordination Sequence:
#
# PCOD8051512 Si02
#       8
#     4   4   4   4   4   4   2   4
#     4  11  24  45  69 101 138 192 234 293 347 431
#     4  11  22  39  66  98 136 175 221 285 347 412
#     4  11  24  39  65 102 137 174 227 285 347 416
#     4  11  22  46  68 101 136 187 228 293 343 426
#     4  11  24  45  69  99 141 180 242 287 356 415
#     4  12  23  40  68 106 133 179 227 290 347 419
#     4  10  26  44  76  92 144 194 236 282 374 410
#     4  12  23  39  70  99 137 178 223 286 348 407
#
# _framework density 22.674091000000001
#
# number of rings (size 3 to 8) (size 9 to 14) (size 15 to 20)
#    0.000    0.800    2.667    5.200    1.867    1.067 
#    4.800    0.667    0.000    0.000    0.000    0.000 
#    0.000    0.000    0.000    0.000    0.000    0.000 
#
# Total GULP energy -185899.662043 kJ/mol
# GULP energy per Si atom -12393.310803 kJ/mol
# Density = 2.262248 g / cm^3
# Si number density = 22.674091 Si / 1000 Ang^3
#
#
#
# Elastic Constant Matrix: (Units=GPa)
#
#
# Indices 1 2 3 4 5 6 
#
# 1 150.4917 15.1370 32.8233 0.0000 3.1223 0.0000
# 2 15.1370 65.4970 -3.7768 0.0000 9.3028 0.0000
# 3 32.8233 -3.7768 71.4555 -0.0001 -3.6098 0.0000
# 4 0.0000 0.0000 -0.0001 27.5720 0.0001 4.2260
# 5 3.1223 9.3028 -3.6098 0.0001 39.1983 0.0000
# 6 0.0000 0.0000 0.0000 4.2260 0.0000 30.0347
#
#
#
# Elastic Compliance Matrix: (Units=1/GPa)
#
#
# Indices 1 2 3 4 5 6 
#
# 1 0.007639 -0.001905 -0.003635 0.000000 -0.000491 0.000000
# 2 -0.001905 0.016306 0.001557 0.000000 -0.003575 0.000000
# 3 -0.003635 0.001557 0.015816 0.000000 0.001377 0.000000
# 4 0.000000 0.000000 0.000000 0.037068 0.000000 -0.005216
# 5 -0.000491 -0.003575 0.001377 0.000000 0.026526 0.000000
# 6 0.000000 0.000000 0.000000 -0.005216 0.000000 0.034029
#
#
# Mechanical properties :
#
#
# Convention : Reuss Voigt Hill
#
# Bulk Modulus (GPa) = 31.45239 41.75681 36.60460
# Shear Modulus (GPa) = 32.06177 35.57838 33.82008
#
# Velocity S-wave (km/s) = 3.76443 3.96551 3.86628
# Velocity P-wave (km/s) = 5.72680 6.27878 6.00913
#
# Compressibility (1/GPa) = 0.03179409
#
# Stress axis : x y z
#
# Youngs Moduli (GPa) = 130.89879 61.32823 63.22638
#
# Poissons Ratio (x) = 0.11686 0.22981
# Poissons Ratio (y) = 0.24942 -0.09841
# Poissons Ratio (z) = 0.47578 -0.09546
#
# Static dielectric constant tensor:
#      x y z
#    x 4.321420 0.000000 0.056810 
#    y 0.000000 3.851030 0.000000 
#    z 0.056810 0.000000 4.208830 
# 
# 
# High freq. dielectric constant tensor:
#      x y z
#    x 1.912820 0.000000 -0.002440 
#    y 0.000000 1.883470 0.000000 
#    z -0.002440 0.000000 1.890460 
# 
# From -- ./inp_files/66616.got.cif
#   From: 2010.03.12/outbox.cif.g09.slc.cpg/sg5_34_cif.got.tgz:66616.got - 2010.03.31 09:47:26.
