data_PCOD8051620
_publ_section_title
;
Structure prediction by ZEFSAII (Michael W. Deem and Ramdas Pophale) SiO2 
 PCOD8051620
Probable space group: C 2
;
_chemical_formula_sum "Si O2"
_cell_formula_units_Z 28
_cell_length_a 12.185429
_cell_length_b 12.952726
_cell_length_c 9.587617
_cell_angle_alpha 90.000000
_cell_angle_beta 64.226243
_cell_angle_gamma 90.000000
_cell_volume 1362.715165
_symmetry_space_group_name_H-M "C 2"
_symmetry_group_IT_number 5
_symmetry_cell_setting 'monoclinic'
loop_
_space_group_symop_operation_xyz
x,y,z
-x,y,-z
1/2+x,1/2+y,z
1/2-x,1/2+y,-z
loop_
_atom_site_type_symbol
_atom_site_label
_atom_site_fract_x
_atom_site_fract_y
_atom_site_fract_z
Si Si1 0.691286 0.135380 0.684434
Si Si2 0.128893 0.209579 0.189473
Si Si3 0.139715 0.205538 0.659539
Si Si4 0.715530 0.598015 0.888457
Si Si5 0.377160 0.918728 0.164843
Si Si6 0.774121 0.882123 0.011881
Si Si7 0.947393 0.693414 0.883651
O O1 0.761393 0.153865 0.790889
O O2 0.777579 0.178370 0.516877
O O3 0.571139 0.205927 0.726117
O O4 0.643660 0.016564 0.719567
O O5 0.160146 0.331388 0.159437
O O6 0.996586 0.185095 0.323784
O O7 0.128569 0.168754 0.030723
O O8 0.188438 0.125031 0.745148
O O9 0.135924 0.320736 0.724457
O O10 0.680523 0.479142 0.925603
O O11 0.856555 0.615185 0.855048
O O12 0.500000 0.920249 0.000000
O O13 0.262906 0.914561 0.123345
O O14 0.886849 0.803825 0.941010
O O15 0.000000 0.644055 0.000000
#
# Coordination Sequence:
#
# PCOD8051620 Si02
#       7
#     4   4   4   4   4   4   4
#     4  12  26  44  67 100 143 174 216 287 354 393
#     4  11  22  44  67  95 131 183 230 273 324 418
#     4  12  26  44  66 103 140 171 223 294 335 399
#     4  11  22  42  69 100 129 174 238 275 326 402
#     4  12  22  46  76  97 127 196 237 260 334 427
#     4  11  21  38  73  99 123 173 240 274 320 393
#     4  11  21  41  67  98 129 174 225 278 320 409
#
# _framework density 20.547212999999999
#
# number of rings (size 3 to 8) (size 9 to 14) (size 15 to 20)
#    0.000    0.571    8.571    2.143    0.000    2.857 
#    2.571    0.000    0.000    0.000    0.000    0.000 
#    0.000    0.000    0.000    0.000    0.000    0.000 
#
# Total GULP energy -173468.128918 kJ/mol
# GULP energy per Si atom -12390.580637 kJ/mol
# Density = 2.050045 g / cm^3
# Si number density = 20.547213 Si / 1000 Ang^3
#
#
#
# Elastic Constant Matrix: (Units=GPa)
#
#
# Indices 1 2 3 4 5 6 
#
# 1 107.4307 40.4372 27.7302 0.0000 -21.7237 0.0000
# 2 40.4372 103.4338 20.5928 0.0000 -7.4693 0.0000
# 3 27.7302 20.5928 79.6550 0.0000 -27.1446 0.0000
# 4 0.0000 0.0000 0.0000 33.4391 0.0000 3.1535
# 5 -21.7237 -7.4693 -27.1446 0.0000 38.5024 0.0000
# 6 0.0000 0.0000 0.0000 3.1535 0.0000 20.9698
#
#
#
# Elastic Compliance Matrix: (Units=1/GPa)
#
#
# Indices 1 2 3 4 5 6 
#
# 1 0.012274 -0.004139 -0.001470 0.000000 0.005086 0.000000
# 2 -0.004139 0.011589 -0.002086 0.000000 -0.001558 0.000000
# 3 -0.001470 -0.002086 0.017354 0.000000 0.011001 0.000000
# 4 0.000000 0.000000 0.000000 0.030335 0.000000 -0.004562
# 5 0.005086 -0.001558 0.011001 0.000000 0.036296 0.000000
# 6 0.000000 0.000000 0.000000 -0.004562 0.000000 0.048374
#
#
# Mechanical properties :
#
#
# Convention : Reuss Voigt Hill
#
# Bulk Modulus (GPa) = 38.71772 52.00444 45.36108
# Shear Modulus (GPa) = 27.74399 32.03288 29.88843
#
# Velocity S-wave (km/s) = 3.67857 3.95269 3.81809
# Velocity P-wave (km/s) = 6.07673 6.79679 6.44682
#
# Compressibility (1/GPa) = 0.02582797
#
# Stress axis : x y z
#
# Youngs Moduli (GPa) = 81.47340 86.29004 57.62402
#
# Poissons Ratio (x) = 0.35712 0.08469
# Poissons Ratio (y) = 0.33718 0.12020
# Poissons Ratio (z) = 0.11975 0.18000
#
# Static dielectric constant tensor:
#      x y z
#    x 4.014280 0.000000 -0.153630 
#    y 0.000000 3.757710 0.000000 
#    z -0.153630 0.000000 3.546300 
# 
# 
# High freq. dielectric constant tensor:
#      x y z
#    x 1.821540 0.000000 -0.007190 
#    y 0.000000 1.805320 0.000000 
#    z -0.007190 0.000000 1.779100 
# 
# From -- ./inp_files/20538.got.cif
#   From: 2010.03.12/outbox.cif.g09.slc.cpg/sg5_11_cif.got.tgz:20538.got - 2010.03.31 09:47:26.
