data_PCOD8051167
_publ_section_title
;
Structure prediction by ZEFSAII (Michael W. Deem and Ramdas Pophale) SiO2 
 PCOD8051167
Probable space group: C 2
;
_chemical_formula_sum "Si O2"
_cell_formula_units_Z 32
_cell_length_a 27.141803
_cell_length_b 11.705430
_cell_length_c 7.983452
_cell_angle_alpha 90.000000
_cell_angle_beta 35.329536
_cell_angle_gamma 90.000000
_cell_volume 1466.741754
_symmetry_space_group_name_H-M "C 2"
_symmetry_group_IT_number 5
_symmetry_cell_setting 'monoclinic'
loop_
_space_group_symop_operation_xyz
x,y,z
-x,y,-z
1/2+x,1/2+y,z
1/2-x,1/2+y,-z
loop_
_atom_site_type_symbol
_atom_site_label
_atom_site_fract_x
_atom_site_fract_y
_atom_site_fract_z
Si Si1 0.505697 0.588500 0.173161
Si Si2 0.590133 0.726020 0.329218
Si Si3 0.818559 0.636023 0.150602
Si Si4 0.209836 0.882389 0.926664
Si Si5 0.144742 0.471724 0.239551
Si Si6 0.040868 0.856638 0.556551
Si Si7 0.182622 0.099844 0.807947
Si Si8 0.496513 0.128932 0.200658
O O1 0.425777 0.673095 0.440385
O O2 0.508852 0.471614 0.267534
O O3 0.500000 0.552313 0.000000
O O4 0.598971 0.642688 0.941199
O O5 0.500000 0.684502 0.500000
O O6 0.597143 0.861410 0.298200
O O7 0.674121 0.669508 0.008772
O O8 0.790661 0.754374 0.143113
O O9 0.763951 0.627420 0.471045
O O10 0.803518 0.536180 0.053143
O O11 0.915101 0.622592 0.944738
O O12 0.296798 0.923621 0.772376
O O13 0.187468 0.965395 0.834540
O O14 0.139529 0.888889 0.266241
O O15 0.074031 0.556108 0.507336
O O16 0.032781 0.760970 0.722068
O O17 0.000000 0.804350 0.500000
O O18 0.500000 0.084446 0.000000
#
# Coordination Sequence:
#
# PCOD8051167 Si02
#       8
#     4   4   4   4   4   4   4   4
#     4  11  23  40  71 101 135 183 234 293 358 426
#     4  10  23  46  68  95 140 186 229 287 360 430
#     4  12  27  47  74 106 148 190 246 301 366 432
#     4  12  26  44  73 104 143 187 239 305 358 422
#     4  12  28  45  73 100 146 187 242 291 365 429
#     4  12  20  45  72  99 139 180 238 297 359 424
#     4  11  25  43  69 103 144 178 237 297 361 421
#     4  12  25  48  74 103 142 194 245 297 365 438
#
# _framework density 21.817064999999999
#
# number of rings (size 3 to 8) (size 9 to 14) (size 15 to 20)
#    0.000    0.500    5.000    2.625    7.000    1.500 
#    2.250    0.000    0.000    0.000    0.000    0.000 
#    0.000    0.000    0.000    0.000    0.000    0.000 
#
# Total GULP energy -198315.874114 kJ/mol
# GULP energy per Si atom -12394.742132 kJ/mol
# Density = 2.176741 g / cm^3
# Si number density = 21.817065 Si / 1000 Ang^3
#
#
#
# Elastic Constant Matrix: (Units=GPa)
#
#
# Indices 1 2 3 4 5 6 
#
# 1 75.8122 30.0768 35.4722 0.0000 1.1929 0.0000
# 2 30.0768 131.1451 37.7922 0.0000 1.0089 0.0000
# 3 35.4722 37.7922 136.4366 0.0000 0.1929 0.0000
# 4 0.0000 0.0000 0.0000 24.5275 0.0000 -1.8707
# 5 1.1929 1.0089 0.1929 0.0000 33.2717 0.0000
# 6 0.0000 0.0000 0.0000 -1.8707 0.0000 31.8264
#
#
#
# Elastic Compliance Matrix: (Units=1/GPa)
#
#
# Indices 1 2 3 4 5 6 
#
# 1 0.015832 -0.002653 -0.003381 0.000000 -0.000468 0.000000
# 2 -0.002653 0.008733 -0.001729 0.000000 -0.000160 0.000000
# 3 -0.003381 -0.001729 0.008687 0.000000 0.000123 0.000000
# 4 0.000000 0.000000 0.000000 0.040954 0.000000 0.002407
# 5 -0.000468 -0.000160 0.000123 0.000000 0.030076 0.000000
# 6 0.000000 0.000000 0.000000 0.002407 0.000000 0.031562
#
#
# Mechanical properties :
#
#
# Convention : Reuss Voigt Hill
#
# Bulk Modulus (GPa) = 56.41182 61.11962 58.76572
# Shear Modulus (GPa) = 31.79053 33.92863 32.85958
#
# Velocity S-wave (km/s) = 3.82139 3.94781 3.88511
# Velocity P-wave (km/s) = 6.73673 6.98968 6.86437
#
# Compressibility (1/GPa) = 0.01772678
#
# Stress axis : x y z
#
# Youngs Moduli (GPa) = 63.16236 114.50699 115.11325
#
# Poissons Ratio (x) = 0.30381 0.38916
# Poissons Ratio (y) = 0.16758 0.19903
# Poissons Ratio (z) = 0.21353 0.19798
#
# Static dielectric constant tensor:
#      x y z
#    x 3.761220 0.000000 0.079770 
#    y 0.000000 3.927890 0.000000 
#    z 0.079770 0.000000 4.130150 
# 
# 
# High freq. dielectric constant tensor:
#      x y z
#    x 1.847570 0.000000 0.002510 
#    y 0.000000 1.863800 0.000000 
#    z 0.002510 0.000000 1.868320 
# 
# From -- ./inp_files/32624.got.cif
#   From: 2010.03.12/outbox.cif.g09.slc.cpg/sg5_17_cif.got.tgz:32624.got - 2010.03.31 09:47:26.
