data_PCOD8051365
_publ_section_title
;
Structure prediction by ZEFSAII (Michael W. Deem and Ramdas Pophale) SiO2 
 PCOD8051365
Probable space group: C 2
;
_chemical_formula_sum "Si O2"
_cell_formula_units_Z 22
_cell_length_a 11.986548
_cell_length_b 6.962144
_cell_length_c 11.061752
_cell_angle_alpha 90.000000
_cell_angle_beta 79.886216
_cell_angle_gamma 90.000000
_cell_volume 908.781646
_symmetry_space_group_name_H-M "C 2"
_symmetry_group_IT_number 5
_symmetry_cell_setting 'monoclinic'
loop_
_space_group_symop_operation_xyz
x,y,z
-x,y,-z
1/2+x,1/2+y,z
1/2-x,1/2+y,-z
loop_
_atom_site_type_symbol
_atom_site_label
_atom_site_fract_x
_atom_site_fract_y
_atom_site_fract_z
Si Si1 0.384359 0.561360 0.974695
Si Si2 0.798227 0.393277 0.823687
Si Si3 0.000000 0.697327 0.000000
Si Si4 0.181464 0.796931 0.600785
Si Si5 0.458056 0.998739 0.238417
Si Si6 0.598153 0.697071 0.575849
O O1 0.291382 0.531797 0.095728
O O2 0.500000 0.668916 0.000000
O O3 0.329669 0.691127 0.881919
O O4 0.421728 0.340947 0.931874
O O5 0.754990 0.338092 0.702852
O O6 0.907531 0.527028 0.788492
O O7 0.077222 0.567730 0.892204
O O8 0.099711 0.617987 0.642596
O O9 0.272740 0.756962 0.479221
O O10 0.096457 0.967635 0.582618
O O11 0.428448 0.779896 0.283771
O O12 0.500000 0.763600 0.500000
#
# Coordination Sequence:
#
# PCOD8051365 Si02
#       6
#     4   4   2   4   4   4
#     4  10  25  46  69 110 154 198 249 297 375 454
#     4  12  26  44  76 109 151 200 248 314 376 447
#     4  10  24  46  72 112 156 192 244 310 370 456
#     4  12  27  51  74 113 147 198 260 317 372 449
#     4  12  27  48  76 114 152 197 253 309 383 445
#     4  12  28  50  78 109 148 201 260 314 375 446
#
# _framework density 24.208233
#
# number of rings (size 3 to 8) (size 9 to 14) (size 15 to 20)
#    0.545    0.000    5.455    1.091    6.364    2.182 
#    3.273    0.000    0.000    0.000    0.000    0.000 
#    0.000    0.000    0.000    0.000    0.000    0.000 
#
# Total GULP energy -136273.571362 kJ/mol
# GULP energy per Si atom -12388.506487 kJ/mol
# Density = 2.415313 g / cm^3
# Si number density = 24.208233 Si / 1000 Ang^3
#
#
#
# Elastic Constant Matrix: (Units=GPa)
#
#
# Indices 1 2 3 4 5 6 
#
# 1 104.0753 25.5883 20.5549 0.0000 -29.7696 0.0000
# 2 25.5883 67.3285 15.2897 0.0000 -3.6501 0.0000
# 3 20.5549 15.2897 79.2083 0.0000 -13.4686 0.0000
# 4 0.0000 0.0000 0.0000 33.2286 0.0000 0.4246
# 5 -29.7696 -3.6501 -13.4686 0.0000 47.8127 0.0000
# 6 0.0000 0.0000 0.0000 0.4246 0.0000 24.1464
#
#
#
# Elastic Compliance Matrix: (Units=1/GPa)
#
#
# Indices 1 2 3 4 5 6 
#
# 1 0.013035 -0.004257 -0.001298 0.000000 0.007426 0.000000
# 2 -0.004257 0.016929 -0.002515 0.000000 -0.002066 0.000000
# 3 -0.001298 -0.002515 0.013945 0.000000 0.002928 0.000000
# 4 0.000000 0.000000 0.000000 0.030101 0.000000 -0.000529
# 5 0.007426 -0.002066 0.002928 0.000000 0.026205 0.000000
# 6 0.000000 0.000000 0.000000 -0.000529 0.000000 0.041423
#
#
# Mechanical properties :
#
#
# Convention : Reuss Voigt Hill
#
# Bulk Modulus (GPa) = 36.00957 41.49755 38.75356
# Shear Modulus (GPa) = 29.93362 33.64947 31.79155
#
# Velocity S-wave (km/s) = 3.52021 3.73232 3.62782
# Velocity P-wave (km/s) = 5.60622 5.97936 5.79579
#
# Compressibility (1/GPa) = 0.02777039
#
# Stress axis : x y z
#
# Youngs Moduli (GPa) = 76.71401 59.06904 71.70959
#
# Poissons Ratio (x) = 0.25144 0.09311
# Poissons Ratio (y) = 0.32655 0.18032
# Poissons Ratio (z) = 0.09961 0.14854
#
# Static dielectric constant tensor:
#      x y z
#    x 4.770840 0.000000 -0.489390 
#    y 0.000000 4.656800 0.000000 
#    z -0.489390 0.000000 4.381510 
# 
# 
# High freq. dielectric constant tensor:
#      x y z
#    x 1.970450 0.000000 -0.026540 
#    y 0.000000 1.965650 0.000000 
#    z -0.026540 0.000000 1.946660 
# 
# From -- ./inp_files/38366.got.cif
#   From: 2010.03.12/outbox.cif.g09.slc.cpg/sg5_20_cif.got.tgz:38366.got - 2010.03.31 09:47:26.
