data_PCOD8051144
_publ_section_title
;
Structure prediction by ZEFSAII (Michael W. Deem and Ramdas Pophale) SiO2 
 PCOD8051144
Probable space group: C 2
;
_chemical_formula_sum "Si O2"
_cell_formula_units_Z 20
_cell_length_a 25.444952
_cell_length_b 8.693145
_cell_length_c 9.724743
_cell_angle_alpha 90.000000
_cell_angle_beta 154.669905
_cell_angle_gamma 90.000000
_cell_volume 920.302597
_symmetry_space_group_name_H-M "C 2"
_symmetry_group_IT_number 5
_symmetry_cell_setting 'monoclinic'
loop_
_space_group_symop_operation_xyz
x,y,z
-x,y,-z
1/2+x,1/2+y,z
1/2-x,1/2+y,-z
loop_
_atom_site_type_symbol
_atom_site_label
_atom_site_fract_x
_atom_site_fract_y
_atom_site_fract_z
Si Si1 0.146550 0.408810 0.227020
Si Si2 0.540710 0.621078 0.856788
Si Si3 0.207382 0.554638 0.648135
Si Si4 0.531608 0.922895 0.423506
Si Si5 0.387562 0.371296 0.648478
O O1 0.128584 0.476305 0.337319
O O2 0.288979 0.436952 0.524066
O O3 0.107817 0.226676 0.134198
O O4 0.064616 0.495117 0.915982
O O5 0.473846 0.736797 0.591856
O O6 0.437528 0.507521 0.670377
O O7 0.647380 0.527728 0.028570
O O8 0.178401 0.736642 0.593155
O O9 0.167148 0.477085 0.696722
O O10 0.500000 0.985671 0.500000
O O11 0.500000 0.300349 0.000000
#
# Coordination Sequence:
#
# PCOD8051144 Si02
#       5
#     4   4   4   4   4
#     4   9  21  37  64  91 121 154 201 250 301 355
#     4   9  23  39  60  93 121 159 203 244 304 361
#     4  11  21  40  65  90 121 155 208 253 301 354
#     4  10  23  45  60  84 131 167 197 246 300 363
#     4  11  20  36  63  93 123 149 200 261 300 350
#
# _framework density 21.731984000000001
#
# number of rings (size 3 to 8) (size 9 to 14) (size 15 to 20)
#    1.200    0.800    2.000    1.800    2.800    0.000 
#    7.200    1.000    0.000    0.000    0.000    0.000 
#    0.000    0.000    0.000    0.000    0.000    0.000 
#
# Total GULP energy -123921.835261 kJ/mol
# GULP energy per Si atom -12392.183526 kJ/mol
# Density = 2.168252 g / cm^3
# Si number density = 21.731984 Si / 1000 Ang^3
#
#
#
# Elastic Constant Matrix: (Units=GPa)
#
#
# Indices 1 2 3 4 5 6 
#
# 1 177.8343 54.6968 29.0104 0.0000 -2.5874 0.0000
# 2 54.6968 70.9195 9.4432 0.0000 2.7880 0.0000
# 3 29.0104 9.4432 21.5514 0.0000 4.7438 0.0000
# 4 0.0000 0.0000 0.0000 20.2384 0.0000 11.5270
# 5 -2.5874 2.7880 4.7438 0.0000 30.8029 0.0000
# 6 0.0000 0.0000 0.0000 11.5270 0.0000 42.2580
#
#
#
# Elastic Compliance Matrix: (Units=1/GPa)
#
#
# Indices 1 2 3 4 5 6 
#
# 1 0.009140 -0.005777 -0.010409 0.000000 0.002894 0.000000
# 2 -0.005777 0.018629 0.000095 0.000000 -0.002186 0.000000
# 3 -0.010409 0.000095 0.062691 0.000000 -0.010538 0.000000
# 4 0.000000 0.000000 0.000000 0.058500 0.000000 -0.015957
# 5 0.002894 -0.002186 -0.010538 0.000000 0.034528 0.000000
# 6 0.000000 0.000000 0.000000 -0.015957 0.000000 0.028017
#
#
# Mechanical properties :
#
#
# Convention : Reuss Voigt Hill
#
# Bulk Modulus (GPa) = 17.15930 50.73398 33.94664
# Shear Modulus (GPa) = 19.00312 30.47017 24.73665
#
# Velocity S-wave (km/s) = 2.96029 3.74851 3.37747
# Velocity P-wave (km/s) = 4.42690 6.49085 5.55556
#
# Compressibility (1/GPa) = 0.05827744
#
# Stress axis : x y z
#
# Youngs Moduli (GPa) = 109.40530 53.67841 15.95132
#
# Poissons Ratio (x) = 0.31011 0.16604
# Poissons Ratio (y) = 0.63206 -0.00152
# Poissons Ratio (z) = 1.13884 -0.00510
#
# Static dielectric constant tensor:
#      x y z
#    x 3.848480 0.000000 0.308270 
#    y 0.000000 3.608650 0.000000 
#    z 0.308270 0.000000 3.502730 
# 
# 
# High freq. dielectric constant tensor:
#      x y z
#    x 1.862330 0.000000 0.031200 
#    y 0.000000 1.832570 0.000000 
#    z 0.031200 0.000000 1.816090 
# 
# From -- ./inp_files/31592.got.cif
#   From: 2010.03.12/outbox.cif.g09.slc.cpg/sg5_16_cif.got.tgz:31592.got - 2010.03.31 09:47:26.
