data_PCOD8051361
_publ_section_title
;
Structure prediction by ZEFSAII (Michael W. Deem and Ramdas Pophale) SiO2 
 PCOD8051361
Probable space group: C 2
;
_chemical_formula_sum "Si O2"
_cell_formula_units_Z 24
_cell_length_a 9.025764
_cell_length_b 11.242998
_cell_length_c 9.036767
_cell_angle_alpha 90.000000
_cell_angle_beta 85.093032
_cell_angle_gamma 90.000000
_cell_volume 913.659839
_symmetry_space_group_name_H-M "C 2"
_symmetry_group_IT_number 5
_symmetry_cell_setting 'monoclinic'
loop_
_space_group_symop_operation_xyz
x,y,z
-x,y,-z
1/2+x,1/2+y,z
1/2-x,1/2+y,-z
loop_
_atom_site_type_symbol
_atom_site_label
_atom_site_fract_x
_atom_site_fract_y
_atom_site_fract_z
Si Si1 0.337807 0.015590 0.691582
Si Si2 0.714573 0.277265 0.799796
Si Si3 0.468801 0.687323 0.168212
Si Si4 0.968709 0.957877 0.673637
Si Si5 0.338167 0.252869 0.858863
Si Si6 0.659056 0.050093 0.639256
O O1 0.342284 0.112035 0.822716
O O2 0.509979 0.970050 0.669748
O O3 0.297884 0.070672 0.535869
O O4 0.212360 0.910872 0.728620
O O5 0.643891 0.271928 0.968350
O O6 0.628953 0.181424 0.707134
O O7 0.890414 0.255050 0.780532
O O8 0.433423 0.569141 0.270855
O O9 0.331033 0.781772 0.181116
O O10 0.500000 0.640691 0.000000
O O11 0.969906 0.832825 0.769246
O O12 0.000000 0.931120 0.500000
O O13 0.796144 0.991739 0.714002
#
# Coordination Sequence:
#
# PCOD8051361 Si02
#       6
#     4   4   4   4   4   4
#     4  11  25  44  70 102 138 184 227 288 347 408
#     4  10  24  46  71 100 140 181 229 291 341 408
#     4   9  21  45  70  99 131 182 232 282 348 413
#     4  11  24  44  70  99 137 184 230 290 343 409
#     4  11  25  42  70 102 138 178 233 281 350 413
#     4  10  25  46  69 101 136 181 239 276 349 417
#
# _framework density 26.267983000000001
#
# number of rings (size 3 to 8) (size 9 to 14) (size 15 to 20)
#    0.000    1.667    0.000    2.000   11.667    2.000 
#   12.000    0.000    0.000    0.000    0.000    0.000 
#    0.000    0.000    0.000    0.000    0.000    0.000 
#
# Total GULP energy -148789.182664 kJ/mol
# GULP energy per Si atom -12399.098555 kJ/mol
# Density = 2.620820 g / cm^3
# Si number density = 26.267983 Si / 1000 Ang^3
#
#
#
# Elastic Constant Matrix: (Units=GPa)
#
#
# Indices 1 2 3 4 5 6 
#
# 1 91.8793 34.4207 17.9610 0.0000 -16.6955 0.0000
# 2 34.4207 125.1917 72.3942 0.0000 -16.6215 0.0000
# 3 17.9610 72.3942 160.4487 0.0000 -6.1546 0.0000
# 4 0.0000 0.0000 0.0000 38.6253 0.0000 -1.7036
# 5 -16.6955 -16.6215 -6.1546 0.0000 37.8900 0.0000
# 6 0.0000 0.0000 0.0000 -1.7036 0.0000 68.2071
#
#
#
# Elastic Compliance Matrix: (Units=1/GPa)
#
#
# Indices 1 2 3 4 5 6 
#
# 1 0.012773 -0.002985 0.000083 0.000000 0.004332 0.000000
# 2 -0.002985 0.012134 -0.005018 0.000000 0.003193 0.000000
# 3 0.000083 -0.005018 0.008457 0.000000 -0.000791 0.000000
# 4 0.000000 0.000000 0.000000 0.025918 0.000000 0.000647
# 5 0.004332 0.003193 -0.000791 0.000000 0.029573 0.000000
# 6 0.000000 0.000000 0.000000 0.000647 0.000000 0.014677
#
#
# Mechanical properties :
#
#
# Convention : Reuss Voigt Hill
#
# Bulk Modulus (GPa) = 57.06340 69.67459 63.36900
# Shear Modulus (GPa) = 39.93138 45.79406 42.86272
#
# Velocity S-wave (km/s) = 3.90315 4.17986 4.04387
# Velocity P-wave (km/s) = 6.48717 7.06237 6.78088
#
# Compressibility (1/GPa) = 0.01752437
#
# Stress axis : x y z
#
# Youngs Moduli (GPa) = 78.29012 82.41164 118.24307
#
# Poissons Ratio (x) = 0.24597 -0.00982
# Poissons Ratio (y) = 0.23367 0.59339
# Poissons Ratio (z) = -0.00650 0.41357
#
# Static dielectric constant tensor:
#      x y z
#    x 5.869610 0.000000 0.015030 
#    y 0.000000 4.583440 0.000000 
#    z 0.015030 0.000000 4.397730 
# 
# 
# High freq. dielectric constant tensor:
#      x y z
#    x 2.134400 0.000000 -0.002100 
#    y 0.000000 2.040410 0.000000 
#    z -0.002100 0.000000 2.036860 
# 
# From -- ./inp_files/35402.got.cif
#   From: 2010.03.12/outbox.cif.g09.slc.cpg/sg5_18_cif.got.tgz:35402.got - 2010.03.31 09:47:26.
