data_PCOD8051412
_publ_section_title
;
Structure prediction by ZEFSAII (Michael W. Deem and Ramdas Pophale) SiO2 
 PCOD8051412
Probable space group: C 2
;
_chemical_formula_sum "Si O2"
_cell_formula_units_Z 22
_cell_length_a 23.497392
_cell_length_b 6.134755
_cell_length_c 13.585913
_cell_angle_alpha 90.000000
_cell_angle_beta 150.878076
_cell_angle_gamma 90.000000
_cell_volume 953.103389
_symmetry_space_group_name_H-M "C 2"
_symmetry_group_IT_number 5
_symmetry_cell_setting 'monoclinic'
loop_
_space_group_symop_operation_xyz
x,y,z
-x,y,-z
1/2+x,1/2+y,z
1/2-x,1/2+y,-z
loop_
_atom_site_type_symbol
_atom_site_label
_atom_site_fract_x
_atom_site_fract_y
_atom_site_fract_z
Si Si1 0.065360 0.549200 0.804488
Si Si2 0.239626 0.283639 0.788364
Si Si3 0.000000 0.418400 0.500000
Si Si4 0.906042 0.166624 0.013818
Si Si5 0.317862 0.003803 0.729217
Si Si6 0.095921 0.806557 0.301296
O O1 0.052133 0.564007 0.666979
O O2 0.955510 0.676479 0.683913
O O3 0.186380 0.664948 0.015232
O O4 0.067392 0.299725 0.845869
O O5 0.104469 0.272035 0.614636
O O6 0.286120 0.530772 0.846197
O O7 0.248641 0.161129 0.698477
O O8 0.894633 0.332214 0.905887
O O9 0.014150 0.010568 0.151631
O O10 0.404452 0.146881 0.793095
O O11 0.227041 0.880468 0.521694
#
# Coordination Sequence:
#
# PCOD8051412 Si02
#       6
#     4   4   2   4   4   4
#     4  10  25  46  70 106 140 192 238 289 361 421
#     4  10  25  46  70 106 140 192 238 289 361 421
#     4  12  24  44  78 102 148 182 240 302 346 418
#     4  10  24  49  70 100 148 186 237 294 356 426
#     4  11  26  45  71 106 144 187 242 291 359 426
#     4  11  26  45  71 106 144 187 242 291 359 426
#
# _framework density 23.082491999999998
#
# number of rings (size 3 to 8) (size 9 to 14) (size 15 to 20)
#    0.000    1.455    0.000    2.182   10.182    8.000 
#    0.000    7.273    0.000    0.000    0.000    0.000 
#    0.000    0.000    0.000    0.000    0.000    0.000 
#
# Total GULP energy -136467.919113 kJ/mol
# GULP energy per Si atom -12406.174465 kJ/mol
# Density = 2.302995 g / cm^3
# Si number density = 23.082492 Si / 1000 Ang^3
#
#
#
# Elastic Constant Matrix: (Units=GPa)
#
#
# Indices 1 2 3 4 5 6 
#
# 1 111.2393 38.1403 27.2545 0.0000 -24.2514 0.0000
# 2 38.1403 121.0485 20.2542 0.0000 -17.8870 0.0000
# 3 27.2545 20.2542 77.1385 0.0000 -22.3892 0.0000
# 4 0.0000 0.0000 0.0000 28.8151 0.0000 0.0011
# 5 -24.2514 -17.8870 -22.3892 0.0000 36.8047 0.0000
# 6 0.0000 0.0000 0.0000 0.0011 0.0000 29.7278
#
#
#
# Elastic Compliance Matrix: (Units=1/GPa)
#
#
# Indices 1 2 3 4 5 6 
#
# 1 0.011444 -0.002527 -0.001879 0.000000 0.005169 0.000000
# 2 -0.002527 0.009569 -0.000915 0.000000 0.002429 0.000000
# 3 -0.001879 -0.000915 0.016248 0.000000 0.008201 0.000000
# 4 0.000000 0.000000 0.000000 0.034704 0.000000 -0.000001
# 5 0.005169 0.002429 0.008201 0.000000 0.036746 0.000000
# 6 0.000000 0.000000 0.000000 -0.000001 0.000000 0.033639
#
#
# Mechanical properties :
#
#
# Convention : Reuss Voigt Hill
#
# Bulk Modulus (GPa) = 37.56805 53.41383 45.49094
# Shear Modulus (GPa) = 30.88988 33.98800 32.43894
#
# Velocity S-wave (km/s) = 3.66216 3.84143 3.75286
# Velocity P-wave (km/s) = 5.84746 6.54722 6.20721
#
# Compressibility (1/GPa) = 0.02661836
#
# Stress axis : x y z
#
# Youngs Moduli (GPa) = 87.38582 104.49906 61.54494
#
# Poissons Ratio (x) = 0.26411 0.11567
# Poissons Ratio (y) = 0.22086 0.05629
# Poissons Ratio (z) = 0.16423 0.09558
#
# Static dielectric constant tensor:
#      x y z
#    x 4.029840 0.000000 -0.058910 
#    y 0.000000 4.359010 0.000000 
#    z -0.058910 0.000000 4.164890 
# 
# 
# High freq. dielectric constant tensor:
#      x y z
#    x 1.908460 0.000000 -0.003400 
#    y 0.000000 1.915690 0.000000 
#    z -0.003400 0.000000 1.925950 
# 
# From -- ./inp_files/33320.got.cif
#   From: 2010.03.12/outbox.cif.g09.slc.cpg/sg5_17_cif.got.tgz:33320.got - 2010.03.31 09:47:26.
