data_PCOD8051628
_publ_section_title
;
Structure prediction by ZEFSAII (Michael W. Deem and Ramdas Pophale) SiO2 
 PCOD8051628
Probable space group: C 2
;
_chemical_formula_sum "Si O2"
_cell_formula_units_Z 22
_cell_length_a 8.255509
_cell_length_b 17.189552
_cell_length_c 9.151197
_cell_angle_alpha 90.000000
_cell_angle_beta 52.865974
_cell_angle_gamma 90.000000
_cell_volume 1035.303147
_symmetry_space_group_name_H-M "C 2"
_symmetry_group_IT_number 5
_symmetry_cell_setting 'monoclinic'
loop_
_space_group_symop_operation_xyz
x,y,z
-x,y,-z
1/2+x,1/2+y,z
1/2-x,1/2+y,-z
loop_
_atom_site_type_symbol
_atom_site_label
_atom_site_fract_x
_atom_site_fract_y
_atom_site_fract_z
Si Si1 0.704817 0.005680 0.806210
Si Si2 0.432717 0.354152 0.757579
Si Si3 0.000000 0.759692 0.000000
Si Si4 0.606451 0.667589 0.292796
Si Si5 0.870721 0.413181 0.431235
Si Si6 0.596154 0.781438 0.790942
O O1 0.867610 0.075069 0.729273
O O2 0.799423 0.932226 0.836312
O O3 0.666032 0.986813 0.655494
O O4 0.500000 0.030749 0.000000
O O5 0.403257 0.313162 0.928646
O O6 0.662158 0.375247 0.598836
O O7 0.338139 0.296971 0.683259
O O8 0.173209 0.706568 0.834790
O O9 0.500000 0.693732 0.500000
O O10 0.460145 0.695966 0.239337
O O11 0.989899 0.345265 0.278092
O O12 0.000000 0.441480 0.500000
O O13 0.500000 0.797149 0.000000
#
# Coordination Sequence:
#
# PCOD8051628 Si02
#       6
#     4   4   2   4   4   4
#     4  11  25  47  67  99 146 187 234 296 351 415
#     4  11  23  41  70 100 137 177 243 284 346 420
#     4  12  24  42  66 110 132 182 232 296 348 422
#     4  12  25  46  69  98 146 188 230 295 358 418
#     4  11  23  41  72 107 136 186 237 293 351 419
#     4  11  21  40  66 101 136 179 228 289 347 413
#
# _framework density 21.249815999999999
#
# number of rings (size 3 to 8) (size 9 to 14) (size 15 to 20)
#    0.000    0.727    2.727    8.182    2.545    0.000 
#    1.636    5.455    0.000    0.000    0.000    0.000 
#    0.000    0.000    0.000    0.000    0.000    0.000 
#
# Total GULP energy -136396.573110 kJ/mol
# GULP energy per Si atom -12399.688465 kJ/mol
# Density = 2.120145 g / cm^3
# Si number density = 21.249816 Si / 1000 Ang^3
#
#
#
# Elastic Constant Matrix: (Units=GPa)
#
#
# Indices 1 2 3 4 5 6 
#
# 1 127.2968 73.1220 29.6116 0.0000 6.7817 0.0000
# 2 73.1220 124.0400 42.9875 0.0000 14.2206 0.0000
# 3 29.6116 42.9875 118.5384 0.0000 -6.3764 0.0000
# 4 0.0000 0.0000 0.0000 27.6026 0.0000 3.7102
# 5 6.7817 14.2206 -6.3764 0.0000 39.7819 0.0000
# 6 0.0000 0.0000 0.0000 3.7102 0.0000 36.7478
#
#
#
# Elastic Compliance Matrix: (Units=1/GPa)
#
#
# Indices 1 2 3 4 5 6 
#
# 1 0.011908 -0.006905 -0.000451 0.000000 0.000366 0.000000
# 2 -0.006905 0.013855 -0.003533 0.000000 -0.004342 0.000000
# 3 -0.000451 -0.003533 0.009988 0.000000 0.002941 0.000000
# 4 0.000000 0.000000 0.000000 0.036727 0.000000 -0.003708
# 5 0.000366 -0.004342 0.002941 0.000000 0.027098 0.000000
# 6 0.000000 0.000000 0.000000 -0.003708 0.000000 0.027587
#
#
# Mechanical properties :
#
#
# Convention : Reuss Voigt Hill
#
# Bulk Modulus (GPa) = 71.56928 73.47969 72.52449
# Shear Modulus (GPa) = 32.55261 35.77007 34.16134
#
# Velocity S-wave (km/s) = 3.91820 4.10727 4.01385
# Velocity P-wave (km/s) = 7.36361 7.55956 7.46223
#
# Compressibility (1/GPa) = 0.01397247
#
# Stress axis : x y z
#
# Youngs Moduli (GPa) = 83.98025 72.17736 100.11961
#
# Poissons Ratio (x) = 0.49841 0.04512
# Poissons Ratio (y) = 0.57991 0.35371
# Poissons Ratio (z) = 0.03785 0.25500
#
# Static dielectric constant tensor:
#      x y z
#    x 4.024850 0.000000 0.015380 
#    y 0.000000 3.702360 0.000000 
#    z 0.015380 0.000000 4.025400 
# 
# 
# High freq. dielectric constant tensor:
#      x y z
#    x 1.833360 0.000000 -0.004880 
#    y 0.000000 1.815940 0.000000 
#    z -0.004880 0.000000 1.854430 
# 
# From -- ./inp_files/16012.got.cif
#   From: 2010.03.12/outbox.cif.g09.slc.cpg/sg5_9_cif.got.tgz:16012.got - 2010.03.31 09:47:26.
