data_PCOD8051583
_publ_section_title
;
Structure prediction by ZEFSAII (Michael W. Deem and Ramdas Pophale) SiO2 
 PCOD8051583
Probable space group: C 2
;
_chemical_formula_sum "Si O2"
_cell_formula_units_Z 20
_cell_length_a 23.784049
_cell_length_b 4.594461
_cell_length_c 6.880014
_cell_angle_alpha 90.000000
_cell_angle_beta 88.404822
_cell_angle_gamma 90.000000
_cell_volume 751.521386
_symmetry_space_group_name_H-M "C 2"
_symmetry_group_IT_number 5
_symmetry_cell_setting 'monoclinic'
loop_
_space_group_symop_operation_xyz
x,y,z
-x,y,-z
1/2+x,1/2+y,z
1/2-x,1/2+y,-z
loop_
_atom_site_type_symbol
_atom_site_label
_atom_site_fract_x
_atom_site_fract_y
_atom_site_fract_z
Si Si1 0.210819 0.123620 0.001642
Si Si2 0.889922 0.201665 0.728127
Si Si3 0.433950 0.187957 0.508064
Si Si4 0.110301 0.169696 0.778803
Si Si5 0.436591 0.176017 0.001253
O O1 0.175041 0.199418 0.200301
O O2 0.270818 0.288034 0.000921
O O3 0.177393 0.209148 0.803457
O O4 0.895411 0.379904 0.511754
O O5 0.927615 0.444943 0.830542
O O6 0.919059 0.881846 0.705389
O O7 0.500000 0.117680 0.500000
O O8 0.414276 0.419010 0.351490
O O9 0.076236 0.476775 0.799063
O O10 0.100694 0.978794 0.990421
O O11 0.500000 0.282418 0.000000
#
# Coordination Sequence:
#
# PCOD8051583 Si02
#       5
#     4   4   4   4   4
#     4  11  23  44  68  88 117 165 220 272 302 340
#     4  11  23  39  63  92 124 166 210 248 306 376
#     4  12  23  40  62  98 138 163 187 248 320 384
#     4  11  23  38  62  92 123 163 208 252 308 372
#     4  11  20  37  60  90 123 165 209 250 298 372
#
# _framework density 26.612677999999999
#
# number of rings (size 3 to 8) (size 9 to 14) (size 15 to 20)
#    0.000    0.800    0.000   10.800    0.000    0.000 
#    0.000    4.000    0.000    2.400    0.000    0.000 
#    0.000    0.000    0.000    0.000    0.000    0.000 
#
# Total GULP energy -123943.654083 kJ/mol
# GULP energy per Si atom -12394.365408 kJ/mol
# Density = 2.655211 g / cm^3
# Si number density = 26.612678 Si / 1000 Ang^3
#
#
#
# Elastic Constant Matrix: (Units=GPa)
#
#
# Indices 1 2 3 4 5 6 
#
# 1 139.4739 41.7681 10.7190 0.0000 -8.9570 0.0000
# 2 41.7681 215.4040 13.2828 0.0000 -8.7538 0.0000
# 3 10.7190 13.2828 27.6987 0.0000 -21.5444 0.0000
# 4 0.0000 0.0000 0.0000 35.6362 0.0000 -6.4679
# 5 -8.9570 -8.7538 -21.5444 0.0000 40.1956 0.0000
# 6 0.0000 0.0000 0.0000 -6.4679 0.0000 54.3779
#
#
#
# Elastic Compliance Matrix: (Units=1/GPa)
#
#
# Indices 1 2 3 4 5 6 
#
# 1 0.007760 -0.001362 -0.002119 0.000000 0.000297 0.000000
# 2 -0.001362 0.005025 -0.002174 0.000000 -0.000374 0.000000
# 3 -0.002119 -0.002174 0.063848 0.000000 0.033276 0.000000
# 4 0.000000 0.000000 0.000000 0.028681 0.000000 0.003411
# 5 0.000297 -0.000374 0.033276 0.000000 0.042699 0.000000
# 6 0.000000 0.000000 0.000000 0.003411 0.000000 0.018796
#
#
# Mechanical properties :
#
#
# Convention : Reuss Voigt Hill
#
# Bulk Modulus (GPa) = 15.30847 57.12404 36.21626
# Shear Modulus (GPa) = 25.01356 47.16238 36.08797
#
# Velocity S-wave (km/s) = 3.06912 4.21429 3.68645
# Velocity P-wave (km/s) = 4.28067 6.72249 5.63543
#
# Compressibility (1/GPa) = 0.06532331
#
# Stress axis : x y z
#
# Youngs Moduli (GPa) = 128.87345 198.99038 15.66222
#
# Poissons Ratio (x) = 0.27100 0.03319
# Poissons Ratio (y) = 0.17551 0.03405
# Poissons Ratio (z) = 0.27306 0.43261
#
# Static dielectric constant tensor:
#      x y z
#    x 4.038780 0.000000 0.162000 
#    y 0.000000 5.985260 0.000000 
#    z 0.162000 0.000000 10.914450 
# 
# 
# High freq. dielectric constant tensor:
#      x y z
#    x 2.021280 0.000000 0.008770 
#    y 0.000000 2.141450 0.000000 
#    z 0.008770 0.000000 2.156580 
# 
# From -- ./inp_files/28322.got.cif
#   From: 2010.03.12/outbox.cif.g09.slc.cpg/sg5_15_cif.got.tgz:28322.got - 2010.03.31 09:47:26.
