data_PCOD8051211
_publ_section_title
;
Structure prediction by ZEFSAII (Michael W. Deem and Ramdas Pophale) SiO2 
 PCOD8051211
Probable space group: C 2
;
_chemical_formula_sum "Si O2"
_cell_formula_units_Z 32
_cell_length_a 16.230351
_cell_length_b 10.888770
_cell_length_c 17.758669
_cell_angle_alpha 90.000000
_cell_angle_beta 149.754950
_cell_angle_gamma 90.000000
_cell_volume 1580.842253
_symmetry_space_group_name_H-M "C 2"
_symmetry_group_IT_number 5
_symmetry_cell_setting 'monoclinic'
loop_
_space_group_symop_operation_xyz
x,y,z
-x,y,-z
1/2+x,1/2+y,z
1/2-x,1/2+y,-z
loop_
_atom_site_type_symbol
_atom_site_label
_atom_site_fract_x
_atom_site_fract_y
_atom_site_fract_z
Si Si1 0.408880 0.390270 0.005119
Si Si2 0.878625 0.699995 0.338786
Si Si3 0.827044 0.042981 0.714298
Si Si4 0.796302 0.365713 0.495266
Si Si5 0.921931 0.522725 0.241010
Si Si6 0.193851 0.723110 0.960563
Si Si7 0.487964 0.654164 0.706872
Si Si8 0.568728 0.387930 0.737140
O O1 0.494658 0.497796 0.120243
O O2 0.419579 0.260984 0.058090
O O3 0.500000 0.366866 0.000000
O O4 0.221114 0.430192 0.845538
O O5 0.729653 0.626963 0.260329
O O6 0.957682 0.614827 0.337791
O O7 0.850654 0.831346 0.275701
O O8 0.000000 0.731024 0.500000
O O9 0.716809 0.924335 0.600417
O O10 0.843163 0.118084 0.649829
O O11 0.619323 0.346603 0.394183
O O12 0.908378 0.451505 0.638341
O O13 0.898422 0.237561 0.572751
O O14 0.870292 0.596032 0.125096
O O15 0.184756 0.836873 0.895005
O O16 0.378789 0.722001 0.136318
O O17 0.573199 0.535684 0.735170
#
# Coordination Sequence:
#
# PCOD8051211 Si02
#       8
#     4   4   4   4   4   4   4   4
#     4  12  22  38  61  98 128 162 214 273 325 374
#     4  11  21  38  65  91 132 161 210 278 318 375
#     4  11  22  38  62  99 130 162 224 274 316 379
#     4  11  22  37  65  97 122 169 222 269 314 385
#     4  11  22  36  63  96 119 172 220 260 319 383
#     4  11  21  39  63  90 131 166 216 269 316 388
#     4  11  22  39  66  92 130 171 217 267 322 391
#     4  10  24  39  63  99 129 169 222 260 329 391
#
# _framework density 20.242374000000002
#
# number of rings (size 3 to 8) (size 9 to 14) (size 15 to 20)
#    0.000    1.000    7.500    0.750    5.250    0.000 
#    0.000    0.000   11.000    0.000    0.000    0.000 
#    0.000    0.000    0.000    0.000    0.000    0.000 
#
# Total GULP energy -198210.271742 kJ/mol
# GULP energy per Si atom -12388.141984 kJ/mol
# Density = 2.019630 g / cm^3
# Si number density = 20.242374 Si / 1000 Ang^3
#
#
#
# Elastic Constant Matrix: (Units=GPa)
#
#
# Indices 1 2 3 4 5 6 
#
# 1 94.1262 51.3450 27.2525 0.0000 -7.3263 0.0002
# 2 51.3450 101.4740 39.6999 -0.0002 -2.8210 0.0003
# 3 27.2525 39.6999 97.2776 -0.0002 -7.7689 0.0005
# 4 0.0000 -0.0002 -0.0002 37.8218 0.0000 -2.6219
# 5 -7.3263 -2.8210 -7.7689 0.0000 23.7983 0.0003
# 6 0.0002 0.0003 0.0005 -2.6219 0.0003 34.0232
#
#
#
# Elastic Compliance Matrix: (Units=1/GPa)
#
#
# Indices 1 2 3 4 5 6 
#
# 1 0.015083 -0.007129 -0.001040 0.000000 0.003459 0.000000
# 2 -0.007129 0.015097 -0.004309 0.000000 -0.001812 0.000000
# 3 -0.001040 -0.004309 0.012592 0.000000 0.003280 0.000000
# 4 0.000000 0.000000 0.000000 0.026582 0.000000 0.002048
# 5 0.003459 -0.001812 0.003280 0.000000 0.043940 0.000000
# 6 0.000000 0.000000 0.000000 0.002048 0.000000 0.029550
#
#
# Mechanical properties :
#
#
# Convention : Reuss Voigt Hill
#
# Bulk Modulus (GPa) = 56.12750 58.83029 57.47889
# Shear Modulus (GPa) = 28.77893 30.76735 29.77314
#
# Velocity S-wave (km/s) = 3.77466 3.90288 3.83930
# Velocity P-wave (km/s) = 6.83998 7.03107 6.93618
#
# Compressibility (1/GPa) = 0.01781658
#
# Stress axis : x y z
#
# Youngs Moduli (GPa) = 66.29929 66.23683 79.41790
#
# Poissons Ratio (x) = 0.47220 0.08259
# Poissons Ratio (y) = 0.47264 0.34220
# Poissons Ratio (z) = 0.06895 0.28541
#
# Static dielectric constant tensor:
#      x y z
#    x 3.942770 0.000000 0.024260 
#    y 0.000000 3.909100 0.000000 
#    z 0.024260 0.000000 3.900060 
# 
# 
# High freq. dielectric constant tensor:
#      x y z
#    x 1.754390 0.000000 -0.011600 
#    y 0.000000 1.789170 0.000000 
#    z -0.011600 0.000000 1.805360 
# 
# From -- ./inp_files/61713.got.cif
#   From: 2010.03.12/outbox.cif.g09.slc.cpg/sg5_31_cif.got.tgz:61713.got - 2010.03.31 09:47:26.
