data_PCOD8051843
_publ_section_title
;
Structure prediction by ZEFSAII (Michael W. Deem and Ramdas Pophale) SiO2 
 PCOD8051843
Probable space group: C 2
;
_chemical_formula_sum "Si O2"
_cell_formula_units_Z 16
_cell_length_a 9.463584
_cell_length_b 17.463078
_cell_length_c 8.093606
_cell_angle_alpha 90.000000
_cell_angle_beta 148.969005
_cell_angle_gamma 90.000000
_cell_volume 689.522740
_symmetry_space_group_name_H-M "C 2"
_symmetry_group_IT_number 5
_symmetry_cell_setting 'monoclinic'
loop_
_space_group_symop_operation_xyz
x,y,z
-x,y,-z
1/2+x,1/2+y,z
1/2-x,1/2+y,-z
loop_
_atom_site_type_symbol
_atom_site_label
_atom_site_fract_x
_atom_site_fract_y
_atom_site_fract_z
Si Si1 0.980271 0.102070 0.795570
Si Si2 0.263893 0.327289 0.372714
Si Si3 0.731566 0.439945 0.337721
Si Si4 0.500079 0.187615 0.185948
O O1 0.714201 0.120550 0.424359
O O2 0.956642 0.010044 0.782342
O O3 0.000000 0.136147 0.000000
O O4 0.219699 0.143420 0.936803
O O5 0.500000 0.367970 0.500000
O O6 0.158518 0.386043 0.406117
O O7 0.417418 0.254329 0.604948
O O8 0.000000 0.302834 0.000000
O O9 0.000000 0.465969 0.500000
O O10 0.500000 0.393451 0.000000
O O11 0.500000 0.220442 0.000000
#
# Coordination Sequence:
#
# PCOD8051843 Si02
#       4
#     4   4   4   4
#     4  11  23  43  68  96 134 180 225 274 337 405
#     4  12  26  44  69 101 140 182 228 283 342 409
#     4  11  24  45  71 101 139 181 226 280 345 412
#     4  12  25  42  66  98 137 179 227 279 334 402
#
# _framework density 23.204457000000001
#
# number of rings (size 3 to 8) (size 9 to 14) (size 15 to 20)
#    0.000    0.500    0.000   10.500    0.000    5.000 
#    0.000    0.000    0.000    0.000    0.000    0.000 
#    0.000    0.000    0.000    0.000    0.000    0.000 
#
# Total GULP energy -99117.006626 kJ/mol
# GULP energy per Si atom -12389.625828 kJ/mol
# Density = 2.315164 g / cm^3
# Si number density = 23.204457 Si / 1000 Ang^3
#
#
#
# Elastic Constant Matrix: (Units=GPa)
#
#
# Indices 1 2 3 4 5 6 
#
# 1 129.3975 57.7449 82.3643 0.0001 9.1161 0.0001
# 2 57.7449 114.4843 73.3199 0.0001 9.1759 0.0001
# 3 82.3643 73.3199 268.4411 0.0007 21.2117 0.0010
# 4 0.0001 0.0001 0.0007 27.3033 0.0001 -0.7182
# 5 9.1161 9.1759 21.2117 0.0001 53.1471 0.0002
# 6 0.0001 0.0001 0.0010 -0.7182 0.0002 32.7473
#
#
#
# Elastic Compliance Matrix: (Units=1/GPa)
#
#
# Indices 1 2 3 4 5 6 
#
# 1 0.010997 -0.004093 -0.002233 0.000000 -0.000288 0.000000
# 2 -0.004093 0.012135 -0.002012 0.000000 -0.000590 0.000000
# 3 -0.002233 -0.002012 0.005062 0.000000 -0.001290 0.000000
# 4 0.000000 0.000000 0.000000 0.036647 0.000000 0.000804
# 5 -0.000288 -0.000590 -0.001290 0.000000 0.019482 0.000000
# 6 0.000000 0.000000 0.000000 0.000804 0.000000 0.030554
#
#
# Mechanical properties :
#
#
# Convention : Reuss Voigt Hill
#
# Bulk Modulus (GPa) = 86.82994 104.35346 95.59170
# Shear Modulus (GPa) = 36.92963 42.56580 39.74772
#
# Velocity S-wave (km/s) = 3.99367 4.28761 4.14325
# Velocity P-wave (km/s) = 7.66594 8.34149 8.01084
#
# Compressibility (1/GPa) = 0.01151676
#
# Stress axis : x y z
#
# Youngs Moduli (GPa) = 90.93727 82.40450 197.55452
#
# Poissons Ratio (x) = 0.33730 0.44119
# Poissons Ratio (y) = 0.37223 0.39748
# Poissons Ratio (z) = 0.20309 0.16580
#
# Static dielectric constant tensor:
#      x y z
#    x 4.078620 0.000000 -0.287950 
#    y 0.000000 3.856240 0.000000 
#    z -0.287950 0.000000 4.495680 
# 
# 
# High freq. dielectric constant tensor:
#      x y z
#    x 1.915610 0.000000 -0.005800 
#    y 0.000000 1.906130 0.000000 
#    z -0.005800 0.000000 1.944890 
# 
# From -- ./inp_files/2232.got.cif
#   From: 2010.03.12/outbox.cif.g09.slc.cpg/sg5_2_cif.got.tgz:2232.got - 2010.03.31 09:47:26.
