data_PCOD8051894
_publ_section_title
;
Structure prediction by ZEFSAII (Michael W. Deem and Ramdas Pophale) SiO2 
 PCOD8051894
Probable space group: C 2
;
_chemical_formula_sum "Si O2"
_cell_formula_units_Z 22
_cell_length_a 18.491145
_cell_length_b 5.951510
_cell_length_c 8.535137
_cell_angle_alpha 90.000000
_cell_angle_beta 69.653324
_cell_angle_gamma 90.000000
_cell_volume 880.687521
_symmetry_space_group_name_H-M "C 2"
_symmetry_group_IT_number 5
_symmetry_cell_setting 'monoclinic'
loop_
_space_group_symop_operation_xyz
x,y,z
-x,y,-z
1/2+x,1/2+y,z
1/2-x,1/2+y,-z
loop_
_atom_site_type_symbol
_atom_site_label
_atom_site_fract_x
_atom_site_fract_y
_atom_site_fract_z
Si Si1 0.742879 0.134490 0.752211
Si Si2 0.465037 0.707957 0.768210
Si Si3 0.410641 0.084944 0.304947
Si Si4 0.888953 0.884918 0.614353
Si Si5 0.500000 0.381560 0.000000
Si Si6 0.682598 0.012096 0.132101
O O1 0.679284 0.072168 0.669710
O O2 0.760297 0.397223 0.781250
O O3 0.819449 0.042599 0.607808
O O4 0.725188 0.019407 0.933248
O O5 0.458544 0.544378 0.622489
O O6 0.394769 0.873559 0.833445
O O7 0.546851 0.843375 0.705607
O O8 0.453122 0.545024 0.923471
O O9 0.423215 0.222505 0.455508
O O10 0.442719 0.220743 0.134490
O O11 0.848600 0.749311 0.785921
#
# Coordination Sequence:
#
# PCOD8051894 Si02
#       6
#     4   4   4   4   2   4
#     4  11  24  44  74 112 154 204 253 325 384 470
#     4  11  26  49  75 111 153 207 257 322 387 461
#     4  12  28  47  77 115 156 202 271 316 395 462
#     4  11  27  47  75 111 156 206 258 323 390 458
#     4  12  26  46  78 112 148 198 256 328 380 468
#     4  11  23  45  76 108 150 206 258 310 396 461
#
# _framework density 24.980485000000002
#
# number of rings (size 3 to 8) (size 9 to 14) (size 15 to 20)
#    0.000    0.727    1.818    4.909    5.091    8.727 
#    0.000    0.000    0.000    0.000    0.000    0.000 
#    0.000    0.000    0.000    0.000    0.000    0.000 
#
# Total GULP energy -136326.599216 kJ/mol
# GULP energy per Si atom -12393.327201 kJ/mol
# Density = 2.492363 g / cm^3
# Si number density = 24.980485 Si / 1000 Ang^3
#
#
#
# Elastic Constant Matrix: (Units=GPa)
#
#
# Indices 1 2 3 4 5 6 
#
# 1 142.1826 59.9276 23.6103 0.0000 30.6243 0.0000
# 2 59.9276 113.9043 32.2366 0.0000 13.9854 0.0000
# 3 23.6103 32.2366 97.6968 0.0000 -2.8434 0.0000
# 4 0.0000 0.0000 0.0000 29.4295 0.0000 17.7808
# 5 30.6243 13.9854 -2.8434 0.0000 25.9793 0.0000
# 6 0.0000 0.0000 0.0000 17.7808 0.0000 3.3765
#
#
#
# Elastic Compliance Matrix: (Units=1/GPa)
#
#
# Indices 1 2 3 4 5 6 
#
# 1 0.011582 -0.004171 -0.001760 0.000000 -0.011600 0.000000
# 2 -0.004171 0.012065 -0.003029 0.000000 -0.001910 0.000000
# 3 -0.001760 -0.003029 0.011806 0.000000 0.004998 0.000000
# 4 0.000000 0.000000 0.000000 -0.015575 0.000000 0.082019
# 5 -0.011600 -0.001910 0.004998 0.000000 0.053742 0.000000
# 6 0.000000 0.000000 0.000000 0.082019 0.000000 -0.135751
#
#
# Mechanical properties :
#
#
# Convention : Reuss Voigt Hill
#
# Bulk Modulus (GPa) = 57.03460 65.03695 61.03578
# Shear Modulus (GPa) = -130.32203 27.62434 -51.34884
#
# Velocity S-wave (km/s) = -7.23068 3.32902 -4.53875
# Velocity P-wave (km/s) = 6.84318 6.39282 1.72642
#
# Compressibility (1/GPa) = 0.01753322
#
# Stress axis : x y z
#
# Youngs Moduli (GPa) = 86.34006 82.88100 84.70266
#
# Poissons Ratio (x) = 0.34571 0.14910
# Poissons Ratio (y) = 0.36013 0.25654
# Poissons Ratio (z) = 0.15199 0.25103
#
# Static dielectric constant tensor:
#      x y z
#    x 4.966600 0.000000 -0.163130 
#    y 0.000000 5.000930 0.000000 
#    z -0.163130 0.000000 4.525920 
# 
# 
# High freq. dielectric constant tensor:
#      x y z
#    x 2.003160 0.000000 -0.009450 
#    y 0.000000 2.006630 0.000000 
#    z -0.009450 0.000000 1.998200 
# 
# From -- ./inp_files/28310.got.cif
#   From: 2010.03.12/outbox.cif.g09.slc.cpg/sg5_15_cif.got.tgz:28310.got - 2010.03.31 09:47:26.
