data_PCOD8051953
_publ_section_title
;
Structure prediction by ZEFSAII (Michael W. Deem and Ramdas Pophale) SiO2 
 PCOD8051953
Probable space group: C 2
;
_chemical_formula_sum "Si O2"
_cell_formula_units_Z 26
_cell_length_a 12.803044
_cell_length_b 9.937396
_cell_length_c 13.186098
_cell_angle_alpha 90.000000
_cell_angle_beta 136.449329
_cell_angle_gamma 90.000000
_cell_volume 1155.895877
_symmetry_space_group_name_H-M "C 2"
_symmetry_group_IT_number 5
_symmetry_cell_setting 'monoclinic'
loop_
_space_group_symop_operation_xyz
x,y,z
-x,y,-z
1/2+x,1/2+y,z
1/2-x,1/2+y,-z
loop_
_atom_site_type_symbol
_atom_site_label
_atom_site_fract_x
_atom_site_fract_y
_atom_site_fract_z
Si Si1 0.808293 0.095620 0.282203
Si Si2 0.540561 0.773980 0.861423
Si Si3 0.111759 0.001748 0.450744
Si Si4 0.500000 0.547954 0.000000
Si Si5 0.228481 0.727175 0.547428
Si Si6 0.000000 0.559312 0.500000
Si Si7 0.307090 0.877936 0.228928
Si Si8 0.500000 0.981221 0.000000
O O1 0.858755 0.998473 0.408346
O O2 0.811438 0.254042 0.312090
O O3 0.945154 0.057175 0.298346
O O4 0.639822 0.073838 0.126576
O O5 0.544063 0.635145 0.930099
O O6 0.377662 0.793482 0.697677
O O7 0.666437 0.802855 0.861933
O O8 0.566523 0.894432 0.956393
O O9 0.238858 0.106467 0.505574
O O10 0.136879 0.849372 0.427759
O O11 0.353176 0.454829 0.876968
O O12 0.136704 0.659004 0.572944
O O13 0.945146 0.473404 0.363193
#
# Coordination Sequence:
#
# PCOD8051953 Si02
#       8
#     4   4   4   2   4   2   4   2
#     4  11  24  44  68 105 141 184 240 297 358 439
#     4  11  25  47  73 101 148 190 243 302 361 440
#     4  11  25  43  74 102 144 186 238 304 364 433
#     4  11  27  50  72 106 151 197 244 304 368 442
#     4  12  24  45  71 109 140 189 241 303 374 426
#     4  12  26  44  76 104 144 188 246 308 370 432
#     4  12  26  47  74 109 145 192 246 305 370 436
#     4  11  25  46  70 100 143 191 236 290 364 442
#
# _framework density 22.493372999999998
#
# number of rings (size 3 to 8) (size 9 to 14) (size 15 to 20)
#    0.000    0.615    4.615    3.231    4.308    0.000 
#    0.000    1.538    0.000    0.000    0.000    0.000 
#    0.000    0.000    0.000    0.000    0.000    0.000 
#
# Total GULP energy -161059.253078 kJ/mol
# GULP energy per Si atom -12389.173314 kJ/mol
# Density = 2.244218 g / cm^3
# Si number density = 22.493373 Si / 1000 Ang^3
#
#
#
# Elastic Constant Matrix: (Units=GPa)
#
#
# Indices 1 2 3 4 5 6 
#
# 1 101.5954 48.0740 28.3626 0.0000 14.8860 0.0000
# 2 48.0740 147.5117 26.8364 0.0000 12.5644 0.0000
# 3 28.3626 26.8364 84.0894 0.0000 22.7514 0.0000
# 4 0.0000 0.0000 0.0000 27.0084 0.0000 4.8610
# 5 14.8860 12.5644 22.7514 0.0000 35.9306 0.0000
# 6 0.0000 0.0000 0.0000 4.8610 0.0000 30.0269
#
#
#
# Elastic Compliance Matrix: (Units=1/GPa)
#
#
# Indices 1 2 3 4 5 6 
#
# 1 0.012506 -0.003420 -0.002472 0.000000 -0.002420 0.000000
# 2 -0.003420 0.008181 -0.001287 0.000000 -0.000629 0.000000
# 3 -0.002472 -0.001287 0.015371 0.000000 -0.008259 0.000000
# 4 0.000000 0.000000 0.000000 0.038137 0.000000 -0.006174
# 5 -0.002420 -0.000629 -0.008259 0.000000 0.034283 0.000000
# 6 0.000000 0.000000 0.000000 -0.006174 0.000000 0.034303
#
#
# Mechanical properties :
#
#
# Convention : Reuss Voigt Hill
#
# Bulk Modulus (GPa) = 46.08239 59.97138 53.02688
# Shear Modulus (GPa) = 30.41854 33.92142 32.16998
#
# Velocity S-wave (km/s) = 3.68140 3.88759 3.78590
# Velocity P-wave (km/s) = 6.21304 6.84623 6.53730
#
# Compressibility (1/GPa) = 0.02170026
#
# Stress axis : x y z
#
# Youngs Moduli (GPa) = 79.96233 122.22812 65.05654
#
# Poissons Ratio (x) = 0.41800 0.16082
# Poissons Ratio (y) = 0.27346 0.08375
# Poissons Ratio (z) = 0.19766 0.15736
#
# Static dielectric constant tensor:
#      x y z
#    x 4.876670 0.000000 0.037170 
#    y 0.000000 4.170320 0.000000 
#    z 0.037170 0.000000 3.878720 
# 
# 
# High freq. dielectric constant tensor:
#      x y z
#    x 1.890300 0.000000 0.013020 
#    y 0.000000 1.905630 0.000000 
#    z 0.013020 0.000000 1.870010 
# 
# From -- ./inp_files/54281.got.cif
#   From: 2010.03.12/outbox.cif.g09.slc.cpg/sg5_28_cif.got.tgz:54281.got - 2010.03.31 09:47:26.
