data_PCOD8051074
_publ_section_title
;
Structure prediction by ZEFSAII (Michael W. Deem and Ramdas Pophale) SiO2 
 PCOD8051074
Probable space group: C 2
;
_chemical_formula_sum "Si O2"
_cell_formula_units_Z 18
_cell_length_a 5.388694
_cell_length_b 18.366774
_cell_length_c 7.622512
_cell_angle_alpha 90.000000
_cell_angle_beta 62.752866
_cell_angle_gamma 90.000000
_cell_volume 670.711641
_symmetry_space_group_name_H-M "C 2"
_symmetry_group_IT_number 5
_symmetry_cell_setting 'monoclinic'
loop_
_space_group_symop_operation_xyz
x,y,z
-x,y,-z
1/2+x,1/2+y,z
1/2-x,1/2+y,-z
loop_
_atom_site_type_symbol
_atom_site_label
_atom_site_fract_x
_atom_site_fract_y
_atom_site_fract_z
Si Si1 0.325636 0.408170 0.718679
Si Si2 0.500000 0.153743 0.000000
Si Si3 0.239563 0.743203 0.209395
Si Si4 0.939720 0.109221 0.319122
Si Si5 0.679260 0.968042 0.279882
O O1 0.500000 0.442935 0.500000
O O2 0.335927 0.321618 0.693210
O O3 0.508463 0.432488 0.829819
O O4 0.011684 0.443417 0.825984
O O5 0.498259 0.205443 0.172626
O O6 0.224090 0.104044 0.110835
O O7 0.310627 0.690436 0.350822
O O8 0.500000 0.753331 0.000000
O O9 0.000000 0.086527 0.500000
O O10 0.719179 0.055016 0.294450
O O11 0.500000 0.934771 0.500000
#
# Coordination Sequence:
#
# PCOD8051074 Si02
#       5
#     4   2   4   4   4
#     4  10  23  42  72 101 139 184 241 298 359 431
#     4  10  26  46  68 114 146 186 252 310 344 452
#     4  10  25  45  67 104 147 187 247 301 359 441
#     4  11  25  44  78 102 147 193 242 302 373 428
#     4  10  23  43  69 106 139 183 242 298 357 438
#
# _framework density 26.837163
#
# number of rings (size 3 to 8) (size 9 to 14) (size 15 to 20)
#    0.000    1.778    0.000    2.000   15.556    0.889 
#    2.000    0.000    0.000    0.000    0.000    0.000 
#    0.000    0.000    0.000    0.000    0.000    0.000 
#
# Total GULP energy -111552.738183 kJ/mol
# GULP energy per Si atom -12394.748687 kJ/mol
# Density = 2.677608 g / cm^3
# Si number density = 26.837163 Si / 1000 Ang^3
#
#
#
# Elastic Constant Matrix: (Units=GPa)
#
#
# Indices 1 2 3 4 5 6 
#
# 1 218.9760 76.4404 34.8546 0.0000 -12.3914 0.0000
# 2 76.4404 183.8863 10.2312 0.0000 1.5442 0.0000
# 3 34.8546 10.2312 46.3240 0.0000 8.3571 0.0000
# 4 0.0000 0.0000 0.0000 -194.0082 0.0000 -183.5636
# 5 -12.3914 1.5442 8.3571 0.0000 35.4380 0.0000
# 6 0.0000 0.0000 0.0000 -183.5636 0.0000 -96.1770
#
#
#
# Elastic Compliance Matrix: (Units=1/GPa)
#
#
# Indices 1 2 3 4 5 6 
#
# 1 0.006387 -0.002411 -0.004903 0.000000 0.003495 0.000000
# 2 -0.002411 0.006416 0.000626 0.000000 -0.001271 0.000000
# 3 -0.004903 0.000626 0.026583 0.000000 -0.008011 0.000000
# 4 0.000000 0.000000 0.000000 0.006396 0.000000 -0.012208
# 5 0.003495 -0.001271 -0.008011 0.000000 0.031385 0.000000
# 6 0.000000 0.000000 0.000000 -0.012208 0.000000 0.012903
#
#
# Mechanical properties :
#
#
# Convention : Reuss Voigt Hill
#
# Bulk Modulus (GPa) = 38.44710 76.91542 57.68126
# Shear Modulus (GPa) = 44.59664 -29.10544 7.74560
#
# Velocity S-wave (km/s) = 4.08088 -3.29678 1.70071
# Velocity P-wave (km/s) = 6.04665 3.77235 5.03947
#
# Compressibility (1/GPa) = 0.02600977
#
# Stress axis : x y z
#
# Youngs Moduli (GPa) = 156.57525 155.85111 37.61782
#
# Poissons Ratio (x) = 0.37583 0.18445
# Poissons Ratio (y) = 0.37757 -0.02357
# Poissons Ratio (z) = 0.76773 -0.09764
#
# Static dielectric constant tensor:
#      x y z
#    x 5.519300 0.000000 -0.005220 
#    y 0.000000 4.647570 0.000000 
#    z -0.005220 0.000000 4.646630 
# 
# 
# High freq. dielectric constant tensor:
#      x y z
#    x 2.096970 0.000000 -0.009320 
#    y 0.000000 2.066790 0.000000 
#    z -0.009320 0.000000 2.067160 
# 
# From -- ./inp_files/11958.got.cif
#   From: 2010.03.12/outbox.cif.g09.slc.cpg/sg5_6_cif.got.tgz:11958.got - 2010.03.31 09:47:26.
