data_PCOD8051396
_publ_section_title
;
Structure prediction by ZEFSAII (Michael W. Deem and Ramdas Pophale) SiO2 
 PCOD8051396
Probable space group: C 2
;
_chemical_formula_sum "Si O2"
_cell_formula_units_Z 28
_cell_length_a 8.598170
_cell_length_b 10.890043
_cell_length_c 13.619345
_cell_angle_alpha 90.000000
_cell_angle_beta 60.786292
_cell_angle_gamma 90.000000
_cell_volume 1113.036059
_symmetry_space_group_name_H-M "C 2"
_symmetry_group_IT_number 5
_symmetry_cell_setting 'monoclinic'
loop_
_space_group_symop_operation_xyz
x,y,z
-x,y,-z
1/2+x,1/2+y,z
1/2-x,1/2+y,-z
loop_
_atom_site_type_symbol
_atom_site_label
_atom_site_fract_x
_atom_site_fract_y
_atom_site_fract_z
Si Si1 0.689056 0.859550 0.390879
Si Si2 0.176309 0.509370 0.699283
Si Si3 0.354710 0.363819 0.961564
Si Si4 0.828461 0.661730 0.483174
Si Si5 0.505268 0.510884 0.259433
Si Si6 0.604412 0.091006 0.067490
Si Si7 0.477904 0.759942 0.290023
O O1 0.500000 0.885725 0.500000
O O2 0.827704 0.770343 0.402581
O O3 0.653116 0.807986 0.292585
O O4 0.795480 0.988161 0.350918
O O5 0.171801 0.537005 0.583185
O O6 0.375593 0.518466 0.678785
O O7 0.123549 0.367517 0.733247
O O8 0.036532 0.595332 0.799645
O O9 0.431108 0.407097 0.833991
O O10 0.286512 0.221858 0.965892
O O11 0.500000 0.353730 0.000000
O O12 0.216772 0.464908 0.044716
O O13 0.644516 0.683084 0.596096
O O14 0.000000 0.670482 0.500000
O O15 0.527654 0.646902 0.201045
O O16 0.500000 0.072396 0.000000
#
# Coordination Sequence:
#
# PCOD8051396 Si02
#       7
#     4   4   4   4   4   4   4
#     4  10  24  48  70 104 152 195 251 322 379 462
#     4  12  27  48  78 108 156 207 261 327 388 468
#     4  11  28  46  81 112 154 201 254 331 393 470
#     4  11  25  46  73 106 150 205 257 316 390 457
#     4  12  26  48  75 107 152 204 257 313 402 458
#     4  11  26  52  78 115 156 199 260 327 396 466
#     4  11  28  43  73 108 149 198 260 317 380 472
#
# _framework density 25.156420000000001
#
# number of rings (size 3 to 8) (size 9 to 14) (size 15 to 20)
#    0.000    0.857    2.857    1.714   10.000    1.714 
#    0.000    0.000    0.000    0.000    0.000    0.000 
#    0.000    0.000    0.000    0.000    0.000    0.000 
#
# Total GULP energy -173484.115726 kJ/mol
# GULP energy per Si atom -12391.722552 kJ/mol
# Density = 2.509916 g / cm^3
# Si number density = 25.156420 Si / 1000 Ang^3
#
#
#
# Elastic Constant Matrix: (Units=GPa)
#
#
# Indices 1 2 3 4 5 6 
#
# 1 139.8406 52.3528 26.6476 0.0000 -12.0253 0.0000
# 2 52.3528 189.1825 11.7897 0.0000 -14.6692 0.0000
# 3 26.6476 11.7897 72.1859 0.0000 -6.6016 0.0000
# 4 0.0000 0.0000 0.0000 31.7380 0.0000 -2.1160
# 5 -12.0253 -14.6692 -6.6016 0.0000 28.3606 0.0000
# 6 0.0000 0.0000 0.0000 -2.1160 0.0000 51.4531
#
#
#
# Elastic Compliance Matrix: (Units=1/GPa)
#
#
# Indices 1 2 3 4 5 6 
#
# 1 0.008598 -0.002062 -0.002658 0.000000 0.001961 0.000000
# 2 -0.002062 0.006031 -0.000019 0.000000 0.002241 0.000000
# 3 -0.002658 -0.000019 0.015054 0.000000 0.002367 0.000000
# 4 0.000000 0.000000 0.000000 0.031595 0.000000 0.001299
# 5 0.001961 0.002241 0.002367 0.000000 0.037802 0.000000
# 6 0.000000 0.000000 0.000000 0.001299 0.000000 0.019489
#
#
# Mechanical properties :
#
#
# Convention : Reuss Voigt Hill
#
# Bulk Modulus (GPa) = 49.49039 64.75437 57.12238
# Shear Modulus (GPa) = 37.09730 43.00493 40.05111
#
# Velocity S-wave (km/s) = 3.84430 4.13910 3.99442
# Velocity P-wave (km/s) = 6.27859 6.97420 6.63551
#
# Compressibility (1/GPa) = 0.02020594
#
# Stress axis : x y z
#
# Youngs Moduli (GPa) = 116.30735 165.79947 66.42793
#
# Poissons Ratio (x) = 0.34182 0.17656
# Poissons Ratio (y) = 0.23978 0.00127
# Poissons Ratio (z) = 0.30914 0.00316
#
# Static dielectric constant tensor:
#      x y z
#    x 4.404120 0.000000 0.022660 
#    y 0.000000 5.329720 0.000000 
#    z 0.022660 0.000000 4.419340 
# 
# 
# High freq. dielectric constant tensor:
#      x y z
#    x 1.994570 0.000000 0.000210 
#    y 0.000000 2.040380 0.000000 
#    z 0.000210 0.000000 1.992040 
# 
# From -- ./inp_files/50406.got.cif
#   From: 2010.03.12/outbox.cif.g09.slc.cpg/sg5_26_cif.got.tgz:50406.got - 2010.03.31 09:47:26.
