data_PCOD8051354
_publ_section_title
;
Structure prediction by ZEFSAII (Michael W. Deem and Ramdas Pophale) SiO2 
 PCOD8051354
Probable space group: C 2
;
_chemical_formula_sum "Si O2"
_cell_formula_units_Z 22
_cell_length_a 13.849497
_cell_length_b 11.019921
_cell_length_c 10.659659
_cell_angle_alpha 90.000000
_cell_angle_beta 36.961784
_cell_angle_gamma 90.000000
_cell_volume 978.214607
_symmetry_space_group_name_H-M "C 2"
_symmetry_group_IT_number 5
_symmetry_cell_setting 'monoclinic'
loop_
_space_group_symop_operation_xyz
x,y,z
-x,y,-z
1/2+x,1/2+y,z
1/2-x,1/2+y,-z
loop_
_atom_site_type_symbol
_atom_site_label
_atom_site_fract_x
_atom_site_fract_y
_atom_site_fract_z
Si Si1 0.175827 0.938470 0.632654
Si Si2 0.336319 0.412901 0.879648
Si Si3 0.650550 0.178601 0.576243
Si Si4 0.500000 0.252699 0.500000
Si Si5 0.687216 0.831191 0.278435
Si Si6 0.875715 0.608989 0.033289
O O1 0.238805 0.808935 0.508951
O O2 0.224409 0.933935 0.729085
O O3 0.987236 0.957325 0.805736
O O4 0.255858 0.056002 0.482582
O O5 0.392097 0.332002 0.705678
O O6 0.209847 0.351891 0.106168
O O7 0.244406 0.524005 0.914009
O O8 0.617069 0.169020 0.461518
O O9 0.478980 0.185861 0.825136
O O10 0.500000 0.826033 0.500000
O O11 0.771265 0.702663 0.225888
O O12 0.000000 0.541879 0.000000
#
# Coordination Sequence:
#
# PCOD8051354 Si02
#       6
#     4   4   4   2   4   4
#     4  11  25  47  76 108 147 194 242 308 366 445
#     4  11  26  46  71 107 149 192 244 305 375 433
#     4  11  25  46  74 105 154 190 242 303 370 439
#     4  10  24  46  70 102 152 182 238 312 366 426
#     4  12  25  46  74 104 145 199 251 300 365 436
#     4  12  25  45  72 105 147 198 250 305 361 445
#
# _framework density 22.489951999999999
#
# number of rings (size 3 to 8) (size 9 to 14) (size 15 to 20)
#    0.000    0.727    5.455    1.636   12.727    0.000 
#    0.000    0.000    0.000    0.000    0.000    0.000 
#    0.000    0.000    0.000    0.000    0.000    0.000 
#
# Total GULP energy -136343.496725 kJ/mol
# GULP energy per Si atom -12394.863339 kJ/mol
# Density = 2.243876 g / cm^3
# Si number density = 22.489952 Si / 1000 Ang^3
#
#
#
# Elastic Constant Matrix: (Units=GPa)
#
#
# Indices 1 2 3 4 5 6 
#
# 1 124.8322 41.3214 59.7581 0.0000 -12.3689 0.0000
# 2 41.3214 142.5967 51.5456 0.0000 -16.2567 0.0000
# 3 59.7581 51.5456 147.3175 0.0000 -5.5049 0.0000
# 4 0.0000 0.0000 0.0000 27.5274 0.0000 -2.1187
# 5 -12.3689 -16.2567 -5.5049 0.0000 38.4179 0.0000
# 6 0.0000 0.0000 0.0000 -2.1187 0.0000 43.1190
#
#
#
# Elastic Compliance Matrix: (Units=1/GPa)
#
#
# Indices 1 2 3 4 5 6 
#
# 1 0.010462 -0.001458 -0.003650 0.000000 0.002228 0.000000
# 2 -0.001458 0.008593 -0.002309 0.000000 0.002836 0.000000
# 3 -0.003650 -0.002309 0.009045 0.000000 -0.000856 0.000000
# 4 0.000000 0.000000 0.000000 0.036465 0.000000 0.001792
# 5 0.002228 0.002836 -0.000856 0.000000 0.027824 0.000000
# 6 0.000000 0.000000 0.000000 0.001792 0.000000 0.023280
#
#
# Mechanical properties :
#
#
# Convention : Reuss Voigt Hill
#
# Bulk Modulus (GPa) = 75.38934 79.99962 77.69448
# Shear Modulus (GPa) = 37.05742 39.28761 38.17252
#
# Velocity S-wave (km/s) = 4.06363 4.18412 4.12432
# Velocity P-wave (km/s) = 7.45732 7.68056 7.56976
#
# Compressibility (1/GPa) = 0.01326447
#
# Stress axis : x y z
#
# Youngs Moduli (GPa) = 95.58819 116.36845 110.56104
#
# Poissons Ratio (x) = 0.16967 0.40357
# Poissons Ratio (y) = 0.13937 0.25533
# Poissons Ratio (z) = 0.34892 0.26874
#
# Static dielectric constant tensor:
#      x y z
#    x 4.393530 0.000000 0.119190 
#    y 0.000000 3.939620 0.000000 
#    z 0.119190 0.000000 3.991690 
# 
# 
# High freq. dielectric constant tensor:
#      x y z
#    x 1.907980 0.000000 0.007430 
#    y 0.000000 1.878350 0.000000 
#    z 0.007430 0.000000 1.875430 
# 
# From -- ./inp_files/42657.got.cif
#   From: 2010.03.12/outbox.cif.g09.slc.cpg/sg5_22_cif.got.tgz:42657.got - 2010.03.31 09:47:26.
