data_PCOD8051915
_publ_section_title
;
Structure prediction by ZEFSAII (Michael W. Deem and Ramdas Pophale) SiO2 
 PCOD8051915
Probable space group: C 2
;
_chemical_formula_sum "Si O2"
_cell_formula_units_Z 28
_cell_length_a 27.698270
_cell_length_b 6.557622
_cell_length_c 9.241920
_cell_angle_alpha 90.000000
_cell_angle_beta 53.326947
_cell_angle_gamma 90.000000
_cell_volume 1346.375685
_symmetry_space_group_name_H-M "C 2"
_symmetry_group_IT_number 5
_symmetry_cell_setting 'monoclinic'
loop_
_space_group_symop_operation_xyz
x,y,z
-x,y,-z
1/2+x,1/2+y,z
1/2-x,1/2+y,-z
loop_
_atom_site_type_symbol
_atom_site_label
_atom_site_fract_x
_atom_site_fract_y
_atom_site_fract_z
Si Si1 0.696297 0.602780 0.249429
Si Si2 0.500000 0.954927 0.000000
Si Si3 0.320964 0.273841 0.953884
Si Si4 0.126883 0.847104 0.578574
Si Si5 0.500000 0.827114 0.500000
Si Si6 0.121123 0.494800 0.379834
Si Si7 0.510598 0.609391 0.768199
Si Si8 0.913699 0.799334 0.043297
O O1 0.688613 0.491012 0.107973
O O2 0.686638 0.446179 0.400147
O O3 0.644456 0.768237 0.363405
O O4 0.761312 0.706291 0.146292
O O5 0.529490 0.811089 0.824334
O O6 0.551077 0.090886 0.985281
O O7 0.334896 0.103471 0.811270
O O8 0.376029 0.283997 0.965315
O O9 0.119758 0.616948 0.533155
O O10 0.131962 0.846817 0.742944
O O11 0.067700 0.968537 0.634541
O O12 0.483769 0.680443 0.663117
O O13 0.554426 0.980084 0.435582
O O14 0.460427 0.484984 0.947120
#
# Coordination Sequence:
#
# PCOD8051915 Si02
#       8
#     4   2   4   4   2   4   4   4
#     4  11  23  48  69  94 135 176 225 285 325 393
#     4  12  22  44  68  92 144 182 216 268 348 404
#     4  11  25  45  72  96 132 178 230 275 337 394
#     4  11  24  43  63  95 140 172 217 273 341 392
#     4  12  24  38  70 106 128 172 232 274 340 406
#     4  11  24  42  69  97 131 175 216 285 338 391
#     4  12  24  42  63 101 140 172 215 282 337 401
#     4  12  25  43  67 100 135 183 219 276 339 409
#
# _framework density 20.796575000000001
#
# number of rings (size 3 to 8) (size 9 to 14) (size 15 to 20)
#    0.000    0.571    5.714    2.571    4.000    0.000 
#    2.571    0.000    0.000    0.000    0.000    0.000 
#    0.000    0.000    0.000    0.000    0.000    0.000 
#
# Total GULP energy -173648.368042 kJ/mol
# GULP energy per Si atom -12403.454860 kJ/mol
# Density = 2.074924 g / cm^3
# Si number density = 20.796575 Si / 1000 Ang^3
#
#
#
# Elastic Constant Matrix: (Units=GPa)
#
#
# Indices 1 2 3 4 5 6 
#
# 1 61.1666 27.8468 12.9040 0.0000 -2.9657 0.0000
# 2 27.8468 119.0237 42.5473 0.0000 0.3024 0.0000
# 3 12.9040 42.5473 108.8067 0.0000 3.1746 0.0000
# 4 0.0000 0.0000 0.0000 37.8198 0.0000 -8.0712
# 5 -2.9657 0.3024 3.1746 0.0000 36.9965 0.0000
# 6 0.0000 0.0000 0.0000 -8.0712 0.0000 26.5287
#
#
#
# Elastic Compliance Matrix: (Units=1/GPa)
#
#
# Indices 1 2 3 4 5 6 
#
# 1 0.018419 -0.004087 -0.000632 0.000000 0.001564 0.000000
# 2 -0.004087 0.010676 -0.003687 0.000000 -0.000099 0.000000
# 3 -0.000632 -0.003687 0.010735 0.000000 -0.000942 0.000000
# 4 0.000000 0.000000 0.000000 0.028277 0.000000 0.008603
# 5 0.001564 -0.000099 -0.000942 0.000000 0.027237 0.000000
# 6 0.000000 0.000000 0.000000 0.008603 0.000000 0.040313
#
#
# Mechanical properties :
#
#
# Convention : Reuss Voigt Hill
#
# Bulk Modulus (GPa) = 43.44567 50.62146 47.03356
# Shear Modulus (GPa) = 31.22246 33.98226 32.60236
#
# Velocity S-wave (km/s) = 3.87890 4.04670 3.96369
# Velocity P-wave (km/s) = 6.40291 6.79915 6.60400
#
# Compressibility (1/GPa) = 0.02301725
#
# Stress axis : x y z
#
# Youngs Moduli (GPa) = 54.29259 93.66562 93.15480
#
# Poissons Ratio (x) = 0.38285 0.05885
# Poissons Ratio (y) = 0.22192 0.34348
# Poissons Ratio (z) = 0.03430 0.34536
#
# Static dielectric constant tensor:
#      x y z
#    x 3.450280 0.000000 0.028450 
#    y 0.000000 3.935080 0.000000 
#    z 0.028450 0.000000 3.943360 
# 
# 
# High freq. dielectric constant tensor:
#      x y z
#    x 1.785560 0.000000 -0.000980 
#    y 0.000000 1.829940 0.000000 
#    z -0.000980 0.000000 1.833790 
# 
# From -- ./inp_files/31449.got.cif
#   From: 2010.03.12/outbox.cif.g09.slc.cpg/sg5_16_cif.got.tgz:31449.got - 2010.03.31 09:47:26.
