data_PCOD8051217
_publ_section_title
;
Structure prediction by ZEFSAII (Michael W. Deem and Ramdas Pophale) SiO2 
 PCOD8051217
Probable space group: C 2
;
_chemical_formula_sum "Si O2"
_cell_formula_units_Z 24
_cell_length_a 6.938065
_cell_length_b 7.873461
_cell_length_c 23.345875
_cell_angle_alpha 90.000000
_cell_angle_beta 61.318346
_cell_angle_gamma 90.000000
_cell_volume 1118.825287
_symmetry_space_group_name_H-M "C 2"
_symmetry_group_IT_number 5
_symmetry_cell_setting 'monoclinic'
loop_
_space_group_symop_operation_xyz
x,y,z
-x,y,-z
1/2+x,1/2+y,z
1/2-x,1/2+y,-z
loop_
_atom_site_type_symbol
_atom_site_label
_atom_site_fract_x
_atom_site_fract_y
_atom_site_fract_z
Si Si1 0.310498 0.674530 0.307232
Si Si2 0.000000 0.512166 0.000000
Si Si3 0.294783 0.181031 0.801700
Si Si4 0.946889 0.186172 0.945597
Si Si5 0.756022 0.503808 0.255298
Si Si6 0.947957 0.545666 0.445363
Si Si7 0.500000 0.719366 0.500000
O O1 0.272894 0.594246 0.249166
O O2 0.547163 0.621896 0.297843
O O3 0.296673 0.880556 0.304600
O O4 0.124066 0.607088 0.375058
O O5 0.207840 0.631181 0.957745
O O6 0.955117 0.391488 0.951142
O O7 0.288426 0.385836 0.794291
O O8 0.125375 0.122335 0.874512
O O9 0.536444 0.123342 0.786199
O O10 0.000000 0.101439 0.000000
O O11 0.707907 0.600286 0.458251
O O12 0.959712 0.340065 0.450011
O O13 0.000000 0.629417 0.500000
#
# Coordination Sequence:
#
# PCOD8051217 Si02
#       7
#     4   2   4   4   4   4   2
#     4  10  24  42  64  92 124 162 204 252 304 362
#     4  10  26  40  64  90 126 160 206 250 306 360
#     4  10  26  40  66  90 126 160 206 250 306 360
#     4  10  26  40  66  90 126 160 206 250 306 360
#     4  10  25  40  66  90 125 160 206 250 305 360
#     4  10  24  42  64  92 124 162 204 252 304 362
#     4  10  24  40  64  90 124 160 206 250 304 360
#
# _framework density 21.451070999999999
#
# number of rings (size 3 to 8) (size 9 to 14) (size 15 to 20)
#    2.000    0.000    0.000    1.000    9.333    2.667 
#    0.000    0.000    0.000    0.000    0.000    0.000 
#    0.000    0.000    0.000    0.000    0.000    0.000 
#
# Total GULP energy -148702.597134 kJ/mol
# GULP energy per Si atom -12391.883095 kJ/mol
# Density = 2.140225 g / cm^3
# Si number density = 21.451071 Si / 1000 Ang^3
#
#
#
# Elastic Constant Matrix: (Units=GPa)
#
#
# Indices 1 2 3 4 5 6 
#
# 1 169.2521 79.4767 60.4918 0.0000 -49.9443 0.0000
# 2 79.4767 84.7704 20.6775 0.0000 -7.1529 0.0000
# 3 60.4918 20.6775 139.7190 0.0000 -23.1131 0.0000
# 4 0.0000 0.0000 0.0000 10.4527 0.0000 -6.5191
# 5 -49.9443 -7.1529 -23.1131 0.0000 40.1648 0.0000
# 6 0.0000 0.0000 0.0000 -6.5191 0.0000 58.3183
#
#
#
# Elastic Compliance Matrix: (Units=1/GPa)
#
#
# Indices 1 2 3 4 5 6 
#
# 1 0.022260 -0.018181 -0.003209 0.000000 0.022596 0.000000
# 2 -0.018181 0.027145 0.001010 0.000000 -0.017192 0.000000
# 3 -0.003209 0.001010 0.008584 0.000000 0.001129 0.000000
# 4 0.000000 0.000000 0.000000 0.102838 0.000000 0.011496
# 5 0.022596 -0.017192 0.001129 0.000000 0.050583 0.000000
# 6 0.000000 0.000000 0.000000 0.011496 0.000000 0.018432
#
#
# Mechanical properties :
#
#
# Convention : Reuss Voigt Hill
#
# Bulk Modulus (GPa) = 58.03942 79.44818 68.74380
# Shear Modulus (GPa) = 18.09327 37.32688 27.71008
#
# Velocity S-wave (km/s) = 2.90740 4.17597 3.59803
# Velocity P-wave (km/s) = 6.19565 7.76975 7.02691
#
# Compressibility (1/GPa) = 0.01722967
#
# Stress axis : x y z
#
# Youngs Moduli (GPa) = 44.92284 36.83915 116.49715
#
# Poissons Ratio (x) = 0.66977 0.37385
# Poissons Ratio (y) = 0.81674 -0.11768
# Poissons Ratio (z) = 0.14416 -0.03721
#
# Static dielectric constant tensor:
#      x y z
#    x 3.938090 0.000000 -0.108470 
#    y 0.000000 3.647890 0.000000 
#    z -0.108470 0.000000 3.618710 
# 
# 
# High freq. dielectric constant tensor:
#      x y z
#    x 1.843750 0.000000 -0.013680 
#    y 0.000000 1.826780 0.000000 
#    z -0.013680 0.000000 1.831560 
# 
# From -- ./inp_files/67746.got.cif
#   From: 2010.03.12/outbox.cif.g09.slc.cpg/sg5_34_cif.got.tgz:67746.got - 2010.03.31 09:47:26.
