data_PCOD8051761
_publ_section_title
;
Structure prediction by ZEFSAII (Michael W. Deem and Ramdas Pophale) SiO2 
 PCOD8051761
Probable space group: C 2
;
_chemical_formula_sum "Si O2"
_cell_formula_units_Z 30
_cell_length_a 13.494249
_cell_length_b 12.875039
_cell_length_c 9.309340
_cell_angle_alpha 90.000000
_cell_angle_beta 110.603362
_cell_angle_gamma 90.000000
_cell_volume 1513.944858
_symmetry_space_group_name_H-M "C 2"
_symmetry_group_IT_number 5
_symmetry_cell_setting 'monoclinic'
loop_
_space_group_symop_operation_xyz
x,y,z
-x,y,-z
1/2+x,1/2+y,z
1/2-x,1/2+y,-z
loop_
_atom_site_type_symbol
_atom_site_label
_atom_site_fract_x
_atom_site_fract_y
_atom_site_fract_z
Si Si1 0.760876 0.373920 0.380214
Si Si2 0.370516 0.566622 0.771444
Si Si3 0.769599 0.439130 0.824987
Si Si4 0.710353 0.244887 0.614171
Si Si5 0.362974 0.827727 0.141375
Si Si6 0.500000 0.119858 0.500000
Si Si7 0.563493 0.951471 0.327508
Si Si8 0.387147 0.589304 0.108015
O O1 0.681086 0.470807 0.338904
O O2 0.712393 0.281055 0.449623
O O3 0.782369 0.332922 0.232496
O O4 0.871675 0.408356 0.504471
O O5 0.310660 0.672347 0.698692
O O6 0.491611 0.574486 0.782152
O O7 0.364831 0.544391 0.938532
O O8 0.710623 0.343528 0.719320
O O9 0.860809 0.482192 0.766277
O O10 0.685997 0.530888 0.813251
O O11 0.822207 0.404727 0.999217
O O12 0.601795 0.187314 0.584323
O O13 0.481534 0.862713 0.239866
O O14 0.362270 0.710786 0.085886
O O15 0.506617 0.054373 0.356035
#
# Coordination Sequence:
#
# PCOD8051761 Si02
#       8
#     4   4   4   4   4   2   4   4
#     4  11  23  41  65  93 132 166 217 270 331 398
#     4  11  22  45  65  92 132 178 217 267 338 397
#     4  11  25  43  64 100 133 166 230 274 335 395
#     4  11  25  43  67  96 131 177 215 280 334 398
#     4  12  22  42  68  97 130 170 221 278 325 393
#     4  12  24  44  72  90 138 174 228 266 352 388
#     4  11  23  42  67  96 128 175 220 278 326 398
#     4  11  25  39  68  96 129 175 220 273 333 399
#
# _framework density 19.81578
#
# number of rings (size 3 to 8) (size 9 to 14) (size 15 to 20)
#    0.000    0.800    5.333    2.000    5.600    0.000 
#    0.000    2.667    0.000    0.000    0.000    0.000 
#    0.000    0.000    0.000    0.000    0.000    0.000 
#
# Total GULP energy -186069.136802 kJ/mol
# GULP energy per Si atom -12404.609120 kJ/mol
# Density = 1.977068 g / cm^3
# Si number density = 19.815780 Si / 1000 Ang^3
#
#
#
# Elastic Constant Matrix: (Units=GPa)
#
#
# Indices 1 2 3 4 5 6 
#
# 1 126.8634 74.0272 46.8786 0.0000 -8.3712 0.0000
# 2 74.0272 95.8237 34.0951 0.0000 3.9310 0.0000
# 3 46.8786 34.0951 99.3069 0.0000 -6.2752 0.0000
# 4 0.0000 0.0000 0.0000 32.4324 0.0000 -4.1734
# 5 -8.3712 3.9310 -6.2752 0.0000 37.0058 0.0000
# 6 0.0000 0.0000 0.0000 -4.1734 0.0000 40.5527
#
#
#
# Elastic Compliance Matrix: (Units=1/GPa)
#
#
# Indices 1 2 3 4 5 6 
#
# 1 0.016055 -0.011365 -0.003407 0.000000 0.004261 0.000000
# 2 -0.011365 0.020078 -0.001845 0.000000 -0.005017 0.000000
# 3 -0.003407 -0.001845 0.012409 0.000000 0.001529 0.000000
# 4 0.000000 0.000000 0.000000 0.031247 0.000000 0.003216
# 5 0.004261 -0.005017 0.001529 0.000000 0.028779 0.000000
# 6 0.000000 0.000000 0.000000 0.003216 0.000000 0.024990
#
#
# Mechanical properties :
#
#
# Convention : Reuss Voigt Hill
#
# Bulk Modulus (GPa) = 65.33692 70.22177 67.77935
# Shear Modulus (GPa) = 29.08742 33.13105 31.10924
#
# Velocity S-wave (km/s) = 3.83546 4.09339 3.96652
# Velocity P-wave (km/s) = 7.25659 7.60627 7.43349
#
# Compressibility (1/GPa) = 0.01530528
#
# Stress axis : x y z
#
# Youngs Moduli (GPa) = 62.28760 49.80513 80.58964
#
# Poissons Ratio (x) = 0.56604 0.27460
# Poissons Ratio (y) = 0.70791 0.14873
# Poissons Ratio (z) = 0.21224 0.09191
#
# Static dielectric constant tensor:
#      x y z
#    x 3.697150 0.000000 -0.047920 
#    y 0.000000 3.605060 0.000000 
#    z -0.047920 0.000000 3.764240 
# 
# 
# High freq. dielectric constant tensor:
#      x y z
#    x 1.781250 0.000000 -0.001560 
#    y 0.000000 1.774010 0.000000 
#    z -0.001560 0.000000 1.780370 
# 
# From -- ./inp_files/23833.got.cif
#   From: 2010.03.12/outbox.cif.g09.slc.cpg/sg5_12_cif.got.tgz:23833.got - 2010.03.31 09:47:26.
