data_PCOD8051834
_publ_section_title
;
Structure prediction by ZEFSAII (Michael W. Deem and Ramdas Pophale) SiO2 
 PCOD8051834
Probable space group: C 2
;
_chemical_formula_sum "Si O2"
_cell_formula_units_Z 28
_cell_length_a 19.834510
_cell_length_b 14.125304
_cell_length_c 8.154003
_cell_angle_alpha 90.000000
_cell_angle_beta 147.075222
_cell_angle_gamma 90.000000
_cell_volume 1241.708511
_symmetry_space_group_name_H-M "C 2"
_symmetry_group_IT_number 5
_symmetry_cell_setting 'monoclinic'
loop_
_space_group_symop_operation_xyz
x,y,z
-x,y,-z
1/2+x,1/2+y,z
1/2-x,1/2+y,-z
loop_
_atom_site_type_symbol
_atom_site_label
_atom_site_fract_x
_atom_site_fract_y
_atom_site_fract_z
Si Si1 0.722013 0.211880 0.306518
Si Si2 0.856149 0.524685 0.690330
Si Si3 0.861498 0.429542 0.178124
Si Si4 0.861376 0.232971 0.278444
Si Si5 0.678098 0.108895 0.726550
Si Si6 0.756273 0.856098 0.377754
Si Si7 0.485640 0.280977 0.649939
O O1 0.658967 0.112792 0.219353
O O2 0.831609 0.191601 0.398230
O O3 0.774542 0.261543 0.579512
O O4 0.615919 0.278743 0.011000
O O5 0.813567 0.552127 0.423043
O O6 0.753640 0.444585 0.519942
O O7 0.000000 0.490287 0.000000
O O8 0.822750 0.343543 0.218685
O O9 0.796692 0.530762 0.078155
O O10 0.000000 0.459280 0.500000
O O11 0.847478 0.385626 0.967985
O O12 0.000000 0.219599 0.500000
O O13 0.783495 0.187141 0.971344
O O14 0.553181 0.171586 0.464231
O O15 0.889606 0.842463 0.562671
O O16 0.500000 0.330630 0.500000
#
# Coordination Sequence:
#
# PCOD8051834 Si02
#       7
#     4   4   4   4   4   4   4
#     4  12  23  47  74 106 148 189 249 308 366 436
#     4  12  24  42  72 109 145 192 250 308 360 430
#     4  11  23  42  69 101 141 191 253 287 354 441
#     4  11  25  46  69 102 147 196 243 298 377 445
#     4  12  22  45  72 108 139 193 251 301 357 433
#     4  12  25  43  67 117 145 183 241 321 371 415
#     4  12  23  44  78 105 144 197 246 311 358 441
#
# _framework density 22.549575000000001
#
# number of rings (size 3 to 8) (size 9 to 14) (size 15 to 20)
#    0.000    0.286    5.714    3.429    0.000    1.143 
#    0.000   15.000    0.000    0.000    0.000    0.000 
#    0.000    0.000    0.000    0.000    0.000    0.000 
#
# Total GULP energy -173454.045254 kJ/mol
# GULP energy per Si atom -12389.574661 kJ/mol
# Density = 2.249825 g / cm^3
# Si number density = 22.549575 Si / 1000 Ang^3
#
#
#
# Elastic Constant Matrix: (Units=GPa)
#
#
# Indices 1 2 3 4 5 6 
#
# 1 156.8655 37.1164 39.0218 0.0000 6.9111 0.0000
# 2 37.1164 97.2811 24.3434 0.0000 16.4330 0.0000
# 3 39.0218 24.3434 69.6089 0.0000 6.6165 0.0000
# 4 0.0000 0.0000 0.0000 25.1647 0.0000 -8.4692
# 5 6.9111 16.4330 6.6165 0.0000 27.9303 0.0000
# 6 0.0000 0.0000 0.0000 -8.4692 0.0000 38.3185
#
#
#
# Elastic Compliance Matrix: (Units=1/GPa)
#
#
# Indices 1 2 3 4 5 6 
#
# 1 0.007766 -0.002079 -0.003642 0.000000 0.000165 0.000000
# 2 -0.002079 0.012832 -0.002714 0.000000 -0.006392 0.000000
# 3 -0.003642 -0.002714 0.017514 0.000000 -0.001651 0.000000
# 4 0.000000 0.000000 0.000000 0.042932 0.000000 0.009489
# 5 0.000165 -0.006392 -0.001651 0.000000 0.039915 0.000000
# 6 0.000000 0.000000 0.000000 0.009489 0.000000 0.028194
#
#
# Mechanical properties :
#
#
# Convention : Reuss Voigt Hill
#
# Bulk Modulus (GPa) = 47.08023 58.30209 52.69116
# Shear Modulus (GPa) = 28.88466 33.16764 31.02615
#
# Velocity S-wave (km/s) = 3.58291 3.83936 3.71335
# Velocity P-wave (km/s) = 6.16767 6.75022 6.46551
#
# Compressibility (1/GPa) = 0.02124034
#
# Stress axis : x y z
#
# Youngs Moduli (GPa) = 128.77377 77.93117 57.09840
#
# Poissons Ratio (x) = 0.16205 0.20794
# Poissons Ratio (y) = 0.26777 0.15498
# Poissons Ratio (z) = 0.46896 0.21152
#
# Static dielectric constant tensor:
#      x y z
#    x 4.424330 0.000000 -0.225600 
#    y 0.000000 4.256650 0.000000 
#    z -0.225600 0.000000 3.882890 
# 
# 
# High freq. dielectric constant tensor:
#      x y z
#    x 1.901010 0.000000 -0.019230 
#    y 0.000000 1.890800 0.000000 
#    z -0.019230 0.000000 1.870670 
# 
# From -- ./inp_files/29881.got.cif
#   From: 2010.03.12/outbox.cif.g09.slc.cpg/sg5_15_cif.got.tgz:29881.got - 2010.03.31 09:47:26.
