data_PCOD8051744
_publ_section_title
;
Structure prediction by ZEFSAII (Michael W. Deem and Ramdas Pophale) SiO2 
 PCOD8051744
Probable space group: C 2
;
_chemical_formula_sum "Si O2"
_cell_formula_units_Z 32
_cell_length_a 25.650838
_cell_length_b 6.433705
_cell_length_c 16.091731
_cell_angle_alpha 90.000000
_cell_angle_beta 32.253046
_cell_angle_gamma 90.000000
_cell_volume 1417.195260
_symmetry_space_group_name_H-M "C 2"
_symmetry_group_IT_number 5
_symmetry_cell_setting 'monoclinic'
loop_
_space_group_symop_operation_xyz
x,y,z
-x,y,-z
1/2+x,1/2+y,z
1/2-x,1/2+y,-z
loop_
_atom_site_type_symbol
_atom_site_label
_atom_site_fract_x
_atom_site_fract_y
_atom_site_fract_z
Si Si1 0.409438 0.862720 0.680847
Si Si2 0.792601 0.760493 0.834605
Si Si3 0.044634 0.753636 0.115374
Si Si4 0.125578 0.038619 0.138986
Si Si5 0.065139 0.473364 0.836030
Si Si6 0.379995 0.548662 0.281224
Si Si7 0.759346 0.139234 0.774998
Si Si8 0.739921 0.714261 0.410714
O O1 0.500000 0.820866 0.500000
O O2 0.429262 0.730126 0.739137
O O3 0.311692 0.778981 0.771950
O O4 0.387980 0.110801 0.716262
O O5 0.799610 0.924251 0.900274
O O6 0.784484 0.894935 0.760380
O O7 0.690723 0.637837 0.978263
O O8 0.985970 0.533356 0.185058
O O9 0.971889 0.895728 0.159931
O O10 0.054712 0.863278 0.192575
O O11 0.146965 0.705866 0.933496
O O12 0.175047 0.550639 0.690989
O O13 0.077293 0.229090 0.833466
O O14 0.000000 0.561866 0.000000
O O15 0.350937 0.651537 0.408837
O O16 0.282994 0.443377 0.372721
O O17 0.799142 0.198732 0.630766
#
# Coordination Sequence:
#
# PCOD8051744 Si02
#       8
#     4   4   4   4   4   4   4   4
#     4  11  26  45  68 104 138 183 227 283 351 409
#     4  11  22  43  71  99 134 183 225 285 346 406
#     4  11  25  41  69 105 131 179 238 278 345 410
#     4  11  22  43  71  96 139 176 231 285 334 420
#     4  11  24  42  69 103 139 182 233 286 340 413
#     4  11  26  44  72  98 140 184 232 283 353 406
#     4  11  25  43  69 101 141 175 233 286 345 418
#     4  11  24  48  65  99 142 183 224 290 347 417
#
# _framework density 22.579810999999999
#
# number of rings (size 3 to 8) (size 9 to 14) (size 15 to 20)
#    0.000    1.000    5.000    0.750    5.250    3.000 
#    0.000    0.000    0.000    0.000    0.000    0.000 
#    0.000    0.000    0.000    0.000    0.000    0.000 
#
# Total GULP energy -198213.941903 kJ/mol
# GULP energy per Si atom -12388.371369 kJ/mol
# Density = 2.252842 g / cm^3
# Si number density = 22.579811 Si / 1000 Ang^3
#
#
#
# Elastic Constant Matrix: (Units=GPa)
#
#
# Indices 1 2 3 4 5 6 
#
# 1 79.8142 33.4278 0.8019 0.0060 15.2791 0.0001
# 2 33.4278 125.1475 26.6449 0.0394 7.2615 -0.0384
# 3 0.8019 26.6449 61.1179 0.0555 3.8388 -0.0550
# 4 0.0060 0.0394 0.0555 29.0425 -0.0114 3.2453
# 5 15.2791 7.2615 3.8388 -0.0114 32.0697 0.0054
# 6 0.0001 -0.0384 -0.0550 3.2453 0.0054 25.0590
#
#
#
# Elastic Compliance Matrix: (Units=1/GPa)
#
#
# Indices 1 2 3 4 5 6 
#
# 1 0.015551 -0.004201 0.002048 -0.000004 -0.006703 0.000000
# 2 -0.004201 0.010020 -0.004329 -0.000005 0.000251 0.000006
# 3 0.002048 -0.004329 0.018360 -0.000035 -0.002194 0.000039
# 4 -0.000004 -0.000005 -0.000035 0.034938 0.000020 -0.004525
# 5 -0.006703 0.000251 -0.002194 0.000020 0.034581 -0.000015
# 6 0.000000 0.000006 0.000039 -0.004525 -0.000015 0.040492
#
#
# Mechanical properties :
#
#
# Convention : Reuss Voigt Hill
#
# Bulk Modulus (GPa) = 32.29130 43.09210 37.69170
# Shear Modulus (GPa) = 28.21227 30.91457 29.56342
#
# Velocity S-wave (km/s) = 3.53859 3.70418 3.62233
# Velocity P-wave (km/s) = 5.57023 6.11722 5.85012
#
# Compressibility (1/GPa) = 0.03096810
#
# Stress axis : x y z
#
# Youngs Moduli (GPa) = 64.30386 99.80257 54.46625
#
# Poissons Ratio (x) = 0.41927 -0.11157
# Poissons Ratio (y) = 0.27014 0.23578
# Poissons Ratio (z) = -0.13172 0.43203
#
# Static dielectric constant tensor:
#      x y z
#    x 4.105230 0.000010 0.066490 
#    y 0.000010 4.483960 0.000000 
#    z 0.066490 0.000000 3.823580 
# 
# 
# High freq. dielectric constant tensor:
#      x y z
#    x 1.875960 0.000000 -0.006160 
#    y 0.000000 1.905550 0.000000 
#    z -0.006160 0.000000 1.878030 
# 
# From -- ./inp_files/63728.got.cif
#   From: 2010.03.12/outbox.cif.g09.slc.cpg/sg5_32_cif.got.tgz:63728.got - 2010.03.31 09:47:26.
