data_PCOD8051467
_publ_section_title
;
Structure prediction by ZEFSAII (Michael W. Deem and Ramdas Pophale) SiO2 
 PCOD8051467
Probable space group: C 2
;
_chemical_formula_sum "Si O2"
_cell_formula_units_Z 20
_cell_length_a 22.644958
_cell_length_b 5.283333
_cell_length_c 8.830254
_cell_angle_alpha 90.000000
_cell_angle_beta 129.995523
_cell_angle_gamma 90.000000
_cell_volume 809.347704
_symmetry_space_group_name_H-M "C 2"
_symmetry_group_IT_number 5
_symmetry_cell_setting 'monoclinic'
loop_
_space_group_symop_operation_xyz
x,y,z
-x,y,-z
1/2+x,1/2+y,z
1/2-x,1/2+y,-z
loop_
_atom_site_type_symbol
_atom_site_label
_atom_site_fract_x
_atom_site_fract_y
_atom_site_fract_z
Si Si1 0.120792 0.994770 0.375086
Si Si2 0.341486 0.500741 0.900081
Si Si3 0.020388 0.314447 0.876033
Si Si4 0.437336 0.166326 0.291182
Si Si5 0.834655 0.498492 0.374686
O O1 0.156572 0.912055 0.272100
O O2 0.136286 0.760181 0.506604
O O3 0.157101 0.254256 0.503666
O O4 0.029029 0.052525 0.211470
O O5 0.255052 0.533204 0.813966
O O6 0.387627 0.765856 0.975687
O O7 0.386343 0.329178 0.094645
O O8 0.002072 0.493644 0.704913
O O9 0.000000 0.456959 0.000000
O O10 0.500000 0.319207 0.500000
O O11 0.380791 0.979282 0.292686
#
# Coordination Sequence:
#
# PCOD8051467 Si02
#       5
#     4   4   4   4   4
#     4  11  26  52  78 112 152 206 256 316 382 474
#     4  11  28  45  79 110 158 201 259 317 392 460
#     4  10  25  46  75 109 152 209 257 312 378 471
#     4  12  27  46  76 111 162 202 262 317 394 458
#     4  12  28  48  80 115 157 195 259 323 394 451
#
# _framework density 24.711258999999998
#
# number of rings (size 3 to 8) (size 9 to 14) (size 15 to 20)
#    0.000    0.800    2.000    2.400   14.000    1.600 
#    0.000    0.000    0.000    0.000    0.000    0.000 
#    0.000    0.000    0.000    0.000    0.000    0.000 
#
# Total GULP energy -123918.236178 kJ/mol
# GULP energy per Si atom -12391.823618 kJ/mol
# Density = 2.465502 g / cm^3
# Si number density = 24.711259 Si / 1000 Ang^3
#
#
#
# Elastic Constant Matrix: (Units=GPa)
#
#
# Indices 1 2 3 4 5 6 
#
# 1 153.8976 46.2690 97.2444 0.0000 -2.1716 0.0000
# 2 46.2690 97.9479 54.5839 0.0000 -13.7457 0.0000
# 3 97.2444 54.5839 145.6775 0.0000 -11.9407 0.0000
# 4 0.0000 0.0000 0.0000 37.3390 0.0000 -8.4252
# 5 -2.1716 -13.7457 -11.9407 0.0000 42.2214 0.0000
# 6 0.0000 0.0000 0.0000 -8.4252 0.0000 21.9162
#
#
#
# Elastic Compliance Matrix: (Units=1/GPa)
#
#
# Indices 1 2 3 4 5 6 
#
# 1 0.011558 -0.001707 -0.007240 0.000000 -0.002009 0.000000
# 2 -0.001707 0.013513 -0.003655 0.000000 0.003278 0.000000
# 3 -0.007240 -0.003655 0.013246 0.000000 0.002184 0.000000
# 4 0.000000 0.000000 0.000000 0.029325 0.000000 0.011273
# 5 -0.002009 0.003278 0.002184 0.000000 0.025266 0.000000
# 6 0.000000 0.000000 0.000000 0.011273 0.000000 0.049962
#
#
# Mechanical properties :
#
#
# Convention : Reuss Voigt Hill
#
# Bulk Modulus (GPa) = 76.26479 88.19085 82.22782
# Shear Modulus (GPa) = 28.99486 33.59037 31.29261
#
# Velocity S-wave (km/s) = 3.42913 3.69089 3.56241
# Velocity P-wave (km/s) = 6.82700 7.34367 7.09005
#
# Compressibility (1/GPa) = 0.01311221
#
# Stress axis : x y z
#
# Youngs Moduli (GPa) = 86.52380 74.00496 75.49417
#
# Poissons Ratio (x) = 0.12631 0.54659
# Poissons Ratio (y) = 0.14767 0.27594
# Poissons Ratio (z) = 0.62645 0.27049
#
# Static dielectric constant tensor:
#      x y z
#    x 5.082460 0.000000 -0.093120 
#    y 0.000000 4.051870 0.000000 
#    z -0.093120 0.000000 4.742260 
# 
# 
# High freq. dielectric constant tensor:
#      x y z
#    x 2.005130 0.000000 -0.003790 
#    y 0.000000 1.954720 0.000000 
#    z -0.003790 0.000000 2.005730 
# 
# From -- ./inp_files/26009.got.cif
#   From: 2010.03.12/outbox.cif.g09.slc.cpg/sg5_14_cif.got.tgz:26009.got - 2010.03.31 09:47:26.
