data_PCOD8051105
_publ_section_title
;
Structure prediction by ZEFSAII (Michael W. Deem and Ramdas Pophale) SiO2 
 PCOD8051105
Probable space group: C 2
;
_chemical_formula_sum "Si O2"
_cell_formula_units_Z 26
_cell_length_a 19.709552
_cell_length_b 9.074509
_cell_length_c 7.701293
_cell_angle_alpha 90.000000
_cell_angle_beta 127.489632
_cell_angle_gamma 90.000000
_cell_volume 1092.925304
_symmetry_space_group_name_H-M "C 2"
_symmetry_group_IT_number 5
_symmetry_cell_setting 'monoclinic'
loop_
_space_group_symop_operation_xyz
x,y,z
-x,y,-z
1/2+x,1/2+y,z
1/2-x,1/2+y,-z
loop_
_atom_site_type_symbol
_atom_site_label
_atom_site_fract_x
_atom_site_fract_y
_atom_site_fract_z
Si Si1 0.643219 0.847930 0.439823
Si Si2 0.032067 0.218098 0.733167
Si Si3 0.317725 0.873956 0.891367
Si Si4 0.000000 0.759191 0.500000
Si Si5 0.055584 0.913685 0.921194
Si Si6 0.193754 0.695588 0.230692
Si Si7 0.836573 0.660229 0.422977
O O1 0.544917 0.821737 0.327761
O O2 0.639884 0.860189 0.229063
O O3 0.704507 0.713647 0.587480
O O4 0.687189 0.987142 0.607073
O O5 0.000000 0.151958 0.500000
O O6 0.059795 0.090752 0.912320
O O7 0.117051 0.320279 0.855946
O O8 0.231962 0.774209 0.766144
O O9 0.307317 0.050807 0.894249
O O10 0.007757 0.862807 0.676703
O O11 0.081431 0.661061 0.575973
O O12 0.148179 0.834386 0.066613
O O13 0.000000 0.868196 0.000000
O O14 0.147368 0.693368 0.347335
#
# Coordination Sequence:
#
# PCOD8051105 Si02
#       7
#     4   4   4   2   4   4   4
#     4  10  23  43  72 105 142 191 239 291 364 428
#     4  12  27  43  67 104 148 191 240 298 363 428
#     4  10  23  44  72 104 143 187 243 296 354 429
#     4  12  26  42  72 110 142 186 236 298 346 434
#     4  12  25  45  72 101 146 190 238 292 359 421
#     4  10  23  43  75 105 141 191 239 293 361 427
#     4  10  23  44  73 107 144 185 240 297 360 423
#
# _framework density 23.789368
#
# number of rings (size 3 to 8) (size 9 to 14) (size 15 to 20)
#    0.000    1.231    2.308    2.308    5.385    3.692 
#    0.000    0.000    0.000    0.000    0.000    0.000 
#    0.000    0.000    0.000    0.000    0.000    0.000 
#
# Total GULP energy -161050.188342 kJ/mol
# GULP energy per Si atom -12388.476026 kJ/mol
# Density = 2.373522 g / cm^3
# Si number density = 23.789368 Si / 1000 Ang^3
#
#
#
# Elastic Constant Matrix: (Units=GPa)
#
#
# Indices 1 2 3 4 5 6 
#
# 1 101.3317 26.4176 31.2615 0.0000 10.1777 0.0000
# 2 26.4176 138.5899 54.0592 0.0000 17.2607 0.0000
# 3 31.2615 54.0592 104.8063 0.0000 16.8042 0.0000
# 4 0.0000 0.0000 0.0000 47.1501 0.0000 6.4892
# 5 10.1777 17.2607 16.8042 0.0000 32.7949 0.0000
# 6 0.0000 0.0000 0.0000 6.4892 0.0000 28.2146
#
#
#
# Elastic Compliance Matrix: (Units=1/GPa)
#
#
# Indices 1 2 3 4 5 6 
#
# 1 0.011062 -0.000901 -0.002572 0.000000 -0.001641 0.000000
# 2 -0.000901 0.009311 -0.004132 0.000000 -0.002503 0.000000
# 3 -0.002572 -0.004132 0.013034 0.000000 -0.003706 0.000000
# 4 0.000000 0.000000 0.000000 0.021902 0.000000 -0.005037
# 5 -0.001641 -0.002503 -0.003706 0.000000 0.034218 0.000000
# 6 0.000000 0.000000 0.000000 -0.005037 0.000000 0.036601
#
#
# Mechanical properties :
#
#
# Convention : Reuss Voigt Hill
#
# Bulk Modulus (GPa) = 54.95541 63.13386 59.04464
# Shear Modulus (GPa) = 33.92034 37.16455 35.54244
#
# Velocity S-wave (km/s) = 3.78015 3.95680 3.86948
# Velocity P-wave (km/s) = 6.49644 6.88994 6.69608
#
# Compressibility (1/GPa) = 0.01819657
#
# Stress axis : x y z
#
# Youngs Moduli (GPa) = 90.40231 107.39956 76.72156
#
# Poissons Ratio (x) = 0.09678 0.19730
# Poissons Ratio (y) = 0.08146 0.31705
# Poissons Ratio (z) = 0.23248 0.44383
#
# Static dielectric constant tensor:
#      x y z
#    x 4.298300 0.000000 -0.153700 
#    y 0.000000 4.469050 0.000000 
#    z -0.153700 0.000000 4.181870 
# 
# 
# High freq. dielectric constant tensor:
#      x y z
#    x 1.934470 0.000000 -0.002770 
#    y 0.000000 1.948470 0.000000 
#    z -0.002770 0.000000 1.942830 
# 
# From -- ./inp_files/29145.got.cif
#   From: 2010.03.12/outbox.cif.g09.slc.cpg/sg5_15_cif.got.tgz:29145.got - 2010.03.31 09:47:26.
