data_PCOD8051476
_publ_section_title
;
Structure prediction by ZEFSAII (Michael W. Deem and Ramdas Pophale) SiO2 
 PCOD8051476
Probable space group: C 2
;
_chemical_formula_sum "Si O2"
_cell_formula_units_Z 12
_cell_length_a 13.322804
_cell_length_b 4.851739
_cell_length_c 8.772021
_cell_angle_alpha 90.000000
_cell_angle_beta 45.698560
_cell_angle_gamma 90.000000
_cell_volume 405.796865
_symmetry_space_group_name_H-M "C 2"
_symmetry_group_IT_number 5
_symmetry_cell_setting 'monoclinic'
loop_
_space_group_symop_operation_xyz
x,y,z
-x,y,-z
1/2+x,1/2+y,z
1/2-x,1/2+y,-z
loop_
_atom_site_type_symbol
_atom_site_label
_atom_site_fract_x
_atom_site_fract_y
_atom_site_fract_z
Si Si1 0.090157 0.162210 0.536172
Si Si2 0.831982 0.390017 0.966484
Si Si3 0.351426 0.481951 0.208442
O O1 0.213942 0.309308 0.310343
O O2 0.000000 0.001112 0.500000
O O3 0.152318 0.972618 0.603016
O O4 0.987293 0.377329 0.730992
O O5 0.836417 0.279390 0.138311
O O6 0.780496 0.704176 0.009463
O O7 0.500000 0.341825 0.000000
#
# Coordination Sequence:
#
# PCOD8051476 Si02
#       3
#     4   4   4
#     4  11  24  47  75 115 147 209 251 317 385 460
#     4  11  25  49  78 112 155 202 255 319 384 456
#     4  10  25  47  72 115 155 199 259 321 381 462
#
# _framework density 29.571446999999999
#
# number of rings (size 3 to 8) (size 9 to 14) (size 15 to 20)
#    0.000    1.333    3.333    0.000    4.667    5.333 
#    0.000    8.333    0.000    0.000    0.000    0.000 
#    0.000    0.000    0.000    0.000    0.000    0.000 
#
# Total GULP energy -74358.488590 kJ/mol
# GULP energy per Si atom -12393.081432 kJ/mol
# Density = 2.950414 g / cm^3
# Si number density = 29.571447 Si / 1000 Ang^3
#
#
#
# Elastic Constant Matrix: (Units=GPa)
#
#
# Indices 1 2 3 4 5 6 
#
# 1 173.5107 -17.9644 41.9472 -0.0003 23.1149 0.0002
# 2 -17.9644 17.7774 9.7687 -0.0020 -5.0741 0.0024
# 3 41.9472 9.7687 147.1342 -0.0002 9.8534 -0.0001
# 4 -0.0003 -0.0020 -0.0002 20.3051 0.0002 6.6508
# 5 23.1149 -5.0741 9.8534 0.0002 75.2992 -0.0001
# 6 0.0002 0.0024 -0.0001 6.6508 -0.0001 26.7150
#
#
#
# Elastic Compliance Matrix: (Units=1/GPa)
#
#
# Indices 1 2 3 4 5 6 
#
# 1 0.007465 0.008584 -0.002606 0.000001 -0.001372 -0.000001
# 2 0.008584 0.069790 -0.007283 0.000010 0.003021 -0.000009
# 3 -0.002606 -0.007283 0.008073 -0.000001 -0.000747 0.000001
# 4 0.000001 0.000010 -0.000001 0.053621 0.000000 -0.013349
# 5 -0.001372 0.003021 -0.000747 0.000000 0.014003 0.000000
# 6 -0.000001 -0.000009 0.000001 -0.013349 0.000000 0.040755
#
#
# Mechanical properties :
#
#
# Convention : Reuss Voigt Hill
#
# Bulk Modulus (GPa) = 12.08939 45.10280 28.59609
# Shear Modulus (GPa) = 22.33234 44.77525 33.55379
#
# Velocity S-wave (km/s) = 2.75107 3.89541 3.37214
# Velocity P-wave (km/s) = 3.76673 5.95966 4.98527
#
# Compressibility (1/GPa) = 0.08271715
#
# Stress axis : x y z
#
# Youngs Moduli (GPa) = 133.95968 14.32873 123.86771
#
# Poissons Ratio (x) = -0.12300 0.32283
# Poissons Ratio (y) = -1.14991 0.90214
# Poissons Ratio (z) = 0.34913 0.10436
#
# Static dielectric constant tensor:
#      x y z
#    x 6.007240 0.000000 0.056330 
#    y 0.000000 4.317900 0.000000 
#    z 0.056330 0.000000 5.730880 
# 
# 
# High freq. dielectric constant tensor:
#      x y z
#    x 2.248200 0.000000 0.013280 
#    y 0.000000 2.127050 0.000000 
#    z 0.013280 0.000000 2.246550 
# 
# From -- ./inp_files/17682.got.cif
#   From: 2010.03.12/outbox.cif.g09.slc.cpg/sg5_9_cif.got.tgz:17682.got - 2010.03.31 09:47:26.
