data_PCOD8051036
_publ_section_title
;
Structure prediction by ZEFSAII (Michael W. Deem and Ramdas Pophale) SiO2 
 PCOD8051036
Probable space group: C 2
;
_chemical_formula_sum "Si O2"
_cell_formula_units_Z 30
_cell_length_a 12.046948
_cell_length_b 17.333420
_cell_length_c 11.528428
_cell_angle_alpha 90.000000
_cell_angle_beta 143.163168
_cell_angle_gamma 90.000000
_cell_volume 1443.272243
_symmetry_space_group_name_H-M "C 2"
_symmetry_group_IT_number 5
_symmetry_cell_setting 'monoclinic'
loop_
_space_group_symop_operation_xyz
x,y,z
-x,y,-z
1/2+x,1/2+y,z
1/2-x,1/2+y,-z
loop_
_atom_site_type_symbol
_atom_site_label
_atom_site_fract_x
_atom_site_fract_y
_atom_site_fract_z
Si Si1 0.500000 0.935920 0.000000
Si Si2 0.578385 0.198537 0.685659
Si Si3 0.312766 0.515339 0.402126
Si Si4 0.791812 0.155682 0.521775
Si Si5 0.180599 0.068626 0.221867
Si Si6 0.154289 0.924277 0.340900
Si Si7 0.760124 0.841073 0.046076
Si Si8 0.521920 0.805639 0.382588
O O1 0.364855 0.991574 0.818071
O O2 0.380078 0.885847 0.987984
O O3 0.500000 0.236462 0.500000
O O4 0.418497 0.184026 0.644633
O O5 0.660932 0.113529 0.719606
O O6 0.710317 0.259769 0.861220
O O7 0.500000 0.486231 0.500000
O O8 0.308214 0.607573 0.415981
O O9 0.309374 0.481879 0.525974
O O10 0.852412 0.108658 0.684147
O O11 0.936102 0.224293 0.639236
O O12 0.202784 0.975552 0.264824
O O13 0.000000 0.082937 0.000000
O O14 0.300220 0.858122 0.485259
O O15 0.947776 0.888200 0.174196
O O16 0.662308 0.833627 0.838433
O O17 0.500000 0.796969 0.500000
#
# Coordination Sequence:
#
# PCOD8051036 Si02
#       8
#     2   4   4   4   4   4   4   4
#     4  12  26  40  76 106 130 182 236 288 358 416
#     4  10  23  42  72 104 139 179 233 297 348 413
#     4  11  23  45  67  99 137 176 226 293 350 416
#     4  10  23  46  66  98 140 180 230 289 349 417
#     4  10  23  41  71 100 136 180 235 289 354 411
#     4  11  25  45  67 102 143 180 231 290 354 424
#     4  12  26  43  76 106 139 183 239 287 359 418
#     4  12  27  46  69  98 144 188 235 282 354 429
#
# _framework density 20.786099
#
# number of rings (size 3 to 8) (size 9 to 14) (size 15 to 20)
#    0.000    1.067    4.000    1.200    8.400    3.733 
#    4.800    0.000    0.000    0.000    0.000    0.000 
#    0.000    0.000    0.000    0.000    0.000    0.000 
#
# Total GULP energy -185863.590411 kJ/mol
# GULP energy per Si atom -12390.906027 kJ/mol
# Density = 2.073879 g / cm^3
# Si number density = 20.786099 Si / 1000 Ang^3
#
#
#
# Elastic Constant Matrix: (Units=GPa)
#
#
# Indices 1 2 3 4 5 6 
#
# 1 63.6348 26.1785 38.1633 0.0000 0.6066 0.0000
# 2 26.1785 103.8540 51.2670 0.0000 0.2605 0.0000
# 3 38.1633 51.2670 152.0242 0.0000 11.7405 0.0000
# 4 0.0000 0.0000 0.0000 25.0915 0.0000 -12.3905
# 5 0.6066 0.2605 11.7405 0.0000 21.9301 0.0000
# 6 0.0000 0.0000 0.0000 -12.3905 0.0000 29.8456
#
#
#
# Elastic Compliance Matrix: (Units=1/GPa)
#
#
# Indices 1 2 3 4 5 6 
#
# 1 0.019283 -0.002895 -0.003991 0.000000 0.001638 0.000000
# 2 -0.002895 0.012074 -0.003484 0.000000 0.001802 0.000000
# 3 -0.003991 -0.003484 0.009120 0.000000 -0.004731 0.000000
# 4 0.000000 0.000000 0.000000 0.050131 0.000000 0.020812
# 5 0.001638 0.001802 -0.004731 0.000000 0.048065 0.000000
# 6 0.000000 0.000000 0.000000 0.020812 0.000000 0.042146
#
#
# Mechanical properties :
#
#
# Convention : Reuss Voigt Hill
#
# Bulk Modulus (GPa) = 50.66475 61.19227 55.92851
# Shear Modulus (GPa) = 24.02234 28.96707 26.49471
#
# Velocity S-wave (km/s) = 3.40324 3.73712 3.57408
# Velocity P-wave (km/s) = 6.31427 6.93717 6.63303
#
# Compressibility (1/GPa) = 0.01973759
#
# Stress axis : x y z
#
# Youngs Moduli (GPa) = 51.85787 82.82260 109.64761
#
# Poissons Ratio (x) = 0.23975 0.43762
# Poissons Ratio (y) = 0.15011 0.38203
# Poissons Ratio (z) = 0.20697 0.28857
#
# Static dielectric constant tensor:
#      x y z
#    x 3.832490 0.000000 -0.023920 
#    y 0.000000 4.719530 0.000000 
#    z -0.023920 0.000000 3.878480 
# 
# 
# High freq. dielectric constant tensor:
#      x y z
#    x 1.814310 0.000000 0.000370 
#    y 0.000000 1.823470 0.000000 
#    z 0.000370 0.000000 1.823540 
# 
# From -- ./inp_files/40482.got.cif
#   From: 2010.03.12/outbox.cif.g09.slc.cpg/sg5_21_cif.got.tgz:40482.got - 2010.03.31 09:47:26.
