data_PCOD8051452
_publ_section_title
;
Structure prediction by ZEFSAII (Michael W. Deem and Ramdas Pophale) SiO2 
 PCOD8051452
Probable space group: C 2
;
_chemical_formula_sum "Si O2"
_cell_formula_units_Z 28
_cell_length_a 21.178000
_cell_length_b 8.626043
_cell_length_c 14.922181
_cell_angle_alpha 90.000000
_cell_angle_beta 29.809015
_cell_angle_gamma 90.000000
_cell_volume 1355.132603
_symmetry_space_group_name_H-M "C 2"
_symmetry_group_IT_number 5
_symmetry_cell_setting 'monoclinic'
loop_
_space_group_symop_operation_xyz
x,y,z
-x,y,-z
1/2+x,1/2+y,z
1/2-x,1/2+y,-z
loop_
_atom_site_type_symbol
_atom_site_label
_atom_site_fract_x
_atom_site_fract_y
_atom_site_fract_z
Si Si1 0.633638 0.812960 0.863196
Si Si2 0.942630 0.139447 0.659502
Si Si3 0.179099 0.450053 0.161404
Si Si4 0.600103 0.370698 0.532834
Si Si5 0.817135 0.519296 0.041807
Si Si6 0.000000 0.014792 0.000000
Si Si7 0.000000 0.650809 0.500000
Si Si8 0.555738 0.331833 0.104269
O O1 0.746666 0.878226 0.661181
O O2 0.647535 0.860100 0.951028
O O3 0.500000 0.891708 0.000000
O O4 0.623855 0.626060 0.861597
O O5 0.880162 0.281778 0.788702
O O6 0.000000 0.215679 0.500000
O O7 0.834667 0.020708 0.758867
O O8 0.046529 0.045673 0.588720
O O9 0.112568 0.543009 0.323416
O O10 0.154115 0.535173 0.098812
O O11 0.328801 0.436217 0.998725
O O12 0.554993 0.256284 0.510566
O O13 0.553091 0.308194 0.686751
O O14 0.887485 0.667407 0.998927
O O15 0.986773 0.909973 0.104405
#
# Coordination Sequence:
#
# PCOD8051452 Si02
#       8
#     4   4   4   4   4   2   2   4
#     4  10  25  45  64  90 130 184 220 271 326 387
#     4  11  21  36  63 102 132 165 201 272 333 400
#     4  11  24  39  65 106 138 163 212 277 345 397
#     4  12  22  41  69  95 132 172 223 269 337 392
#     4  11  22  42  68  97 134 169 218 273 338 397
#     4  10  26  48  62  90 136 186 228 272 320 384
#     4  12  22  38  64 102 140 168 206 278 342 398
#     4  11  25  42  68  98 132 179 220 277 329 396
#
# _framework density 20.662184
#
# number of rings (size 3 to 8) (size 9 to 14) (size 15 to 20)
#    0.429    0.571    5.714    0.857    3.000    0.000 
#    2.571    0.000    0.000    0.000    0.000    0.000 
#    0.000    0.000    0.000    0.000    0.000    0.000 
#
# Total GULP energy -173525.843494 kJ/mol
# GULP energy per Si atom -12394.703107 kJ/mol
# Density = 2.061516 g / cm^3
# Si number density = 20.662184 Si / 1000 Ang^3
#
#
#
# Elastic Constant Matrix: (Units=GPa)
#
#
# Indices 1 2 3 4 5 6 
#
# 1 107.0819 46.4344 52.7101 0.0000 12.7223 0.0000
# 2 46.4344 86.6317 25.8131 0.0002 -0.5449 -0.0001
# 3 52.7101 25.8131 142.5302 0.0002 0.7435 0.0000
# 4 0.0000 0.0002 0.0002 27.9406 -0.0002 -2.1747
# 5 12.7223 -0.5449 0.7435 -0.0002 33.7128 0.0001
# 6 0.0000 -0.0001 0.0000 -2.1747 0.0001 39.2564
#
#
#
# Elastic Compliance Matrix: (Units=1/GPa)
#
#
# Indices 1 2 3 4 5 6 
#
# 1 0.015115 -0.006851 -0.004319 0.000000 -0.005719 0.000000
# 2 -0.006851 0.015308 -0.000254 0.000000 0.002838 0.000000
# 3 -0.004319 -0.000254 0.008652 0.000000 0.001435 0.000000
# 4 0.000000 0.000000 0.000000 0.035945 0.000000 0.001991
# 5 -0.005719 0.002838 0.001435 0.000000 0.031835 0.000000
# 6 0.000000 0.000000 0.000000 0.001991 0.000000 0.025584
#
#
# Mechanical properties :
#
#
# Convention : Reuss Voigt Hill
#
# Bulk Modulus (GPa) = 61.62173 65.12878 63.37525
# Shear Modulus (GPa) = 31.11469 34.26770 32.69120
#
# Velocity S-wave (km/s) = 3.88477 4.07686 3.98197
# Velocity P-wave (km/s) = 7.07178 7.33145 7.20279
#
# Compressibility (1/GPa) = 0.01622804
#
# Stress axis : x y z
#
# Youngs Moduli (GPa) = 66.15987 65.32326 115.58204
#
# Poissons Ratio (x) = 0.44750 0.49923
# Poissons Ratio (y) = 0.45323 0.02934
# Poissons Ratio (z) = 0.28576 0.01658
#
# Static dielectric constant tensor:
#      x y z
#    x 3.484400 0.000000 -0.034020 
#    y 0.000000 3.639930 0.000000 
#    z -0.034020 0.000000 3.856020 
# 
# 
# High freq. dielectric constant tensor:
#      x y z
#    x 1.786230 0.000000 0.006110 
#    y 0.000000 1.809540 0.000000 
#    z 0.006110 0.000000 1.815600 
# 
# From -- ./inp_files/41738.got.cif
#   From: 2010.03.12/outbox.cif.g09.slc.cpg/sg5_21_cif.got.tgz:41738.got - 2010.03.31 09:47:26.
