data_PCOD8051574
_publ_section_title
;
Structure prediction by ZEFSAII (Michael W. Deem and Ramdas Pophale) SiO2 
 PCOD8051574
Probable space group: C 2
;
_chemical_formula_sum "Si O2"
_cell_formula_units_Z 32
_cell_length_a 29.609224
_cell_length_b 8.228044
_cell_length_c 6.567775
_cell_angle_alpha 90.000000
_cell_angle_beta 80.364792
_cell_angle_gamma 90.000000
_cell_volume 1577.508995
_symmetry_space_group_name_H-M "C 2"
_symmetry_group_IT_number 5
_symmetry_cell_setting 'monoclinic'
loop_
_space_group_symop_operation_xyz
x,y,z
-x,y,-z
1/2+x,1/2+y,z
1/2-x,1/2+y,-z
loop_
_atom_site_type_symbol
_atom_site_label
_atom_site_fract_x
_atom_site_fract_y
_atom_site_fract_z
Si Si1 0.129127 0.366180 0.632535
Si Si2 0.877782 0.992325 0.437049
Si Si3 0.394252 0.273921 0.781617
Si Si4 0.791578 0.788141 0.405942
Si Si5 0.546138 0.066824 0.573513
Si Si6 0.290052 0.006099 0.675036
Si Si7 0.823811 0.549355 0.055920
Si Si8 0.046483 0.849170 0.877384
O O1 0.136510 0.177213 0.584063
O O2 0.076296 0.415843 0.632206
O O3 0.160336 0.460658 0.449932
O O4 0.144049 0.418085 0.851477
O O5 0.878815 0.938327 0.673497
O O6 0.839935 0.880831 0.354986
O O7 0.927861 0.967943 0.299172
O O8 0.425648 0.170550 0.608520
O O9 0.351651 0.168864 0.886896
O O10 0.420525 0.325259 0.960373
O O11 0.749785 0.907443 0.404264
O O12 0.783236 0.698121 0.628651
O O13 0.792528 0.646827 0.236714
O O14 0.500000 0.000697 0.500000
O O15 0.533822 0.179730 0.776082
O O16 0.289485 0.966091 0.917681
O O17 0.000000 0.929894 0.000000
#
# Coordination Sequence:
#
# PCOD8051574 Si02
#       8
#     4   4   4   4   4   4   4   4
#     4  11  24  42  60  94 131 163 209 264 320 381
#     4  11  24  40  61  92 131 164 204 267 323 372
#     4  11  19  41  66  86 120 166 209 255 312 371
#     4  11  23  40  63  92 124 162 211 261 315 383
#     4  11  21  37  65  91 119 164 211 258 317 376
#     4  11  23  42  65  90 127 166 205 262 318 380
#     4  11  21  42  68  88 122 168 215 257 315 382
#     4  11  21  39  65  91 119 164 216 256 304 385
#
# _framework density 20.285146999999998
#
# number of rings (size 3 to 8) (size 9 to 14) (size 15 to 20)
#    0.000    1.000    6.250    2.250    0.000    4.000 
#    4.500    0.625    0.000    0.000    0.000    0.000 
#    0.000    0.000    0.000    0.000    0.000    0.000 
#
# Total GULP energy -198365.969741 kJ/mol
# GULP energy per Si atom -12397.873109 kJ/mol
# Density = 2.023898 g / cm^3
# Si number density = 20.285147 Si / 1000 Ang^3
#
#
#
# Elastic Constant Matrix: (Units=GPa)
#
#
# Indices 1 2 3 4 5 6 
#
# 1 94.7123 26.7100 23.2854 0.0000 15.1809 0.0000
# 2 26.7100 99.4487 31.6529 0.0000 16.8270 0.0000
# 3 23.2854 31.6529 109.1495 0.0000 23.8693 0.0000
# 4 0.0000 0.0000 0.0000 29.9157 0.0000 -1.5113
# 5 15.1809 16.8270 23.8693 0.0000 33.1516 0.0000
# 6 0.0000 0.0000 0.0000 -1.5113 0.0000 33.5892
#
#
#
# Elastic Compliance Matrix: (Units=1/GPa)
#
#
# Indices 1 2 3 4 5 6 
#
# 1 0.012047 -0.002274 -0.001135 0.000000 -0.003545 0.000000
# 2 -0.002274 0.011956 -0.002234 0.000000 -0.003418 0.000000
# 3 -0.001135 -0.002234 0.011501 0.000000 -0.006627 0.000000
# 4 0.000000 0.000000 0.000000 0.033503 0.000000 0.001507
# 5 -0.003545 -0.003418 -0.006627 0.000000 0.038294 0.000000
# 6 0.000000 0.000000 0.000000 0.001507 0.000000 0.029839
#
#
# Mechanical properties :
#
#
# Convention : Reuss Voigt Hill
#
# Bulk Modulus (GPa) = 41.29566 51.84523 46.57045
# Shear Modulus (GPa) = 31.94870 34.10879 33.02874
#
# Velocity S-wave (km/s) = 3.97291 4.10502 4.03950
# Velocity P-wave (km/s) = 6.43794 6.93411 6.69063
#
# Compressibility (1/GPa) = 0.02421562
#
# Stress axis : x y z
#
# Youngs Moduli (GPa) = 83.00826 83.64098 86.94818
#
# Poissons Ratio (x) = 0.19024 0.09871
# Poissons Ratio (y) = 0.18880 0.19428
# Poissons Ratio (z) = 0.09424 0.18689
#
# Static dielectric constant tensor:
#      x y z
#    x 3.312010 0.000000 0.126410 
#    y 0.000000 3.483780 0.000000 
#    z 0.126410 0.000000 3.993900 
# 
# 
# High freq. dielectric constant tensor:
#      x y z
#    x 1.798440 0.000000 0.009810 
#    y 0.000000 1.765490 0.000000 
#    z 0.009810 0.000000 1.806890 
# 
# From -- ./inp_files/11233.got.cif
#   From: 2010.03.12/outbox.cif.g09.slc.cpg/sg5_6_cif.got.tgz:11233.got - 2010.03.31 09:47:26.
