data_PCOD8051963
_publ_section_title
;
Structure prediction by ZEFSAII (Michael W. Deem and Ramdas Pophale) SiO2 
 PCOD8051963
Probable space group: C 2
;
_chemical_formula_sum "Si O2"
_cell_formula_units_Z 20
_cell_length_a 17.849107
_cell_length_b 7.698924
_cell_length_c 6.467223
_cell_angle_alpha 90.000000
_cell_angle_beta 79.461926
_cell_angle_gamma 90.000000
_cell_volume 873.729295
_symmetry_space_group_name_H-M "C 2"
_symmetry_group_IT_number 5
_symmetry_cell_setting 'monoclinic'
loop_
_space_group_symop_operation_xyz
x,y,z
-x,y,-z
1/2+x,1/2+y,z
1/2-x,1/2+y,-z
loop_
_atom_site_type_symbol
_atom_site_label
_atom_site_fract_x
_atom_site_fract_y
_atom_site_fract_z
Si Si1 0.228072 0.614280 0.262055
Si Si2 0.083549 0.744604 0.548678
Si Si3 0.623737 0.629065 0.552481
Si Si4 0.577197 0.930871 0.843372
Si Si5 0.317808 0.770714 0.867917
O O1 0.149547 0.716622 0.344999
O O2 0.291876 0.657525 0.398619
O O3 0.217181 0.407155 0.277151
O O4 0.253445 0.659685 0.015308
O O5 0.101243 0.611805 0.725440
O O6 0.000000 0.704367 0.500000
O O7 0.087623 0.942669 0.627948
O O8 0.569109 0.777336 0.676793
O O9 0.628529 0.646523 0.299935
O O10 0.500000 0.962732 0.000000
O O11 0.638374 0.879776 0.982322
#
# Coordination Sequence:
#
# PCOD8051963 Si02
#       5
#     4   4   4   4   4
#     4  11  24  44  74 106 144 191 246 301 364 434
#     4  12  27  46  74 108 149 188 241 307 365 428
#     4  11  26  47  75 104 147 192 251 301 362 435
#     4  11  27  47  71 103 148 196 240 299 369 436
#     4  11  24  44  76 103 144 194 248 298 364 436
#
# _framework density 22.890384999999998
#
# number of rings (size 3 to 8) (size 9 to 14) (size 15 to 20)
#    0.000    0.800    2.000    3.600   11.200    0.800 
#    3.600    0.000    0.000    0.000    0.000    0.000 
#    0.000    0.000    0.000    0.000    0.000    0.000 
#
# Total GULP energy -124029.478103 kJ/mol
# GULP energy per Si atom -12402.947810 kJ/mol
# Density = 2.283829 g / cm^3
# Si number density = 22.890385 Si / 1000 Ang^3
#
#
#
# Elastic Constant Matrix: (Units=GPa)
#
#
# Indices 1 2 3 4 5 6 
#
# 1 64.1349 8.8183 17.2035 0.0000 0.6670 0.0000
# 2 8.8183 163.5376 56.6679 0.0000 -8.6170 0.0000
# 3 17.2035 56.6679 130.7769 0.0000 -12.3500 0.0000
# 4 0.0000 0.0000 0.0000 43.5095 0.0000 1.1896
# 5 0.6670 -8.6170 -12.3500 0.0000 34.8893 0.0000
# 6 0.0000 0.0000 0.0000 1.1896 0.0000 20.2472
#
#
#
# Elastic Compliance Matrix: (Units=1/GPa)
#
#
# Indices 1 2 3 4 5 6 
#
# 1 0.016208 -0.000185 -0.002158 0.000000 -0.001119 0.000000
# 2 -0.000185 0.007214 -0.003034 0.000000 0.000711 0.000000
# 3 -0.002158 -0.003034 0.009496 0.000000 0.002653 0.000000
# 4 0.000000 0.000000 0.000000 0.023020 0.000000 -0.001353
# 5 -0.001119 0.000711 0.002653 0.000000 0.029798 0.000000
# 6 0.000000 0.000000 0.000000 -0.001353 0.000000 0.049469
#
#
# Mechanical properties :
#
#
# Convention : Reuss Voigt Hill
#
# Bulk Modulus (GPa) = 45.11989 58.20319 51.66154
# Shear Modulus (GPa) = 32.60572 38.11318 35.35945
#
# Velocity S-wave (km/s) = 3.77825 4.08490 3.93457
# Velocity P-wave (km/s) = 6.22798 6.90874 6.57717
#
# Compressibility (1/GPa) = 0.02216318
#
# Stress axis : x y z
#
# Youngs Moduli (GPa) = 61.69792 138.62549 105.30982
#
# Poissons Ratio (x) = 0.02569 0.22721
# Poissons Ratio (y) = 0.01143 0.31954
# Poissons Ratio (z) = 0.13312 0.42063
#
# Static dielectric constant tensor:
#      x y z
#    x 4.279650 0.000000 -0.298740 
#    y 0.000000 4.329320 0.000000 
#    z -0.298740 0.000000 4.281300 
# 
# 
# High freq. dielectric constant tensor:
#      x y z
#    x 1.894780 0.000000 -0.009770 
#    y 0.000000 1.917170 0.000000 
#    z -0.009770 0.000000 1.910280 
# 
# From -- ./inp_files/8001.got.cif
#   From: 2010.03.12/outbox.cif.g09.slc.cpg/sg5_5_cif.got.tgz:8001.got - 2010.03.31 09:47:26.
