data_PCOD8051418
_publ_section_title
;
Structure prediction by ZEFSAII (Michael W. Deem and Ramdas Pophale) SiO2 
 PCOD8051418
Probable space group: C 2
;
_chemical_formula_sum "Si O2"
_cell_formula_units_Z 22
_cell_length_a 9.886552
_cell_length_b 10.145067
_cell_length_c 11.055809
_cell_angle_alpha 90.000000
_cell_angle_beta 73.966126
_cell_angle_gamma 90.000000
_cell_volume 1065.757093
_symmetry_space_group_name_H-M "C 2"
_symmetry_group_IT_number 5
_symmetry_cell_setting 'monoclinic'
loop_
_space_group_symop_operation_xyz
x,y,z
-x,y,-z
1/2+x,1/2+y,z
1/2-x,1/2+y,-z
loop_
_atom_site_type_symbol
_atom_site_label
_atom_site_fract_x
_atom_site_fract_y
_atom_site_fract_z
Si Si1 0.691225 0.703780 0.121970
Si Si2 0.160328 0.448368 0.952457
Si Si3 0.450186 0.322217 0.149776
Si Si4 0.500000 0.459312 0.500000
Si Si5 0.187064 0.799109 0.278085
Si Si6 0.910966 0.093583 0.285621
O O1 0.736849 0.570276 0.038932
O O2 0.809201 0.733349 0.195274
O O3 0.540792 0.689196 0.221690
O O4 0.686835 0.825445 0.032271
O O5 0.200989 0.401439 0.807321
O O6 0.000000 0.497613 0.000000
O O7 0.568553 0.261069 0.208168
O O8 0.414208 0.470373 0.195663
O O9 0.500000 0.319767 0.000000
O O10 0.617993 0.367973 0.410577
O O11 0.422128 0.550537 0.421761
O O12 0.263867 0.667450 0.303257
#
# Coordination Sequence:
#
# PCOD8051418 Si02
#       6
#     4   4   4   2   4   4
#     4  12  24  41  67 104 144 182 220 282 354 413
#     4  12  25  39  68 108 143 172 228 288 346 417
#     4  11  23  39  66 104 145 176 219 282 359 413
#     4  10  24  50  64  96 140 186 238 284 336 404
#     4  11  24  45  69 100 135 184 228 287 338 410
#     4  11  25  45  72  94 136 189 237 283 341 407
#
# _framework density 20.642602
#
# number of rings (size 3 to 8) (size 9 to 14) (size 15 to 20)
#    0.000    0.727    7.273    0.545    5.091    2.909 
#    0.000    0.000    0.000    0.000    0.000    0.000 
#    0.000    0.000    0.000    0.000    0.000    0.000 
#
# Total GULP energy -136416.909354 kJ/mol
# GULP energy per Si atom -12401.537214 kJ/mol
# Density = 2.059562 g / cm^3
# Si number density = 20.642602 Si / 1000 Ang^3
#
#
#
# Elastic Constant Matrix: (Units=GPa)
#
#
# Indices 1 2 3 4 5 6 
#
# 1 132.5031 79.8234 75.6089 0.0000 -3.6383 0.0000
# 2 79.8234 112.3043 44.2018 0.0000 15.4282 0.0000
# 3 75.6089 44.2018 114.6557 0.0000 1.8066 0.0000
# 4 0.0000 0.0000 0.0000 13.6198 0.0000 2.8880
# 5 -3.6383 15.4282 1.8066 0.0000 29.4274 0.0000
# 6 0.0000 0.0000 0.0000 2.8880 0.0000 55.2558
#
#
#
# Elastic Compliance Matrix: (Units=1/GPa)
#
#
# Indices 1 2 3 4 5 6 
#
# 1 0.020092 -0.012139 -0.008718 0.000000 0.009383 0.000000
# 2 -0.012139 0.018713 0.000970 0.000000 -0.011371 0.000000
# 3 -0.008718 0.000970 0.014135 0.000000 -0.002454 0.000000
# 4 0.000000 0.000000 0.000000 0.074246 0.000000 -0.003881
# 5 0.009383 -0.011371 -0.002454 0.000000 0.041254 0.000000
# 6 0.000000 0.000000 0.000000 -0.003881 0.000000 0.018300
#
#
# Mechanical properties :
#
#
# Convention : Reuss Voigt Hill
#
# Bulk Modulus (GPa) = 75.94755 84.30349 80.12552
# Shear Modulus (GPa) = 21.65425 30.31586 25.98505
#
# Velocity S-wave (km/s) = 3.24235 3.83640 3.55182
# Velocity P-wave (km/s) = 7.13363 7.78153 7.46461
#
# Compressibility (1/GPa) = 0.01316698
#
# Stress axis : x y z
#
# Youngs Moduli (GPa) = 49.77187 53.43972 70.74522
#
# Poissons Ratio (x) = 0.64869 0.61672
# Poissons Ratio (y) = 0.60416 -0.06861
# Poissons Ratio (z) = 0.43389 -0.05183
#
# Static dielectric constant tensor:
#      x y z
#    x 4.332260 0.000000 -0.099320 
#    y 0.000000 3.831880 0.000000 
#    z -0.099320 0.000000 3.683020 
# 
# 
# High freq. dielectric constant tensor:
#      x y z
#    x 1.821590 0.000000 -0.008560 
#    y 0.000000 1.814940 0.000000 
#    z -0.008560 0.000000 1.791550 
# 
# From -- ./inp_files/38255.got.cif
#   From: 2010.03.12/outbox.cif.g09.slc.cpg/sg5_20_cif.got.tgz:38255.got - 2010.03.31 09:47:26.
