data_PCOD8051226
_publ_section_title
;
Structure prediction by ZEFSAII (Michael W. Deem and Ramdas Pophale) SiO2 
 PCOD8051226
Probable space group: C 2
;
_chemical_formula_sum "Si O2"
_cell_formula_units_Z 22
_cell_length_a 21.185830
_cell_length_b 8.058833
_cell_length_c 5.363032
_cell_angle_alpha 90.000000
_cell_angle_beta 106.956693
_cell_angle_gamma 90.000000
_cell_volume 875.839579
_symmetry_space_group_name_H-M "C 2"
_symmetry_group_IT_number 5
_symmetry_cell_setting 'monoclinic'
loop_
_space_group_symop_operation_xyz
x,y,z
-x,y,-z
1/2+x,1/2+y,z
1/2-x,1/2+y,-z
loop_
_atom_site_type_symbol
_atom_site_label
_atom_site_fract_x
_atom_site_fract_y
_atom_site_fract_z
Si Si1 0.913730 0.274940 0.211708
Si Si2 0.299932 0.003826 0.997318
Si Si3 0.122074 0.714615 0.257939
Si Si4 0.754335 0.197933 0.670270
Si Si5 0.616378 0.591474 0.340373
Si Si6 0.500000 0.992599 0.000000
O O1 0.924972 0.154157 0.464180
O O2 0.851445 0.390092 0.210544
O O3 0.900859 0.184151 0.934352
O O4 0.977454 0.385676 0.215399
O O5 0.338156 0.169875 0.947953
O O6 0.270781 0.890433 0.740852
O O7 0.237988 0.071973 0.085363
O O8 0.176526 0.676287 0.530447
O O9 0.098162 0.902137 0.262703
O O10 0.057739 0.599852 0.194008
O O11 0.805101 0.126125 0.520755
#
# Coordination Sequence:
#
# PCOD8051226 Si02
#       6
#     4   4   4   4   4   2
#     4  10  26  49  74 108 149 208 251 322 372 460
#     4  10  24  40  68 112 155 198 250 303 399 454
#     4  11  25  45  76 111 149 209 250 323 371 467
#     4  11  24  40  75 110 160 194 243 321 389 469
#     4  11  26  45  77 114 155 191 261 315 403 444
#     4  10  26  56  76 106 156 206 276 302 380 458
#
# _framework density 25.118758
#
# number of rings (size 3 to 8) (size 9 to 14) (size 15 to 20)
#    0.000    1.455    0.000    2.182   22.909    1.455 
#    3.273    0.000    0.000    0.000    0.000    0.000 
#    0.000    0.000    0.000    0.000    0.000    0.000 
#
# Total GULP energy -136268.594984 kJ/mol
# GULP energy per Si atom -12388.054089 kJ/mol
# Density = 2.506159 g / cm^3
# Si number density = 25.118758 Si / 1000 Ang^3
#
#
#
# Elastic Constant Matrix: (Units=GPa)
#
#
# Indices 1 2 3 4 5 6 
#
# 1 142.9587 66.6216 42.7454 0.0000 -6.8264 0.0000
# 2 66.6216 161.0043 54.0906 0.0000 -20.1412 0.0000
# 3 42.7454 54.0906 92.7982 0.0000 -27.3159 0.0000
# 4 0.0000 0.0000 0.0000 39.3016 0.0000 -10.6254
# 5 -6.8264 -20.1412 -27.3159 0.0000 40.2802 0.0000
# 6 0.0000 0.0000 0.0000 -10.6254 0.0000 39.9756
#
#
#
# Elastic Compliance Matrix: (Units=1/GPa)
#
#
# Indices 1 2 3 4 5 6 
#
# 1 0.009237 -0.003042 -0.003084 0.000000 -0.002047 0.000000
# 2 -0.003042 0.008758 -0.003207 0.000000 0.001689 0.000000
# 3 -0.003084 -0.003207 0.016792 0.000000 0.009261 0.000000
# 4 0.000000 0.000000 0.000000 0.027414 0.000000 0.007287
# 5 -0.002047 0.001689 0.009261 0.000000 0.031604 0.000000
# 6 0.000000 0.000000 0.000000 0.007287 0.000000 0.026952
#
#
# Mechanical properties :
#
#
# Convention : Reuss Voigt Hill
#
# Bulk Modulus (GPa) = 62.02889 80.40847 71.21868
# Shear Modulus (GPa) = 34.53082 39.46507 36.99794
#
# Velocity S-wave (km/s) = 3.71172 3.96806 3.84203
# Velocity P-wave (km/s) = 6.56635 7.28525 6.93512
#
# Compressibility (1/GPa) = 0.01612152
#
# Stress axis : x y z
#
# Youngs Moduli (GPa) = 108.25788 114.17579 59.55215
#
# Poissons Ratio (x) = 0.34734 0.18368
# Poissons Ratio (y) = 0.32934 0.19096
# Poissons Ratio (z) = 0.33390 0.36611
#
# Static dielectric constant tensor:
#      x y z
#    x 4.747600 0.000000 0.067260 
#    y 0.000000 4.696160 0.000000 
#    z 0.067260 0.000000 4.248310 
# 
# 
# High freq. dielectric constant tensor:
#      x y z
#    x 2.003480 0.000000 -0.001580 
#    y 0.000000 2.011210 0.000000 
#    z -0.001580 0.000000 1.989680 
# 
# From -- ./inp_files/9284.got.cif
#   From: 2010.03.12/outbox.cif.g09.slc.cpg/sg5_5_cif.got.tgz:9284.got - 2010.03.31 09:47:26.
