data_PCOD8051356
_publ_section_title
;
Structure prediction by ZEFSAII (Michael W. Deem and Ramdas Pophale) SiO2 
 PCOD8051356
Probable space group: C 2
;
_chemical_formula_sum "Si O2"
_cell_formula_units_Z 24
_cell_length_a 7.441664
_cell_length_b 14.189198
_cell_length_c 11.132921
_cell_angle_alpha 90.000000
_cell_angle_beta 72.781726
_cell_angle_gamma 90.000000
_cell_volume 1122.856022
_symmetry_space_group_name_H-M "C 2"
_symmetry_group_IT_number 5
_symmetry_cell_setting 'monoclinic'
loop_
_space_group_symop_operation_xyz
x,y,z
-x,y,-z
1/2+x,1/2+y,z
1/2-x,1/2+y,-z
loop_
_atom_site_type_symbol
_atom_site_label
_atom_site_fract_x
_atom_site_fract_y
_atom_site_fract_z
Si Si1 0.394438 0.231220 0.743783
Si Si2 0.912107 0.094613 0.264236
Si Si3 0.000000 0.000804 0.000000
Si Si4 0.000000 0.833349 0.500000
Si Si5 0.181880 0.581145 0.740469
Si Si6 0.802124 0.402929 0.088911
Si Si7 0.202380 0.477212 0.500453
O O1 0.223668 0.183445 0.705725
O O2 0.528798 0.272417 0.614031
O O3 0.516415 0.157404 0.800515
O O4 0.313669 0.314989 0.838994
O O5 0.115358 0.126646 0.272564
O O6 0.828194 0.010690 0.362708
O O7 0.927553 0.063470 0.123728
O O8 0.821527 0.939418 0.997006
O O9 0.187354 0.896136 0.450191
O O10 0.157942 0.486018 0.822958
O O11 0.166987 0.561407 0.601344
O O12 0.000000 0.365609 0.000000
O O13 0.000000 0.438142 0.500000
#
# Coordination Sequence:
#
# PCOD8051356 Si02
#       7
#     4   4   2   2   4   4   4
#     4  12  25  42  69 107 133 180 239 288 343 426
#     4  11  23  42  72  98 134 180 232 283 349 417
#     4  10  24  46  70  96 132 190 230 280 358 410
#     4  12  24  42  66 104 140 174 238 290 344 422
#     4  11  23  47  70  99 137 184 227 289 353 409
#     4  11  25  46  70  98 143 180 231 293 349 416
#     4  12  22  41  73  97 137 181 224 289 360 408
#
# _framework density 21.374067
#
# number of rings (size 3 to 8) (size 9 to 14) (size 15 to 20)
#    0.000    0.667    5.000    3.000    1.167    2.667 
#    4.500    0.000    0.000    0.000    0.000    0.000 
#    0.000    0.000    0.000    0.000    0.000    0.000 
#
# Total GULP energy -148833.352306 kJ/mol
# GULP energy per Si atom -12402.779359 kJ/mol
# Density = 2.132542 g / cm^3
# Si number density = 21.374067 Si / 1000 Ang^3
#
#
#
# Elastic Constant Matrix: (Units=GPa)
#
#
# Indices 1 2 3 4 5 6 
#
# 1 166.9211 56.8488 29.8867 0.0000 -1.0395 0.0000
# 2 56.8488 106.8763 29.7184 0.0000 -2.9193 0.0000
# 3 29.8867 29.7184 107.4939 0.0000 -1.1453 0.0000
# 4 0.0000 0.0000 0.0000 0.2586 0.0000 -1.5990
# 5 -1.0395 -2.9193 -1.1453 0.0000 33.8692 0.0000
# 6 0.0000 0.0000 0.0000 -1.5990 0.0000 38.0212
#
#
#
# Elastic Compliance Matrix: (Units=1/GPa)
#
#
# Indices 1 2 3 4 5 6 
#
# 1 0.007425 -0.003660 -0.001054 0.000000 -0.000123 0.000000
# 2 -0.003660 0.011960 -0.002280 0.000000 0.000841 0.000000
# 3 -0.001054 -0.002280 0.010227 0.000000 0.000117 0.000000
# 4 0.000000 0.000000 0.000000 5.225479 0.000000 0.219757
# 5 -0.000123 0.000841 0.000117 0.000000 0.029598 0.000000
# 6 0.000000 0.000000 0.000000 0.219757 0.000000 0.035543
#
#
# Mechanical properties :
#
#
# Convention : Reuss Voigt Hill
#
# Bulk Modulus (GPa) = 63.99893 68.24432 66.12162
# Shear Modulus (GPa) = 0.93643 32.08565 16.51104
#
# Velocity S-wave (km/s) = 0.66262 3.87867 2.78237
# Velocity P-wave (km/s) = 5.53107 7.21503 6.42843
#
# Compressibility (1/GPa) = 0.01562526
#
# Stress axis : x y z
#
# Youngs Moduli (GPa) = 134.67563 83.60965 97.77570
#
# Poissons Ratio (x) = 0.30600 0.10305
# Poissons Ratio (y) = 0.49290 0.22294
# Poissons Ratio (z) = 0.14194 0.19064
#
# Static dielectric constant tensor:
#      x y z
#    x 4.078270 0.000000 0.013920 
#    y 0.000000 3.740140 0.000000 
#    z 0.013920 0.000000 3.841340 
# 
# 
# High freq. dielectric constant tensor:
#      x y z
#    x 1.855870 0.000000 -0.001600 
#    y 0.000000 1.827510 0.000000 
#    z -0.001600 0.000000 1.843590 
# 
# From -- ./inp_files/35362.got.cif
#   From: 2010.03.12/outbox.cif.g09.slc.cpg/sg5_18_cif.got.tgz:35362.got - 2010.03.31 09:47:26.
