data_PCOD8051926
_publ_section_title
;
Structure prediction by ZEFSAII (Michael W. Deem and Ramdas Pophale) SiO2 
 PCOD8051926
Probable space group: C 2
;
_chemical_formula_sum "Si O2"
_cell_formula_units_Z 20
_cell_length_a 15.851799
_cell_length_b 9.166087
_cell_length_c 14.088348
_cell_angle_alpha 90.000000
_cell_angle_beta 23.843878
_cell_angle_gamma 90.000000
_cell_volume 827.500362
_symmetry_space_group_name_H-M "C 2"
_symmetry_group_IT_number 5
_symmetry_cell_setting 'monoclinic'
loop_
_space_group_symop_operation_xyz
x,y,z
-x,y,-z
1/2+x,1/2+y,z
1/2-x,1/2+y,-z
loop_
_atom_site_type_symbol
_atom_site_label
_atom_site_fract_x
_atom_site_fract_y
_atom_site_fract_z
Si Si1 0.812831 0.898860 0.532786
Si Si2 0.500000 0.800699 0.000000
Si Si3 0.269556 0.793157 0.061982
Si Si4 0.730444 0.727854 0.438018
Si Si5 0.687169 0.122151 0.967214
Si Si6 0.000000 0.220312 0.500000
O O1 0.675355 0.900878 0.769606
O O2 0.683042 0.821165 0.580992
O O3 0.022072 0.805475 0.333934
O O4 0.869813 0.065358 0.448667
O O5 0.620280 0.711712 0.960159
O O6 0.369812 0.955654 0.948668
O O7 0.316958 0.699846 0.919008
O O8 0.620280 0.809300 0.460160
O O9 0.977928 0.715536 0.166066
O O10 0.824644 0.120133 0.730394
#
# Coordination Sequence:
#
# PCOD8051926 Si02
#       6
#     4   2   4   4   4   2
#     4  11  24  40  65  91 124 159 205 249 303 361
#     4  12  22  40  66  94 114 170 198 260 282 380
#     4  11  24  40  65  91 124 159 205 249 303 361
#     4  11  24  40  65  91 124 159 205 249 303 361
#     4  11  24  40  65  91 124 159 205 249 303 361
#     4  12  22  40  66  94 114 170 198 260 282 380
#
# _framework density 24.169174000000002
#
# number of rings (size 3 to 8) (size 9 to 14) (size 15 to 20)
#    0.000    0.800    4.000    3.600    0.000    0.000 
#    0.000    2.000    0.000    0.000    0.000    0.000 
#    0.000    0.000    0.000    0.000    0.000    0.000 
#
# Total GULP energy -123935.447377 kJ/mol
# GULP energy per Si atom -12393.544738 kJ/mol
# Density = 2.411416 g / cm^3
# Si number density = 24.169174 Si / 1000 Ang^3
#
#
#
# Elastic Constant Matrix: (Units=GPa)
#
#
# Indices 1 2 3 4 5 6 
#
# 1 214.1254 17.0264 33.5882 -0.0010 8.7404 0.0006
# 2 17.0264 24.0372 32.8757 -0.0015 10.9676 0.0010
# 3 33.5882 32.8757 134.2416 -0.0010 29.3370 0.0008
# 4 -0.0010 -0.0015 -0.0010 26.8919 0.0009 -5.0506
# 5 8.7404 10.9676 29.3370 0.0009 35.5298 -0.0006
# 6 0.0006 0.0010 0.0008 -5.0506 -0.0006 30.9261
#
#
#
# Elastic Compliance Matrix: (Units=1/GPa)
#
#
# Indices 1 2 3 4 5 6 
#
# 1 0.004979 -0.002769 -0.000594 0.000000 0.000120 0.000000
# 2 -0.002769 0.066079 -0.013643 0.000003 -0.008452 -0.000001
# 3 -0.000594 -0.013643 0.012186 0.000000 -0.005704 0.000000
# 4 0.000000 0.000003 0.000000 0.038362 -0.000002 0.006265
# 5 0.000120 -0.008452 -0.005704 -0.000002 0.035435 0.000001
# 6 0.000000 -0.000001 0.000000 0.006265 0.000001 0.033358
#
#
# Mechanical properties :
#
#
# Convention : Reuss Voigt Hill
#
# Bulk Modulus (GPa) = 20.31216 59.93166 40.12191
# Shear Modulus (GPa) = 20.76226 37.93051 29.34639
#
# Velocity S-wave (km/s) = 2.93412 3.96583 3.48833
# Velocity P-wave (km/s) = 4.46107 6.76912 5.73246
#
# Compressibility (1/GPa) = 0.04923158
#
# Stress axis : x y z
#
# Youngs Moduli (GPa) = 200.85994 15.13329 82.06447
#
# Poissons Ratio (x) = 0.04191 0.04873
# Poissons Ratio (y) = 0.55625 1.11960
# Poissons Ratio (z) = 0.11927 0.20646
#
# Static dielectric constant tensor:
#      x y z
#    x 5.142210 0.000000 -0.321960 
#    y 0.000000 3.640550 0.000000 
#    z -0.321960 0.000000 4.389030 
# 
# 
# High freq. dielectric constant tensor:
#      x y z
#    x 1.999910 0.000000 -0.025350 
#    y 0.000000 1.882900 0.000000 
#    z -0.025350 0.000000 1.995550 
# 
# From -- ./inp_files/42354.got.cif
#   From: 2010.03.12/outbox.cif.g09.slc.cpg/sg5_22_cif.got.tgz:42354.got - 2010.03.31 09:47:26.
