data_PCOD8051635
_publ_section_title
;
Structure prediction by ZEFSAII (Michael W. Deem and Ramdas Pophale) SiO2 
 PCOD8051635
Probable space group: C 2
;
_chemical_formula_sum "Si O2"
_cell_formula_units_Z 28
_cell_length_a 12.120871
_cell_length_b 13.286714
_cell_length_c 8.786533
_cell_angle_alpha 90.000000
_cell_angle_beta 62.320047
_cell_angle_gamma 90.000000
_cell_volume 1253.098168
_symmetry_space_group_name_H-M "C 2"
_symmetry_group_IT_number 5
_symmetry_cell_setting 'monoclinic'
loop_
_space_group_symop_operation_xyz
x,y,z
-x,y,-z
1/2+x,1/2+y,z
1/2-x,1/2+y,-z
loop_
_atom_site_type_symbol
_atom_site_label
_atom_site_fract_x
_atom_site_fract_y
_atom_site_fract_z
Si Si1 0.506497 0.584460 0.672453
Si Si2 0.784742 0.005853 0.248469
Si Si3 0.620107 0.132135 0.151352
Si Si4 0.605662 0.003862 0.630352
Si Si5 0.276556 0.335328 0.015397
Si Si6 0.757990 0.511807 0.163338
Si Si7 0.483372 0.805471 0.685182
O O1 0.500000 0.551036 0.500000
O O2 0.597726 0.519691 0.717876
O O3 0.366629 0.565885 0.818389
O O4 0.552940 0.699372 0.666830
O O5 0.662925 0.980380 0.428055
O O6 0.824673 0.914512 0.111925
O O7 0.739659 0.103634 0.181231
O O8 0.489197 0.099576 0.314494
O O9 0.624016 0.249422 0.098155
O O10 0.626725 0.065112 0.994875
O O11 0.720718 0.026909 0.670184
O O12 0.538757 0.902398 0.737306
O O13 0.156205 0.284302 0.168142
O O14 0.245601 0.394124 0.879342
O O15 0.500000 0.833910 0.500000
#
# Coordination Sequence:
#
# PCOD8051635 Si02
#       7
#     4   4   4   4   4   4   4
#     4  11  24  45  68 101 137 180 234 288 344 416
#     4  11  24  46  75  96 142 190 230 288 348 422
#     4  11  24  43  67 108 137 173 234 296 350 401
#     4  12  22  45  74 101 136 183 237 289 343 414
#     4  11  24  44  66 105 139 178 234 285 359 412
#     4  11  24  43  64  99 143 178 227 290 349 411
#     4  11  21  40  72 100 129 177 244 282 330 427
#
# _framework density 22.344615999999998
#
# number of rings (size 3 to 8) (size 9 to 14) (size 15 to 20)
#    0.000    0.857    7.143    0.857    2.000    2.286 
#    5.143    1.429    0.000    0.000    0.000    0.000 
#    0.000    0.000    0.000    0.000    0.000    0.000 
#
# Total GULP energy -173485.364238 kJ/mol
# GULP energy per Si atom -12391.811731 kJ/mol
# Density = 2.229376 g / cm^3
# Si number density = 22.344616 Si / 1000 Ang^3
#
#
#
# Elastic Constant Matrix: (Units=GPa)
#
#
# Indices 1 2 3 4 5 6 
#
# 1 109.8901 50.0834 28.8804 0.0000 7.3008 0.0000
# 2 50.0834 140.0064 31.3552 0.0000 5.9456 0.0000
# 3 28.8804 31.3552 76.9530 0.0000 6.6392 0.0000
# 4 0.0000 0.0000 0.0000 35.2409 0.0000 -3.9983
# 5 7.3008 5.9456 6.6392 0.0000 33.4602 0.0000
# 6 0.0000 0.0000 0.0000 -3.9983 0.0000 18.3290
#
#
#
# Elastic Compliance Matrix: (Units=1/GPa)
#
#
# Indices 1 2 3 4 5 6 
#
# 1 0.011486 -0.003425 -0.002799 0.000000 -0.001342 0.000000
# 2 -0.003425 0.008901 -0.002309 0.000000 -0.000376 0.000000
# 3 -0.002799 -0.002309 0.015158 0.000000 -0.001987 0.000000
# 4 0.000000 0.000000 0.000000 0.029096 0.000000 0.006347
# 5 -0.001342 -0.000376 -0.001987 0.000000 0.030640 0.000000
# 6 0.000000 0.000000 0.000000 0.006347 0.000000 0.055943
#
#
# Mechanical properties :
#
#
# Convention : Reuss Voigt Hill
#
# Bulk Modulus (GPa) = 54.11807 60.83195 57.47501
# Shear Modulus (GPa) = 28.66172 31.84141 30.25157
#
# Velocity S-wave (km/s) = 3.58538 3.77903 3.68348
# Velocity P-wave (km/s) = 6.43524 6.80625 6.62334
#
# Compressibility (1/GPa) = 0.01847812
#
# Stress axis : x y z
#
# Youngs Moduli (GPa) = 87.06451 112.35049 65.97306
#
# Poissons Ratio (x) = 0.38478 0.18468
# Poissons Ratio (y) = 0.29818 0.15233
# Poissons Ratio (z) = 0.24372 0.25941
#
# Static dielectric constant tensor:
#      x y z
#    x 3.696360 0.000000 0.024290 
#    y 0.000000 3.913610 0.000000 
#    z 0.024290 0.000000 4.137080 
# 
# 
# High freq. dielectric constant tensor:
#      x y z
#    x 1.862030 0.000000 0.001990 
#    y 0.000000 1.871230 0.000000 
#    z 0.001990 0.000000 1.892280 
# 
# From -- ./inp_files/20402.got.cif
#   From: 2010.03.12/outbox.cif.g09.slc.cpg/sg5_11_cif.got.tgz:20402.got - 2010.03.31 09:47:26.
