data_PCOD8051830
_publ_section_title
;
Structure prediction by ZEFSAII (Michael W. Deem and Ramdas Pophale) SiO2 
 PCOD8051830
Probable space group: C 2
;
_chemical_formula_sum "Si O2"
_cell_formula_units_Z 30
_cell_length_a 9.303549
_cell_length_b 14.135684
_cell_length_c 18.152391
_cell_angle_alpha 90.000000
_cell_angle_beta 34.717133
_cell_angle_gamma 90.000000
_cell_volume 1359.603795
_symmetry_space_group_name_H-M "C 2"
_symmetry_group_IT_number 5
_symmetry_cell_setting 'monoclinic'
loop_
_space_group_symop_operation_xyz
x,y,z
-x,y,-z
1/2+x,1/2+y,z
1/2-x,1/2+y,-z
loop_
_atom_site_type_symbol
_atom_site_label
_atom_site_fract_x
_atom_site_fract_y
_atom_site_fract_z
Si Si1 0.000000 0.794210 0.000000
Si Si2 0.932306 0.468008 0.368889
Si Si3 0.709888 0.166609 0.613019
Si Si4 0.968339 0.861377 0.374870
Si Si5 0.326916 0.062254 0.004073
Si Si6 0.940771 0.926950 0.229917
Si Si7 0.014815 0.407774 0.171846
Si Si8 0.977599 0.728089 0.860012
O O1 0.224704 0.850707 0.945450
O O2 0.129341 0.741053 0.874718
O O3 0.907034 0.581461 0.386223
O O4 0.674482 0.412668 0.497483
O O5 0.010543 0.455024 0.252415
O O6 0.149817 0.423898 0.328427
O O7 0.658824 0.261325 0.588904
O O8 0.619043 0.172658 0.735948
O O9 0.000000 0.145249 0.500000
O O10 0.942785 0.932942 0.316901
O O11 0.263647 0.844053 0.268238
O O12 0.258695 0.154977 0.981866
O O13 0.488670 0.987112 0.889627
O O14 0.500000 0.093036 0.000000
O O15 0.064044 0.019252 0.142098
O O16 0.096296 0.831660 0.140283
#
# Coordination Sequence:
#
# PCOD8051830 Si02
#       8
#     2   4   4   4   4   4   4   4
#     4  12  24  42  70 100 146 178 234 294 356 414
#     4  12  24  46  71 100 137 184 234 294 344 418
#     4  11  25  45  70 101 138 186 238 284 356 421
#     4  11  25  45  70 101 139 187 229 292 355 418
#     4  12  23  40  67 100 137 183 226 279 348 419
#     4  11  24  46  68 101 144 182 230 285 358 417
#     4  12  23  43  68 101 136 181 233 287 351 414
#     4  11  23  42  67  99 136 188 224 285 349 418
#
# _framework density 22.065251
#
# number of rings (size 3 to 8) (size 9 to 14) (size 15 to 20)
#    0.000    0.533    6.000    3.200    0.000    1.067 
#    0.000    4.000    0.000    0.000    0.000    0.000 
#    0.000    0.000    0.000    0.000    0.000    0.000 
#
# Total GULP energy -185836.818315 kJ/mol
# GULP energy per Si atom -12389.121221 kJ/mol
# Density = 2.201503 g / cm^3
# Si number density = 22.065251 Si / 1000 Ang^3
#
#
#
# Elastic Constant Matrix: (Units=GPa)
#
#
# Indices 1 2 3 4 5 6 
#
# 1 74.0920 15.1099 27.4040 0.0001 -6.4531 -0.0012
# 2 15.1099 118.0211 39.7240 -0.0080 -2.0899 0.0094
# 3 27.4040 39.7240 94.0337 0.0019 -0.0392 0.0242
# 4 0.0001 -0.0080 0.0019 34.7677 0.0102 7.0440
# 5 -6.4531 -2.0899 -0.0392 0.0102 38.3431 -0.0158
# 6 -0.0012 0.0094 0.0242 7.0440 -0.0158 29.1341
#
#
#
# Elastic Compliance Matrix: (Units=1/GPa)
#
#
# Indices 1 2 3 4 5 6 
#
# 1 0.015403 -0.000485 -0.004283 -0.000002 0.002561 0.000006
# 2 -0.000485 0.009904 -0.004042 0.000002 0.000454 0.000000
# 3 -0.004283 -0.004042 0.013590 0.000001 -0.000927 -0.000011
# 4 -0.000002 0.000002 0.000001 0.030244 -0.000011 -0.007312
# 5 0.002561 0.000454 -0.000927 -0.000011 0.026535 0.000018
# 6 0.000006 0.000000 -0.000011 -0.007312 0.000018 0.036092
#
#
# Mechanical properties :
#
#
# Convention : Reuss Voigt Hill
#
# Bulk Modulus (GPa) = 47.00098 50.06918 48.53508
# Shear Modulus (GPa) = 31.95301 34.04290 32.99796
#
# Velocity S-wave (km/s) = 3.80954 3.93215 3.87133
# Velocity P-wave (km/s) = 6.37944 6.58456 6.48281
#
# Compressibility (1/GPa) = 0.02127615
#
# Stress axis : x y z
#
# Youngs Moduli (GPa) = 64.92318 100.97183 73.58442
#
# Poissons Ratio (x) = 0.04898 0.31515
# Poissons Ratio (y) = 0.03149 0.29744
# Poissons Ratio (z) = 0.27805 0.40815
#
# Static dielectric constant tensor:
#      x y z
#    x 3.966810 0.000080 0.246270 
#    y 0.000080 4.165210 -0.000030 
#    z 0.246270 -0.000030 4.061570 
# 
# 
# High freq. dielectric constant tensor:
#      x y z
#    x 1.858520 0.000000 0.029310 
#    y 0.000000 1.873500 0.000000 
#    z 0.029310 0.000000 1.872900 
# 
# From -- ./inp_files/59729.got.cif
#   From: 2010.03.12/outbox.cif.g09.slc.cpg/sg5_30_cif.got.tgz:59729.got - 2010.03.31 09:47:26.
