data_PCOD8051068
_publ_section_title
;
Structure prediction by ZEFSAII (Michael W. Deem and Ramdas Pophale) SiO2 
 PCOD8051068
Probable space group: C 2
;
_chemical_formula_sum "Si O2"
_cell_formula_units_Z 28
_cell_length_a 13.663051
_cell_length_b 13.457550
_cell_length_c 7.521942
_cell_angle_alpha 90.000000
_cell_angle_beta 114.851617
_cell_angle_gamma 90.000000
_cell_volume 1254.995241
_symmetry_space_group_name_H-M "C 2"
_symmetry_group_IT_number 5
_symmetry_cell_setting 'monoclinic'
loop_
_space_group_symop_operation_xyz
x,y,z
-x,y,-z
1/2+x,1/2+y,z
1/2-x,1/2+y,-z
loop_
_atom_site_type_symbol
_atom_site_label
_atom_site_fract_x
_atom_site_fract_y
_atom_site_fract_z
Si Si1 0.548543 0.125000 0.762375
Si Si2 0.727875 0.587275 0.952216
Si Si3 0.788575 0.939544 0.378676
Si Si4 0.833915 0.099116 0.695729
Si Si5 0.539519 0.918982 0.229066
Si Si6 0.859282 0.726063 0.506927
Si Si7 0.971112 0.207732 0.282447
O O1 0.449801 0.203517 0.731158
O O2 0.603299 0.155159 0.622172
O O3 0.497777 0.016490 0.696454
O O4 0.646412 0.120242 0.981775
O O5 0.702579 0.492278 0.807585
O O6 0.653432 0.681226 0.848413
O O7 0.704586 0.560350 0.140551
O O8 0.667653 0.909236 0.334456
O O9 0.858706 0.838893 0.438528
O O10 0.839837 0.005363 0.571925
O O11 0.758847 0.182649 0.539852
O O12 0.951634 0.150260 0.798733
O O13 0.483009 0.825593 0.278448
O O14 0.500000 0.926608 0.000000
O O15 0.000000 0.169660 0.500000
#
# Coordination Sequence:
#
# PCOD8051068 Si02
#       7
#     4   4   4   4   4   4   4
#     4  10  23  42  69  99 141 190 230 289 366 423
#     4  11  25  45  72 106 145 189 241 297 360 433
#     4  12  24  45  75 107 141 195 242 289 371 433
#     4  11  23  46  71 104 148 185 234 307 356 423
#     4  12  24  42  70 106 142 187 248 301 348 435
#     4  10  23  43  68 106 146 183 230 307 363 416
#     4  12  26  43  73 108 142 188 246 300 364 428
#
# _framework density 22.310841
#
# number of rings (size 3 to 8) (size 9 to 14) (size 15 to 20)
#    0.000    0.857    5.714    1.286    4.000    2.286 
#    0.000    4.286    0.000    0.000    0.000    0.000 
#    0.000    0.000    0.000    0.000    0.000    0.000 
#
# Total GULP energy -173519.444195 kJ/mol
# GULP energy per Si atom -12394.246014 kJ/mol
# Density = 2.226006 g / cm^3
# Si number density = 22.310841 Si / 1000 Ang^3
#
#
#
# Elastic Constant Matrix: (Units=GPa)
#
#
# Indices 1 2 3 4 5 6 
#
# 1 85.1783 66.7140 40.7381 0.0000 19.8698 0.0000
# 2 66.7140 162.1562 64.2764 0.0000 17.6200 0.0000
# 3 40.7381 64.2764 106.8983 0.0000 12.1895 0.0000
# 4 0.0000 0.0000 0.0000 32.8346 0.0000 9.7113
# 5 19.8698 17.6200 12.1895 0.0000 45.1157 0.0000
# 6 0.0000 0.0000 0.0000 9.7113 0.0000 62.8501
#
#
#
# Elastic Compliance Matrix: (Units=1/GPa)
#
#
# Indices 1 2 3 4 5 6 
#
# 1 0.019222 -0.006133 -0.003039 0.000000 -0.005249 0.000000
# 2 -0.006133 0.010216 -0.003775 0.000000 -0.000269 0.000000
# 3 -0.003039 -0.003775 0.012858 0.000000 -0.000661 0.000000
# 4 0.000000 0.000000 0.000000 0.031914 0.000000 -0.004931
# 5 -0.005249 -0.000269 -0.000661 0.000000 0.024761 0.000000
# 6 0.000000 0.000000 0.000000 -0.004931 0.000000 0.016673
#
#
# Mechanical properties :
#
#
# Convention : Reuss Voigt Hill
#
# Bulk Modulus (GPa) = 60.96880 77.52108 69.24494
# Shear Modulus (GPa) = 34.01289 40.32703 37.16996
#
# Velocity S-wave (km/s) = 3.90872 4.25609 4.08610
# Velocity P-wave (km/s) = 6.91065 7.67944 7.30517
#
# Compressibility (1/GPa) = 0.01640183
#
# Stress axis : x y z
#
# Youngs Moduli (GPa) = 52.02469 97.88992 77.77407
#
# Poissons Ratio (x) = 0.60038 0.23634
# Poissons Ratio (y) = 0.31908 0.29356
# Poissons Ratio (z) = 0.15810 0.36949
#
# Static dielectric constant tensor:
#      x y z
#    x 4.471320 0.000000 0.830170 
#    y 0.000000 4.043750 0.000000 
#    z 0.830170 0.000000 4.415600 
# 
# 
# High freq. dielectric constant tensor:
#      x y z
#    x 1.885350 0.000000 0.019060 
#    y 0.000000 1.869250 0.000000 
#    z 0.019060 0.000000 1.882070 
# 
# From -- ./inp_files/23952.got.cif
#   From: 2010.03.12/outbox.cif.g09.slc.cpg/sg5_12_cif.got.tgz:23952.got - 2010.03.31 09:47:26.
