data_PCOD8051865
_publ_section_title
;
Structure prediction by ZEFSAII (Michael W. Deem and Ramdas Pophale) SiO2 
 PCOD8051865
Probable space group: C 2
;
_chemical_formula_sum "Si O2"
_cell_formula_units_Z 24
_cell_length_a 20.475901
_cell_length_b 7.298223
_cell_length_c 10.503409
_cell_angle_alpha 90.000000
_cell_angle_beta 48.029282
_cell_angle_gamma 90.000000
_cell_volume 1166.980586
_symmetry_space_group_name_H-M "C 2"
_symmetry_group_IT_number 5
_symmetry_cell_setting 'monoclinic'
loop_
_space_group_symop_operation_xyz
x,y,z
-x,y,-z
1/2+x,1/2+y,z
1/2-x,1/2+y,-z
loop_
_atom_site_type_symbol
_atom_site_label
_atom_site_fract_x
_atom_site_fract_y
_atom_site_fract_z
Si Si1 0.851298 0.712990 0.396001
Si Si2 0.101543 0.425253 0.866583
Si Si3 0.027323 0.698699 0.323061
Si Si4 0.168324 0.978797 0.034670
Si Si5 0.183532 0.056866 0.726469
Si Si6 0.644398 0.891286 0.095919
O O1 0.847258 0.564613 0.289894
O O2 0.779145 0.653210 0.594199
O O3 0.945585 0.721318 0.337258
O O4 0.829842 0.912490 0.368529
O O5 0.111413 0.217169 0.802874
O O6 0.145136 0.448434 0.947434
O O7 0.000000 0.479093 0.000000
O O8 0.063235 0.490113 0.273287
O O9 0.000000 0.755144 0.500000
O O10 0.105780 0.825406 0.172500
O O11 0.130217 0.174537 0.127897
O O12 0.172566 0.959468 0.876704
O O13 0.265001 0.956490 0.962970
#
# Coordination Sequence:
#
# PCOD8051865 Si02
#       6
#     4   4   4   4   4   4
#     4  12  25  44  68 100 135 178 222 282 336 395
#     4  11  24  43  69 100 134 172 227 277 332 403
#     4  12  27  45  67 102 136 172 228 284 332 397
#     4  11  25  44  70  99 130 183 223 273 337 402
#     4  11  26  44  68  98 136 176 225 276 335 403
#     4  11  23  44  70  96 134 177 221 272 336 398
#
# _framework density 20.565895000000001
#
# number of rings (size 3 to 8) (size 9 to 14) (size 15 to 20)
#    0.000    0.667    5.000    2.000    7.000    0.667 
#    0.000    0.000    0.000    0.000    0.000    0.000 
#    0.000    0.000    0.000    0.000    0.000    0.000 
#
# Total GULP energy -148870.826003 kJ/mol
# GULP energy per Si atom -12405.902167 kJ/mol
# Density = 2.051909 g / cm^3
# Si number density = 20.565895 Si / 1000 Ang^3
#
#
#
# Elastic Constant Matrix: (Units=GPa)
#
#
# Indices 1 2 3 4 5 6 
#
# 1 94.3220 23.5033 8.8812 0.0000 -6.6349 0.0000
# 2 23.5033 84.5355 31.9267 0.0000 3.1158 0.0000
# 3 8.8812 31.9267 97.3110 0.0000 -4.0547 0.0000
# 4 0.0000 0.0000 0.0000 33.6075 0.0000 -5.4206
# 5 -6.6349 3.1158 -4.0547 0.0000 29.0083 0.0000
# 6 0.0000 0.0000 0.0000 -5.4206 0.0000 31.1939
#
#
#
# Elastic Compliance Matrix: (Units=1/GPa)
#
#
# Indices 1 2 3 4 5 6 
#
# 1 0.011653 -0.003423 0.000187 0.000000 0.003059 0.000000
# 2 -0.003423 0.014634 -0.004614 0.000000 -0.003000 0.000000
# 3 0.000187 -0.004614 0.011865 0.000000 0.002197 0.000000
# 4 0.000000 0.000000 0.000000 0.030613 0.000000 0.005320
# 5 0.003059 -0.003000 0.002197 0.000000 0.035802 0.000000
# 6 0.000000 0.000000 0.000000 0.005320 0.000000 0.032982
#
#
# Mechanical properties :
#
#
# Convention : Reuss Voigt Hill
#
# Bulk Modulus (GPa) = 44.54071 44.97675 44.75873
# Shear Modulus (GPa) = 31.10767 32.88576 31.99671
#
# Velocity S-wave (km/s) = 3.89342 4.00314 3.94866
# Velocity P-wave (km/s) = 6.47427 6.57905 6.52687
#
# Compressibility (1/GPa) = 0.02245137
#
# Stress axis : x y z
#
# Youngs Moduli (GPa) = 85.81821 68.33320 84.28465
#
# Poissons Ratio (x) = 0.23391 -0.01577
# Poissons Ratio (y) = 0.29377 0.38888
# Poissons Ratio (z) = -0.01605 0.31528
#
# Static dielectric constant tensor:
#      x y z
#    x 3.699990 0.000000 0.005640 
#    y 0.000000 3.943640 0.000000 
#    z 0.005640 0.000000 3.862250 
# 
# 
# High freq. dielectric constant tensor:
#      x y z
#    x 1.811070 0.000000 -0.001880 
#    y 0.000000 1.817990 0.000000 
#    z -0.001880 0.000000 1.808050 
# 
# From -- ./inp_files/28878.got.cif
#   From: 2010.03.12/outbox.cif.g09.slc.cpg/sg5_15_cif.got.tgz:28878.got - 2010.03.31 09:47:26.
