data_PCOD8051891
_publ_section_title
;
Structure prediction by ZEFSAII (Michael W. Deem and Ramdas Pophale) SiO2 
 PCOD8051891
Probable space group: C 2
;
_chemical_formula_sum "Si O2"
_cell_formula_units_Z 24
_cell_length_a 21.002603
_cell_length_b 9.108721
_cell_length_c 10.723021
_cell_angle_alpha 90.000000
_cell_angle_beta 149.898663
_cell_angle_gamma 90.000000
_cell_volume 1028.834211
_symmetry_space_group_name_H-M "C 2"
_symmetry_group_IT_number 5
_symmetry_cell_setting 'monoclinic'
loop_
_space_group_symop_operation_xyz
x,y,z
-x,y,-z
1/2+x,1/2+y,z
1/2-x,1/2+y,-z
loop_
_atom_site_type_symbol
_atom_site_label
_atom_site_fract_x
_atom_site_fract_y
_atom_site_fract_z
Si Si1 0.207498 0.720970 0.047555
Si Si2 0.255905 0.356917 0.379715
Si Si3 0.603830 0.933499 0.768782
Si Si4 0.998752 0.938955 0.640707
Si Si5 0.249998 0.177488 0.593675
Si Si6 0.035156 0.219081 0.855277
O O1 0.321245 0.804825 0.174174
O O2 0.224847 0.733216 0.224678
O O3 0.202367 0.554108 0.988118
O O4 0.073484 0.789226 0.784661
O O5 0.355918 0.403499 0.442800
O O6 0.321660 0.273947 0.609247
O O7 0.199677 0.510879 0.335397
O O8 0.148661 0.248447 0.144395
O O9 0.500000 0.004964 0.500000
O O10 0.527650 0.860202 0.753008
O O11 0.000000 0.990741 0.500000
O O12 0.064427 0.069152 0.830089
O O13 0.100234 0.197575 0.307302
#
# Coordination Sequence:
#
# PCOD8051891 Si02
#       6
#     4   4   4   4   4   4
#     4  12  26  44  70 109 144 184 245 294 357 430
#     4  11  26  49  72 104 145 190 241 294 358 429
#     4  12  24  44  73 107 146 188 231 299 363 419
#     4  11  26  46  73 109 144 185 236 301 361 426
#     4  11  26  47  71 105 141 191 243 290 360 426
#     4  11  23  45  76 101 140 188 236 297 356 424
#
# _framework density 23.327373000000001
#
# number of rings (size 3 to 8) (size 9 to 14) (size 15 to 20)
#    0.000    0.667    3.333    3.500    7.000    3.333 
#    3.000    0.000    0.000    0.000    0.000    0.000 
#    0.000    0.000    0.000    0.000    0.000    0.000 
#
# Total GULP energy -148817.816165 kJ/mol
# GULP energy per Si atom -12401.484680 kJ/mol
# Density = 2.327428 g / cm^3
# Si number density = 23.327373 Si / 1000 Ang^3
#
#
#
# Elastic Constant Matrix: (Units=GPa)
#
#
# Indices 1 2 3 4 5 6 
#
# 1 108.3182 45.5718 34.8264 0.0000 -30.7027 0.0000
# 2 45.5718 124.5108 38.2007 0.0000 -15.0068 0.0000
# 3 34.8264 38.2007 105.2040 0.0000 -14.4939 0.0000
# 4 0.0000 0.0000 0.0000 48.4263 0.0000 -2.7003
# 5 -30.7027 -15.0068 -14.4939 0.0000 35.9386 0.0000
# 6 0.0000 0.0000 0.0000 -2.7003 0.0000 37.7447
#
#
#
# Elastic Compliance Matrix: (Units=1/GPa)
#
#
# Indices 1 2 3 4 5 6 
#
# 1 0.014086 -0.003329 -0.002105 0.000000 0.009795 0.000000
# 2 -0.003329 0.010060 -0.002503 0.000000 0.000347 0.000000
# 3 -0.002105 -0.002503 0.011350 0.000000 0.001734 0.000000
# 4 0.000000 0.000000 0.000000 0.020733 0.000000 0.001483
# 5 0.009795 0.000347 0.001734 0.000000 0.037037 0.000000
# 6 0.000000 0.000000 0.000000 0.001483 0.000000 0.026600
#
#
# Mechanical properties :
#
#
# Convention : Reuss Voigt Hill
#
# Bulk Modulus (GPa) = 50.96400 63.91454 57.43927
# Shear Modulus (GPa) = 35.14228 39.05086 37.09657
#
# Velocity S-wave (km/s) = 3.88555 4.09594 3.99213
# Velocity P-wave (km/s) = 6.48265 7.05885 6.77688
#
# Compressibility (1/GPa) = 0.01962170
#
# Stress axis : x y z
#
# Youngs Moduli (GPa) = 70.99416 99.40678 88.10737
#
# Poissons Ratio (x) = 0.33095 0.18543
# Poissons Ratio (y) = 0.23636 0.22052
# Poissons Ratio (z) = 0.14941 0.24880
#
# Static dielectric constant tensor:
#      x y z
#    x 4.229890 0.000000 -0.167740 
#    y 0.000000 4.309660 0.000000 
#    z -0.167740 0.000000 4.133070 
# 
# 
# High freq. dielectric constant tensor:
#      x y z
#    x 1.925460 0.000000 -0.015010 
#    y 0.000000 1.931190 0.000000 
#    z -0.015010 0.000000 1.920980 
# 
# From -- ./inp_files/47340.got.cif
#   From: 2010.03.12/outbox.cif.g09.slc.cpg/sg5_24_cif.got.tgz:47340.got - 2010.03.31 09:47:26.
