data_PCOD8051038
_publ_section_title
;
Structure prediction by ZEFSAII (Michael W. Deem and Ramdas Pophale) SiO2 
 PCOD8051038
Probable space group: C 2
;
_chemical_formula_sum "Si O2"
_cell_formula_units_Z 32
_cell_length_a 15.214709
_cell_length_b 22.259009
_cell_length_c 8.665974
_cell_angle_alpha 90.000000
_cell_angle_beta 30.982617
_cell_angle_gamma 90.000000
_cell_volume 1510.799495
_symmetry_space_group_name_H-M "C 2"
_symmetry_group_IT_number 5
_symmetry_cell_setting 'monoclinic'
loop_
_space_group_symop_operation_xyz
x,y,z
-x,y,-z
1/2+x,1/2+y,z
1/2-x,1/2+y,-z
loop_
_atom_site_type_symbol
_atom_site_label
_atom_site_fract_x
_atom_site_fract_y
_atom_site_fract_z
Si Si1 0.823121 0.590600 0.175181
Si Si2 0.329675 0.715065 0.665430
Si Si3 0.661869 0.018712 0.149701
Si Si4 0.124624 0.309901 0.677110
Si Si5 0.945539 0.879372 0.252482
Si Si6 0.071770 0.388882 0.220880
Si Si7 0.851371 0.801090 0.842210
Si Si8 0.529426 0.502831 0.638506
O O1 0.766927 0.659553 0.266896
O O2 0.667544 0.552342 0.483346
O O3 0.844560 0.571510 0.965202
O O4 0.000000 0.580910 0.000000
O O5 0.500000 0.694772 0.500000
O O6 0.371280 0.761037 0.465359
O O7 0.203438 0.741858 0.984227
O O8 0.500000 0.028307 0.500000
O O9 0.651124 0.954598 0.076705
O O10 0.836977 0.018968 0.989326
O O11 0.309740 0.324835 0.468251
O O12 0.076169 0.375979 0.680886
O O13 0.000000 0.286577 0.000000
O O14 0.107446 0.852955 0.096557
O O15 0.893226 0.940474 0.417015
O O16 0.000000 0.896907 0.000000
O O17 0.000000 0.380436 0.500000
O O18 0.197519 0.333782 0.984102
O O19 0.000000 0.783521 0.500000
O O20 0.500000 0.500593 0.500000
#
# Coordination Sequence:
#
# PCOD8051038 Si02
#       8
#     4   4   4   4   4   4   4   4
#     4  11  28  48  71  96 132 180 233 293 337 394
#     4  12  25  51  69  91 137 186 236 269 338 420
#     4  10  23  41  72  99 136 178 231 271 335 411
#     4  12  26  39  65 103 139 177 222 281 349 394
#     4  12  24  37  64 103 149 168 216 283 350 396
#     4  11  20  42  65 100 141 178 221 272 334 420
#     4  12  23  40  68 101 134 182 219 274 337 416
#     4  10  23  44  66  99 134 189 227 268 337 414
#
# _framework density 21.180838000000001
#
# number of rings (size 3 to 8) (size 9 to 14) (size 15 to 20)
#    0.000    0.750    5.000    2.250   10.500    0.500 
#    0.000    3.125    0.000    0.000    0.000    0.000 
#    0.000    0.000    0.000    0.000    0.000    0.000 
#
# Total GULP energy -198367.204934 kJ/mol
# GULP energy per Si atom -12397.950308 kJ/mol
# Density = 2.113263 g / cm^3
# Si number density = 21.180838 Si / 1000 Ang^3
#
#
#
# Elastic Constant Matrix: (Units=GPa)
#
#
# Indices 1 2 3 4 5 6 
#
# 1 77.2922 31.3190 28.6474 0.0179 -7.9154 0.0343
# 2 31.3190 102.5663 33.2048 0.0100 -15.0561 0.0195
# 3 28.6474 33.2048 124.8886 0.0710 -7.8880 0.1339
# 4 0.0179 0.0100 0.0710 -117.9017 -0.0211 -298.9925
# 5 -7.9154 -15.0561 -7.8880 -0.0211 29.6187 -0.0395
# 6 0.0343 0.0195 0.1339 -298.9925 -0.0395 -538.7158
#
#
#
# Elastic Compliance Matrix: (Units=1/GPa)
#
#
# Indices 1 2 3 4 5 6 
#
# 1 0.015520 -0.003702 -0.002474 0.000000 0.001607 0.000000
# 2 -0.003702 0.012250 -0.002113 0.000000 0.004675 -0.000001
# 3 -0.002474 -0.002113 0.009181 0.000001 0.000710 0.000002
# 4 0.000000 0.000000 0.000001 0.020815 0.000000 -0.011553
# 5 0.001607 0.004675 0.000710 0.000000 0.036757 -0.000002
# 6 0.000000 -0.000001 0.000002 -0.011553 -0.000002 0.004556
#
#
# Mechanical properties :
#
#
# Convention : Reuss Voigt Hill
#
# Bulk Modulus (GPa) = 49.08336 54.56549 51.82442
# Shear Modulus (GPa) = 40.83355 -111.29469 -35.23057
#
# Velocity S-wave (km/s) = 4.39550 -7.25666 -4.08281
# Velocity P-wave (km/s) = 6.99888 6.66291 1.51490
#
# Compressibility (1/GPa) = 0.02037351
#
# Stress axis : x y z
#
# Youngs Moduli (GPa) = 64.43470 81.62946 108.91817
#
# Poissons Ratio (x) = 0.30220 0.26948
# Poissons Ratio (y) = 0.23854 0.23010
# Poissons Ratio (z) = 0.15942 0.17245
#
# Static dielectric constant tensor:
#      x y z
#    x 11.478050 0.000030 -11.575440 
#    y 0.000030 3.648540 -0.000050 
#    z -11.575440 -0.000050 20.806380 
# 
# 
# High freq. dielectric constant tensor:
#      x y z
#    x 1.832030 0.000000 -0.015510 
#    y 0.000000 1.812160 0.000000 
#    z -0.015510 0.000000 1.846870 
# 
# From -- ./inp_files/25614.got.cif
#   From: 2010.03.12/outbox.cif.g09.slc.cpg/sg5_13_cif.got.tgz:25614.got - 2010.03.31 09:47:26.
