data_PCOD8051694
_publ_section_title
;
Structure prediction by ZEFSAII (Michael W. Deem and Ramdas Pophale) SiO2 
 PCOD8051694
Probable space group: C 2
;
_chemical_formula_sum "Si O2"
_cell_formula_units_Z 30
_cell_length_a 14.145919
_cell_length_b 12.094581
_cell_length_c 9.190965
_cell_angle_alpha 90.000000
_cell_angle_beta 112.048326
_cell_angle_gamma 90.000000
_cell_volume 1457.473915
_symmetry_space_group_name_H-M "C 2"
_symmetry_group_IT_number 5
_symmetry_cell_setting 'monoclinic'
loop_
_space_group_symop_operation_xyz
x,y,z
-x,y,-z
1/2+x,1/2+y,z
1/2-x,1/2+y,-z
loop_
_atom_site_type_symbol
_atom_site_label
_atom_site_fract_x
_atom_site_fract_y
_atom_site_fract_z
Si Si1 0.813660 0.379740 0.128970
Si Si2 0.376373 0.332333 0.790994
Si Si3 0.750160 0.968565 0.217878
Si Si4 0.500000 0.510132 0.000000
Si Si5 0.373944 0.107421 0.237497
Si Si6 0.437249 0.100955 0.835740
Si Si7 0.328673 0.639939 0.066488
Si Si8 0.616165 0.293412 0.537596
O O1 0.716606 0.384009 0.176568
O O2 0.882786 0.473455 0.247079
O O3 0.865650 0.259752 0.145685
O O4 0.787815 0.411047 0.950124
O O5 0.464135 0.426683 0.850008
O O6 0.398851 0.216446 0.884828
O O7 0.353132 0.297136 0.612556
O O8 0.810656 0.882257 0.347357
O O9 0.655968 0.019109 0.258627
O O10 0.823652 0.068369 0.210815
O O11 0.589519 0.589607 0.997020
O O12 0.488634 0.139359 0.252837
O O13 0.359391 0.170875 0.382408
O O14 0.282812 0.143714 0.075614
O O15 0.500000 0.038834 0.000000
O O16 0.500000 0.328337 0.500000
#
# Coordination Sequence:
#
# PCOD8051694 Si02
#       8
#     4   4   4   2   4   4   4   4
#     4  11  22  43  67  95 136 173 219 289 333 404
#     4  12  24  40  70  96 135 179 228 275 340 406
#     4  11  23  40  67 102 134 169 223 282 343 402
#     4  12  24  40  68 106 132 186 230 276 342 416
#     4  11  23  42  66 100 134 175 229 281 336 403
#     4  12  21  38  70 103 127 172 224 282 335 399
#     4  11  22  39  67  99 138 169 222 286 332 403
#     4  12  26  43  66  98 136 179 230 285 334 406
#
# _framework density 20.583559000000001
#
# number of rings (size 3 to 8) (size 9 to 14) (size 15 to 20)
#    0.000    0.533   10.000    0.800    0.000    2.133 
#    0.000    0.000    0.000    2.400    0.000    0.000 
#    0.000    0.000    0.000    0.000    0.000    0.000 
#
# Total GULP energy -185865.651113 kJ/mol
# GULP energy per Si atom -12391.043408 kJ/mol
# Density = 2.053671 g / cm^3
# Si number density = 20.583559 Si / 1000 Ang^3
#
#
#
# Elastic Constant Matrix: (Units=GPa)
#
#
# Indices 1 2 3 4 5 6 
#
# 1 104.1672 36.7735 29.6763 0.0000 -2.7240 0.0000
# 2 36.7735 158.8775 40.9723 0.0000 5.6088 0.0000
# 3 29.6763 40.9723 77.5214 0.0000 -6.6974 0.0000
# 4 0.0000 0.0000 0.0000 20.5662 0.0000 1.9438
# 5 -2.7240 5.6088 -6.6974 0.0000 23.5133 0.0000
# 6 0.0000 0.0000 0.0000 1.9438 0.0000 29.5167
#
#
#
# Elastic Compliance Matrix: (Units=1/GPa)
#
#
# Indices 1 2 3 4 5 6 
#
# 1 0.011179 -0.001770 -0.003276 0.000000 0.000784 0.000000
# 2 -0.001770 0.007767 -0.003696 0.000000 -0.003111 0.000000
# 3 -0.003276 -0.003696 0.016558 0.000000 0.005218 0.000000
# 4 0.000000 0.000000 0.000000 0.048928 0.000000 -0.003222
# 5 0.000784 -0.003111 0.005218 0.000000 0.044848 0.000000
# 6 0.000000 0.000000 0.000000 -0.003222 0.000000 0.034091
#
#
# Mechanical properties :
#
#
# Convention : Reuss Voigt Hill
#
# Bulk Modulus (GPa) = 55.49688 61.71224 58.60456
# Shear Modulus (GPa) = 26.75765 30.26216 28.50990
#
# Velocity S-wave (km/s) = 3.60940 3.83849 3.72571
# Velocity P-wave (km/s) = 6.66263 7.04924 6.85866
#
# Compressibility (1/GPa) = 0.01801903
#
# Stress axis : x y z
#
# Youngs Moduli (GPa) = 89.45590 128.75195 60.39347
#
# Poissons Ratio (x) = 0.22792 0.19785
# Poissons Ratio (y) = 0.15836 0.22322
# Poissons Ratio (z) = 0.29306 0.47588
#
# Static dielectric constant tensor:
#      x y z
#    x 3.780610 0.000000 -0.012530 
#    y 0.000000 4.233930 0.000000 
#    z -0.012530 0.000000 3.552160 
# 
# 
# High freq. dielectric constant tensor:
#      x y z
#    x 1.805570 0.000000 -0.010220 
#    y 0.000000 1.821880 0.000000 
#    z -0.010220 0.000000 1.773610 
# 
# From -- ./inp_files/23911.got.cif
#   From: 2010.03.12/outbox.cif.g09.slc.cpg/sg5_12_cif.got.tgz:23911.got - 2010.03.31 09:47:26.
