data_PCOD8051158
_publ_section_title
;
Structure prediction by ZEFSAII (Michael W. Deem and Ramdas Pophale) SiO2 
 PCOD8051158
Probable space group: C 2
;
_chemical_formula_sum "Si O2"
_cell_formula_units_Z 18
_cell_length_a 17.131823
_cell_length_b 8.960396
_cell_length_c 5.129339
_cell_angle_alpha 90.000000
_cell_angle_beta 70.543875
_cell_angle_gamma 90.000000
_cell_volume 742.431451
_symmetry_space_group_name_H-M "C 2"
_symmetry_group_IT_number 5
_symmetry_cell_setting 'monoclinic'
loop_
_space_group_symop_operation_xyz
x,y,z
-x,y,-z
1/2+x,1/2+y,z
1/2-x,1/2+y,-z
loop_
_atom_site_type_symbol
_atom_site_label
_atom_site_fract_x
_atom_site_fract_y
_atom_site_fract_z
Si Si1 0.708671 0.228640 0.104545
Si Si2 0.500000 0.559188 0.000000
Si Si3 0.140013 0.415647 0.169706
Si Si4 0.887144 0.803085 0.301819
Si Si5 0.500000 0.066051 0.000000
Si Si6 0.000000 0.249870 0.500000
O O1 0.657372 0.325338 0.371350
O O2 0.698716 0.053195 0.194384
O O3 0.803287 0.283169 0.010843
O O4 0.676616 0.248689 0.847338
O O5 0.421985 0.461793 0.175636
O O6 0.525740 0.656294 0.219251
O O7 0.082401 0.351068 0.469778
O O8 0.071794 0.463815 0.034341
O O9 0.959618 0.679294 0.258651
#
# Coordination Sequence:
#
# PCOD8051158 Si02
#       6
#     4   2   4   4   2   2
#     4  11  26  44  74 105 149 182 240 299 367 416
#     4  11  25  42  76 104 144 188 246 294 348 432
#     4  11  26  47  73 109 144 195 238 300 360 428
#     4  10  23  45  72 105 143 187 237 295 365 425
#     4   9  21  48  74 102 136 198 238 290 358 442
#     4  12  26  44  70 104 148 190 242 292 354 436
#
# _framework density 24.244662000000002
#
# number of rings (size 3 to 8) (size 9 to 14) (size 15 to 20)
#    0.000    1.333    0.000    3.333    6.222   15.111 
#    0.000    0.000    0.000    0.000    0.000    0.000 
#    0.000    0.000    0.000    0.000    0.000    0.000 
#
# Total GULP energy -111577.714816 kJ/mol
# GULP energy per Si atom -12397.523868 kJ/mol
# Density = 2.418948 g / cm^3
# Si number density = 24.244662 Si / 1000 Ang^3
#
#
#
# Elastic Constant Matrix: (Units=GPa)
#
#
# Indices 1 2 3 4 5 6 
#
# 1 117.3805 64.6487 49.7710 0.0000 -28.2889 0.0000
# 2 64.6487 149.8258 53.7890 0.0000 -26.6003 0.0000
# 3 49.7710 53.7890 129.0853 0.0000 -25.9075 0.0000
# 4 0.0000 0.0000 0.0000 32.5271 0.0000 -3.1421
# 5 -28.2889 -26.6003 -25.9075 0.0000 55.1276 0.0000
# 6 0.0000 0.0000 0.0000 -3.1421 0.0000 43.4454
#
#
#
# Elastic Compliance Matrix: (Units=1/GPa)
#
#
# Indices 1 2 3 4 5 6 
#
# 1 0.012561 -0.003911 -0.002538 0.000000 0.003366 0.000000
# 2 -0.003911 0.009387 -0.002095 0.000000 0.001538 0.000000
# 3 -0.002538 -0.002095 0.010085 0.000000 0.002427 0.000000
# 4 0.000000 0.000000 0.000000 0.030960 0.000000 0.002239
# 5 0.003366 0.001538 0.002427 0.000000 0.021749 0.000000
# 6 0.000000 0.000000 0.000000 0.002239 0.000000 0.023179
#
#
# Mechanical properties :
#
#
# Convention : Reuss Voigt Hill
#
# Bulk Modulus (GPa) = 66.90994 81.41210 74.16102
# Shear Modulus (GPa) = 38.46425 41.42557 39.94491
#
# Velocity S-wave (km/s) = 3.98742 4.13806 4.06344
# Velocity P-wave (km/s) = 6.98978 7.51556 7.25744
#
# Compressibility (1/GPa) = 0.01494546
#
# Stress axis : x y z
#
# Youngs Moduli (GPa) = 79.61411 106.52796 99.15523
#
# Poissons Ratio (x) = 0.41665 0.25163
# Poissons Ratio (y) = 0.31139 0.20772
# Poissons Ratio (z) = 0.20204 0.22316
#
# Static dielectric constant tensor:
#      x y z
#    x 4.151240 0.000000 -0.397760 
#    y 0.000000 4.873480 0.000000 
#    z -0.397760 0.000000 4.364500 
# 
# 
# High freq. dielectric constant tensor:
#      x y z
#    x 1.945450 0.000000 -0.021130 
#    y 0.000000 1.978490 0.000000 
#    z -0.021130 0.000000 1.965100 
# 
# From -- ./inp_files/6344.got.cif
#   From: 2010.03.12/outbox.cif.g09.slc.cpg/sg5_4_cif.got.tgz:6344.got - 2010.03.31 09:47:26.
