data_PCOD8051532
_publ_section_title
;
Structure prediction by ZEFSAII (Michael W. Deem and Ramdas Pophale) SiO2 
 PCOD8051532
Probable space group: C 2
;
_chemical_formula_sum "Si O2"
_cell_formula_units_Z 26
_cell_length_a 8.142234
_cell_length_b 14.334412
_cell_length_c 14.735621
_cell_angle_alpha 90.000000
_cell_angle_beta 43.378639
_cell_angle_gamma 90.000000
_cell_volume 1181.225127
_symmetry_space_group_name_H-M "C 2"
_symmetry_group_IT_number 5
_symmetry_cell_setting 'monoclinic'
loop_
_space_group_symop_operation_xyz
x,y,z
-x,y,-z
1/2+x,1/2+y,z
1/2-x,1/2+y,-z
loop_
_atom_site_type_symbol
_atom_site_label
_atom_site_fract_x
_atom_site_fract_y
_atom_site_fract_z
Si Si1 0.257635 0.855500 0.053798
Si Si2 0.089715 0.177397 0.195847
Si Si3 0.607846 0.487599 0.756370
Si Si4 0.372100 0.967605 0.829508
Si Si5 0.500000 0.877190 0.500000
Si Si6 0.213221 0.339006 0.602592
Si Si7 0.447360 0.167854 0.885778
O O1 0.071873 0.770603 0.151068
O O2 0.155873 0.943142 0.152360
O O3 0.500000 0.821000 0.000000
O O4 0.302006 0.891305 0.933244
O O5 0.275963 0.155131 0.200889
O O6 0.924083 0.265785 0.278955
O O7 0.251369 0.185761 0.042261
O O8 0.897613 0.095959 0.262535
O O9 0.663663 0.463402 0.838660
O O10 0.791556 0.444591 0.613957
O O11 0.621625 0.939146 0.678443
O O12 0.380330 0.075474 0.857397
O O13 0.618300 0.819873 0.536974
O O14 0.500000 0.331184 0.500000
#
# Coordination Sequence:
#
# PCOD8051532 Si02
#       7
#     4   4   4   4   2   4   4
#     4  12  25  39  70 103 144 185 230 297 359 427
#     4  11  24  43  67 105 137 180 228 296 356 426
#     4  11  25  45  71  97 145 182 240 294 355 423
#     4  11  24  45  68 107 137 189 231 299 360 418
#     4  10  26  48  68 102 136 202 240 292 342 434
#     4  11  26  49  77  98 147 190 245 290 359 426
#     4  11  24  41  69 103 143 176 231 290 367 422
#
# _framework density 22.011046
#
# number of rings (size 3 to 8) (size 9 to 14) (size 15 to 20)
#    0.000    0.923    3.077    3.231    9.692    0.000 
#    2.769    0.000    1.692    0.000    0.000    0.000 
#    0.000    0.000    0.000    0.000    0.000    0.000 
#
# Total GULP energy -161058.346696 kJ/mol
# GULP energy per Si atom -12389.103592 kJ/mol
# Density = 2.196095 g / cm^3
# Si number density = 22.011046 Si / 1000 Ang^3
#
#
#
# Elastic Constant Matrix: (Units=GPa)
#
#
# Indices 1 2 3 4 5 6 
#
# 1 87.5000 31.0874 45.5758 -0.0019 -9.5401 -0.0003
# 2 31.0874 121.0914 41.7500 0.0017 7.0321 -0.0031
# 3 45.5758 41.7500 100.2066 0.0044 -14.3531 -0.0124
# 4 -0.0019 0.0017 0.0044 30.9820 0.0012 1.3246
# 5 -9.5401 7.0321 -14.3531 0.0012 31.9071 0.0029
# 6 -0.0003 -0.0031 -0.0124 1.3246 0.0029 17.5744
#
#
#
# Elastic Compliance Matrix: (Units=1/GPa)
#
#
# Indices 1 2 3 4 5 6 
#
# 1 0.015472 -0.002117 -0.005799 0.000002 0.002484 -0.000005
# 2 -0.002117 0.010491 -0.004094 0.000000 -0.004787 0.000000
# 3 -0.005799 -0.004094 0.015182 -0.000003 0.005998 0.000009
# 4 0.000002 0.000000 -0.000003 0.032381 -0.000002 -0.002441
# 5 0.002484 -0.004787 0.005998 -0.000002 0.035837 -0.000002
# 6 -0.000005 0.000000 0.000009 -0.002441 -0.000002 0.057085
#
#
# Mechanical properties :
#
#
# Convention : Reuss Voigt Hill
#
# Bulk Modulus (GPa) = 58.39404 60.62492 59.50948
# Shear Modulus (GPa) = 25.48735 28.78504 27.13620
#
# Velocity S-wave (km/s) = 3.40654 3.62021 3.51500
# Velocity P-wave (km/s) = 6.48534 6.71396 6.60064
#
# Compressibility (1/GPa) = 0.01712503
#
# Stress axis : x y z
#
# Youngs Moduli (GPa) = 64.63247 95.31855 65.86880
#
# Poissons Ratio (x) = 0.20178 0.38199
# Poissons Ratio (y) = 0.13682 0.26966
# Poissons Ratio (z) = 0.37482 0.39022
#
# Static dielectric constant tensor:
#      x y z
#    x 4.063650 -0.000010 -0.048960 
#    y -0.000010 4.105070 0.000010 
#    z -0.048960 0.000010 4.004100 
# 
# 
# High freq. dielectric constant tensor:
#      x y z
#    x 1.866220 0.000000 -0.010540 
#    y 0.000000 1.873540 0.000000 
#    z -0.010540 0.000000 1.863720 
# 
# From -- ./inp_files/51096.got.cif
#   From: 2010.03.12/outbox.cif.g09.slc.cpg/sg5_26_cif.got.tgz:51096.got - 2010.03.31 09:47:26.
