data_PCOD8051677
_publ_section_title
;
Structure prediction by ZEFSAII (Michael W. Deem and Ramdas Pophale) SiO2 
 PCOD8051677
Probable space group: C 2
;
_chemical_formula_sum "Si O2"
_cell_formula_units_Z 32
_cell_length_a 21.370225
_cell_length_b 9.035795
_cell_length_c 14.553835
_cell_angle_alpha 90.000000
_cell_angle_beta 33.800380
_cell_angle_gamma 90.000000
_cell_volume 1563.373876
_symmetry_space_group_name_H-M "C 2"
_symmetry_group_IT_number 5
_symmetry_cell_setting 'monoclinic'
loop_
_space_group_symop_operation_xyz
x,y,z
-x,y,-z
1/2+x,1/2+y,z
1/2-x,1/2+y,-z
loop_
_atom_site_type_symbol
_atom_site_label
_atom_site_fract_x
_atom_site_fract_y
_atom_site_fract_z
Si Si1 0.083189 0.983710 0.608639
Si Si2 0.265428 0.521268 0.407072
Si Si3 0.139096 0.144634 0.062187
Si Si4 0.112417 0.749930 0.821345
Si Si5 0.961244 0.649116 0.277262
Si Si6 0.306545 0.984271 0.979669
Si Si7 0.126419 0.222459 0.872892
Si Si8 0.254027 0.519080 0.749083
O O1 0.047032 0.814296 0.670786
O O2 0.184812 0.036167 0.550948
O O3 0.128155 0.005956 0.449621
O O4 0.978586 0.091667 0.752064
O O5 0.299011 0.364047 0.326774
O O6 0.131210 0.538238 0.567581
O O7 0.311247 0.649292 0.287395
O O8 0.162108 0.311964 0.067202
O O9 0.137530 0.130003 0.953748
O O10 0.238164 0.035227 0.973723
O O11 0.063867 0.645959 0.800512
O O12 0.181915 0.663503 0.813117
O O13 0.000000 0.829283 0.000000
O O14 0.081995 0.582749 0.150813
O O15 0.225378 0.017359 0.166340
O O16 0.175285 0.383224 0.822662
O O17 0.000000 0.242346 0.000000
#
# Coordination Sequence:
#
# PCOD8051677 Si02
#       8
#     4   4   4   4   4   4   4   4
#     4  11  23  40  66  97 135 171 216 275 327 390
#     4  11  23  36  63 102 136 169 212 273 336 377
#     4  11  26  44  71  93 129 178 225 267 329 392
#     4  11  22  36  60  99 136 173 213 271 324 385
#     4  11  23  40  63  95 138 172 215 271 326 392
#     4  11  26  46  68  92 128 181 222 268 324 400
#     4  11  22  41  68 100 131 171 218 270 330 392
#     4  11  23  39  66  98 133 171 214 269 328 391
#
# _framework density 20.468553
#
# number of rings (size 3 to 8) (size 9 to 14) (size 15 to 20)
#    0.000    1.000    5.000    1.500    5.250    1.500 
#    0.000    0.625    2.750    0.000    0.000    0.000 
#    0.000    0.000    0.000    0.000    0.000    0.000 
#
# Total GULP energy -198411.471843 kJ/mol
# GULP energy per Si atom -12400.716990 kJ/mol
# Density = 2.042197 g / cm^3
# Si number density = 20.468553 Si / 1000 Ang^3
#
#
#
# Elastic Constant Matrix: (Units=GPa)
#
#
# Indices 1 2 3 4 5 6 
#
# 1 89.4778 33.8519 18.4522 0.0000 5.9926 0.0001
# 2 33.8519 72.2594 32.3206 -0.0001 -2.2039 0.0001
# 3 18.4522 32.3206 127.3711 0.0000 3.5151 0.0000
# 4 0.0000 -0.0001 0.0000 37.7588 0.0000 -3.0011
# 5 5.9926 -2.2039 3.5151 0.0000 23.6214 0.0000
# 6 0.0001 0.0001 0.0000 -3.0011 0.0000 29.8468
#
#
#
# Elastic Compliance Matrix: (Units=1/GPa)
#
#
# Indices 1 2 3 4 5 6 
#
# 1 0.013988 -0.006569 -0.000246 0.000000 -0.004125 0.000000
# 2 -0.006569 0.018796 -0.003928 0.000000 0.004005 0.000000
# 3 -0.000246 -0.003928 0.008929 0.000000 -0.001633 0.000000
# 4 0.000000 0.000000 0.000000 0.026697 0.000000 0.002684
# 5 -0.004125 0.004005 -0.001633 0.000000 0.043998 0.000000
# 6 0.000000 0.000000 0.000000 0.002684 0.000000 0.033774
#
#
# Mechanical properties :
#
#
# Convention : Reuss Voigt Hill
#
# Bulk Modulus (GPa) = 49.44062 50.92861 50.18462
# Shear Modulus (GPa) = 28.66814 31.87766 30.27290
#
# Velocity S-wave (km/s) = 3.74651 3.95067 3.84994
# Velocity P-wave (km/s) = 6.55149 6.76356 6.65837
#
# Compressibility (1/GPa) = 0.02022628
#
# Stress axis : x y z
#
# Youngs Moduli (GPa) = 71.48916 53.20378 112.00040
#
# Poissons Ratio (x) = 0.34950 0.02752
# Poissons Ratio (y) = 0.46961 0.43997
# Poissons Ratio (z) = 0.01757 0.20900
#
# Static dielectric constant tensor:
#      x y z
#    x 3.994870 0.000000 0.389810 
#    y 0.000000 3.725090 0.000000 
#    z 0.389810 0.000000 4.059870 
# 
# 
# High freq. dielectric constant tensor:
#      x y z
#    x 1.786310 0.000000 0.003160 
#    y 0.000000 1.807090 0.000000 
#    z 0.003160 0.000000 1.815700 
# 
# From -- ./inp_files/57672.got.cif
#   From: 2010.03.12/outbox.cif.g09.slc.cpg/sg5_29_cif.got.tgz:57672.got - 2010.03.31 09:47:26.
