data_PCOD8051995
_publ_section_title
;
Structure prediction by ZEFSAII (Michael W. Deem and Ramdas Pophale) SiO2 
 PCOD8051995
Probable space group: C 2
;
_chemical_formula_sum "Si O2"
_cell_formula_units_Z 18
_cell_length_a 5.376361
_cell_length_b 23.788315
_cell_length_c 5.386250
_cell_angle_alpha 90.000000
_cell_angle_beta 90.940428
_cell_angle_gamma 90.000000
_cell_volume 688.779332
_symmetry_space_group_name_H-M "C 2"
_symmetry_group_IT_number 5
_symmetry_cell_setting 'monoclinic'
loop_
_space_group_symop_operation_xyz
x,y,z
-x,y,-z
1/2+x,1/2+y,z
1/2-x,1/2+y,-z
loop_
_atom_site_type_symbol
_atom_site_label
_atom_site_fract_x
_atom_site_fract_y
_atom_site_fract_z
Si Si1 0.000000 0.820230 0.500000
Si Si2 0.756131 0.631898 0.653398
Si Si3 0.864019 0.393349 0.748718
Si Si4 0.746168 0.749197 0.862839
Si Si5 0.344489 0.511269 0.244122
O O1 0.901108 0.861353 0.276890
O O2 0.774617 0.779962 0.596143
O O3 0.500000 0.630314 0.500000
O O4 0.728571 0.681604 0.850598
O O5 0.795291 0.571295 0.784510
O O6 0.000000 0.645991 0.500000
O O7 0.851563 0.460944 0.751276
O O8 0.000000 0.374508 0.500000
O O9 0.000000 0.372186 0.000000
O O10 0.500000 0.771502 0.000000
O O11 0.000000 0.766771 0.000000
O O12 0.500000 0.509432 0.500000
O O13 0.500000 0.500906 0.000000
#
# Coordination Sequence:
#
# PCOD8051995 Si02
#       5
#     2   4   4   4   4
#     4  12  32  52  74 118 174 212 292 344 410 504
#     4  11  24  48  81 118 162 208 269 341 419 497
#     4  12  29  50  83 117 162 219 280 343 421 492
#     4  12  29  50  82 118 161 221 278 344 419 496
#     4  11  24  48  79 118 162 208 267 344 416 496
#
# _framework density 26.133188000000001
#
# number of rings (size 3 to 8) (size 9 to 14) (size 15 to 20)
#    0.000    0.444    2.222    4.000    6.222    4.444 
#    0.000    0.000    0.000    0.000    0.000    0.000 
#    0.000    0.000    0.000    0.000    0.000    0.000 
#
# Total GULP energy -111583.659692 kJ/mol
# GULP energy per Si atom -12398.184410 kJ/mol
# Density = 2.607371 g / cm^3
# Si number density = 26.133188 Si / 1000 Ang^3
#
#
#
# Elastic Constant Matrix: (Units=GPa)
#
#
# Indices 1 2 3 4 5 6 
#
# 1 156.2403 37.2805 54.6504 0.0000 -8.0377 0.0000
# 2 37.2805 185.2638 34.9363 0.0000 2.5227 0.0000
# 3 54.6504 34.9363 161.3739 0.0000 -5.6602 0.0000
# 4 0.0000 0.0000 0.0000 -4.9194 0.0000 4.5531
# 5 -8.0377 2.5227 -5.6602 0.0000 54.3308 0.0000
# 6 0.0000 0.0000 0.0000 4.5531 0.0000 27.5788
#
#
#
# Elastic Compliance Matrix: (Units=1/GPa)
#
#
# Indices 1 2 3 4 5 6 
#
# 1 0.007504 -0.001094 -0.002272 0.000000 0.000924 0.000000
# 2 -0.001094 0.005795 -0.000903 0.000000 -0.000525 0.000000
# 3 -0.002272 -0.000903 0.007177 0.000000 0.000454 0.000000
# 4 0.000000 0.000000 0.000000 -0.176333 0.000000 0.029112
# 5 0.000924 -0.000525 0.000454 0.000000 0.018614 0.000000
# 6 0.000000 0.000000 0.000000 0.029112 0.000000 0.031454
#
#
# Mechanical properties :
#
#
# Convention : Reuss Voigt Hill
#
# Bulk Modulus (GPa) = 83.75668 84.06803 83.91236
# Shear Modulus (GPa) = -53.60635 40.46542 -6.57046
#
# Velocity S-wave (km/s) = -4.53401 3.93928 -1.58735
# Velocity P-wave (km/s) = 2.17021 7.27526 5.36839
#
# Compressibility (1/GPa) = 0.01193935
#
# Stress axis : x y z
#
# Youngs Moduli (GPa) = 133.26789 172.55614 139.32475
#
# Poissons Ratio (x) = 0.18880 0.31653
# Poissons Ratio (y) = 0.14581 0.12574
# Poissons Ratio (z) = 0.30277 0.15573
#
# Static dielectric constant tensor:
#      x y z
#    x 4.620340 0.000000 -0.036940 
#    y 0.000000 5.264100 0.000000 
#    z -0.036940 0.000000 4.618950 
# 
# 
# High freq. dielectric constant tensor:
#      x y z
#    x 2.040080 0.000000 -0.004120 
#    y 0.000000 2.083720 0.000000 
#    z -0.004120 0.000000 2.040580 
# 
# From -- ./inp_files/887.got.cif
#   From: 2010.03.12/outbox.cif.g09.slc.cpg/sg5_1_cif.got.tgz:887.got - 2010.03.31 09:47:26.
