data_PCOD8051763
_publ_section_title
;
Structure prediction by ZEFSAII (Michael W. Deem and Ramdas Pophale) SiO2 
 PCOD8051763
Probable space group: C 2
;
_chemical_formula_sum "Si O2"
_cell_formula_units_Z 22
_cell_length_a 12.352942
_cell_length_b 13.369714
_cell_length_c 9.672505
_cell_angle_alpha 90.000000
_cell_angle_beta 38.607891
_cell_angle_gamma 90.000000
_cell_volume 996.798052
_symmetry_space_group_name_H-M "C 2"
_symmetry_group_IT_number 5
_symmetry_cell_setting 'monoclinic'
loop_
_space_group_symop_operation_xyz
x,y,z
-x,y,-z
1/2+x,1/2+y,z
1/2-x,1/2+y,-z
loop_
_atom_site_type_symbol
_atom_site_label
_atom_site_fract_x
_atom_site_fract_y
_atom_site_fract_z
Si Si1 0.341078 0.500000 0.976867
Si Si2 0.206351 0.677206 0.278333
Si Si3 0.463724 0.074684 0.886188
Si Si4 0.283657 0.278096 0.015798
Si Si5 0.000000 0.220805 0.500000
Si Si6 0.177388 0.116934 0.564276
O O1 0.523190 0.541083 0.744776
O O2 0.270812 0.563815 0.177116
O O3 0.194765 0.507791 0.006251
O O4 0.374873 0.382447 0.962792
O O5 0.303250 0.698598 0.328541
O O6 0.000000 0.680262 0.500000
O O7 0.260115 0.755717 0.103477
O O8 0.637539 0.059840 0.621749
O O9 0.500000 0.033379 0.000000
O O10 0.412630 0.191722 0.937129
O O11 0.103180 0.281962 0.280508
O O12 0.855433 0.160461 0.556450
#
# Coordination Sequence:
#
# PCOD8051763 Si02
#       6
#     4   4   4   4   2   4
#     4  11  25  45  68 106 135 179 240 282 343 417
#     4  11  23  47  70  98 145 183 222 292 349 404
#     4  11  22  45  67  98 145 183 223 286 347 407
#     4  11  25  46  69 105 142 175 240 284 342 422
#     4  12  24  44  76  96 140 192 230 278 356 412
#     4  12  22  46  75  95 141 190 225 285 353 409
#
# _framework density 22.07067
#
# number of rings (size 3 to 8) (size 9 to 14) (size 15 to 20)
#    0.000    0.727    9.091    0.545    1.273    1.455 
#   11.455    0.000    0.000    0.000    0.000    0.000 
#    0.000    0.000    0.000    0.000    0.000    0.000 
#
# Total GULP energy -136277.131815 kJ/mol
# GULP energy per Si atom -12388.830165 kJ/mol
# Density = 2.202044 g / cm^3
# Si number density = 22.070670 Si / 1000 Ang^3
#
#
#
# Elastic Constant Matrix: (Units=GPa)
#
#
# Indices 1 2 3 4 5 6 
#
# 1 139.8848 -8.7085 33.4901 -0.0004 7.8096 0.0001
# 2 -8.7085 41.4514 19.7627 -0.0004 4.4311 0.0002
# 3 33.4901 19.7627 174.0488 -0.0010 -7.6414 0.0006
# 4 -0.0004 -0.0004 -0.0010 9.1072 0.0005 1.6442
# 5 7.8096 4.4311 -7.6414 0.0005 44.1694 -0.0002
# 6 0.0001 0.0002 0.0006 1.6442 -0.0002 -1.6818
#
#
#
# Elastic Compliance Matrix: (Units=1/GPa)
#
#
# Indices 1 2 3 4 5 6 
#
# 1 0.007895 0.002791 -0.001924 0.000000 -0.002009 0.000001
# 2 0.002791 0.026916 -0.003762 0.000001 -0.003844 0.000003
# 3 -0.001924 -0.003762 0.006625 0.000000 0.001864 0.000002
# 4 0.000000 0.000001 0.000000 0.093331 -0.000001 0.091242
# 5 -0.002009 -0.003844 0.001864 -0.000001 0.023703 -0.000003
# 6 0.000001 0.000003 0.000002 0.091242 -0.000003 -0.505404
#
#
# Mechanical properties :
#
#
# Convention : Reuss Voigt Hill
#
# Bulk Modulus (GPa) = 28.05450 49.38598 38.72024
# Shear Modulus (GPa) = -15.18549 31.04167 7.92809
#
# Velocity S-wave (km/s) = -2.62590 3.75436 1.89735
# Velocity P-wave (km/s) = 1.88283 6.42016 4.73094
#
# Compressibility (1/GPa) = 0.03564491
#
# Stress axis : x y z
#
# Youngs Moduli (GPa) = 126.65694 37.15324 150.94855
#
# Poissons Ratio (x) = -0.10369 0.29047
# Poissons Ratio (y) = -0.35349 0.56787
# Poissons Ratio (z) = 0.24373 0.13977
#
# Static dielectric constant tensor:
#      x y z
#    x 4.391750 0.000000 0.134150 
#    y 0.000000 3.494920 0.000000 
#    z 0.134150 0.000000 4.221000 
# 
# 
# High freq. dielectric constant tensor:
#      x y z
#    x 1.889280 0.000000 0.000030 
#    y 0.000000 1.810230 0.000000 
#    z 0.000030 0.000000 1.895000 
# 
# From -- ./inp_files/42870.got.cif
#   From: 2010.03.12/outbox.cif.g09.slc.cpg/sg5_22_cif.got.tgz:42870.got - 2010.03.31 09:47:26.
