data_PCOD8051968
_publ_section_title
;
Structure prediction by ZEFSAII (Michael W. Deem and Ramdas Pophale) SiO2 
 PCOD8051968
Probable space group: C 2
;
_chemical_formula_sum "Si O2"
_cell_formula_units_Z 24
_cell_length_a 9.935668
_cell_length_b 9.933135
_cell_length_c 24.960198
_cell_angle_alpha 90.000000
_cell_angle_beta 152.431234
_cell_angle_gamma 90.000000
_cell_volume 1140.084018
_symmetry_space_group_name_H-M "C 2"
_symmetry_group_IT_number 5
_symmetry_cell_setting 'monoclinic'
loop_
_space_group_symop_operation_xyz
x,y,z
-x,y,-z
1/2+x,1/2+y,z
1/2-x,1/2+y,-z
loop_
_atom_site_type_symbol
_atom_site_label
_atom_site_fract_x
_atom_site_fract_y
_atom_site_fract_z
Si Si1 0.199346 0.252280 0.868126
Si Si2 0.736785 0.602705 0.447721
Si Si3 0.651573 0.370443 0.730615
Si Si4 0.151381 0.334227 0.731206
Si Si5 0.334445 0.101919 0.603794
Si Si6 0.699678 0.443590 0.868215
O O1 0.221926 0.265250 0.812369
O O2 0.945848 0.343979 0.802239
O O3 0.134847 0.097940 0.861176
O O4 0.500000 0.302203 0.000000
O O5 0.528062 0.475035 0.368495
O O6 0.562827 0.740907 0.378796
O O7 0.884292 0.602114 0.557783
O O8 0.000000 0.591039 0.500000
O O9 0.465162 0.236800 0.675018
O O10 0.726822 0.433996 0.814133
O O11 0.446582 0.349547 0.801836
O O12 0.999749 0.476740 0.688411
O O13 0.000000 0.091745 0.500000
O O14 0.000000 0.393403 0.000000
#
# Coordination Sequence:
#
# PCOD8051968 Si02
#       6
#     4   4   4   4   4   4
#     4  11  24  45  69  99 134 173 219 277 334 388
#     4  12  24  42  67  98 135 178 216 268 330 390
#     4  12  23  45  68  99 134 174 222 269 333 389
#     4  12  23  45  68  99 134 174 222 269 333 389
#     4  12  24  40  63 100 133 170 224 272 316 396
#     4  11  24  45  69  99 134 173 219 277 334 388
#
# _framework density 21.051079999999999
#
# number of rings (size 3 to 8) (size 9 to 14) (size 15 to 20)
#    0.000    0.333    3.333    7.000    0.000    0.000 
#    0.000    1.667    0.000    0.000    0.000    0.000 
#    0.000    0.000    0.000    0.000    0.000    0.000 
#
# Total GULP energy -148926.846160 kJ/mol
# GULP energy per Si atom -12410.570513 kJ/mol
# Density = 2.100317 g / cm^3
# Si number density = 21.051080 Si / 1000 Ang^3
#
#
#
# Elastic Constant Matrix: (Units=GPa)
#
#
# Indices 1 2 3 4 5 6 
#
# 1 104.8540 3.7830 26.3789 0.0005 20.2271 0.0001
# 2 3.7830 81.4336 21.6373 0.0001 2.8096 0.0002
# 3 26.3789 21.6373 99.7148 0.0011 4.6160 0.0010
# 4 0.0005 0.0001 0.0011 40.9672 -0.0002 0.0784
# 5 20.2271 2.8096 4.6160 -0.0002 29.8940 -0.0002
# 6 0.0001 0.0002 0.0010 0.0784 -0.0002 30.9409
#
#
#
# Elastic Compliance Matrix: (Units=1/GPa)
#
#
# Indices 1 2 3 4 5 6 
#
# 1 0.011685 0.000473 -0.002846 0.000000 -0.007511 0.000000
# 2 0.000473 0.013069 -0.002910 0.000000 -0.001099 0.000000
# 3 -0.002846 -0.002910 0.011393 0.000000 0.000440 0.000000
# 4 0.000000 0.000000 0.000000 0.024410 0.000000 -0.000062
# 5 -0.007511 -0.001099 0.000440 0.000000 0.038569 0.000000
# 6 0.000000 0.000000 0.000000 -0.000062 0.000000 0.032320
#
#
# Mechanical properties :
#
#
# Convention : Reuss Voigt Hill
#
# Bulk Modulus (GPa) = 39.09356 43.28896 41.19126
# Shear Modulus (GPa) = 33.21394 35.97397 34.59395
#
# Velocity S-wave (km/s) = 3.97644 4.13836 4.05820
# Velocity P-wave (km/s) = 6.30030 6.59114 6.44736
#
# Compressibility (1/GPa) = 0.02557966
#
# Stress axis : x y z
#
# Youngs Moduli (GPa) = 85.57978 76.51632 87.77645
#
# Poissons Ratio (x) = -0.03616 0.24981
# Poissons Ratio (y) = -0.04044 0.25543
# Poissons Ratio (z) = 0.24356 0.22266
#
# Static dielectric constant tensor:
#      x y z
#    x 3.801490 0.000000 -0.132310 
#    y 0.000000 3.897030 0.000000 
#    z -0.132310 0.000000 4.236080 
# 
# 
# High freq. dielectric constant tensor:
#      x y z
#    x 1.832920 0.000000 0.003470 
#    y 0.000000 1.833020 0.000000 
#    z 0.003470 0.000000 1.840190 
# 
# From -- ./inp_files/67986.got.cif
#   From: 2010.03.12/outbox.cif.g09.slc.cpg/sg5_34_cif.got.tgz:67986.got - 2010.03.31 09:47:26.
