data_PCOD8051552
_publ_section_title
;
Structure prediction by ZEFSAII (Michael W. Deem and Ramdas Pophale) SiO2 
 PCOD8051552
Probable space group: C 2
;
_chemical_formula_sum "Si O2"
_cell_formula_units_Z 24
_cell_length_a 16.503047
_cell_length_b 6.368964
_cell_length_c 9.449367
_cell_angle_alpha 90.000000
_cell_angle_beta 87.453058
_cell_angle_gamma 90.000000
_cell_volume 992.216437
_symmetry_space_group_name_H-M "C 2"
_symmetry_group_IT_number 5
_symmetry_cell_setting 'monoclinic'
loop_
_space_group_symop_operation_xyz
x,y,z
-x,y,-z
1/2+x,1/2+y,z
1/2-x,1/2+y,-z
loop_
_atom_site_type_symbol
_atom_site_label
_atom_site_fract_x
_atom_site_fract_y
_atom_site_fract_z
Si Si1 0.074843 0.487390 0.773130
Si Si2 0.500000 0.662170 0.000000
Si Si3 0.344452 0.673296 0.627109
Si Si4 0.000000 0.360838 0.500000
Si Si5 0.371431 0.317968 0.018936
Si Si6 0.263419 0.806654 0.359926
Si Si7 0.709414 0.980878 0.156721
O O1 0.031422 0.307002 0.869525
O O2 0.026091 0.510146 0.628781
O O3 0.081453 0.713972 0.849940
O O4 0.166699 0.425600 0.731554
O O5 0.573559 0.508247 0.044259
O O6 0.431591 0.696825 0.550744
O O7 0.279730 0.775859 0.523904
O O8 0.321313 0.431146 0.650687
O O9 0.340631 0.783308 0.780497
O O10 0.280804 0.405824 0.048252
O O11 0.358840 0.126005 0.910931
O O12 0.251639 0.583997 0.288467
#
# Coordination Sequence:
#
# PCOD8051552 Si02
#       7
#     4   2   4   2   4   4   4
#     4  11  25  50  72 107 153 194 249 306 370 451
#     4  12  28  46  74 108 160 194 236 322 370 444
#     4  11  24  45  73 105 143 193 245 320 363 444
#     4  10  28  46  76 106 148 192 246 308 382 434
#     4  12  28  46  76 110 150 198 251 307 374 442
#     4  11  22  46  74 103 145 191 255 303 370 440
#     4  12  26  44  76 109 140 200 253 305 369 453
#
# _framework density 24.188271
#
# number of rings (size 3 to 8) (size 9 to 14) (size 15 to 20)
#    0.000    0.667    5.000    1.500    7.000    0.000 
#    0.000    1.667    0.000    0.000    0.000    0.000 
#    0.000    0.000    0.000    0.000    0.000    0.000 
#
# Total GULP energy -148794.607099 kJ/mol
# GULP energy per Si atom -12399.550592 kJ/mol
# Density = 2.413322 g / cm^3
# Si number density = 24.188271 Si / 1000 Ang^3
#
#
#
# Elastic Constant Matrix: (Units=GPa)
#
#
# Indices 1 2 3 4 5 6 
#
# 1 79.3525 21.5617 32.1701 0.0000 9.1636 0.0000
# 2 21.5617 70.3847 18.4847 0.0000 0.1440 0.0000
# 3 32.1701 18.4847 84.9176 0.0000 4.0518 0.0000
# 4 0.0000 0.0000 0.0000 34.6870 0.0000 1.5806
# 5 9.1636 0.1440 4.0518 0.0000 34.2703 0.0000
# 6 0.0000 0.0000 0.0000 1.5806 0.0000 50.9522
#
#
#
# Elastic Compliance Matrix: (Units=1/GPa)
#
#
# Indices 1 2 3 4 5 6 
#
# 1 0.016080 -0.003569 -0.005139 0.000000 -0.003677 0.000000
# 2 -0.003569 0.015865 -0.002156 0.000000 0.001142 0.000000
# 3 -0.005139 -0.002156 0.014207 0.000000 -0.000296 0.000000
# 4 0.000000 0.000000 0.000000 0.028870 0.000000 -0.000896
# 5 -0.003677 0.001142 -0.000296 0.000000 0.030193 0.000000
# 6 0.000000 0.000000 0.000000 -0.000896 0.000000 0.019654
#
#
# Mechanical properties :
#
#
# Convention : Reuss Voigt Hill
#
# Bulk Modulus (GPa) = 40.94487 42.12087 41.53287
# Shear Modulus (GPa) = 32.31277 34.81111 33.56194
#
# Velocity S-wave (km/s) = 3.65894 3.79776 3.72900
# Velocity P-wave (km/s) = 5.90041 6.05658 5.97900
#
# Compressibility (1/GPa) = 0.02442309
#
# Stress axis : x y z
#
# Youngs Moduli (GPa) = 62.18964 63.03287 70.38990
#
# Poissons Ratio (x) = 0.22494 0.36176
# Poissons Ratio (y) = 0.22193 0.15176
# Poissons Ratio (z) = 0.31962 0.13590
#
# Static dielectric constant tensor:
#      x y z
#    x 4.373670 0.000000 -0.064850 
#    y 0.000000 4.343230 0.000000 
#    z -0.064850 0.000000 4.529480 
# 
# 
# High freq. dielectric constant tensor:
#      x y z
#    x 1.964230 0.000000 -0.001760 
#    y 0.000000 1.954090 0.000000 
#    z -0.001760 0.000000 1.968940 
# 
# From -- ./inp_files/43773.got.cif
#   From: 2010.03.12/outbox.cif.g09.slc.cpg/sg5_22_cif.got.tgz:43773.got - 2010.03.31 09:47:26.
