data_PCOD8051946
_publ_section_title
;
Structure prediction by ZEFSAII (Michael W. Deem and Ramdas Pophale) SiO2 
 PCOD8051946
Probable space group: C 2
;
_chemical_formula_sum "Si O2"
_cell_formula_units_Z 24
_cell_length_a 9.504850
_cell_length_b 9.804538
_cell_length_c 12.896316
_cell_angle_alpha 90.000000
_cell_angle_beta 70.299613
_cell_angle_gamma 90.000000
_cell_volume 1131.471852
_symmetry_space_group_name_H-M "C 2"
_symmetry_group_IT_number 5
_symmetry_cell_setting 'monoclinic'
loop_
_space_group_symop_operation_xyz
x,y,z
-x,y,-z
1/2+x,1/2+y,z
1/2-x,1/2+y,-z
loop_
_atom_site_type_symbol
_atom_site_label
_atom_site_fract_x
_atom_site_fract_y
_atom_site_fract_z
Si Si1 0.918204 0.767990 0.745722
Si Si2 0.863826 0.002225 0.606255
Si Si3 0.463823 0.003828 0.391530
Si Si4 0.097414 0.245394 0.253005
Si Si5 0.892838 0.865803 0.115572
Si Si6 0.106023 0.182708 0.883773
O O1 0.898587 0.855880 0.647023
O O2 0.763446 0.760832 0.847839
O O3 0.972036 0.617933 0.701219
O O4 0.039689 0.840642 0.787617
O O5 0.000000 0.047267 0.500000
O O6 0.714048 0.991294 0.575858
O O7 0.844137 0.115093 0.699311
O O8 0.500000 0.043659 0.500000
O O9 0.544984 0.862243 0.344921
O O10 0.233515 0.292875 0.146606
O O11 0.961697 0.204411 0.213002
O O12 0.866843 0.024449 0.101959
O O13 0.000000 0.803829 0.000000
O O14 0.000000 0.244638 0.000000
#
# Coordination Sequence:
#
# PCOD8051946 Si02
#       6
#     4   4   4   4   4   4
#     4  12  24  46  68 100 136 172 222 276 330 392
#     4  12  28  44  69  98 132 176 225 278 331 394
#     4  12  28  44  69  98 132 176 225 278 331 394
#     4  12  24  46  68 100 136 172 222 276 330 392
#     4  11  24  43  70 102 135 176 219 271 334 393
#     4  11  24  43  70 102 135 176 219 271 334 393
#
# _framework density 21.211310000000001
#
# number of rings (size 3 to 8) (size 9 to 14) (size 15 to 20)
#    0.000    0.333    6.667    2.000    4.667    2.667 
#    0.000    1.667    0.000    0.000    0.000    0.000 
#    0.000    0.000    0.000    0.000    0.000    0.000 
#
# Total GULP energy -148907.620126 kJ/mol
# GULP energy per Si atom -12408.968344 kJ/mol
# Density = 2.116303 g / cm^3
# Si number density = 21.211310 Si / 1000 Ang^3
#
#
#
# Elastic Constant Matrix: (Units=GPa)
#
#
# Indices 1 2 3 4 5 6 
#
# 1 95.4513 8.3986 11.5789 0.0000 -8.9455 0.0000
# 2 8.3986 70.5567 6.4996 0.0000 -6.4617 0.0000
# 3 11.5789 6.4996 81.0954 0.0000 -13.9537 0.0000
# 4 0.0000 0.0000 0.0000 35.3612 0.0000 -1.6484
# 5 -8.9455 -6.4617 -13.9537 0.0000 46.5364 0.0000
# 6 0.0000 0.0000 0.0000 -1.6484 0.0000 25.1591
#
#
#
# Elastic Compliance Matrix: (Units=1/GPa)
#
#
# Indices 1 2 3 4 5 6 
#
# 1 0.010861 -0.001038 -0.001195 0.000000 0.001586 0.000000
# 2 -0.001038 0.014511 -0.000741 0.000000 0.001593 0.000000
# 3 -0.001195 -0.000741 0.013184 0.000000 0.003621 0.000000
# 4 0.000000 0.000000 0.000000 0.028366 0.000000 0.001859
# 5 0.001586 0.001593 0.003621 0.000000 0.023100 0.000000
# 6 0.000000 0.000000 0.000000 0.001859 0.000000 0.039869
#
#
# Mechanical properties :
#
#
# Convention : Reuss Voigt Hill
#
# Bulk Modulus (GPa) = 30.66554 33.33975 32.00264
# Shear Modulus (GPa) = 34.08137 36.11973 35.10055
#
# Velocity S-wave (km/s) = 4.01278 4.13104 4.07234
# Velocity P-wave (km/s) = 5.99654 6.20532 6.10182
#
# Compressibility (1/GPa) = 0.03260989
#
# Stress axis : x y z
#
# Youngs Moduli (GPa) = 92.06937 68.91490 75.84882
#
# Poissons Ratio (x) = 0.07151 0.09063
# Poissons Ratio (y) = 0.09553 0.05618
# Poissons Ratio (z) = 0.11001 0.05104
#
# Static dielectric constant tensor:
#      x y z
#    x 3.947530 0.000000 -0.144950 
#    y 0.000000 3.769600 0.000000 
#    z -0.144950 0.000000 3.799700 
# 
# 
# High freq. dielectric constant tensor:
#      x y z
#    x 1.845380 0.000000 -0.006850 
#    y 0.000000 1.834050 0.000000 
#    z -0.006850 0.000000 1.835450 
# 
# From -- ./inp_files/35357.got.cif
#   From: 2010.03.12/outbox.cif.g09.slc.cpg/sg5_18_cif.got.tgz:35357.got - 2010.03.31 09:47:26.
