data_PCOD8051975
_publ_section_title
;
Structure prediction by ZEFSAII (Michael W. Deem and Ramdas Pophale) SiO2 
 PCOD8051975
Probable space group: C 2
;
_chemical_formula_sum "Si O2"
_cell_formula_units_Z 16
_cell_length_a 16.730658
_cell_length_b 9.221032
_cell_length_c 4.728300
_cell_angle_alpha 90.000000
_cell_angle_beta 127.641426
_cell_angle_gamma 90.000000
_cell_volume 577.616456
_symmetry_space_group_name_H-M "C 2"
_symmetry_group_IT_number 5
_symmetry_cell_setting 'monoclinic'
loop_
_space_group_symop_operation_xyz
x,y,z
-x,y,-z
1/2+x,1/2+y,z
1/2-x,1/2+y,-z
loop_
_atom_site_type_symbol
_atom_site_label
_atom_site_fract_x
_atom_site_fract_y
_atom_site_fract_z
Si Si1 0.701530 0.291340 0.495760
Si Si2 0.600091 0.852393 0.400667
Si Si3 0.565230 0.545951 0.394113
Si Si4 0.613336 0.133200 0.788617
O O1 0.809638 0.344465 0.629632
O O2 0.642707 0.441941 0.406272
O O3 0.698902 0.220122 0.798703
O O4 0.644976 0.169333 0.179386
O O5 0.606093 0.701063 0.592363
O O6 0.617439 0.966504 0.693737
O O7 0.500000 0.894843 0.000000
O O8 0.500000 0.467246 0.500000
O O9 0.500000 0.608242 0.000000
O O10 0.500000 0.194275 0.500000
#
# Coordination Sequence:
#
# PCOD8051975 Si02
#       4
#     4   4   4   4
#     4  12  26  46  75 110 149 198 252 312 379 451
#     4  11  27  50  77 113 156 205 257 316 383 461
#     4  11  24  45  73 107 147 195 250 310 375 450
#     4  12  26  47  74 110 151 196 249 314 382 452
#
# _framework density 27.700042
#
# number of rings (size 3 to 8) (size 9 to 14) (size 15 to 20)
#    0.000    0.500    0.000    8.250    0.000   14.000 
#    0.000    0.000    0.000    0.000    0.000    0.000 
#    0.000    0.000    0.000    0.000    0.000    0.000 
#
# Total GULP energy -99110.780351 kJ/mol
# GULP energy per Si atom -12388.847544 kJ/mol
# Density = 2.763700 g / cm^3
# Si number density = 27.700042 Si / 1000 Ang^3
#
#
#
# Elastic Constant Matrix: (Units=GPa)
#
#
# Indices 1 2 3 4 5 6 
#
# 1 221.0347 36.9406 34.0155 0.0000 13.2771 0.0000
# 2 36.9406 187.9773 16.7913 0.0000 2.8911 0.0000
# 3 34.0155 16.7913 55.1995 0.0000 -1.5727 0.0000
# 4 0.0000 0.0000 0.0000 -0.2359 0.0000 -1.9064
# 5 13.2771 2.8911 -1.5727 0.0000 41.3733 0.0000
# 6 0.0000 0.0000 0.0000 -1.9064 0.0000 62.5174
#
#
#
# Elastic Compliance Matrix: (Units=1/GPa)
#
#
# Indices 1 2 3 4 5 6 
#
# 1 0.005219 -0.000727 -0.003044 0.000000 -0.001740 0.000000
# 2 -0.000727 0.005578 -0.001255 0.000000 -0.000204 0.000000
# 3 -0.003044 -0.001255 0.020426 0.000000 0.001841 0.000000
# 4 0.000000 0.000000 0.000000 -3.401202 0.000000 -0.103713
# 5 -0.001740 -0.000204 0.001841 0.000000 0.024813 0.000000
# 6 0.000000 0.000000 0.000000 -0.103713 0.000000 0.012833
#
#
# Mechanical properties :
#
#
# Convention : Reuss Voigt Hill
#
# Bulk Modulus (GPa) = 47.23438 71.07846 59.15642
# Shear Modulus (GPa) = -1.50819 45.82859 22.16020
#
# Velocity S-wave (km/s) = -0.73868 4.07192 2.83151
# Velocity P-wave (km/s) = 4.04494 6.91542 5.66501
#
# Compressibility (1/GPa) = 0.02117102
#
# Stress axis : x y z
#
# Youngs Moduli (GPa) = 191.62053 179.28072 48.95673
#
# Poissons Ratio (x) = 0.13031 0.14904
# Poissons Ratio (y) = 0.13928 0.06142
# Poissons Ratio (z) = 0.58336 0.22493
#
# Static dielectric constant tensor:
#      x y z
#    x 5.221360 0.000000 0.017980 
#    y 0.000000 5.091820 0.000000 
#    z 0.017980 0.000000 4.701040 
# 
# 
# High freq. dielectric constant tensor:
#      x y z
#    x 2.139650 0.000000 -0.008660 
#    y 0.000000 2.142510 0.000000 
#    z -0.008660 0.000000 2.102460 
# 
# From -- ./inp_files/8076.got.cif
#   From: 2010.03.12/outbox.cif.g09.slc.cpg/sg5_5_cif.got.tgz:8076.got - 2010.03.31 09:47:26.
