data_PCOD8051117
_publ_section_title
;
Structure prediction by ZEFSAII (Michael W. Deem and Ramdas Pophale) SiO2 
 PCOD8051117
Probable space group: C 2
;
_chemical_formula_sum "Si O2"
_cell_formula_units_Z 24
_cell_length_a 8.742554
_cell_length_b 11.205388
_cell_length_c 10.501553
_cell_angle_alpha 90.000000
_cell_angle_beta 84.320994
_cell_angle_gamma 90.000000
_cell_volume 1023.721773
_symmetry_space_group_name_H-M "C 2"
_symmetry_group_IT_number 5
_symmetry_cell_setting 'monoclinic'
loop_
_space_group_symop_operation_xyz
x,y,z
-x,y,-z
1/2+x,1/2+y,z
1/2-x,1/2+y,-z
loop_
_atom_site_type_symbol
_atom_site_label
_atom_site_fract_x
_atom_site_fract_y
_atom_site_fract_z
Si Si1 0.205909 0.808120 0.191375
Si Si2 0.404561 0.704855 0.627021
Si Si3 0.079880 0.692581 0.719981
Si Si4 0.065104 0.101150 0.855941
Si Si5 0.002952 0.427570 0.245587
Si Si6 0.702554 0.359158 0.908123
O O1 0.283640 0.679949 0.171144
O O2 0.322877 0.903733 0.237404
O O3 0.056015 0.789633 0.294465
O O4 0.149900 0.856428 0.058575
O O5 0.500000 0.653900 0.500000
O O6 0.221777 0.691585 0.608441
O O7 0.446665 0.630680 0.751321
O O8 0.441700 0.846212 0.640233
O O9 0.990312 0.567485 0.729435
O O10 0.161085 0.731885 0.846984
O O11 0.111925 0.963320 0.841072
O O12 0.000000 0.133537 0.000000
O O13 0.113685 0.387872 0.118686
#
# Coordination Sequence:
#
# PCOD8051117 Si02
#       6
#     4   4   4   4   4   4
#     4  11  22  37  63 100 136 180 223 277 337 409
#     4  10  25  50  69  96 138 182 233 292 342 404
#     4  11  23  41  65  96 129 183 230 280 340 410
#     4  11  22  41  67 100 140 181 223 281 344 405
#     4  10  23  44  64  94 136 180 226 280 341 408
#     4  11  23  37  63 102 145 176 223 278 340 410
#
# _framework density 23.44387
#
# number of rings (size 3 to 8) (size 9 to 14) (size 15 to 20)
#    0.000    1.333    1.667    5.000    7.000    1.333 
#    6.000    3.333    0.000    1.000    0.000    0.000 
#    0.000    0.000    0.000    0.000    0.000    0.000 
#
# Total GULP energy -148696.463025 kJ/mol
# GULP energy per Si atom -12391.371919 kJ/mol
# Density = 2.339051 g / cm^3
# Si number density = 23.443870 Si / 1000 Ang^3
#
#
#
# Elastic Constant Matrix: (Units=GPa)
#
#
# Indices 1 2 3 4 5 6 
#
# 1 141.5570 17.1160 26.8942 0.0000 -28.7772 0.0000
# 2 17.1160 90.8273 4.0202 0.0000 9.1404 0.0000
# 3 26.8942 4.0202 71.0649 0.0000 -22.1401 0.0000
# 4 0.0000 0.0000 0.0000 11.8689 0.0000 6.3463
# 5 -28.7772 9.1404 -22.1401 0.0000 34.8252 0.0000
# 6 0.0000 0.0000 0.0000 6.3463 0.0000 40.4227
#
#
#
# Elastic Compliance Matrix: (Units=1/GPa)
#
#
# Indices 1 2 3 4 5 6 
#
# 1 0.009068 -0.002424 -0.000950 0.000000 0.007525 0.000000
# 2 -0.002424 0.012178 -0.001735 0.000000 -0.006302 0.000000
# 3 -0.000950 -0.001735 0.017990 0.000000 0.011107 0.000000
# 4 0.000000 0.000000 0.000000 0.091975 0.000000 -0.014440
# 5 0.007525 -0.006302 0.011107 0.000000 0.043649 0.000000
# 6 0.000000 0.000000 0.000000 -0.014440 0.000000 0.027006
#
#
# Mechanical properties :
#
#
# Convention : Reuss Voigt Hill
#
# Bulk Modulus (GPa) = 34.46249 44.38999 39.42624
# Shear Modulus (GPa) = 22.54744 34.45129 28.49937
#
# Velocity S-wave (km/s) = 3.10459 3.83759 3.49039
# Velocity P-wave (km/s) = 5.25198 6.21384 5.75305
#
# Compressibility (1/GPa) = 0.02901705
#
# Stress axis : x y z
#
# Youngs Moduli (GPa) = 110.28198 82.11713 55.58703
#
# Poissons Ratio (x) = 0.19905 0.05281
# Poissons Ratio (y) = 0.26732 0.09644
# Poissons Ratio (z) = 0.10478 0.14247
#
# Static dielectric constant tensor:
#      x y z
#    x 4.629450 0.000000 -0.280260 
#    y 0.000000 4.162490 0.000000 
#    z -0.280260 0.000000 3.684930 
# 
# 
# High freq. dielectric constant tensor:
#      x y z
#    x 1.961070 0.000000 -0.018090 
#    y 0.000000 1.931310 0.000000 
#    z -0.018090 0.000000 1.864890 
# 
# From -- ./inp_files/35405.got.cif
#   From: 2010.03.12/outbox.cif.g09.slc.cpg/sg5_18_cif.got.tgz:35405.got - 2010.03.31 09:47:26.
