data_PCOD8051054
_publ_section_title
;
Structure prediction by ZEFSAII (Michael W. Deem and Ramdas Pophale) SiO2 
 PCOD8051054
Probable space group: C 2
;
_chemical_formula_sum "Si O2"
_cell_formula_units_Z 26
_cell_length_a 14.590230
_cell_length_b 14.200085
_cell_length_c 12.202607
_cell_angle_alpha 90.000000
_cell_angle_beta 150.609862
_cell_angle_gamma 90.000000
_cell_volume 1240.707388
_symmetry_space_group_name_H-M "C 2"
_symmetry_group_IT_number 5
_symmetry_cell_setting 'monoclinic'
loop_
_space_group_symop_operation_xyz
x,y,z
-x,y,-z
1/2+x,1/2+y,z
1/2-x,1/2+y,-z
loop_
_atom_site_type_symbol
_atom_site_label
_atom_site_fract_x
_atom_site_fract_y
_atom_site_fract_z
Si Si1 0.500000 0.028471 0.500000
Si Si2 0.500000 0.718316 0.500000
Si Si3 0.615923 0.587537 0.021683
Si Si4 0.206572 0.561520 0.188359
Si Si5 0.000000 0.266199 0.000000
Si Si6 0.475016 0.876085 0.644506
Si Si7 0.277631 0.395397 0.409000
Si Si8 0.836569 0.948897 0.119980
O O1 0.335450 0.092264 0.280038
O O2 0.414144 0.963220 0.505633
O O3 0.323747 0.654271 0.288959
O O4 0.449097 0.779242 0.552882
O O5 0.500000 0.537254 0.000000
O O6 0.548154 0.697673 0.945751
O O7 0.579406 0.531249 0.871202
O O8 0.277460 0.503164 0.367410
O O9 0.217718 0.495100 0.093731
O O10 0.000000 0.595238 0.000000
O O11 0.816489 0.329074 0.782216
O O12 0.339811 0.877327 0.605782
O O13 0.693282 0.884170 0.903737
O O14 0.497881 0.380000 0.663527
#
# Coordination Sequence:
#
# PCOD8051054 Si02
#       8
#     2   2   4   4   2   4   4   4
#     4   9  18  42  65  90 130 176 207 268 344 389
#     4  11  26  44  69 100 142 168 225 292 330 385
#     4   9  21  40  61  99 129 168 220 279 324 396
#     4  12  24  44  68  97 136 181 228 270 337 408
#     4  10  24  40  62 100 136 154 226 280 314 392
#     4  10  23  42  67 100 129 171 228 274 324 403
#     4  12  22  42  66  95 132 180 214 274 334 399
#     4  11  22  42  73  92 131 186 221 263 348 399
#
# _framework density 20.955786
#
# number of rings (size 3 to 8) (size 9 to 14) (size 15 to 20)
#    0.462    0.923    3.846    0.923    2.154    1.231 
#    5.538    1.538    0.000    0.000    0.000    0.000 
#    0.000    0.000    0.000    0.000    0.000    0.000 
#
# Total GULP energy -161148.784207 kJ/mol
# GULP energy per Si atom -12396.060324 kJ/mol
# Density = 2.090809 g / cm^3
# Si number density = 20.955786 Si / 1000 Ang^3
#
#
#
# Elastic Constant Matrix: (Units=GPa)
#
#
# Indices 1 2 3 4 5 6 
#
# 1 105.9515 14.1538 -0.8610 0.0000 -2.9678 0.0000
# 2 14.1538 70.9056 15.1206 0.0000 -0.2316 0.0000
# 3 -0.8610 15.1206 93.4596 0.0000 5.6945 0.0000
# 4 0.0000 0.0000 0.0000 17.1807 0.0000 3.2286
# 5 -2.9678 -0.2316 5.6945 0.0000 32.1574 0.0000
# 6 0.0000 0.0000 0.0000 3.2286 0.0000 13.9478
#
#
#
# Elastic Compliance Matrix: (Units=1/GPa)
#
#
# Indices 1 2 3 4 5 6 
#
# 1 0.009734 -0.002018 0.000366 0.000000 0.000819 0.000000
# 2 -0.002018 0.015035 -0.002473 0.000000 0.000360 0.000000
# 3 0.000366 -0.002473 0.011223 0.000000 -0.001971 0.000000
# 4 0.000000 0.000000 0.000000 0.060852 0.000000 -0.014086
# 5 0.000819 0.000360 -0.001971 0.000000 0.031524 0.000000
# 6 0.000000 0.000000 0.000000 -0.014086 0.000000 0.074956
#
#
# Mechanical properties :
#
#
# Convention : Reuss Voigt Hill
#
# Bulk Modulus (GPa) = 36.04673 36.34930 36.19801
# Shear Modulus (GPa) = 22.64266 28.78407 25.71336
#
# Velocity S-wave (km/s) = 3.29066 3.71018 3.50670
# Velocity P-wave (km/s) = 5.62819 5.97807 5.80577
#
# Compressibility (1/GPa) = 0.02774177
#
# Stress axis : x y z
#
# Youngs Moduli (GPa) = 102.73445 66.51275 89.09958
#
# Poissons Ratio (x) = 0.13425 -0.03264
# Poissons Ratio (y) = 0.20737 0.22034
# Poissons Ratio (z) = -0.03764 0.16448
#
# Static dielectric constant tensor:
#      x y z
#    x 3.830240 0.000000 -0.058650 
#    y 0.000000 3.595210 0.000000 
#    z -0.058650 0.000000 4.001640 
# 
# 
# High freq. dielectric constant tensor:
#      x y z
#    x 1.828490 0.000000 -0.000360 
#    y 0.000000 1.802330 0.000000 
#    z -0.000360 0.000000 1.825680 
# 
# From -- ./inp_files/43154.got.cif
#   From: 2010.03.12/outbox.cif.g09.slc.cpg/sg5_22_cif.got.tgz:43154.got - 2010.03.31 09:47:26.
