data_PCOD8051148
_publ_section_title
;
Structure prediction by ZEFSAII (Michael W. Deem and Ramdas Pophale) SiO2 
 PCOD8051148
Probable space group: C 2
;
_chemical_formula_sum "Si O2"
_cell_formula_units_Z 26
_cell_length_a 29.584840
_cell_length_b 5.032814
_cell_length_c 14.050185
_cell_angle_alpha 90.000000
_cell_angle_beta 30.304742
_cell_angle_gamma 90.000000
_cell_volume 1055.622411
_symmetry_space_group_name_H-M "C 2"
_symmetry_group_IT_number 5
_symmetry_cell_setting 'monoclinic'
loop_
_space_group_symop_operation_xyz
x,y,z
-x,y,-z
1/2+x,1/2+y,z
1/2-x,1/2+y,-z
loop_
_atom_site_type_symbol
_atom_site_label
_atom_site_fract_x
_atom_site_fract_y
_atom_site_fract_z
Si Si1 0.063354 0.953930 0.171230
Si Si2 0.617825 0.662739 0.457640
Si Si3 0.663947 0.512062 0.734783
Si Si4 0.001612 0.440546 0.804328
Si Si5 0.737384 0.514677 0.395716
Si Si6 0.000000 0.692152 0.000000
Si Si7 0.753938 0.863321 0.054817
O O1 0.058647 0.669044 0.131705
O O2 0.157544 0.970753 0.053832
O O3 0.976348 0.012663 0.398832
O O4 0.060514 0.175093 0.091717
O O5 0.592405 0.900889 0.577471
O O6 0.680571 0.456730 0.403313
O O7 0.670478 0.778146 0.272348
O O8 0.675858 0.478240 0.599727
O O9 0.677857 0.812613 0.747831
O O10 0.567342 0.392377 0.928797
O O11 0.730600 0.318319 0.670602
O O12 0.034028 0.497125 0.853589
O O13 0.782623 0.608558 0.940770
#
# Coordination Sequence:
#
# PCOD8051148 Si02
#       7
#     4   4   4   4   4   2   4
#     4  10  25  52  75 116 156 203 256 320 404 474
#     4  10  27  50  81 106 160 201 254 324 404 469
#     4  10  25  40  67 102 149 201 259 312 355 436
#     4  10  26  46  75 112 155 216 252 317 383 452
#     4  10  23  45  65  99 143 205 257 300 377 441
#     4  12  26  46  70 118 160 204 272 314 358 458
#     4  12  29  53  83 120 150 195 263 335 409 491
#
# _framework density 24.630016999999999
#
# number of rings (size 3 to 8) (size 9 to 14) (size 15 to 20)
#    0.923    0.615    0.000    1.846   12.923    3.077 
#    0.000    0.000    0.000    0.000    0.000    0.000 
#    0.000    0.000    0.000    0.000    0.000    0.000 
#
# Total GULP energy -161108.555327 kJ/mol
# GULP energy per Si atom -12392.965794 kJ/mol
# Density = 2.457396 g / cm^3
# Si number density = 24.630017 Si / 1000 Ang^3
#
#
#
# Elastic Constant Matrix: (Units=GPa)
#
#
# Indices 1 2 3 4 5 6 
#
# 1 82.5419 33.0900 41.4312 0.0088 6.2443 0.0063
# 2 33.0900 138.1374 5.8819 0.0255 8.4907 0.0180
# 3 41.4312 5.8819 71.0847 0.0153 1.5380 0.0090
# 4 0.0088 0.0255 0.0153 30.2336 0.0026 -2.9371
# 5 6.2443 8.4907 1.5380 0.0026 28.3456 0.0024
# 6 0.0063 0.0180 0.0090 -2.9371 0.0024 46.7893
#
#
#
# Elastic Compliance Matrix: (Units=1/GPa)
#
#
# Indices 1 2 3 4 5 6 
#
# 1 0.019399 -0.004030 -0.010919 0.000004 -0.002474 0.000001
# 2 -0.004030 0.008235 0.001704 -0.000007 -0.001671 -0.000003
# 3 -0.010919 0.001704 0.020274 -0.000009 0.000795 -0.000004
# 4 0.000004 -0.000007 -0.000009 0.033279 -0.000002 0.002089
# 5 -0.002474 -0.001671 0.000795 -0.000002 0.036281 -0.000001
# 6 0.000001 -0.000003 -0.000004 0.002089 -0.000001 0.021504
#
#
# Mechanical properties :
#
#
# Convention : Reuss Voigt Hill
#
# Bulk Modulus (GPa) = 46.69447 50.28559 48.49003
# Shear Modulus (GPa) = 28.96864 35.16445 32.06654
#
# Velocity S-wave (km/s) = 3.43323 3.78260 3.61214
# Velocity P-wave (km/s) = 5.89199 6.28793 6.09318
#
# Compressibility (1/GPa) = 0.02141581
#
# Stress axis : x y z
#
# Youngs Moduli (GPa) = 51.55018 121.43765 49.32465
#
# Poissons Ratio (x) = 0.48937 0.53859
# Poissons Ratio (y) = 0.20774 -0.08403
# Poissons Ratio (z) = 0.56289 -0.20687
#
# Static dielectric constant tensor:
#      x y z
#    x 4.167090 0.000000 -0.022290 
#    y 0.000000 4.453800 0.000010 
#    z -0.022290 0.000010 4.377830 
# 
# 
# High freq. dielectric constant tensor:
#      x y z
#    x 1.960320 0.000000 -0.007600 
#    y 0.000000 1.989260 0.000000 
#    z -0.007600 0.000000 1.981810 
# 
# From -- ./inp_files/58295.got.cif
#   From: 2010.03.12/outbox.cif.g09.slc.cpg/sg5_30_cif.got.tgz:58295.got - 2010.03.31 09:47:26.
