data_PCOD8051025
_publ_section_title
;
Structure prediction by ZEFSAII (Michael W. Deem and Ramdas Pophale) SiO2 
 PCOD8051025
Probable space group: C 2
;
_chemical_formula_sum "Si O2"
_cell_formula_units_Z 32
_cell_length_a 16.264374
_cell_length_b 22.125717
_cell_length_c 9.468682
_cell_angle_alpha 90.000000
_cell_angle_beta 152.144214
_cell_angle_gamma 90.000000
_cell_volume 1592.103880
_symmetry_space_group_name_H-M "C 2"
_symmetry_group_IT_number 5
_symmetry_cell_setting 'monoclinic'
loop_
_space_group_symop_operation_xyz
x,y,z
-x,y,-z
1/2+x,1/2+y,z
1/2-x,1/2+y,-z
loop_
_atom_site_type_symbol
_atom_site_label
_atom_site_fract_x
_atom_site_fract_y
_atom_site_fract_z
Si Si1 0.700715 0.762530 0.835869
Si Si2 0.295714 0.758228 0.670678
Si Si3 0.505449 0.919997 0.177436
Si Si4 0.002541 0.540894 0.342419
Si Si5 0.193908 0.829749 0.267225
Si Si6 0.689708 0.338158 0.746098
Si Si7 0.327646 0.627780 0.827159
Si Si8 0.674634 0.627392 0.846078
O O1 0.500000 0.775881 0.500000
O O2 0.808862 0.806280 0.896979
O O3 0.741709 0.691331 0.884961
O O4 0.749283 0.781877 0.066746
O O5 0.241460 0.768637 0.426374
O O6 0.182138 0.808705 0.579932
O O7 0.252599 0.690805 0.653510
O O8 0.500000 0.774260 0.000000
O O9 0.669869 0.882839 0.488848
O O10 0.513351 0.987336 0.247657
O O11 0.500000 0.920419 0.000000
O O12 0.324908 0.892948 0.963382
O O13 0.000000 0.516967 0.500000
O O14 0.175735 0.579538 0.574831
O O15 0.827774 0.579673 0.049892
O O16 0.000000 0.855997 0.000000
O O17 0.500000 0.364328 0.500000
O O18 0.500000 0.608212 0.000000
O O19 0.374646 0.634433 0.063565
O O20 0.500000 0.605162 0.500000
#
# Coordination Sequence:
#
# PCOD8051025 Si02
#       8
#     4   4   4   4   4   4   4   4
#     4  11  22  38  64 100 137 164 205 269 329 383
#     4  11  20  42  64  94 139 168 204 264 335 385
#     4  12  26  49  64  90 135 175 220 266 319 384
#     4  10  26  48  69  91 127 179 223 263 314 386
#     4  12  25  40  63  99 132 171 212 270 324 385
#     4  12  23  38  67  97 126 171 213 261 327 387
#     4  10  23  41  68  97 130 172 212 265 326 383
#     4  10  23  42  65 100 132 166 215 270 318 381
#
# _framework density 20.09919
#
# number of rings (size 3 to 8) (size 9 to 14) (size 15 to 20)
#    0.000    1.000    5.000    0.750   10.500    2.000 
#    0.000    2.500    0.000    0.000    0.000    0.000 
#    0.000    0.000    0.000    0.000    0.000    0.000 
#
# Total GULP energy -198425.313789 kJ/mol
# GULP energy per Si atom -12401.582112 kJ/mol
# Density = 2.005344 g / cm^3
# Si number density = 20.099190 Si / 1000 Ang^3
#
#
#
# Elastic Constant Matrix: (Units=GPa)
#
#
# Indices 1 2 3 4 5 6 
#
# 1 95.3381 51.9451 38.9158 0.0000 16.7790 0.0000
# 2 51.9451 107.4030 52.2430 0.0000 9.7658 0.0000
# 3 38.9158 52.2430 109.0438 0.0000 19.0784 0.0000
# 4 0.0000 0.0000 0.0000 17.5113 0.0000 -8.1221
# 5 16.7790 9.7658 19.0784 0.0000 37.6374 0.0000
# 6 0.0000 0.0000 0.0000 -8.1221 0.0000 40.1271
#
#
#
# Elastic Compliance Matrix: (Units=1/GPa)
#
#
# Indices 1 2 3 4 5 6 
#
# 1 0.015329 -0.006164 -0.001758 0.000000 -0.004344 0.000000
# 2 -0.006164 0.014620 -0.005072 0.000000 0.001525 0.000000
# 3 -0.001758 -0.005072 0.013015 0.000000 -0.004498 0.000000
# 4 0.000000 0.000000 0.000000 0.063023 0.000000 0.012756
# 5 -0.004344 0.001525 -0.004498 0.000000 0.030390 0.000000
# 6 0.000000 0.000000 0.000000 0.012756 0.000000 0.027503
#
#
# Mechanical properties :
#
#
# Convention : Reuss Voigt Hill
#
# Bulk Modulus (GPa) = 58.90101 66.44361 62.67231
# Shear Modulus (GPa) = 25.57217 30.30058 27.93638
#
# Velocity S-wave (km/s) = 3.57080 3.88693 3.73221
# Velocity P-wave (km/s) = 6.80952 7.29890 7.05845
#
# Compressibility (1/GPa) = 0.01697764
#
# Stress axis : x y z
#
# Youngs Moduli (GPa) = 65.23411 68.39852 76.83694
#
# Poissons Ratio (x) = 0.42162 0.13505
# Poissons Ratio (y) = 0.40211 0.38968
# Poissons Ratio (z) = 0.11466 0.34689
#
# Static dielectric constant tensor:
#      x y z
#    x 3.791420 0.000000 0.032100 
#    y 0.000000 3.451420 0.000000 
#    z 0.032100 0.000000 3.707690 
# 
# 
# High freq. dielectric constant tensor:
#      x y z
#    x 1.797460 0.000000 -0.000840 
#    y 0.000000 1.768300 0.000000 
#    z -0.000840 0.000000 1.796110 
# 
# From -- ./inp_files/17324.got.cif
#   From: 2010.03.12/outbox.cif.g09.slc.cpg/sg5_9_cif.got.tgz:17324.got - 2010.03.31 09:47:26.
