data_PCOD8051779
_publ_section_title
;
Structure prediction by ZEFSAII (Michael W. Deem and Ramdas Pophale) SiO2 
 PCOD8051779
Probable space group: C 2
;
_chemical_formula_sum "Si O2"
_cell_formula_units_Z 32
_cell_length_a 11.281267
_cell_length_b 11.656129
_cell_length_c 11.729961
_cell_angle_alpha 90.000000
_cell_angle_beta 109.666748
_cell_angle_gamma 90.000000
_cell_volume 1452.465052
_symmetry_space_group_name_H-M "C 2"
_symmetry_group_IT_number 5
_symmetry_cell_setting 'monoclinic'
loop_
_space_group_symop_operation_xyz
x,y,z
-x,y,-z
1/2+x,1/2+y,z
1/2-x,1/2+y,-z
loop_
_atom_site_type_symbol
_atom_site_label
_atom_site_fract_x
_atom_site_fract_y
_atom_site_fract_z
Si Si1 0.851359 0.373700 0.563072
Si Si2 0.618864 0.649500 0.291098
Si Si3 0.621226 0.902771 0.690797
Si Si4 0.231964 0.608461 0.867106
Si Si5 0.124883 0.031802 0.870492
Si Si6 0.854096 0.035974 0.481382
Si Si7 0.252543 0.182369 0.743716
Si Si8 0.523166 0.281471 0.875725
O O1 0.885134 0.247815 0.616070
O O2 0.831826 0.383714 0.422469
O O3 0.726668 0.424499 0.582903
O O4 0.975638 0.441926 0.644339
O O5 0.705042 0.685424 0.211818
O O6 0.485363 0.618289 0.196296
O O7 0.666415 0.546007 0.388133
O O8 0.659786 0.781972 0.762879
O O9 0.687943 0.999282 0.783715
O O10 0.126255 0.681483 0.896125
O O11 0.333288 0.557301 0.987366
O O12 0.077598 0.899868 0.838662
O O13 0.239719 0.069774 0.822641
O O14 0.795803 0.145529 0.397110
O O15 0.000000 0.016669 0.500000
O O16 0.394117 0.234137 0.778283
O O17 0.500000 0.305842 0.000000
#
# Coordination Sequence:
#
# PCOD8051779 Si02
#       8
#     4   4   4   4   4   4   4   4
#     4  11  24  42  71 106 141 197 246 318 387 453
#     4  12  24  45  70 108 145 194 262 309 384 460
#     4  11  22  46  74 100 150 193 247 316 384 459
#     4  12  27  47  74 114 151 197 256 320 392 462
#     4  12  26  47  78 107 150 205 258 315 385 464
#     4  12  24  43  70 104 148 197 253 315 389 459
#     4  12  24  46  76 107 143 206 256 310 385 462
#     4  12  27  50  76 109 155 202 255 325 388 462
#
# _framework density 22.031510999999998
#
# number of rings (size 3 to 8) (size 9 to 14) (size 15 to 20)
#    0.000    0.250    6.250    3.375    1.750    0.000 
#    0.000    0.000    0.000    0.000    0.000    0.000 
#    0.000    0.000    0.000    0.000    0.000    0.000 
#
# Total GULP energy -198227.195007 kJ/mol
# GULP energy per Si atom -12389.199688 kJ/mol
# Density = 2.198137 g / cm^3
# Si number density = 22.031511 Si / 1000 Ang^3
#
#
#
# Elastic Constant Matrix: (Units=GPa)
#
#
# Indices 1 2 3 4 5 6 
#
# 1 112.8858 63.1493 49.5857 0.0000 18.4922 0.0000
# 2 63.1493 123.3701 51.5507 0.0000 20.2643 0.0000
# 3 49.5857 51.5507 134.4441 0.0000 12.2505 0.0000
# 4 0.0000 0.0000 0.0000 35.9286 0.0000 5.0757
# 5 18.4922 20.2643 12.2505 0.0000 34.4350 0.0000
# 6 0.0000 0.0000 0.0000 5.0757 0.0000 43.8906
#
#
#
# Elastic Compliance Matrix: (Units=1/GPa)
#
#
# Indices 1 2 3 4 5 6 
#
# 1 0.013504 -0.005272 -0.002667 0.000000 -0.003200 0.000000
# 2 -0.005272 0.012439 -0.002497 0.000000 -0.003601 0.000000
# 3 -0.002667 -0.002497 0.009420 0.000000 -0.000449 0.000000
# 4 0.000000 0.000000 0.000000 0.028295 0.000000 -0.003272
# 5 -0.003200 -0.003601 -0.000449 0.000000 0.033038 0.000000
# 6 0.000000 0.000000 0.000000 -0.003272 0.000000 0.023162
#
#
# Mechanical properties :
#
#
# Convention : Reuss Voigt Hill
#
# Bulk Modulus (GPa) = 69.01199 77.69684 73.35442
# Shear Modulus (GPa) = 34.34991 36.61177 35.48084
#
# Velocity S-wave (km/s) = 3.95286 4.08093 4.01741
# Velocity P-wave (km/s) = 7.22674 7.58605 7.40857
#
# Compressibility (1/GPa) = 0.01449024
#
# Stress axis : x y z
#
# Youngs Moduli (GPa) = 74.05485 80.39209 106.15422
#
# Poissons Ratio (x) = 0.42381 0.28315
# Poissons Ratio (y) = 0.39040 0.26508
# Poissons Ratio (z) = 0.19753 0.20075
#
# Static dielectric constant tensor:
#      x y z
#    x 4.155480 0.000000 -0.018560 
#    y 0.000000 3.958780 0.000000 
#    z -0.018560 0.000000 4.552530 
# 
# 
# High freq. dielectric constant tensor:
#      x y z
#    x 1.864930 0.000000 0.012000 
#    y 0.000000 1.863850 0.000000 
#    z 0.012000 0.000000 1.880910 
# 
# From -- ./inp_files/39422.got.cif
#   From: 2010.03.12/outbox.cif.g09.slc.cpg/sg5_20_cif.got.tgz:39422.got - 2010.03.31 09:47:26.
