data_PCOD8051096
_publ_section_title
;
Structure prediction by ZEFSAII (Michael W. Deem and Ramdas Pophale) SiO2 
 PCOD8051096
Probable space group: C 2
;
_chemical_formula_sum "Si O2"
_cell_formula_units_Z 18
_cell_length_a 5.037726
_cell_length_b 28.289421
_cell_length_c 5.139672
_cell_angle_alpha 90.000000
_cell_angle_beta 87.786549
_cell_angle_gamma 90.000000
_cell_volume 731.930505
_symmetry_space_group_name_H-M "C 2"
_symmetry_group_IT_number 5
_symmetry_cell_setting 'monoclinic'
loop_
_space_group_symop_operation_xyz
x,y,z
-x,y,-z
1/2+x,1/2+y,z
1/2-x,1/2+y,-z
loop_
_atom_site_type_symbol
_atom_site_label
_atom_site_fract_x
_atom_site_fract_y
_atom_site_fract_z
Si Si1 0.000000 0.686121 0.500000
Si Si2 0.761230 0.012764 0.835294
Si Si3 0.500000 0.247702 0.000000
Si Si4 0.000000 0.930714 0.500000
Si Si5 0.000000 0.370449 0.500000
Si Si6 0.243488 0.114659 0.183861
Si Si7 0.500000 0.810195 0.000000
O O1 0.248156 0.652551 0.579750
O O2 0.085264 0.717685 0.249816
O O3 0.842521 0.964803 0.697099
O O4 0.728082 0.062139 0.678626
O O5 0.500000 0.998509 0.000000
O O6 0.000000 0.029830 0.000000
O O7 0.752245 0.279288 0.914357
O O8 0.760231 0.899679 0.391439
O O9 0.908816 0.340877 0.252406
O O10 0.500000 0.123571 0.000000
O O11 0.000000 0.123759 0.000000
#
# Coordination Sequence:
#
# PCOD8051096 Si02
#       7
#     2   4   2   2   2   4   2
#     4  12  26  48  78 116 146 204 254 314 358 470
#     4  10  23  43  68 104 158 204 249 305 364 433
#     4  12  28  48  82 105 150 187 256 312 396 456
#     4  12  26  43  74 117 136 209 248 315 356 470
#     4  12  28  47  84 103 152 185 256 311 398 458
#     4  10  24  44  69 108 158 209 249 303 366 432
#     4  12  28  56  72 113 142 193 236 332 404 464
#
# _framework density 24.592499
#
# number of rings (size 3 to 8) (size 9 to 14) (size 15 to 20)
#    0.000    0.889    1.111    4.000    6.222    8.889 
#    0.000    0.000    0.000    0.000    0.000    0.000 
#    0.000    0.000    0.000    0.000    0.000    0.000 
#
# Total GULP energy -111500.129617 kJ/mol
# GULP energy per Si atom -12388.903291 kJ/mol
# Density = 2.453653 g / cm^3
# Si number density = 24.592499 Si / 1000 Ang^3
#
#
#
# Elastic Constant Matrix: (Units=GPa)
#
#
# Indices 1 2 3 4 5 6 
#
# 1 182.7021 57.8138 40.0806 0.0000 1.3986 0.0000
# 2 57.8138 152.5730 63.6945 0.0000 2.8788 0.0000
# 3 40.0806 63.6945 132.7383 0.0000 6.0970 0.0000
# 4 0.0000 0.0000 0.0000 36.2255 0.0000 -4.5005
# 5 1.3986 2.8788 6.0970 0.0000 38.8133 0.0000
# 6 0.0000 0.0000 0.0000 -4.5005 0.0000 41.0673
#
#
#
# Elastic Compliance Matrix: (Units=1/GPa)
#
#
# Indices 1 2 3 4 5 6 
#
# 1 0.006313 -0.001996 -0.000952 0.000000 0.000070 0.000000
# 2 -0.001996 0.008827 -0.003632 0.000000 -0.000012 0.000000
# 3 -0.000952 -0.003632 0.009619 0.000000 -0.001207 0.000000
# 4 0.000000 0.000000 0.000000 0.027986 0.000000 0.003067
# 5 0.000070 -0.000012 -0.001207 0.000000 0.025952 0.000000
# 6 0.000000 0.000000 0.000000 0.003067 0.000000 0.024686
#
#
# Mechanical properties :
#
#
# Convention : Reuss Voigt Hill
#
# Bulk Modulus (GPa) = 86.21163 87.91013 87.06088
# Shear Modulus (GPa) = 41.52407 43.64951 42.58679
#
# Velocity S-wave (km/s) = 4.11358 4.21754 4.16588
# Velocity P-wave (km/s) = 7.59567 7.71629 7.65622
#
# Compressibility (1/GPa) = 0.01159936
#
# Stress axis : x y z
#
# Youngs Moduli (GPa) = 158.39509 113.28406 103.95612
#
# Poissons Ratio (x) = 0.22615 0.09892
# Poissons Ratio (y) = 0.31621 0.37762
# Poissons Ratio (z) = 0.15073 0.41150
#
# Static dielectric constant tensor:
#      x y z
#    x 4.299600 0.000000 0.000590 
#    y 0.000000 4.921030 0.000000 
#    z 0.000590 0.000000 4.143030 
# 
# 
# High freq. dielectric constant tensor:
#      x y z
#    x 1.994700 0.000000 0.004070 
#    y 0.000000 2.002820 0.000000 
#    z 0.004070 0.000000 1.960710 
# 
# From -- ./inp_files/913.got.cif
#   From: 2010.03.12/outbox.cif.g09.slc.cpg/sg5_1_cif.got.tgz:913.got - 2010.03.31 09:47:26.
