data_PCOD8051998
_publ_section_title
;
Structure prediction by ZEFSAII (Michael W. Deem and Ramdas Pophale) SiO2 
 PCOD8051998
Probable space group: C 2
;
_chemical_formula_sum "Si O2"
_cell_formula_units_Z 20
_cell_length_a 13.715923
_cell_length_b 4.646893
_cell_length_c 10.609143
_cell_angle_alpha 90.000000
_cell_angle_beta 86.944363
_cell_angle_gamma 90.000000
_cell_volume 675.227488
_symmetry_space_group_name_H-M "C 2"
_symmetry_group_IT_number 5
_symmetry_cell_setting 'monoclinic'
loop_
_space_group_symop_operation_xyz
x,y,z
-x,y,-z
1/2+x,1/2+y,z
1/2-x,1/2+y,-z
loop_
_atom_site_type_symbol
_atom_site_label
_atom_site_fract_x
_atom_site_fract_y
_atom_site_fract_z
Si Si1 0.335063 0.451010 0.248579
Si Si2 0.768579 0.995974 0.589472
Si Si3 0.393772 0.637787 0.977865
Si Si4 0.974379 0.198031 0.639297
Si Si5 0.864082 0.623993 0.810632
O O1 0.305319 0.134740 0.300580
O O2 0.430377 0.543753 0.314922
O O3 0.236061 0.659862 0.268072
O O4 0.350622 0.461800 0.097532
O O5 0.775014 0.199379 0.464355
O O6 0.880512 0.976540 0.637967
O O7 0.332942 0.913908 0.931385
O O8 0.404886 0.423404 0.858463
O O9 0.500000 0.764605 0.000000
O O10 0.950387 0.472506 0.727093
O O11 0.000000 0.319429 0.500000
#
# Coordination Sequence:
#
# PCOD8051998 Si02
#       5
#     4   4   4   4   4
#     4  11  25  48  79 110 155 203 256 321 384 458
#     4  11  26  49  73 110 156 200 255 315 379 459
#     4  12  25  48  76 111 150 196 259 315 383 455
#     4  11  24  50  75 115 151 207 252 313 387 461
#     4  11  27  49  74 112 150 199 256 319 381 456
#
# _framework density 29.619651000000001
#
# number of rings (size 3 to 8) (size 9 to 14) (size 15 to 20)
#    0.000    0.800    4.000    1.800    0.000    9.600 
#    3.600    0.000    0.000    0.000    0.000    0.000 
#    0.000    0.000    0.000    0.000    0.000    0.000 
#
# Total GULP energy -124041.609148 kJ/mol
# GULP energy per Si atom -12404.160915 kJ/mol
# Density = 2.955224 g / cm^3
# Si number density = 29.619651 Si / 1000 Ang^3
#
#
#
# Elastic Constant Matrix: (Units=GPa)
#
#
# Indices 1 2 3 4 5 6 
#
# 1 214.9118 61.6958 58.7079 0.0000 26.1572 0.0000
# 2 61.6958 132.3175 21.6715 0.0000 32.9875 0.0000
# 3 58.7079 21.6715 166.8972 0.0000 21.7923 0.0000
# 4 0.0000 0.0000 0.0000 42.8033 0.0000 1.1861
# 5 26.1572 32.9875 21.7923 0.0000 50.4868 0.0000
# 6 0.0000 0.0000 0.0000 1.1861 0.0000 46.5725
#
#
#
# Elastic Compliance Matrix: (Units=1/GPa)
#
#
# Indices 1 2 3 4 5 6 
#
# 1 0.005854 -0.002246 -0.001656 0.000000 -0.000850 0.000000
# 2 -0.002246 0.009919 0.000208 0.000000 -0.005407 0.000000
# 3 -0.001656 0.000208 0.006838 0.000000 -0.002230 0.000000
# 4 0.000000 0.000000 0.000000 0.023379 0.000000 -0.000595
# 5 -0.000850 -0.005407 -0.002230 0.000000 0.024743 0.000000
# 6 0.000000 0.000000 0.000000 -0.000595 0.000000 0.021487
#
#
# Mechanical properties :
#
#
# Convention : Reuss Voigt Hill
#
# Bulk Modulus (GPa) = 65.69379 88.69743 77.19561
# Shear Modulus (GPa) = 47.76308 52.77596 50.26952
#
# Velocity S-wave (km/s) = 4.02001 4.22570 4.12414
# Velocity P-wave (km/s) = 6.61624 7.33616 6.98548
#
# Compressibility (1/GPa) = 0.01522214
#
# Stress axis : x y z
#
# Youngs Moduli (GPa) = 170.82647 100.81852 146.23116
#
# Poissons Ratio (x) = 0.22646 0.24223
# Poissons Ratio (y) = 0.38372 -0.03044
# Poissons Ratio (z) = 0.28297 -0.02099
#
# Static dielectric constant tensor:
#      x y z
#    x 5.664160 0.000000 0.160560 
#    y 0.000000 5.283500 0.000000 
#    z 0.160560 0.000000 6.394240 
# 
# 
# High freq. dielectric constant tensor:
#      x y z
#    x 2.223630 0.000000 0.018990 
#    y 0.000000 2.204490 0.000000 
#    z 0.018990 0.000000 2.269670 
# 
# From -- ./inp_files/40954.got.cif
#   From: 2010.03.12/outbox.cif.g09.slc.cpg/sg5_21_cif.got.tgz:40954.got - 2010.03.31 09:47:26.
