data_PCOD8051664
_publ_section_title
;
Structure prediction by ZEFSAII (Michael W. Deem and Ramdas Pophale) SiO2 
 PCOD8051664
Probable space group: C 2
;
_chemical_formula_sum "Si O2"
_cell_formula_units_Z 26
_cell_length_a 16.045768
_cell_length_b 6.450648
_cell_length_c 22.803526
_cell_angle_alpha 90.000000
_cell_angle_beta 29.270657
_cell_angle_gamma 90.000000
_cell_volume 1154.031521
_symmetry_space_group_name_H-M "C 2"
_symmetry_group_IT_number 5
_symmetry_cell_setting 'monoclinic'
loop_
_space_group_symop_operation_xyz
x,y,z
-x,y,-z
1/2+x,1/2+y,z
1/2-x,1/2+y,-z
loop_
_atom_site_type_symbol
_atom_site_label
_atom_site_fract_x
_atom_site_fract_y
_atom_site_fract_z
Si Si1 0.892631 0.056130 0.251956
Si Si2 0.500000 0.564486 0.500000
Si Si3 0.325408 0.249279 0.524787
Si Si4 0.533556 0.942641 0.104429
Si Si5 0.250173 0.746379 0.741254
Si Si6 0.007236 0.463656 0.322278
Si Si7 0.346676 0.229971 0.870571
O O1 0.723433 0.082844 0.395374
O O2 0.960570 0.285762 0.197681
O O3 0.854381 0.952495 0.212361
O O4 0.021708 0.920050 0.211404
O O5 0.432315 0.434411 0.486743
O O6 0.349334 0.700486 0.619641
O O7 0.154389 0.337586 0.600860
O O8 0.447871 0.140965 0.403098
O O9 0.378991 0.056999 0.164627
O O10 0.642262 0.111556 0.073994
O O11 0.655764 0.824598 0.983185
O O12 0.370268 0.793634 0.722491
O O13 0.116630 0.573312 0.204654
#
# Coordination Sequence:
#
# PCOD8051664 Si02
#       7
#     4   2   4   4   4   4   4
#     4  11  21  44  72  98 131 186 231 281 339 433
#     4  12  22  44  72  98 140 192 228 282 340 446
#     4  12  23  42  72 103 142 180 229 282 365 414
#     4  11  22  44  76  97 130 193 241 286 330 436
#     4  11  25  42  69 105 141 178 235 285 357 417
#     4  12  25  42  68 112 145 177 225 305 357 414
#     4  11  23  43  76 101 133 181 245 289 347 403
#
# _framework density 22.529713999999998
#
# number of rings (size 3 to 8) (size 9 to 14) (size 15 to 20)
#    0.000    0.615    4.615    4.615    0.000    0.000 
#    0.000    0.769    6.769    0.000    0.000    0.000 
#    0.000    0.000    0.000    0.000    0.000    0.000 
#
# Total GULP energy -161243.711428 kJ/mol
# GULP energy per Si atom -12403.362418 kJ/mol
# Density = 2.247844 g / cm^3
# Si number density = 22.529714 Si / 1000 Ang^3
#
#
#
# Elastic Constant Matrix: (Units=GPa)
#
#
# Indices 1 2 3 4 5 6 
#
# 1 111.3901 43.2757 29.7851 0.0001 -15.2064 -0.0034
# 2 43.2757 101.9441 33.7927 -0.0009 -8.2554 0.0009
# 3 29.7851 33.7927 114.7985 0.0017 -5.6336 -0.0003
# 4 0.0001 -0.0009 0.0017 45.3168 0.0001 -4.3339
# 5 -15.2064 -8.2554 -5.6336 0.0001 29.2238 -0.0009
# 6 -0.0034 0.0009 -0.0003 -4.3339 -0.0009 41.6382
#
#
#
# Elastic Compliance Matrix: (Units=1/GPa)
#
#
# Indices 1 2 3 4 5 6 
#
# 1 0.011593 -0.004020 -0.001600 0.000000 0.004589 0.000001
# 2 -0.004020 0.012444 -0.002575 0.000000 0.000927 -0.000001
# 3 -0.001600 -0.002575 0.009901 0.000000 0.000349 0.000000
# 4 0.000000 0.000000 0.000000 0.022289 0.000000 0.002320
# 5 0.004589 0.000927 0.000349 0.000000 0.036936 0.000001
# 6 0.000001 -0.000001 0.000000 0.002320 0.000001 0.024258
#
#
# Mechanical properties :
#
#
# Convention : Reuss Voigt Hill
#
# Bulk Modulus (GPa) = 56.97767 60.20440 58.59104
# Shear Modulus (GPa) = 35.80162 37.98770 36.89466
#
# Velocity S-wave (km/s) = 3.99066 4.11069 4.05112
# Velocity P-wave (km/s) = 6.82486 7.02215 6.92421
#
# Compressibility (1/GPa) = 0.01755073
#
# Stress axis : x y z
#
# Youngs Moduli (GPa) = 86.25748 80.35865 101.00031
#
# Poissons Ratio (x) = 0.32301 0.16155
# Poissons Ratio (y) = 0.34672 0.26005
# Poissons Ratio (z) = 0.13797 0.20690
#
# Static dielectric constant tensor:
#      x y z
#    x 3.843970 -0.000020 -0.170930 
#    y -0.000020 4.173110 0.000000 
#    z -0.170930 0.000000 4.035700 
# 
# 
# High freq. dielectric constant tensor:
#      x y z
#    x 1.871190 0.000000 -0.013380 
#    y 0.000000 1.906600 0.000000 
#    z -0.013380 0.000000 1.889370 
# 
# From -- ./inp_files/68983.got.cif
#   From: 2010.03.12/outbox.cif.g09.slc.cpg/sg5_35_cif.got.tgz:68983.got - 2010.03.31 09:47:26.
