data_PCOD8051098
_publ_section_title
;
Structure prediction by ZEFSAII (Michael W. Deem and Ramdas Pophale) SiO2 
 PCOD8051098
Probable space group: C 2
;
_chemical_formula_sum "Si O2"
_cell_formula_units_Z 28
_cell_length_a 19.284086
_cell_length_b 13.390505
_cell_length_c 5.401794
_cell_angle_alpha 90.000000
_cell_angle_beta 64.660870
_cell_angle_gamma 90.000000
_cell_volume 1260.671092
_symmetry_space_group_name_H-M "C 2"
_symmetry_group_IT_number 5
_symmetry_cell_setting 'monoclinic'
loop_
_space_group_symop_operation_xyz
x,y,z
-x,y,-z
1/2+x,1/2+y,z
1/2-x,1/2+y,-z
loop_
_atom_site_type_symbol
_atom_site_label
_atom_site_fract_x
_atom_site_fract_y
_atom_site_fract_z
Si Si1 0.180182 0.837960 0.065062
Si Si2 0.675047 0.824487 0.870772
Si Si3 0.084258 0.475215 0.274004
Si Si4 0.643323 0.615854 0.754743
Si Si5 0.222161 0.477892 0.419334
Si Si6 0.951453 0.682507 0.830295
Si Si7 0.413074 0.519329 0.648888
O O1 0.248975 0.783554 0.107306
O O2 0.120684 0.756752 0.058093
O O3 0.137905 0.920030 0.300892
O O4 0.219598 0.896377 0.780924
O O5 0.643307 0.736149 0.749818
O O6 0.694295 0.929398 0.713662
O O7 0.606873 0.864385 0.148134
O O8 0.147575 0.507934 0.377841
O O9 0.079870 0.569121 0.090656
O O10 0.000000 0.457326 0.500000
O O11 0.730945 0.578912 0.602921
O O12 0.599707 0.588105 0.570770
O O13 0.603030 0.576817 0.068148
O O14 0.000000 0.692775 0.500000
O O15 0.000000 0.710501 0.000000
O O16 0.500000 0.482970 0.500000
#
# Coordination Sequence:
#
# PCOD8051098 Si02
#       7
#     4   4   4   4   4   4   4
#     4  10  23  43  69 102 134 176 232 285 343 409
#     4  11  24  42  72  96 133 187 226 287 343 405
#     4  10  25  45  64 101 140 179 228 284 345 414
#     4  11  25  44  68 100 136 177 237 272 341 412
#     4  10  23  43  68  97 134 180 226 289 338 402
#     4  11  26  43  70 106 141 183 227 283 353 414
#     4  11  24  45  68  99 139 177 223 287 338 402
#
# _framework density 22.210394000000001
#
# number of rings (size 3 to 8) (size 9 to 14) (size 15 to 20)
#    0.000    1.429    1.429    1.714   10.000    4.000 
#    2.571    0.000    0.000    0.000    0.000    0.000 
#    0.000    0.000    0.000    0.000    0.000    0.000 
#
# Total GULP energy -173528.933330 kJ/mol
# GULP energy per Si atom -12394.923809 kJ/mol
# Density = 2.215984 g / cm^3
# Si number density = 22.210394 Si / 1000 Ang^3
#
#
#
# Elastic Constant Matrix: (Units=GPa)
#
#
# Indices 1 2 3 4 5 6 
#
# 1 125.7970 46.3891 48.9632 0.0000 -11.0099 0.0000
# 2 46.3891 104.0697 24.5744 0.0000 -10.0968 0.0000
# 3 48.9632 24.5744 81.5297 0.0000 3.0131 0.0000
# 4 0.0000 0.0000 0.0000 -42.6521 0.0000 112.5550
# 5 -11.0099 -10.0968 3.0131 0.0000 43.2892 0.0000
# 6 0.0000 0.0000 0.0000 112.5550 0.0000 -148.9793
#
#
#
# Elastic Compliance Matrix: (Units=1/GPa)
#
#
# Indices 1 2 3 4 5 6 
#
# 1 0.011903 -0.003597 -0.006161 0.000000 0.002617 0.000000
# 2 -0.003597 0.011741 -0.001450 0.000000 0.001925 0.000000
# 3 -0.006161 -0.001450 0.016515 0.000000 -0.003055 0.000000
# 4 0.000000 0.000000 0.000000 0.023594 0.000000 0.017825
# 5 0.002617 0.001925 -0.003055 0.000000 0.024428 0.000000
# 6 0.000000 0.000000 0.000000 0.017825 0.000000 0.006755
#
#
# Mechanical properties :
#
#
# Convention : Reuss Voigt Hill
#
# Bulk Modulus (GPa) = 56.35729 61.24996 58.80363
# Shear Modulus (GPa) = 40.56278 -16.90380 11.82949
#
# Velocity S-wave (km/s) = 4.27816 -2.76175 2.31034
# Velocity P-wave (km/s) = 7.05924 4.17939 5.80087
#
# Compressibility (1/GPa) = 0.01774393
#
# Stress axis : x y z
#
# Youngs Moduli (GPa) = 84.01444 85.16861 60.54988
#
# Poissons Ratio (x) = 0.30635 0.37303
# Poissons Ratio (y) = 0.30220 0.08780
# Poissons Ratio (z) = 0.51759 0.12350
#
# Static dielectric constant tensor:
#      x y z
#    x 4.310970 0.000000 -0.475840 
#    y 0.000000 3.940740 0.000000 
#    z -0.475840 0.000000 4.476920 
# 
# 
# High freq. dielectric constant tensor:
#      x y z
#    x 1.884270 0.000000 -0.010160 
#    y 0.000000 1.873550 0.000000 
#    z -0.010160 0.000000 1.875540 
# 
# From -- ./inp_files/8608.got.cif
#   From: 2010.03.12/outbox.cif.g09.slc.cpg/sg5_5_cif.got.tgz:8608.got - 2010.03.31 09:47:26.
