data_PCOD8051348
_publ_section_title
;
Structure prediction by ZEFSAII (Michael W. Deem and Ramdas Pophale) SiO2 
 PCOD8051348
Probable space group: C 2
;
_chemical_formula_sum "Si O2"
_cell_formula_units_Z 24
_cell_length_a 18.793926
_cell_length_b 11.186556
_cell_length_c 14.010563
_cell_angle_alpha 90.000000
_cell_angle_beta 158.754732
_cell_angle_gamma 90.000000
_cell_volume 1067.360253
_symmetry_space_group_name_H-M "C 2"
_symmetry_group_IT_number 5
_symmetry_cell_setting 'monoclinic'
loop_
_space_group_symop_operation_xyz
x,y,z
-x,y,-z
1/2+x,1/2+y,z
1/2-x,1/2+y,-z
loop_
_atom_site_type_symbol
_atom_site_label
_atom_site_fract_x
_atom_site_fract_y
_atom_site_fract_z
Si Si1 0.897146 0.057070 0.058158
Si Si2 0.419559 0.818206 0.003184
Si Si3 0.107847 0.666953 0.826710
Si Si4 0.000000 0.672976 0.000000
Si Si5 0.845105 0.521525 0.633145
Si Si6 0.500000 0.298291 0.500000
Si Si7 0.270682 0.816758 0.202847
O O1 0.113226 0.004065 0.340953
O O2 0.908751 0.178552 0.012254
O O3 0.792906 0.082491 0.029921
O O4 0.770391 0.958537 0.843070
O O5 0.199364 0.875544 0.737003
O O6 0.500000 0.840364 0.000000
O O7 0.560981 0.888518 0.252751
O O8 0.928549 0.592915 0.647243
O O9 0.018418 0.719352 0.618201
O O10 0.186697 0.767679 0.997426
O O11 0.099804 0.588514 0.201706
O O12 0.166794 0.755093 0.162518
O O13 0.500000 0.791099 0.500000
#
# Coordination Sequence:
#
# PCOD8051348 Si02
#       7
#     4   4   4   2   4   2   4
#     4  11  27  41  71  99 138 185 230 290 345 409
#     4  11  25  43  69 101 140 182 234 290 341 418
#     4  10  25  46  71 100 139 181 235 290 343 416
#     4  10  24  46  70 102 134 186 230 284 344 420
#     4  11  24  45  70 101 139 184 232 286 349 410
#     4  10  24  46  68 102 134 180 234 282 348 400
#     4  11  26  46  72 102 141 183 232 287 348 418
#
# _framework density 22.485379999999999
#
# number of rings (size 3 to 8) (size 9 to 14) (size 15 to 20)
#    0.000    1.333    0.833    2.000   17.500    1.333 
#    6.000    0.000    0.000    0.000    0.000    0.000 
#    0.000    0.000    0.000    0.000    0.000    0.000 
#
# Total GULP energy -148806.169615 kJ/mol
# GULP energy per Si atom -12400.514135 kJ/mol
# Density = 2.243420 g / cm^3
# Si number density = 22.485380 Si / 1000 Ang^3
#
#
#
# Elastic Constant Matrix: (Units=GPa)
#
#
# Indices 1 2 3 4 5 6 
#
# 1 133.7128 20.6053 43.6532 -0.0002 12.7287 0.0001
# 2 20.6053 84.4282 12.0143 -0.0001 5.2312 0.0002
# 3 43.6532 12.0143 119.8643 -0.0001 29.7360 0.0001
# 4 -0.0002 -0.0001 -0.0001 30.7498 -0.0002 10.2111
# 5 12.7287 5.2312 29.7360 -0.0002 48.3115 -0.0001
# 6 0.0001 0.0002 0.0001 10.2111 -0.0001 14.6357
#
#
#
# Elastic Compliance Matrix: (Units=1/GPa)
#
#
# Indices 1 2 3 4 5 6 
#
# 1 0.008726 -0.001693 -0.002931 0.000000 -0.000312 0.000000
# 2 -0.001693 0.012362 -0.000473 0.000000 -0.000601 0.000000
# 3 -0.002931 -0.000473 0.010921 0.000000 -0.005898 0.000000
# 4 0.000000 0.000000 0.000000 0.042327 0.000000 -0.029531
# 5 -0.000312 -0.000601 -0.005898 0.000000 0.024477 0.000000
# 6 0.000000 0.000000 0.000000 -0.029531 0.000000 0.088929
#
#
# Mechanical properties :
#
#
# Convention : Reuss Voigt Hill
#
# Bulk Modulus (GPa) = 45.84138 54.50563 50.17350
# Shear Modulus (GPa) = 24.36547 36.18823 30.27685
#
# Velocity S-wave (km/s) = 3.29540 4.01610 3.67347
# Velocity P-wave (km/s) = 5.90855 6.76746 6.35254
#
# Compressibility (1/GPa) = 0.02181435
#
# Stress axis : x y z
#
# Youngs Moduli (GPa) = 114.59758 80.89145 91.56759
#
# Poissons Ratio (x) = 0.13697 0.26838
# Poissons Ratio (y) = 0.19405 0.04334
# Poissons Ratio (z) = 0.33587 0.03828
#
# Static dielectric constant tensor:
#      x y z
#    x 4.513520 0.000000 0.400730 
#    y 0.000000 4.030970 0.000000 
#    z 0.400730 0.000000 4.352780 
# 
# 
# High freq. dielectric constant tensor:
#      x y z
#    x 1.904600 0.000000 0.017400 
#    y 0.000000 1.882070 0.000000 
#    z 0.017400 0.000000 1.893270 
# 
# From -- ./inp_files/57066.got.cif
#   From: 2010.03.12/outbox.cif.g09.slc.cpg/sg5_29_cif.got.tgz:57066.got - 2010.03.31 09:47:26.
