data_PCOD8051030
_publ_section_title
;
Structure prediction by ZEFSAII (Michael W. Deem and Ramdas Pophale) SiO2 
 PCOD8051030
Probable space group: C 2
;
_chemical_formula_sum "Si O2"
_cell_formula_units_Z 32
_cell_length_a 8.365348
_cell_length_b 10.640062
_cell_length_c 28.396203
_cell_angle_alpha 90.000000
_cell_angle_beta 146.333554
_cell_angle_gamma 90.000000
_cell_volume 1401.128834
_symmetry_space_group_name_H-M "C 2"
_symmetry_group_IT_number 5
_symmetry_cell_setting 'monoclinic'
loop_
_space_group_symop_operation_xyz
x,y,z
-x,y,-z
1/2+x,1/2+y,z
1/2-x,1/2+y,-z
loop_
_atom_site_type_symbol
_atom_site_label
_atom_site_fract_x
_atom_site_fract_y
_atom_site_fract_z
Si Si1 0.695521 0.715310 0.593573
Si Si2 0.807111 0.884231 0.160497
Si Si3 0.766196 0.607254 0.155922
Si Si4 0.135648 0.967147 0.331232
Si Si5 0.370187 0.084910 0.018061
Si Si6 0.749691 0.491770 0.672490
Si Si7 0.576118 0.225694 0.151803
Si Si8 0.259893 0.719623 0.677345
O O1 0.500000 0.708607 0.500000
O O2 0.645121 0.849977 0.606937
O O3 0.606137 0.599746 0.605344
O O4 0.034592 0.706825 0.664850
O O5 0.706818 0.751137 0.158610
O O6 0.000966 0.955961 0.246119
O O7 0.986925 0.856234 0.156011
O O8 0.532299 0.966358 0.080088
O O9 0.463335 0.544386 0.068209
O O10 0.919026 0.528575 0.234919
O O11 0.982633 0.611288 0.163965
O O12 0.907264 0.975185 0.316574
O O13 0.301843 0.101710 0.372451
O O14 0.500000 0.124202 0.000000
O O15 0.403156 0.205972 0.060567
O O16 0.727046 0.354274 0.641979
O O17 0.914409 0.216968 0.223007
#
# Coordination Sequence:
#
# PCOD8051030 Si02
#       8
#     4   4   4   4   4   4   4   4
#     4  11  27  47  72 108 151 185 234 301 367 448
#     4  10  23  43  72  94 138 191 240 305 363 416
#     4  10  23  41  69  95 140 190 237 302 357 423
#     4  11  22  48  76 104 139 192 242 295 367 439
#     4  12  26  37  65 100 140 188 246 300 362 424
#     4  11  24  44  73 108 140 187 244 297 364 441
#     4  10  23  44  67  97 136 189 245 294 365 427
#     4  11  25  40  78 104 134 189 242 288 367 439
#
# _framework density 22.838728
#
# number of rings (size 3 to 8) (size 9 to 14) (size 15 to 20)
#    0.750    0.500    3.750    0.375    7.000    2.000 
#    0.000    1.875    0.000    0.000    0.000    0.000 
#    0.000    0.000    0.000    0.000    0.000    0.000 
#
# Total GULP energy -198270.255527 kJ/mol
# GULP energy per Si atom -12391.890970 kJ/mol
# Density = 2.278675 g / cm^3
# Si number density = 22.838728 Si / 1000 Ang^3
#
#
#
# Elastic Constant Matrix: (Units=GPa)
#
#
# Indices 1 2 3 4 5 6 
#
# 1 63.0324 50.9721 35.3528 0.0000 -4.2682 0.0000
# 2 50.9721 188.0763 47.5825 0.0000 -25.5018 0.0000
# 3 35.3528 47.5825 75.2754 -0.0002 -24.1544 0.0000
# 4 0.0000 0.0000 -0.0002 26.0694 0.0000 -6.0984
# 5 -4.2682 -25.5018 -24.1544 0.0000 30.2959 0.0000
# 6 0.0000 0.0000 0.0000 -6.0984 0.0000 35.6071
#
#
#
# Elastic Compliance Matrix: (Units=1/GPa)
#
#
# Indices 1 2 3 4 5 6 
#
# 1 0.026597 -0.005522 -0.012483 0.000000 -0.010854 0.000000
# 2 -0.005522 0.007667 -0.000581 0.000000 0.005213 0.000000
# 3 -0.012483 -0.000581 0.025254 0.000000 0.017887 0.000000
# 4 0.000000 0.000000 0.000000 0.039960 0.000000 0.006844
# 5 -0.010854 0.005213 0.017887 0.000000 0.050128 0.000000
# 6 0.000000 0.000000 0.000000 0.006844 0.000000 0.029256
#
#
# Mechanical properties :
#
#
# Convention : Reuss Voigt Hill
#
# Bulk Modulus (GPa) = 44.74950 66.02209 55.38580
# Shear Modulus (GPa) = 22.37314 31.22626 26.79970
#
# Velocity S-wave (km/s) = 3.13327 3.70165 3.42926
# Velocity P-wave (km/s) = 5.72067 6.87316 6.32323
#
# Compressibility (1/GPa) = 0.02234662
#
# Stress axis : x y z
#
# Youngs Moduli (GPa) = 37.59881 130.42601 39.59779
#
# Poissons Ratio (x) = 0.72016 0.49432
# Poissons Ratio (y) = 0.20761 0.02299
# Poissons Ratio (z) = 0.46936 0.07571
#
# Static dielectric constant tensor:
#      x y z
#    x 3.928150 0.000000 -0.000370 
#    y 0.000000 4.675290 0.000000 
#    z -0.000370 0.000000 3.761050 
# 
# 
# High freq. dielectric constant tensor:
#      x y z
#    x 1.885780 0.000000 0.002060 
#    y 0.000000 1.918290 0.000000 
#    z 0.002060 0.000000 1.875590 
# 
# From -- ./inp_files/71592.got.cif
#   From: 2010.03.12/outbox.cif.g09.slc.cpg/sg5_36_cif.got.tgz:71592.got - 2010.03.31 09:47:26.
