data_PCOD8051331
_publ_section_title
;
Structure prediction by ZEFSAII (Michael W. Deem and Ramdas Pophale) SiO2 
 PCOD8051331
Probable space group: C 2
;
_chemical_formula_sum "Si O2"
_cell_formula_units_Z 28
_cell_length_a 14.456832
_cell_length_b 16.383333
_cell_length_c 6.629093
_cell_angle_alpha 90.000000
_cell_angle_beta 123.370294
_cell_angle_gamma 90.000000
_cell_volume 1311.249186
_symmetry_space_group_name_H-M "C 2"
_symmetry_group_IT_number 5
_symmetry_cell_setting 'monoclinic'
loop_
_space_group_symop_operation_xyz
x,y,z
-x,y,-z
1/2+x,1/2+y,z
1/2-x,1/2+y,-z
loop_
_atom_site_type_symbol
_atom_site_label
_atom_site_fract_x
_atom_site_fract_y
_atom_site_fract_z
Si Si1 0.700184 0.445510 0.308151
Si Si2 0.208403 0.209094 0.372177
Si Si3 0.788043 0.514994 0.016013
Si Si4 0.870583 0.381720 0.830380
Si Si5 0.617551 0.166792 0.733244
Si Si6 0.609409 0.569329 0.497648
Si Si7 0.376331 0.275590 0.897802
O O1 0.732967 0.504775 0.167219
O O2 0.812638 0.417997 0.559873
O O3 0.615303 0.490672 0.358150
O O4 0.632111 0.372808 0.123262
O O5 0.148274 0.284342 0.186319
O O6 0.283158 0.158106 0.307622
O O7 0.117516 0.150885 0.369847
O O8 0.291496 0.240992 0.637588
O O9 0.890941 0.578450 0.165621
O O10 0.820612 0.426608 0.967405
O O11 0.709990 0.565403 0.773027
O O12 0.000000 0.401059 0.000000
O O13 0.500000 0.189952 0.500000
O O14 0.653419 0.242106 0.917755
O O15 0.500000 0.569357 0.500000
O O16 0.500000 0.245296 0.000000
#
# Coordination Sequence:
#
# PCOD8051331 Si02
#       7
#     4   4   4   4   4   4   4
#     4  10  24  45  66  96 136 170 221 276 329 396
#     4  11  23  47  63  97 139 170 227 275 319 401
#     4  11  24  43  68  98 133 169 226 276 324 402
#     4  10  25  44  66  96 132 179 222 272 329 394
#     4  12  24  39  73 101 132 177 218 273 339 385
#     4  11  25  44  70  99 132 177 223 273 332 391
#     4  11  23  42  66  97 134 174 217 272 330 394
#
# _framework density 21.353683
#
# number of rings (size 3 to 8) (size 9 to 14) (size 15 to 20)
#    0.000    1.143    4.286    0.857    4.000    1.714 
#    5.143    0.000    0.000    0.000    0.000    0.000 
#    0.000    0.000    0.000    0.000    0.000    0.000 
#
# Total GULP energy -173566.093074 kJ/mol
# GULP energy per Si atom -12397.578077 kJ/mol
# Density = 2.130508 g / cm^3
# Si number density = 21.353683 Si / 1000 Ang^3
#
#
#
# Elastic Constant Matrix: (Units=GPa)
#
#
# Indices 1 2 3 4 5 6 
#
# 1 125.9383 53.2302 35.7659 0.0000 -12.1789 0.0000
# 2 53.2302 152.6780 49.8809 0.0000 -10.6196 0.0000
# 3 35.7659 49.8809 81.2498 0.0000 -14.7975 0.0000
# 4 0.0000 0.0000 0.0000 32.2249 0.0000 6.0676
# 5 -12.1789 -10.6196 -14.7975 0.0000 28.7813 0.0000
# 6 0.0000 0.0000 0.0000 6.0676 0.0000 35.1832
#
#
#
# Elastic Compliance Matrix: (Units=1/GPa)
#
#
# Indices 1 2 3 4 5 6 
#
# 1 0.009890 -0.002509 -0.002449 0.000000 0.002000 0.000000
# 2 -0.002509 0.008835 -0.004324 0.000000 -0.000025 0.000000
# 3 -0.002449 -0.004324 0.017169 0.000000 0.006195 0.000000
# 4 0.000000 0.000000 0.000000 0.032073 0.000000 -0.005531
# 5 0.002000 -0.000025 0.006195 0.000000 0.038767 0.000000
# 6 0.000000 0.000000 0.000000 -0.005531 0.000000 0.029377
#
#
# Mechanical properties :
#
#
# Convention : Reuss Voigt Hill
#
# Bulk Modulus (GPa) = 57.70436 70.84667 64.27552
# Shear Modulus (GPa) = 31.16196 33.97051 32.56623
#
# Velocity S-wave (km/s) = 3.82426 3.99287 3.90947
# Velocity P-wave (km/s) = 6.82508 7.38289 7.10946
#
# Compressibility (1/GPa) = 0.01732971
#
# Stress axis : x y z
#
# Youngs Moduli (GPa) = 101.11547 113.17983 58.24475
#
# Poissons Ratio (x) = 0.28394 0.14264
# Poissons Ratio (y) = 0.25367 0.25188
# Poissons Ratio (z) = 0.24763 0.48944
#
# Static dielectric constant tensor:
#      x y z
#    x 3.593800 0.000000 -0.049300 
#    y 0.000000 4.127310 0.000000 
#    z -0.049300 0.000000 3.993700 
# 
# 
# High freq. dielectric constant tensor:
#      x y z
#    x 1.822070 0.000000 -0.007080 
#    y 0.000000 1.851300 0.000000 
#    z -0.007080 0.000000 1.848960 
# 
# From -- ./inp_files/7257.got.cif
#   From: 2010.03.12/outbox.cif.g09.slc.cpg/sg5_4_cif.got.tgz:7257.got - 2010.03.31 09:47:26.
