data_PCOD8051164
_publ_section_title
;
Structure prediction by ZEFSAII (Michael W. Deem and Ramdas Pophale) SiO2 
 PCOD8051164
Probable space group: C 2
;
_chemical_formula_sum "Si O2"
_cell_formula_units_Z 32
_cell_length_a 11.696449
_cell_length_b 8.818701
_cell_length_c 13.201065
_cell_angle_alpha 90.000000
_cell_angle_beta 85.110297
_cell_angle_gamma 90.000000
_cell_volume 1356.701103
_symmetry_space_group_name_H-M "C 2"
_symmetry_group_IT_number 5
_symmetry_cell_setting 'monoclinic'
loop_
_space_group_symop_operation_xyz
x,y,z
-x,y,-z
1/2+x,1/2+y,z
1/2-x,1/2+y,-z
loop_
_atom_site_type_symbol
_atom_site_label
_atom_site_fract_x
_atom_site_fract_y
_atom_site_fract_z
Si Si1 0.364236 0.609830 0.733446
Si Si2 0.704081 0.067469 0.573956
Si Si3 0.699668 0.577161 0.653188
Si Si4 0.441629 0.850808 0.295421
Si Si5 0.448200 0.325639 0.394871
Si Si6 0.942374 0.512799 0.898428
Si Si7 0.525346 0.330497 0.181720
Si Si8 0.734001 0.368977 0.826303
O O1 0.315116 0.526086 0.635268
O O2 0.452760 0.739447 0.690455
O O3 0.404737 0.487891 0.815005
O O4 0.260148 0.694229 0.798286
O O5 0.725984 0.064697 0.453537
O O6 0.674650 0.242658 0.599669
O O7 0.592117 0.964991 0.610040
O O8 0.672768 0.743298 0.701067
O O9 0.574856 0.500678 0.634906
O O10 0.767333 0.481513 0.731543
O O11 0.468860 0.945657 0.192007
O O12 0.500000 0.300460 0.500000
O O13 0.523896 0.260958 0.296747
O O14 0.921050 0.694925 0.888705
O O15 0.818282 0.428544 0.908852
O O16 0.000000 0.476279 0.000000
O O17 0.401820 0.376162 0.141573
#
# Coordination Sequence:
#
# PCOD8051164 Si02
#       8
#     4   4   4   4   4   4   4   4
#     4  11  22  41  70  95 140 188 228 278 347 412
#     4  12  24  40  64 103 145 188 235 271 337 421
#     4  11  23  41  63 101 144 187 232 273 344 414
#     4  11  24  43  71 100 141 189 229 294 345 407
#     4  11  22  40  61  95 143 183 227 275 330 409
#     4  11  26  50  73 103 136 180 242 303 368 425
#     4  11  22  46  68  97 140 179 231 296 348 409
#     4  10  23  46  66 102 139 173 234 294 339 433
#
# _framework density 23.586625000000002
#
# number of rings (size 3 to 8) (size 9 to 14) (size 15 to 20)
#    0.000    1.000    6.250    1.500    3.500    0.000 
#    4.500    2.500    0.000    0.000    0.000    0.000 
#    0.000    0.000    0.000    0.000    0.000    0.000 
#
# Total GULP energy -198212.211811 kJ/mol
# GULP energy per Si atom -12388.263238 kJ/mol
# Density = 2.353294 g / cm^3
# Si number density = 23.586625 Si / 1000 Ang^3
#
#
#
# Elastic Constant Matrix: (Units=GPa)
#
#
# Indices 1 2 3 4 5 6 
#
# 1 69.1501 31.0317 18.7747 0.0000 22.4667 0.0000
# 2 31.0317 107.2509 16.9893 0.0000 4.5722 0.0000
# 3 18.7747 16.9893 54.7071 0.0000 20.0753 0.0000
# 4 0.0000 0.0000 0.0000 23.0047 0.0000 -3.3411
# 5 22.4667 4.5722 20.0753 0.0000 36.9674 0.0000
# 6 0.0000 0.0000 0.0000 -3.3411 0.0000 39.0161
#
#
#
# Elastic Compliance Matrix: (Units=1/GPa)
#
#
# Indices 1 2 3 4 5 6 
#
# 1 0.020905 -0.005350 -0.001365 0.000000 -0.011302 0.000000
# 2 -0.005350 0.011185 -0.002901 0.000000 0.003444 0.000000
# 3 -0.001365 -0.002901 0.023994 0.000000 -0.011841 0.000000
# 4 0.000000 0.000000 0.000000 0.044017 0.000000 0.003769
# 5 -0.011302 0.003444 -0.011841 0.000000 0.039924 0.000000
# 6 0.000000 0.000000 0.000000 0.003769 0.000000 0.025953
#
#
# Mechanical properties :
#
#
# Convention : Reuss Voigt Hill
#
# Bulk Modulus (GPa) = 27.13714 40.52216 33.82965
# Shear Modulus (GPa) = 25.31715 30.75180 28.03447
#
# Velocity S-wave (km/s) = 3.27978 3.61471 3.45131
# Velocity P-wave (km/s) = 5.08654 5.88548 5.50054
#
# Compressibility (1/GPa) = 0.03684986
#
# Stress axis : x y z
#
# Youngs Moduli (GPa) = 47.83556 89.40749 41.67718
#
# Poissons Ratio (x) = 0.47837 0.05691
# Poissons Ratio (y) = 0.25594 0.12090
# Poissons Ratio (z) = 0.06532 0.25936
#
# Static dielectric constant tensor:
#      x y z
#    x 4.201330 0.000000 0.025240 
#    y 0.000000 4.590690 0.000000 
#    z 0.025240 0.000000 3.866660 
# 
# 
# High freq. dielectric constant tensor:
#      x y z
#    x 1.931340 0.000000 0.007240 
#    y 0.000000 1.954380 0.000000 
#    z 0.007240 0.000000 1.896190 
# 
# From -- ./inp_files/52451.got.cif
#   From: 2010.03.12/outbox.cif.g09.slc.cpg/sg5_27_cif.got.tgz:52451.got - 2010.03.31 09:47:26.
