data_PCOD8051553
_publ_section_title
;
Structure prediction by ZEFSAII (Michael W. Deem and Ramdas Pophale) SiO2 
 PCOD8051553
Probable space group: C 2
;
_chemical_formula_sum "Si O2"
_cell_formula_units_Z 16
_cell_length_a 8.060550
_cell_length_b 11.296483
_cell_length_c 11.343211
_cell_angle_alpha 90.000000
_cell_angle_beta 141.177112
_cell_angle_gamma 90.000000
_cell_volume 647.519214
_symmetry_space_group_name_H-M "C 2"
_symmetry_group_IT_number 5
_symmetry_cell_setting 'monoclinic'
loop_
_space_group_symop_operation_xyz
x,y,z
-x,y,-z
1/2+x,1/2+y,z
1/2-x,1/2+y,-z
loop_
_atom_site_type_symbol
_atom_site_label
_atom_site_fract_x
_atom_site_fract_y
_atom_site_fract_z
Si Si1 0.696229 0.679050 0.817399
Si Si2 0.554505 0.936746 0.780999
Si Si3 0.000000 0.020287 0.500000
Si Si4 0.228197 0.654890 0.725241
Si Si5 0.500000 0.853774 0.000000
O O1 0.663769 0.819663 0.778073
O O2 0.603005 0.607365 0.655058
O O3 0.518322 0.638719 0.829493
O O4 0.000000 0.646531 0.000000
O O5 0.237609 0.938365 0.584778
O O6 0.687001 0.049187 0.793766
O O7 0.612585 0.933922 0.954868
O O8 0.000000 0.662589 0.500000
O O9 0.250316 0.776097 0.813488
#
# Coordination Sequence:
#
# PCOD8051553 Si02
#       5
#     4   4   2   4   2
#     4  11  29  49  77 121 158 207 272 331 395 481
#     4  11  28  50  82 114 162 214 263 327 410 469
#     4  12  28  46  80 116 166 206 266 330 398 482
#     4  11  25  54  82 114 165 214 266 333 401 483
#     4  10  28  46  80 120 164 204 276 328 398 484
#
# _framework density 24.709690999999999
#
# number of rings (size 3 to 8) (size 9 to 14) (size 15 to 20)
#    0.000    1.000    2.500    0.000   19.250    0.000 
#    4.500    0.000    0.000    0.000    0.000    0.000 
#    0.000    0.000    0.000    0.000    0.000    0.000 
#
# Total GULP energy -99184.685419 kJ/mol
# GULP energy per Si atom -12398.085677 kJ/mol
# Density = 2.465345 g / cm^3
# Si number density = 24.709691 Si / 1000 Ang^3
#
#
#
# Elastic Constant Matrix: (Units=GPa)
#
#
# Indices 1 2 3 4 5 6 
#
# 1 139.8701 59.7082 83.6047 0.0000 25.2851 0.0001
# 2 59.7082 95.7374 51.7236 -0.0002 -18.2861 0.0000
# 3 83.6047 51.7236 173.9093 0.0003 -17.0833 0.0002
# 4 0.0000 -0.0002 0.0003 -7.2665 0.0001 -27.9220
# 5 25.2851 -18.2861 -17.0833 0.0001 37.3462 0.0001
# 6 0.0001 0.0000 0.0002 -27.9220 0.0001 64.0754
#
#
#
# Elastic Compliance Matrix: (Units=1/GPa)
#
#
# Indices 1 2 3 4 5 6 
#
# 1 0.025879 -0.016201 -0.010599 0.000000 -0.030302 0.000000
# 2 -0.016201 0.023394 0.003176 0.000000 0.023876 0.000000
# 3 -0.010599 0.003176 0.011265 0.000000 0.013884 0.000000
# 4 0.000000 0.000000 0.000000 -0.051456 0.000000 -0.022423
# 5 -0.030302 0.023876 0.013884 0.000000 0.065334 0.000000
# 6 0.000000 0.000000 0.000000 -0.022423 0.000000 0.005835
#
#
# Mechanical properties :
#
#
# Convention : Reuss Voigt Hill
#
# Bulk Modulus (GPa) = 75.24883 88.84331 82.04607
# Shear Modulus (GPa) = 37.89936 33.12969 35.51453
#
# Velocity S-wave (km/s) = 3.92061 3.66561 3.79525
# Velocity P-wave (km/s) = 7.14242 7.34496 7.24440
#
# Compressibility (1/GPa) = 0.01328924
#
# Stress axis : x y z
#
# Youngs Moduli (GPa) = 38.64175 42.74626 88.77351
#
# Poissons Ratio (x) = 0.69254 0.94091
# Poissons Ratio (y) = 0.62604 -0.28196
# Poissons Ratio (z) = 0.40956 -0.13577
#
# Static dielectric constant tensor:
#      x y z
#    x 4.928690 0.000000 0.070620 
#    y 0.000000 4.747940 0.000000 
#    z 0.070620 0.000000 4.392190 
# 
# 
# High freq. dielectric constant tensor:
#      x y z
#    x 1.984470 0.000000 -0.002010 
#    y 0.000000 2.001610 0.000000 
#    z -0.002010 0.000000 1.993950 
# 
# From -- ./inp_files/13838.got.cif
#   From: 2010.03.12/outbox.cif.g09.slc.cpg/sg5_7_cif.got.tgz:13838.got - 2010.03.31 09:47:26.
