data_PCOD8051821
_publ_section_title
;
Structure prediction by ZEFSAII (Michael W. Deem and Ramdas Pophale) SiO2 
 PCOD8051821
Probable space group: C 2
;
_chemical_formula_sum "Si O2"
_cell_formula_units_Z 32
_cell_length_a 11.696737
_cell_length_b 16.957850
_cell_length_c 13.549026
_cell_angle_alpha 90.000000
_cell_angle_beta 33.901809
_cell_angle_gamma 90.000000
_cell_volume 1498.993556
_symmetry_space_group_name_H-M "C 2"
_symmetry_group_IT_number 5
_symmetry_cell_setting 'monoclinic'
loop_
_space_group_symop_operation_xyz
x,y,z
-x,y,-z
1/2+x,1/2+y,z
1/2-x,1/2+y,-z
loop_
_atom_site_type_symbol
_atom_site_label
_atom_site_fract_x
_atom_site_fract_y
_atom_site_fract_z
Si Si1 0.067811 0.914070 0.173332
Si Si2 0.810274 0.978745 0.708591
Si Si3 0.641580 0.159990 0.485796
Si Si4 0.358441 0.979459 0.514180
Si Si5 0.810260 0.160618 0.708596
Si Si6 0.494736 0.906473 0.790363
Si Si7 0.005217 0.732945 0.209668
Si Si8 0.567870 0.725336 0.173297
O O1 0.879973 0.972525 0.284865
O O2 0.984229 0.826460 0.215122
O O3 0.148492 0.924430 0.226651
O O4 0.255480 0.932102 0.964281
O O5 0.780814 0.069682 0.761693
O O6 0.000000 0.969483 0.500000
O O7 0.605630 0.948235 0.802579
O O8 0.500000 0.193737 0.500000
O O9 0.599830 0.208826 0.613619
O O10 0.879995 0.166905 0.284829
O O11 0.587249 0.069726 0.546521
O O12 0.500000 0.945713 0.500000
O O13 0.400244 0.930643 0.386312
O O14 0.605637 0.191125 0.802547
O O15 0.851412 0.214925 0.773426
O O16 0.000000 0.169890 0.500000
O O17 0.515692 0.812955 0.784859
O O18 0.244486 0.707331 0.035764
#
# Coordination Sequence:
#
# PCOD8051821 Si02
#       8
#     4   4   4   4   4   4   4   4
#     4  11  25  42  66  97 130 169 214 265 323 383
#     4  11  23  41  69 100 129 168 216 268 326 383
#     4  11  25  43  65  93 127 171 215 259 317 383
#     4  11  25  43  65  93 127 171 215 259 317 383
#     4  11  23  41  69 100 129 168 216 268 326 383
#     4  11  25  42  66  97 130 169 214 265 323 383
#     4  11  25  42  66  97 130 169 214 265 323 383
#     4  11  25  42  66  97 130 169 214 265 323 383
#
# _framework density 21.347657000000002
#
# number of rings (size 3 to 8) (size 9 to 14) (size 15 to 20)
#    0.000    1.000    2.500    3.000    3.500    6.000 
#    0.000    2.500    0.000    0.000    0.000    0.000 
#    0.000    0.000    0.000    0.000    0.000    0.000 
#
# Total GULP energy -198495.306137 kJ/mol
# GULP energy per Si atom -12405.956634 kJ/mol
# Density = 2.129907 g / cm^3
# Si number density = 21.347657 Si / 1000 Ang^3
#
#
#
# Elastic Constant Matrix: (Units=GPa)
#
#
# Indices 1 2 3 4 5 6 
#
# 1 98.3348 6.8917 22.6500 0.0104 -23.3581 -0.0021
# 2 6.8917 58.7201 24.1576 0.0281 -5.8551 0.0172
# 3 22.6500 24.1576 96.6980 0.0935 -21.5034 0.0114
# 4 0.0104 0.0281 0.0935 25.6708 -0.0278 -10.1317
# 5 -23.3581 -5.8551 -21.5034 -0.0278 29.6028 -0.0182
# 6 -0.0021 0.0172 0.0114 -10.1317 -0.0182 30.8987
#
#
#
# Elastic Compliance Matrix: (Units=1/GPa)
#
#
# Indices 1 2 3 4 5 6 
#
# 1 0.012580 -0.000209 -0.000830 0.000013 0.009282 0.000011
# 2 -0.000209 0.018988 -0.004647 -0.000008 0.000215 -0.000011
# 3 -0.000830 -0.004647 0.013533 -0.000039 0.008256 -0.000010
# 4 0.000013 -0.000008 -0.000039 0.044746 0.000031 0.014672
# 5 0.009282 0.000215 0.008256 0.000031 0.047144 0.000035
# 6 0.000011 -0.000011 -0.000010 0.014672 0.000035 0.037175
#
#
# Mechanical properties :
#
#
# Convention : Reuss Voigt Hill
#
# Bulk Modulus (GPa) = 29.64934 40.12794 34.88864
# Shear Modulus (GPa) = 25.40901 30.57136 27.99019
#
# Velocity S-wave (km/s) = 3.45374 3.78838 3.62492
# Velocity P-wave (km/s) = 5.46108 6.16230 5.82225
#
# Compressibility (1/GPa) = 0.03372757
#
# Stress axis : x y z
#
# Youngs Moduli (GPa) = 79.49109 52.66588 73.89451
#
# Poissons Ratio (x) = 0.01103 0.06136
# Poissons Ratio (y) = 0.01664 0.34337
# Poissons Ratio (z) = 0.06600 0.24473
#
# Static dielectric constant tensor:
#      x y z
#    x 3.881410 -0.000030 -0.149350 
#    y -0.000030 3.814170 0.000090 
#    z -0.149350 0.000090 4.077260 
# 
# 
# High freq. dielectric constant tensor:
#      x y z
#    x 1.834550 0.000000 -0.010440 
#    y 0.000000 1.838760 0.000000 
#    z -0.010440 0.000000 1.854910 
# 
# From -- ./inp_files/53449.got.cif
#   From: 2010.03.12/outbox.cif.g09.slc.cpg/sg5_27_cif.got.tgz:53449.got - 2010.03.31 09:47:26.
