data_PCOD8051304
_publ_section_title
;
Structure prediction by ZEFSAII (Michael W. Deem and Ramdas Pophale) SiO2 
 PCOD8051304
Probable space group: C 2
;
_chemical_formula_sum "Si O2"
_cell_formula_units_Z 24
_cell_length_a 7.230007
_cell_length_b 11.864294
_cell_length_c 17.943303
_cell_angle_alpha 90.000000
_cell_angle_beta 129.969423
_cell_angle_gamma 90.000000
_cell_volume 1179.590721
_symmetry_space_group_name_H-M "C 2"
_symmetry_group_IT_number 5
_symmetry_cell_setting 'monoclinic'
loop_
_space_group_symop_operation_xyz
x,y,z
-x,y,-z
1/2+x,1/2+y,z
1/2-x,1/2+y,-z
loop_
_atom_site_type_symbol
_atom_site_label
_atom_site_fract_x
_atom_site_fract_y
_atom_site_fract_z
Si Si1 0.123874 0.426340 0.163628
Si Si2 0.176602 0.927525 0.336474
Si Si3 0.772575 0.680712 0.585551
Si Si4 0.500000 0.097266 0.500000
Si Si5 0.000000 0.590273 0.000000
Si Si6 0.498040 0.678260 0.086306
Si Si7 0.605433 0.014049 0.751731
O O1 0.400178 0.455997 0.249804
O O2 0.106026 0.301064 0.127549
O O3 0.969718 0.435458 0.199139
O O4 0.015801 0.513245 0.076823
O O5 0.213714 0.805676 0.380209
O O6 0.331209 0.932158 0.300397
O O7 0.272784 0.019737 0.419518
O O8 0.500000 0.643445 0.500000
O O9 0.926104 0.677116 0.549158
O O10 0.882624 0.595404 0.674415
O O11 0.770596 0.671574 0.949756
O O12 0.658926 0.586787 0.169754
O O13 0.500000 0.650419 0.000000
#
# Coordination Sequence:
#
# PCOD8051304 Si02
#       7
#     4   4   4   2   2   4   4
#     4  12  25  42  68  97 131 172 220 270 325 388
#     4  11  23  44  68  99 131 173 220 266 324 390
#     4  11  23  44  69  97 136 173 213 268 326 387
#     4  10  24  44  66  98 136 170 216 266 324 392
#     4  12  26  42  68  94 132 172 216 276 328 384
#     4  12  25  43  66  96 128 172 221 269 330 386
#     4  11  25  43  68  96 133 171 218 272 323 386
#
# _framework density 20.346039000000001
#
# number of rings (size 3 to 8) (size 9 to 14) (size 15 to 20)
#    0.000    0.667    6.667    1.000    0.000    5.333 
#    1.500    0.000    0.000    0.000    0.000    0.000 
#    0.000    0.000    0.000    0.000    0.000    0.000 
#
# Total GULP energy -148894.799185 kJ/mol
# GULP energy per Si atom -12407.899932 kJ/mol
# Density = 2.029973 g / cm^3
# Si number density = 20.346039 Si / 1000 Ang^3
#
#
#
# Elastic Constant Matrix: (Units=GPa)
#
#
# Indices 1 2 3 4 5 6 
#
# 1 97.0070 37.4100 36.4736 0.0000 -2.6911 0.0000
# 2 37.4100 89.8745 37.3998 0.0000 -3.6997 0.0000
# 3 36.4736 37.3998 118.0532 0.0000 8.2160 0.0000
# 4 0.0000 0.0000 0.0000 8.5174 0.0000 2.1502
# 5 -2.6911 -3.6997 8.2160 0.0000 46.2449 0.0000
# 6 0.0000 0.0000 0.0000 2.1502 0.0000 30.3222
#
#
#
# Elastic Compliance Matrix: (Units=1/GPa)
#
#
# Indices 1 2 3 4 5 6 
#
# 1 0.012995 -0.004233 -0.002737 0.000000 0.000904 0.000000
# 2 -0.004233 0.014340 -0.003339 0.000000 0.001494 0.000000
# 3 -0.002737 -0.003339 0.010534 0.000000 -0.002298 0.000000
# 4 0.000000 0.000000 0.000000 0.119547 0.000000 -0.008477
# 5 0.000904 0.001494 -0.002298 0.000000 0.022204 0.000000
# 6 0.000000 0.000000 0.000000 -0.008477 0.000000 0.033580
#
#
# Mechanical properties :
#
#
# Convention : Reuss Voigt Hill
#
# Bulk Modulus (GPa) = 57.96765 58.61129 58.28947
# Shear Modulus (GPa) = 20.87091 29.92699 25.39895
#
# Velocity S-wave (km/s) = 3.20628 3.83939 3.53703
# Velocity P-wave (km/s) = 6.50075 6.96594 6.73736
#
# Compressibility (1/GPa) = 0.01725100
#
# Stress axis : x y z
#
# Youngs Moduli (GPa) = 76.95234 69.73698 94.93031
#
# Poissons Ratio (x) = 0.29520 0.25980
# Poissons Ratio (y) = 0.32575 0.31697
# Poissons Ratio (z) = 0.21060 0.23285
#
# Static dielectric constant tensor:
#      x y z
#    x 3.732890 0.000000 -0.075160 
#    y 0.000000 3.466210 0.000000 
#    z -0.075160 0.000000 4.346870 
# 
# 
# High freq. dielectric constant tensor:
#      x y z
#    x 1.803400 0.000000 -0.000110 
#    y 0.000000 1.789730 0.000000 
#    z -0.000110 0.000000 1.820450 
# 
# From -- ./inp_files/58592.got.cif
#   From: 2010.03.12/outbox.cif.g09.slc.cpg/sg5_30_cif.got.tgz:58592.got - 2010.03.31 09:47:26.
