data_PCOD8051901
_publ_section_title
;
Structure prediction by ZEFSAII (Michael W. Deem and Ramdas Pophale) SiO2 
 PCOD8051901
Probable space group: C 2
;
_chemical_formula_sum "Si O2"
_cell_formula_units_Z 28
_cell_length_a 7.497896
_cell_length_b 12.169117
_cell_length_c 14.790862
_cell_angle_alpha 90.000000
_cell_angle_beta 64.640963
_cell_angle_gamma 90.000000
_cell_volume 1219.518070
_symmetry_space_group_name_H-M "C 2"
_symmetry_group_IT_number 5
_symmetry_cell_setting 'monoclinic'
loop_
_space_group_symop_operation_xyz
x,y,z
-x,y,-z
1/2+x,1/2+y,z
1/2-x,1/2+y,-z
loop_
_atom_site_type_symbol
_atom_site_label
_atom_site_fract_x
_atom_site_fract_y
_atom_site_fract_z
Si Si1 0.513061 0.007890 0.702261
Si Si2 0.471723 0.489670 0.606214
Si Si3 0.076572 0.287485 0.767758
Si Si4 0.930435 0.654292 0.877991
Si Si5 0.600066 0.381948 0.194365
Si Si6 0.681935 0.133816 0.404789
Si Si7 0.696227 0.604245 0.093628
O O1 0.390705 0.087135 0.795664
O O2 0.419089 0.031423 0.625695
O O3 0.465833 0.880513 0.733153
O O4 0.746869 0.034896 0.660255
O O5 0.500000 0.434669 0.500000
O O6 0.505187 0.408913 0.685568
O O7 0.629786 0.589362 0.579150
O O8 0.174102 0.346305 0.833639
O O9 0.251892 0.235235 0.670863
O O10 0.929574 0.195053 0.829419
O O11 0.992872 0.779575 0.840262
O O12 0.101078 0.595663 0.896408
O O13 0.731895 0.641214 0.982081
O O14 0.590893 0.485993 0.128394
O O15 0.500000 0.184491 0.500000
#
# Coordination Sequence:
#
# PCOD8051901 Si02
#       7
#     4   4   4   4   4   4   4
#     4  11  24  46  68 102 147 185 236 301 351 429
#     4  11  23  46  71 102 147 187 233 303 358 418
#     4  11  24  44  69 100 138 185 232 293 353 426
#     4  11  24  44  68 102 139 190 232 296 356 422
#     4  11  24  45  71  97 141 185 229 302 344 427
#     4  12  24  45  71 105 139 187 247 287 366 433
#     4  11  25  43  69 103 141 185 239 287 367 423
#
# _framework density 22.959890000000001
#
# number of rings (size 3 to 8) (size 9 to 14) (size 15 to 20)
#    0.000    0.857    7.143    0.000    4.000    2.857 
#    0.000    0.714    0.000    0.000    0.000    0.000 
#    0.000    0.000    0.000    0.000    0.000    0.000 
#
# Total GULP energy -173528.234348 kJ/mol
# GULP energy per Si atom -12394.873882 kJ/mol
# Density = 2.290763 g / cm^3
# Si number density = 22.959890 Si / 1000 Ang^3
#
#
#
# Elastic Constant Matrix: (Units=GPa)
#
#
# Indices 1 2 3 4 5 6 
#
# 1 48.0060 20.5748 19.3558 0.0000 -3.8838 0.0000
# 2 20.5748 148.2335 59.9905 0.0000 -13.8118 0.0000
# 3 19.3558 59.9905 166.4754 0.0000 -12.9427 0.0000
# 4 0.0000 0.0000 0.0000 21.8892 0.0000 4.8632
# 5 -3.8838 -13.8118 -12.9427 0.0000 27.0234 0.0000
# 6 0.0000 0.0000 0.0000 4.8632 0.0000 28.4942
#
#
#
# Elastic Compliance Matrix: (Units=1/GPa)
#
#
# Indices 1 2 3 4 5 6 
#
# 1 0.022615 -0.002339 -0.001690 0.000000 0.001245 0.000000
# 2 -0.002339 0.008346 -0.002524 0.000000 0.002721 0.000000
# 3 -0.001690 -0.002524 0.007264 0.000000 0.001946 0.000000
# 4 0.000000 0.000000 0.000000 0.047485 0.000000 -0.008104
# 5 0.001245 0.002721 0.001946 0.000000 0.039507 0.000000
# 6 0.000000 0.000000 0.000000 -0.008104 0.000000 0.036478
#
#
# Mechanical properties :
#
#
# Convention : Reuss Voigt Hill
#
# Bulk Modulus (GPa) = 39.80948 62.50632 51.15790
# Shear Modulus (GPa) = 27.29645 33.00094 30.14870
#
# Velocity S-wave (km/s) = 3.45175 3.79533 3.62761
# Velocity P-wave (km/s) = 5.76736 6.81830 6.31473
#
# Compressibility (1/GPa) = 0.02511964
#
# Stress axis : x y z
#
# Youngs Moduli (GPa) = 44.21792 119.82178 137.66157
#
# Poissons Ratio (x) = 0.28028 0.23260
# Poissons Ratio (y) = 0.10343 0.34745
# Poissons Ratio (z) = 0.07471 0.30243
#
# Static dielectric constant tensor:
#      x y z
#    x 3.990730 0.000000 -0.014640 
#    y 0.000000 4.085230 0.000000 
#    z -0.014640 0.000000 4.600170 
# 
# 
# High freq. dielectric constant tensor:
#      x y z
#    x 1.897130 0.000000 -0.001040 
#    y 0.000000 1.902270 0.000000 
#    z -0.001040 0.000000 1.913230 
# 
# From -- ./inp_files/50408.got.cif
#   From: 2010.03.12/outbox.cif.g09.slc.cpg/sg5_26_cif.got.tgz:50408.got - 2010.03.31 09:47:26.
