data_PCOD8051608
_publ_section_title
;
Structure prediction by ZEFSAII (Michael W. Deem and Ramdas Pophale) SiO2 
 PCOD8051608
Probable space group: C 2
;
_chemical_formula_sum "Si O2"
_cell_formula_units_Z 28
_cell_length_a 20.826612
_cell_length_b 9.168873
_cell_length_c 9.580168
_cell_angle_alpha 90.000000
_cell_angle_beta 45.224093
_cell_angle_gamma 90.000000
_cell_volume 1298.627753
_symmetry_space_group_name_H-M "C 2"
_symmetry_group_IT_number 5
_symmetry_cell_setting 'monoclinic'
loop_
_space_group_symop_operation_xyz
x,y,z
-x,y,-z
1/2+x,1/2+y,z
1/2-x,1/2+y,-z
loop_
_atom_site_type_symbol
_atom_site_label
_atom_site_fract_x
_atom_site_fract_y
_atom_site_fract_z
Si Si1 0.443747 0.755210 0.213529
Si Si2 0.649349 0.029470 0.265773
Si Si3 0.781960 0.084594 0.829007
Si Si4 0.935730 0.251908 0.706624
Si Si5 0.914094 0.839273 0.541942
Si Si6 0.769246 0.337437 0.633839
Si Si7 0.416614 0.420117 0.222159
O O1 0.520863 0.751336 0.210561
O O2 0.356170 0.847749 0.396133
O O3 0.409335 0.594464 0.227540
O O4 0.500000 0.827972 0.000000
O O5 0.605014 0.170305 0.401682
O O6 0.573119 0.910302 0.351849
O O7 0.723259 0.964299 0.261348
O O8 0.688675 0.059420 0.051179
O O9 0.840592 0.169400 0.856131
O O10 0.769313 0.179474 0.708360
O O11 0.825717 0.931027 0.719657
O O12 0.000000 0.163085 0.500000
O O13 0.936787 0.861957 0.345411
O O14 0.000000 0.890072 0.500000
O O15 0.677518 0.354025 0.688328
O O16 0.500000 0.364869 0.000000
#
# Coordination Sequence:
#
# PCOD8051608 Si02
#       7
#     4   4   4   4   4   4   4
#     4  11  24  45  74 102 136 195 230 279 355 430
#     4  11  26  40  72 103 144 175 233 298 347 402
#     4  11  23  42  71 101 134 189 232 284 342 422
#     4  11  20  45  69  96 137 179 235 285 335 411
#     4  12  25  42  70 103 138 185 231 285 351 414
#     4  11  25  47  69 106 144 180 239 296 344 419
#     4  11  27  46  72 103 143 188 234 292 352 423
#
# _framework density 21.561221
#
# number of rings (size 3 to 8) (size 9 to 14) (size 15 to 20)
#    0.000    0.857    4.286    3.429   10.000    1.143 
#    0.000    0.714    0.000    0.000    0.000    0.000 
#    0.000    0.000    0.000    0.000    0.000    0.000 
#
# Total GULP energy -173598.115187 kJ/mol
# GULP energy per Si atom -12399.865371 kJ/mol
# Density = 2.151215 g / cm^3
# Si number density = 21.561221 Si / 1000 Ang^3
#
#
#
# Elastic Constant Matrix: (Units=GPa)
#
#
# Indices 1 2 3 4 5 6 
#
# 1 146.7599 10.0443 35.3052 0.0000 6.2921 0.0000
# 2 10.0443 81.0479 8.1314 0.0000 -3.3311 0.0000
# 3 35.3052 8.1314 144.8551 0.0000 11.6173 0.0000
# 4 0.0000 0.0000 0.0000 27.2767 0.0000 -0.1237
# 5 6.2921 -3.3311 11.6173 0.0000 30.6489 0.0000
# 6 0.0000 0.0000 0.0000 -0.1237 0.0000 35.3671
#
#
#
# Elastic Compliance Matrix: (Units=1/GPa)
#
#
# Indices 1 2 3 4 5 6 
#
# 1 0.007308 -0.000778 -0.001661 0.000000 -0.000955 0.000000
# 2 -0.000778 0.012574 -0.000659 0.000000 0.001776 0.000000
# 3 -0.001661 -0.000659 0.007553 0.000000 -0.002594 0.000000
# 4 0.000000 0.000000 0.000000 0.036662 0.000000 0.000128
# 5 -0.000955 0.001776 -0.002594 0.000000 0.034000 0.000000
# 6 0.000000 0.000000 0.000000 0.000128 0.000000 0.028275
#
#
# Mechanical properties :
#
#
# Convention : Reuss Voigt Hill
#
# Bulk Modulus (GPa) = 47.08213 53.29161 50.18687
# Shear Modulus (GPa) = 35.80460 39.93734 37.87097
#
# Velocity S-wave (km/s) = 4.07947 4.30848 4.19554
# Velocity P-wave (km/s) = 6.63877 7.03709 6.84083
#
# Compressibility (1/GPa) = 0.02123948
#
# Stress axis : x y z
#
# Youngs Moduli (GPa) = 136.84400 79.52980 132.39421
#
# Poissons Ratio (x) = 0.06190 0.21987
# Poissons Ratio (y) = 0.10650 0.08719
# Poissons Ratio (z) = 0.22726 0.05238
#
# Static dielectric constant tensor:
#      x y z
#    x 3.868290 0.000000 0.044690 
#    y 0.000000 3.849630 0.000000 
#    z 0.044690 0.000000 4.042860 
# 
# 
# High freq. dielectric constant tensor:
#      x y z
#    x 1.845970 0.000000 -0.001830 
#    y 0.000000 1.842220 0.000000 
#    z -0.001830 0.000000 1.860700 
# 
# From -- ./inp_files/29113.got.cif
#   From: 2010.03.12/outbox.cif.g09.slc.cpg/sg5_15_cif.got.tgz:29113.got - 2010.03.31 09:47:26.
