data_PCOD8051982
_publ_section_title
;
Structure prediction by ZEFSAII (Michael W. Deem and Ramdas Pophale) SiO2 
 PCOD8051982
Probable space group: C 2
;
_chemical_formula_sum "Si O2"
_cell_formula_units_Z 20
_cell_length_a 9.762566
_cell_length_b 10.218735
_cell_length_c 11.405546
_cell_angle_alpha 90.000000
_cell_angle_beta 51.530584
_cell_angle_gamma 90.000000
_cell_volume 890.852636
_symmetry_space_group_name_H-M "C 2"
_symmetry_group_IT_number 5
_symmetry_cell_setting 'monoclinic'
loop_
_space_group_symop_operation_xyz
x,y,z
-x,y,-z
1/2+x,1/2+y,z
1/2-x,1/2+y,-z
loop_
_atom_site_type_symbol
_atom_site_label
_atom_site_fract_x
_atom_site_fract_y
_atom_site_fract_z
Si Si1 0.748295 0.659990 0.690274
Si Si2 0.583265 0.123458 0.636960
Si Si3 0.629143 0.550152 0.115654
Si Si4 0.092122 0.763522 0.072872
Si Si5 0.317413 0.447815 0.663449
O O1 0.781505 0.674928 0.533017
O O2 0.568171 0.588292 0.811797
O O3 0.752558 0.806122 0.742710
O O4 0.902672 0.577047 0.670743
O O5 0.547027 0.242374 0.747409
O O6 0.666567 0.001015 0.659052
O O7 0.668955 0.409786 0.036017
O O8 0.658813 0.544623 0.239451
O O9 0.754168 0.657552 0.991034
O O10 0.000000 0.734583 0.000000
O O11 0.500000 0.432075 0.500000
#
# Coordination Sequence:
#
# PCOD8051982 Si02
#       5
#     4   4   4   4   4
#     4  11  25  46  74 102 139 186 238 300 347 416
#     4  11  24  46  70 104 138 180 239 289 348 416
#     4  12  28  46  73 102 145 193 236 292 354 421
#     4  12  28  46  69 108 145 184 240 293 353 428
#     4  12  22  46  74 104 141 185 242 291 353 415
#
# _framework density 22.450400999999999
#
# number of rings (size 3 to 8) (size 9 to 14) (size 15 to 20)
#    0.000    0.400    8.000    0.000    5.600    0.000 
#    0.000    0.000    0.000    0.000    0.000    0.000 
#    0.000    0.000    0.000    0.000    0.000    0.000 
#
# Total GULP energy -124050.233474 kJ/mol
# GULP energy per Si atom -12405.023347 kJ/mol
# Density = 2.239930 g / cm^3
# Si number density = 22.450401 Si / 1000 Ang^3
#
#
#
# Elastic Constant Matrix: (Units=GPa)
#
#
# Indices 1 2 3 4 5 6 
#
# 1 121.7120 45.9560 14.0044 0.0000 -18.6497 0.0000
# 2 45.9560 137.4575 36.0871 0.0000 -30.7678 0.0000
# 3 14.0044 36.0871 70.6038 0.0000 -7.8258 0.0000
# 4 0.0000 0.0000 0.0000 34.7248 0.0000 -0.9245
# 5 -18.6497 -30.7678 -7.8258 0.0000 29.3459 0.0000
# 6 0.0000 0.0000 0.0000 -0.9245 0.0000 43.2443
#
#
#
# Elastic Compliance Matrix: (Units=1/GPa)
#
#
# Indices 1 2 3 4 5 6 
#
# 1 0.009693 -0.002347 -0.000322 0.000000 0.003613 0.000000
# 2 -0.002347 0.011223 -0.004258 0.000000 0.009140 0.000000
# 3 -0.000322 -0.004258 0.016370 0.000000 -0.000304 0.000000
# 4 0.000000 0.000000 0.000000 0.028814 0.000000 0.000616
# 5 0.003613 0.009140 -0.000304 0.000000 0.045874 0.000000
# 6 0.000000 0.000000 0.000000 0.000616 0.000000 0.023138
#
#
# Mechanical properties :
#
#
# Convention : Reuss Voigt Hill
#
# Bulk Modulus (GPa) = 42.67754 57.98537 50.33145
# Shear Modulus (GPa) = 31.89213 37.04474 34.46844
#
# Velocity S-wave (km/s) = 3.77312 4.06651 3.92256
# Velocity P-wave (km/s) = 6.16708 6.92336 6.55614
#
# Compressibility (1/GPa) = 0.02343153
#
# Stress axis : x y z
#
# Youngs Moduli (GPa) = 103.16580 89.09938 61.08696
#
# Poissons Ratio (x) = 0.20914 0.01970
# Poissons Ratio (y) = 0.24216 0.26010
# Poissons Ratio (z) = 0.03326 0.37937
#
# Static dielectric constant tensor:
#      x y z
#    x 4.272750 0.000000 0.188220 
#    y 0.000000 3.846610 0.000000 
#    z 0.188220 0.000000 4.087090 
# 
# 
# High freq. dielectric constant tensor:
#      x y z
#    x 1.902660 0.000000 0.015120 
#    y 0.000000 1.870440 0.000000 
#    z 0.015120 0.000000 1.887120 
# 
# From -- ./inp_files/14216.got.cif
#   From: 2010.03.12/outbox.cif.g09.slc.cpg/sg5_8_cif.got.tgz:14216.got - 2010.03.31 09:47:26.
