data_PCOD8051603
_publ_section_title
;
Structure prediction by ZEFSAII (Michael W. Deem and Ramdas Pophale) SiO2 
 PCOD8051603
Probable space group: C 2
;
_chemical_formula_sum "Si O2"
_cell_formula_units_Z 28
_cell_length_a 20.881011
_cell_length_b 12.335452
_cell_length_c 17.733843
_cell_angle_alpha 90.000000
_cell_angle_beta 162.833625
_cell_angle_gamma 90.000000
_cell_volume 1348.181546
_symmetry_space_group_name_H-M "C 2"
_symmetry_group_IT_number 5
_symmetry_cell_setting 'monoclinic'
loop_
_space_group_symop_operation_xyz
x,y,z
-x,y,-z
1/2+x,1/2+y,z
1/2-x,1/2+y,-z
loop_
_atom_site_type_symbol
_atom_site_label
_atom_site_fract_x
_atom_site_fract_y
_atom_site_fract_z
Si Si1 0.899897 0.446150 0.058203
Si Si2 0.440820 0.250883 0.346821
Si Si3 0.961660 0.647268 0.043498
Si Si4 0.214366 0.532703 0.909844
Si Si5 0.587321 0.666193 0.368412
Si Si6 0.742915 0.303698 0.076424
Si Si7 0.793656 0.810087 0.482938
O O1 0.898741 0.507271 0.137355
O O2 0.839788 0.534401 0.926013
O O3 0.153001 0.418532 0.331301
O O4 0.743254 0.342652 0.872960
O O5 0.500000 0.232083 0.500000
O O6 0.375119 0.137666 0.233719
O O7 0.664263 0.287472 0.558169
O O8 0.198332 0.644580 0.344616
O O9 0.000000 0.667738 0.000000
O O10 0.810570 0.743472 0.905825
O O11 0.185326 0.427160 0.823960
O O12 0.466121 0.553738 0.214324
O O13 0.429018 0.745361 0.237742
O O14 0.646686 0.717118 0.354752
O O15 0.529094 0.315120 0.785371
#
# Coordination Sequence:
#
# PCOD8051603 Si02
#       7
#     4   4   4   4   4   4   4
#     4  12  24  43  74  97 134 186 234 285 340 416
#     4  12  28  45  66 108 149 175 228 299 359 399
#     4  11  27  42  64 105 138 175 230 284 350 405
#     4  12  20  47  70  99 132 184 232 277 343 416
#     4  11  21  43  69  97 130 180 234 278 328 417
#     4  11  22  42  70  99 133 178 233 283 337 410
#     4  11  20  43  69  98 129 177 235 280 333 422
#
# _framework density 20.768715
#
# number of rings (size 3 to 8) (size 9 to 14) (size 15 to 20)
#    0.000    0.571    7.143    1.714    2.000    0.571 
#    2.571    0.000    0.000    0.000    0.000    0.000 
#    0.000    0.000    0.000    0.000    0.000    0.000 
#
# Total GULP energy -173507.702515 kJ/mol
# GULP energy per Si atom -12393.407323 kJ/mol
# Density = 2.072144 g / cm^3
# Si number density = 20.768715 Si / 1000 Ang^3
#
#
#
# Elastic Constant Matrix: (Units=GPa)
#
#
# Indices 1 2 3 4 5 6 
#
# 1 174.1230 61.6961 40.5672 -0.0099 6.5614 -0.0059
# 2 61.6961 130.7238 27.3362 -0.0275 8.7481 -0.0155
# 3 40.5672 27.3362 56.9382 0.0063 15.8399 0.0018
# 4 -0.0099 -0.0275 0.0063 20.6977 0.0017 8.1930
# 5 6.5614 8.7481 15.8399 0.0017 33.8568 0.0036
# 6 -0.0059 -0.0155 0.0018 8.1930 0.0036 36.0113
#
#
#
# Elastic Compliance Matrix: (Units=1/GPa)
#
#
# Indices 1 2 3 4 5 6 
#
# 1 0.007742 -0.002793 -0.004551 0.000001 0.001350 0.000000
# 2 -0.002793 0.009514 -0.002351 0.000012 -0.000817 0.000001
# 3 -0.004551 -0.002351 0.024739 -0.000012 -0.010085 0.000001
# 4 0.000001 0.000012 -0.000012 0.053096 0.000001 -0.012080
# 5 0.001350 -0.000817 -0.010085 0.000001 0.034204 -0.000003
# 6 0.000000 0.000001 0.000001 -0.012080 -0.000003 0.030517
#
#
# Mechanical properties :
#
#
# Convention : Reuss Voigt Hill
#
# Bulk Modulus (GPa) = 44.23389 68.99823 56.61606
# Shear Modulus (GPa) = 26.77562 33.59219 30.18391
#
# Velocity S-wave (km/s) = 3.59448 4.02611 3.81640
# Velocity P-wave (km/s) = 6.21060 7.40993 6.83662
#
# Compressibility (1/GPa) = 0.02260710
#
# Stress axis : x y z
#
# Youngs Moduli (GPa) = 129.16682 105.10891 40.42132
#
# Poissons Ratio (x) = 0.29352 0.18395
# Poissons Ratio (y) = 0.36071 0.09502
# Poissons Ratio (z) = 0.58782 0.24707
#
# Static dielectric constant tensor:
#      x y z
#    x 3.956960 -0.000030 0.363470 
#    y -0.000030 4.198760 -0.000080 
#    z 0.363470 -0.000080 3.934020 
# 
# 
# High freq. dielectric constant tensor:
#      x y z
#    x 1.813870 0.000000 0.031520 
#    y 0.000000 1.832200 0.000000 
#    z 0.031520 0.000000 1.798780 
# 
# From -- ./inp_files/62920.got.cif
#   From: 2010.03.12/outbox.cif.g09.slc.cpg/sg5_32_cif.got.tgz:62920.got - 2010.03.31 09:47:26.
