data_PCOD8051050
_publ_section_title
;
Structure prediction by ZEFSAII (Michael W. Deem and Ramdas Pophale) SiO2 
 PCOD8051050
Probable space group: C 2
;
_chemical_formula_sum "Si O2"
_cell_formula_units_Z 24
_cell_length_a 28.507087
_cell_length_b 5.214801
_cell_length_c 7.609538
_cell_angle_alpha 90.000000
_cell_angle_beta 109.546210
_cell_angle_gamma 90.000000
_cell_volume 1066.034423
_symmetry_space_group_name_H-M "C 2"
_symmetry_group_IT_number 5
_symmetry_cell_setting 'monoclinic'
loop_
_space_group_symop_operation_xyz
x,y,z
-x,y,-z
1/2+x,1/2+y,z
1/2-x,1/2+y,-z
loop_
_atom_site_type_symbol
_atom_site_label
_atom_site_fract_x
_atom_site_fract_y
_atom_site_fract_z
Si Si1 0.234281 0.098770 0.562559
Si Si2 0.381998 0.087689 0.240792
Si Si3 0.725471 0.015826 0.033161
Si Si4 0.976626 0.142234 0.774610
Si Si5 0.480394 0.142261 0.176273
Si Si6 0.121120 0.088153 0.531370
O O1 0.254408 0.391670 0.576423
O O2 0.175765 0.106396 0.521190
O O3 0.267065 0.958754 0.753124
O O4 0.328845 0.113901 0.082667
O O5 0.421264 0.112555 0.129230
O O6 0.387769 0.315282 0.387814
O O7 0.388709 0.814805 0.342825
O O8 0.764297 0.247661 0.049749
O O9 0.992382 0.403313 0.695495
O O10 0.916889 0.112780 0.682469
O O11 0.002147 0.903175 0.706674
O O12 0.000000 0.164096 0.000000
O O13 0.500000 0.164343 0.000000
#
# Coordination Sequence:
#
# PCOD8051050 Si02
#       6
#     4   4   4   4   4   4
#     4  12  26  43  69 104 142 182 234 294 347 409
#     4  12  24  42  73 100 135 188 227 283 355 411
#     4  12  23  46  72 100 143 183 234 290 346 424
#     4  10  23  42  65  91 139 176 225 286 341 404
#     4  10  23  42  65  97 135 173 230 282 342 411
#     4  12  25  43  68 100 138 182 236 279 350 422
#
# _framework density 22.513345000000001
#
# number of rings (size 3 to 8) (size 9 to 14) (size 15 to 20)
#    0.000    0.667    3.333    4.000    0.000    9.333 
#    0.000    0.000    0.000    0.000    0.000    0.000 
#    0.000    0.000    0.000    0.000    0.000    0.000 
#
# Total GULP energy -148706.673698 kJ/mol
# GULP energy per Si atom -12392.222808 kJ/mol
# Density = 2.246210 g / cm^3
# Si number density = 22.513345 Si / 1000 Ang^3
#
#
#
# Elastic Constant Matrix: (Units=GPa)
#
#
# Indices 1 2 3 4 5 6 
#
# 1 115.8463 12.4213 22.0758 0.0000 3.9693 0.0000
# 2 12.4213 160.2454 -15.9580 0.0000 -0.5983 0.0000
# 3 22.0758 -15.9580 81.6441 0.0000 30.4388 0.0000
# 4 0.0000 0.0000 0.0000 16.1409 0.0000 7.8732
# 5 3.9693 -0.5983 30.4388 0.0000 37.1406 0.0000
# 6 0.0000 0.0000 0.0000 7.8732 0.0000 31.4720
#
#
#
# Elastic Compliance Matrix: (Units=1/GPa)
#
#
# Indices 1 2 3 4 5 6 
#
# 1 0.009330 -0.001054 -0.003385 0.000000 0.001760 0.000000
# 2 -0.001054 0.006529 0.002131 0.000000 -0.001529 0.000000
# 3 -0.003385 0.002131 0.019342 0.000000 -0.015456 0.000000
# 4 0.000000 0.000000 0.000000 0.070565 0.000000 -0.017653
# 5 0.001760 -0.001529 -0.015456 0.000000 0.039379 0.000000
# 6 0.000000 0.000000 0.000000 -0.017653 0.000000 0.036190
#
#
# Mechanical properties :
#
#
# Convention : Reuss Voigt Hill
#
# Bulk Modulus (GPa) = 32.69517 43.86822 38.28169
# Shear Modulus (GPa) = 25.49119 39.56380 32.52750
#
# Velocity S-wave (km/s) = 3.36857 4.19662 3.80519
# Velocity P-wave (km/s) = 5.44829 6.55819 6.02884
#
# Compressibility (1/GPa) = 0.03058556
#
# Stress axis : x y z
#
# Youngs Moduli (GPa) = 107.18328 153.17223 51.69989
#
# Poissons Ratio (x) = 0.16140 0.17499
# Poissons Ratio (y) = 0.11294 -0.11017
# Poissons Ratio (z) = 0.36279 -0.32639
#
# Static dielectric constant tensor:
#      x y z
#    x 4.013040 0.000000 0.153010 
#    y 0.000000 5.410330 0.000000 
#    z 0.153010 0.000000 3.875530 
# 
# 
# High freq. dielectric constant tensor:
#      x y z
#    x 1.882680 0.000000 0.016460 
#    y 0.000000 1.926920 0.000000 
#    z 0.016460 0.000000 1.876770 
# 
# From -- ./inp_files/30335.got.cif
#   From: 2010.03.12/outbox.cif.g09.slc.cpg/sg5_16_cif.got.tgz:30335.got - 2010.03.31 09:47:26.
