data_PCOD8051685
_publ_section_title
;
Structure prediction by ZEFSAII (Michael W. Deem and Ramdas Pophale) SiO2 
 PCOD8051685
Probable space group: C 2
;
_chemical_formula_sum "Si O2"
_cell_formula_units_Z 32
_cell_length_a 25.929139
_cell_length_b 13.584969
_cell_length_c 9.430464
_cell_angle_alpha 90.000000
_cell_angle_beta 152.410165
_cell_angle_gamma 90.000000
_cell_volume 1538.476897
_symmetry_space_group_name_H-M "C 2"
_symmetry_group_IT_number 5
_symmetry_cell_setting 'monoclinic'
loop_
_space_group_symop_operation_xyz
x,y,z
-x,y,-z
1/2+x,1/2+y,z
1/2-x,1/2+y,-z
loop_
_atom_site_type_symbol
_atom_site_label
_atom_site_fract_x
_atom_site_fract_y
_atom_site_fract_z
Si Si1 0.296240 0.689480 0.509641
Si Si2 0.917966 0.501652 0.179203
Si Si3 0.737593 0.646513 0.875330
Si Si4 0.041413 0.653524 0.944243
Si Si5 0.280009 0.846838 0.679008
Si Si6 0.442232 0.488997 0.505404
Si Si7 0.354029 0.285619 0.388761
Si Si8 0.403549 0.489980 0.862415
O O1 0.301174 0.713233 0.353511
O O2 0.344857 0.778665 0.722841
O O3 0.368809 0.592799 0.709105
O O4 0.171481 0.675914 0.263886
O O5 0.985068 0.561545 0.222732
O O6 0.000000 0.462928 0.500000
O O7 0.824657 0.569333 0.023183
O O8 0.868901 0.406213 0.985765
O O9 0.633822 0.586728 0.688591
O O10 0.791064 0.717727 0.121485
O O11 0.978069 0.746746 0.722083
O O12 0.000000 0.626575 0.000000
O O13 0.211987 0.780477 0.624636
O O14 0.200861 0.917271 0.392856
O O15 0.500000 0.463585 0.500000
O O16 0.363857 0.397778 0.359660
O O17 0.547732 0.506465 0.863818
O O18 0.500000 0.442323 0.000000
#
# Coordination Sequence:
#
# PCOD8051685 Si02
#       8
#     4   4   4   4   4   4   4   4
#     4  11  24  41  70  99 132 175 223 274 348 395
#     4  11  22  46  67  92 143 181 208 274 353 396
#     4  11  24  47  64  99 142 172 220 289 336 402
#     4  11  22  38  67 101 129 166 225 280 330 396
#     4  12  24  44  71 102 128 182 231 276 339 409
#     4  12  28  43  69 103 134 183 231 282 346 399
#     4  12  24  41  69 101 134 173 235 278 333 408
#     4  12  22  48  71  92 142 178 226 294 337 397
#
# _framework density 20.799792
#
# number of rings (size 3 to 8) (size 9 to 14) (size 15 to 20)
#    0.000    0.500    8.750    0.750    7.000    0.000 
#    2.250    1.875    0.000    0.000    0.000    0.000 
#    0.000    0.000    0.000    0.000    0.000    0.000 
#
# Total GULP energy -198428.890392 kJ/mol
# GULP energy per Si atom -12401.805649 kJ/mol
# Density = 2.075245 g / cm^3
# Si number density = 20.799792 Si / 1000 Ang^3
#
#
#
# Elastic Constant Matrix: (Units=GPa)
#
#
# Indices 1 2 3 4 5 6 
#
# 1 71.0659 17.7743 28.6178 0.0000 -13.3106 0.0000
# 2 17.7743 76.5630 32.4921 0.0000 -9.2780 0.0000
# 3 28.6178 32.4921 94.3123 0.0000 -30.0058 0.0000
# 4 0.0000 0.0000 0.0000 31.4241 0.0000 -8.5870
# 5 -13.3106 -9.2780 -30.0058 0.0000 29.8402 0.0000
# 6 0.0000 0.0000 0.0000 -8.5870 0.0000 39.1899
#
#
#
# Elastic Compliance Matrix: (Units=1/GPa)
#
#
# Indices 1 2 3 4 5 6 
#
# 1 0.016530 -0.002059 -0.003182 0.000000 0.003533 0.000000
# 2 -0.002059 0.015567 -0.005133 0.000000 -0.001239 0.000000
# 3 -0.003182 -0.005133 0.018200 0.000000 0.015286 0.000000
# 4 0.000000 0.000000 0.000000 0.033849 0.000000 0.007417
# 5 0.003533 -0.001239 0.015286 0.000000 0.050073 0.000000
# 6 0.000000 0.000000 0.000000 0.007417 0.000000 0.027142
#
#
# Mechanical properties :
#
#
# Convention : Reuss Voigt Hill
#
# Bulk Modulus (GPa) = 33.84159 44.41218 39.12688
# Shear Modulus (GPa) = 26.04724 30.96132 28.50428
#
# Velocity S-wave (km/s) = 3.54260 3.86235 3.70592
# Velocity P-wave (km/s) = 5.74794 6.42564 6.09622
#
# Compressibility (1/GPa) = 0.02954944
#
# Stress axis : x y z
#
# Youngs Moduli (GPa) = 60.49740 64.23790 54.94423
#
# Poissons Ratio (x) = 0.13225 0.17485
# Poissons Ratio (y) = 0.12455 0.28201
# Poissons Ratio (z) = 0.19252 0.32972
#
# Static dielectric constant tensor:
#      x y z
#    x 3.937710 0.000000 -0.301080 
#    y 0.000000 3.747890 0.000000 
#    z -0.301080 0.000000 4.066960 
# 
# 
# High freq. dielectric constant tensor:
#      x y z
#    x 1.814250 0.000000 -0.017700 
#    y 0.000000 1.807290 0.000000 
#    z -0.017700 0.000000 1.822070 
# 
# From -- ./inp_files/31079.got.cif
#   From: 2010.03.12/outbox.cif.g09.slc.cpg/sg5_16_cif.got.tgz:31079.got - 2010.03.31 09:47:26.
