data_PCOD8051715
_publ_section_title
;
Structure prediction by ZEFSAII (Michael W. Deem and Ramdas Pophale) SiO2 
 PCOD8051715
Probable space group: C 2
;
_chemical_formula_sum "Si O2"
_cell_formula_units_Z 30
_cell_length_a 8.825458
_cell_length_b 13.092507
_cell_length_c 12.502960
_cell_angle_alpha 90.000000
_cell_angle_beta 71.339230
_cell_angle_gamma 90.000000
_cell_volume 1368.736496
_symmetry_space_group_name_H-M "C 2"
_symmetry_group_IT_number 5
_symmetry_cell_setting 'monoclinic'
loop_
_space_group_symop_operation_xyz
x,y,z
-x,y,-z
1/2+x,1/2+y,z
1/2-x,1/2+y,-z
loop_
_atom_site_type_symbol
_atom_site_label
_atom_site_fract_x
_atom_site_fract_y
_atom_site_fract_z
Si Si1 0.027113 0.541960 0.612554
Si Si2 0.635719 0.907518 0.176215
Si Si3 0.500000 0.013432 0.000000
Si Si4 0.987711 0.846884 0.117967
Si Si5 0.337663 0.538056 0.855726
Si Si6 0.970056 0.225791 0.126002
Si Si7 0.637094 0.469981 0.383514
Si Si8 0.617766 0.249820 0.286056
O O1 0.209989 0.521713 0.598354
O O2 0.000000 0.500690 0.500000
O O3 0.923300 0.475651 0.714737
O O4 0.968612 0.659960 0.629242
O O5 0.823079 0.907725 0.154689
O O6 0.558660 0.794363 0.195890
O O7 0.581634 0.950206 0.075098
O O8 0.650900 0.073393 0.912194
O O9 0.996521 0.769256 0.214528
O O10 0.134930 0.926720 0.097209
O O11 0.000000 0.789260 0.000000
O O12 0.451949 0.615004 0.890584
O O13 0.390905 0.531374 0.719957
O O14 0.784140 0.215180 0.195874
O O15 0.000000 0.270670 0.000000
O O16 0.500000 0.490352 0.500000
O O17 0.648326 0.348544 0.354706
#
# Coordination Sequence:
#
# PCOD8051715 Si02
#       8
#     4   4   2   4   4   4   4   4
#     4  12  28  49  74 103 138 196 244 304 361 434
#     4  12  24  45  71 101 146 183 244 293 371 434
#     4  12  22  46  68 102 148 194 230 312 358 436
#     4  11  22  41  70 107 140 190 231 297 363 451
#     4  11  25  43  71 103 149 189 243 297 373 435
#     4  12  25  43  68 109 148 191 229 304 368 449
#     4  11  26  51  74 102 144 194 244 308 360 430
#     4  11  26  49  73 104 147 186 247 301 374 430
#
# _framework density 21.918023000000002
#
# number of rings (size 3 to 8) (size 9 to 14) (size 15 to 20)
#    0.000    0.533    4.667    3.200    9.333    0.000 
#    2.400    0.667    0.000    0.000    0.000    0.000 
#    0.000    0.000    0.000    0.000    0.000    0.000 
#
# Total GULP energy -185935.765612 kJ/mol
# GULP energy per Si atom -12395.717707 kJ/mol
# Density = 2.186814 g / cm^3
# Si number density = 21.918023 Si / 1000 Ang^3
#
#
#
# Elastic Constant Matrix: (Units=GPa)
#
#
# Indices 1 2 3 4 5 6 
#
# 1 141.2368 24.1149 63.0266 0.0000 -12.4024 0.0000
# 2 24.1149 72.4382 33.6679 0.0000 0.3819 0.0000
# 3 63.0266 33.6679 138.4119 0.0000 -11.7189 0.0000
# 4 0.0000 0.0000 0.0000 26.5763 0.0000 2.8310
# 5 -12.4024 0.3819 -11.7189 0.0000 44.7556 0.0000
# 6 0.0000 0.0000 0.0000 2.8310 0.0000 34.1734
#
#
#
# Elastic Compliance Matrix: (Units=1/GPa)
#
#
# Indices 1 2 3 4 5 6 
#
# 1 0.009087 -0.001321 -0.003684 0.000000 0.001565 0.000000
# 2 -0.001321 0.015815 -0.003362 0.000000 -0.001381 0.000000
# 3 -0.003684 -0.003362 0.009855 0.000000 0.001588 0.000000
# 4 0.000000 0.000000 0.000000 0.037962 0.000000 -0.003145
# 5 0.001565 -0.001381 0.001588 0.000000 0.023205 0.000000
# 6 0.000000 0.000000 0.000000 -0.003145 0.000000 0.029523
#
#
# Mechanical properties :
#
#
# Convention : Reuss Voigt Hill
#
# Bulk Modulus (GPa) = 55.48844 65.96730 60.72787
# Shear Modulus (GPa) = 33.74064 36.51955 35.13009
#
# Velocity S-wave (km/s) = 3.92778 4.08632 4.00784
# Velocity P-wave (km/s) = 6.77800 7.24063 7.01313
#
# Compressibility (1/GPa) = 0.01802177
#
# Stress axis : x y z
#
# Youngs Moduli (GPa) = 110.04340 63.23247 101.47455
#
# Poissons Ratio (x) = 0.08354 0.37384
# Poissons Ratio (y) = 0.14538 0.34118
# Poissons Ratio (z) = 0.40541 0.21260
#
# Static dielectric constant tensor:
#      x y z
#    x 4.284100 0.000000 0.003660 
#    y 0.000000 3.830490 0.000000 
#    z 0.003660 0.000000 4.198070 
# 
# 
# High freq. dielectric constant tensor:
#      x y z
#    x 1.878670 0.000000 -0.000060 
#    y 0.000000 1.849680 0.000000 
#    z -0.000060 0.000000 1.867310 
# 
# From -- ./inp_files/36367.got.cif
#   From: 2010.03.12/outbox.cif.g09.slc.cpg/sg5_19_cif.got.tgz:36367.got - 2010.03.31 09:47:26.
