data_PCOD8051572
_publ_section_title
;
Structure prediction by ZEFSAII (Michael W. Deem and Ramdas Pophale) SiO2 
 PCOD8051572
Probable space group: C 2
;
_chemical_formula_sum "Si O2"
_cell_formula_units_Z 32
_cell_length_a 18.635698
_cell_length_b 17.135357
_cell_length_c 13.916139
_cell_angle_alpha 90.000000
_cell_angle_beta 21.303700
_cell_angle_gamma 90.000000
_cell_volume 1614.494609
_symmetry_space_group_name_H-M "C 2"
_symmetry_group_IT_number 5
_symmetry_cell_setting 'monoclinic'
loop_
_space_group_symop_operation_xyz
x,y,z
-x,y,-z
1/2+x,1/2+y,z
1/2-x,1/2+y,-z
loop_
_atom_site_type_symbol
_atom_site_label
_atom_site_fract_x
_atom_site_fract_y
_atom_site_fract_z
Si Si1 0.046094 0.176410 0.541132
Si Si2 0.945991 0.295218 0.307290
Si Si3 0.360335 0.222387 0.758539
Si Si4 0.375112 0.210259 0.393251
Si Si5 0.410291 0.089003 0.012494
Si Si6 0.321587 0.573350 0.968897
Si Si7 0.133062 0.066991 0.742959
Si Si8 0.976548 0.474998 0.763866
O O1 0.121999 0.243751 0.516508
O O2 0.000000 0.222951 0.500000
O O3 0.195256 0.112973 0.313631
O O4 0.875384 0.125113 0.806564
O O5 0.754241 0.285491 0.477938
O O6 0.993367 0.383363 0.272908
O O7 0.148558 0.262796 0.010500
O O8 0.500000 0.254158 0.500000
O O9 0.459156 0.240309 0.739188
O O10 0.326216 0.129534 0.787046
O O11 0.473288 0.161179 0.183395
O O12 0.216154 0.154523 0.643629
O O13 0.409444 0.011499 0.948740
O O14 0.500000 0.061806 0.000000
O O15 0.197206 0.496651 0.095349
O O16 0.513802 0.551756 0.791930
O O17 0.312433 0.007884 0.528965
O O18 0.000000 0.050620 0.000000
#
# Coordination Sequence:
#
# PCOD8051572 Si02
#       8
#     4   4   4   4   4   4   4   4
#     4  11  19  39  67  92 118 170 223 255 310 393
#     4  11  25  43  59  97 137 159 212 281 325 368
#     4  11  22  40  66  93 120 169 216 255 321 396
#     4  11  21  39  69  92 124 164 215 271 307 389
#     4  11  19  39  67  92 118 170 223 255 310 393
#     4  11  21  39  69  92 124 164 215 271 307 389
#     4  11  22  40  66  93 120 169 216 255 321 396
#     4  11  25  43  59  97 137 159 212 281 325 368
#
# _framework density 19.820443999999998
#
# number of rings (size 3 to 8) (size 9 to 14) (size 15 to 20)
#    0.000    1.000    7.500    2.250    0.000    1.000 
#    9.000    0.000    0.000    0.000    0.000    0.000 
#    0.000    0.000    0.000    0.000    0.000    0.000 
#
# Total GULP energy -198250.927407 kJ/mol
# GULP energy per Si atom -12390.682963 kJ/mol
# Density = 1.977533 g / cm^3
# Si number density = 19.820444 Si / 1000 Ang^3
#
#
#
# Elastic Constant Matrix: (Units=GPa)
#
#
# Indices 1 2 3 4 5 6 
#
# 1 70.5648 3.0934 25.4536 0.1052 -4.5067 -0.1023
# 2 3.0934 90.7835 18.9567 0.1733 -2.3544 -0.1248
# 3 25.4536 18.9567 94.9369 0.1744 5.2179 -0.1210
# 4 0.1052 0.1733 0.1744 18.5706 -0.0885 -8.4580
# 5 -4.5067 -2.3544 5.2179 -0.0885 40.0803 0.0692
# 6 -0.1023 -0.1248 -0.1210 -8.4580 0.0692 19.9703
#
#
#
# Elastic Compliance Matrix: (Units=1/GPa)
#
#
# Indices 1 2 3 4 5 6 
#
# 1 0.015926 0.000458 -0.004493 -0.000023 0.002402 0.000039
# 2 0.000458 0.011546 -0.002486 -0.000070 0.001053 0.000026
# 3 -0.004493 -0.002486 0.012359 -0.000072 -0.002260 0.000014
# 4 -0.000023 -0.000070 -0.000072 0.066720 0.000101 0.028256
# 5 0.002402 0.001053 -0.002260 0.000101 0.025576 -0.000041
# 6 0.000039 0.000026 0.000014 0.028256 -0.000041 0.062042
#
#
# Mechanical properties :
#
#
# Convention : Reuss Voigt Hill
#
# Bulk Modulus (GPa) = 37.33007 39.03252 38.18129
# Shear Modulus (GPa) = 23.13303 29.64301 26.38802
#
# Velocity S-wave (km/s) = 3.42003 3.87147 3.65273
# Velocity P-wave (km/s) = 5.87116 6.30239 6.09059
#
# Compressibility (1/GPa) = 0.02678805
#
# Stress axis : x y z
#
# Youngs Moduli (GPa) = 62.79203 86.60855 80.91410
#
# Poissons Ratio (x) = -0.03967 0.36357
# Poissons Ratio (y) = -0.02876 0.20116
# Poissons Ratio (z) = 0.28214 0.21531
#
# Static dielectric constant tensor:
#      x y z
#    x 3.594200 0.000080 -0.076670 
#    y 0.000080 3.253490 0.000060 
#    z -0.076670 0.000060 3.763290 
# 
# 
# High freq. dielectric constant tensor:
#      x y z
#    x 1.786810 0.000000 -0.009290 
#    y 0.000000 1.727730 0.000000 
#    z -0.009290 0.000000 1.788680 
# 
# From -- ./inp_files/57166.got.cif
#   From: 2010.03.12/outbox.cif.g09.slc.cpg/sg5_29_cif.got.tgz:57166.got - 2010.03.31 09:47:26.
