data_PCOD8051979
_publ_section_title
;
Structure prediction by ZEFSAII (Michael W. Deem and Ramdas Pophale) SiO2 
 PCOD8051979
Probable space group: C 2
;
_chemical_formula_sum "Si O2"
_cell_formula_units_Z 28
_cell_length_a 15.649109
_cell_length_b 9.881806
_cell_length_c 9.459744
_cell_angle_alpha 90.000000
_cell_angle_beta 55.647728
_cell_angle_gamma 90.000000
_cell_volume 1207.720683
_symmetry_space_group_name_H-M "C 2"
_symmetry_group_IT_number 5
_symmetry_cell_setting 'monoclinic'
loop_
_space_group_symop_operation_xyz
x,y,z
-x,y,-z
1/2+x,1/2+y,z
1/2-x,1/2+y,-z
loop_
_atom_site_type_symbol
_atom_site_label
_atom_site_fract_x
_atom_site_fract_y
_atom_site_fract_z
Si Si1 0.387118 0.621010 0.089649
Si Si2 0.444400 0.334502 0.916975
Si Si3 0.221611 0.023945 0.305475
Si Si4 0.121168 0.309524 0.369494
Si Si5 0.286622 0.039929 0.542600
Si Si6 0.084942 0.789318 0.533181
Si Si7 0.770251 0.334051 0.012884
O O1 0.328123 0.582501 0.291521
O O2 0.500000 0.694083 0.000000
O O3 0.412545 0.487811 0.977205
O O4 0.312662 0.714107 0.068449
O O5 0.539441 0.324013 0.725350
O O6 0.500000 0.262955 0.000000
O O7 0.338232 0.273557 0.950931
O O8 0.146649 0.150181 0.347856
O O9 0.300297 0.062139 0.359624
O O10 0.173847 0.896223 0.428058
O O11 0.263982 0.970693 0.114773
O O12 0.184265 0.388152 0.433408
O O13 0.154343 0.370883 0.186933
O O14 0.000000 0.330813 0.500000
O O15 0.372789 0.138522 0.527659
O O16 0.000000 0.820977 0.500000
#
# Coordination Sequence:
#
# PCOD8051979 Si02
#       7
#     4   4   4   4   4   4   4
#     4  11  24  45  77 106 150 202 258 314 384 458
#     4  11  24  46  75 107 143 202 255 308 383 464
#     4  12  26  46  78 108 151 200 255 312 387 464
#     4  12  30  48  76 112 154 204 260 320 397 458
#     4  12  26  49  73 112 158 198 255 328 384 456
#     4  12  24  46  76 110 148 197 255 314 385 454
#     4  12  26  47  75 111 154 193 264 323 375 456
#
# _framework density 23.184168
#
# number of rings (size 3 to 8) (size 9 to 14) (size 15 to 20)
#    0.000    0.286    4.286    4.286    6.000    0.000 
#    0.000    0.000    0.000    0.000    0.000    0.000 
#    0.000    0.000    0.000    0.000    0.000    0.000 
#
# Total GULP energy -173474.088608 kJ/mol
# GULP energy per Si atom -12391.006329 kJ/mol
# Density = 2.313140 g / cm^3
# Si number density = 23.184168 Si / 1000 Ang^3
#
#
#
# Elastic Constant Matrix: (Units=GPa)
#
#
# Indices 1 2 3 4 5 6 
#
# 1 135.5649 28.8926 45.9436 0.0000 11.3932 0.0000
# 2 28.8926 73.5285 37.5044 0.0000 -4.4450 0.0000
# 3 45.9436 37.5044 149.5033 0.0000 14.5050 0.0000
# 4 0.0000 0.0000 0.0000 39.2221 0.0000 0.1158
# 5 11.3932 -4.4450 14.5050 0.0000 34.4368 0.0000
# 6 0.0000 0.0000 0.0000 0.1158 0.0000 36.9501
#
#
#
# Elastic Compliance Matrix: (Units=1/GPa)
#
#
# Indices 1 2 3 4 5 6 
#
# 1 0.008761 -0.002688 -0.001776 0.000000 -0.002498 0.000000
# 2 -0.002688 0.016917 -0.003874 0.000000 0.004705 0.000000
# 3 -0.001776 -0.003874 0.008547 0.000000 -0.003513 0.000000
# 4 0.000000 0.000000 0.000000 0.025496 0.000000 -0.000080
# 5 -0.002498 0.004705 -0.003513 0.000000 0.031952 0.000000
# 6 0.000000 0.000000 0.000000 -0.000080 0.000000 0.027064
#
#
# Mechanical properties :
#
#
# Convention : Reuss Voigt Hill
#
# Bulk Modulus (GPa) = 56.98165 64.80865 60.89515
# Shear Modulus (GPa) = 35.39512 38.53888 36.96700
#
# Velocity S-wave (km/s) = 3.91153 4.08155 3.99744
# Velocity P-wave (km/s) = 6.71054 7.08707 6.90137
#
# Compressibility (1/GPa) = 0.01754951
#
# Stress axis : x y z
#
# Youngs Moduli (GPa) = 114.14071 59.11261 116.99719
#
# Poissons Ratio (x) = 0.15889 0.20776
# Poissons Ratio (y) = 0.30679 0.45327
# Poissons Ratio (z) = 0.20269 0.22901
#
# Static dielectric constant tensor:
#      x y z
#    x 4.625740 0.000000 -0.245740 
#    y 0.000000 4.145920 0.000000 
#    z -0.245740 0.000000 4.540700 
# 
# 
# High freq. dielectric constant tensor:
#      x y z
#    x 1.925400 0.000000 0.010380 
#    y 0.000000 1.910230 0.000000 
#    z 0.010380 0.000000 1.930090 
# 
# From -- ./inp_files/23762.got.cif
#   From: 2010.03.12/outbox.cif.g09.slc.cpg/sg5_12_cif.got.tgz:23762.got - 2010.03.31 09:47:26.
