data_PCOD8051063
_publ_section_title
;
Structure prediction by ZEFSAII (Michael W. Deem and Ramdas Pophale) SiO2 
 PCOD8051063
Probable space group: C 2
;
_chemical_formula_sum "Si O2"
_cell_formula_units_Z 32
_cell_length_a 26.698150
_cell_length_b 14.315486
_cell_length_c 10.166520
_cell_angle_alpha 90.000000
_cell_angle_beta 23.178094
_cell_angle_gamma 90.000000
_cell_volume 1529.340377
_symmetry_space_group_name_H-M "C 2"
_symmetry_group_IT_number 5
_symmetry_cell_setting 'monoclinic'
loop_
_space_group_symop_operation_xyz
x,y,z
-x,y,-z
1/2+x,1/2+y,z
1/2-x,1/2+y,-z
loop_
_atom_site_type_symbol
_atom_site_label
_atom_site_fract_x
_atom_site_fract_y
_atom_site_fract_z
Si Si1 0.102764 0.554100 0.639468
Si Si2 0.171769 0.851779 0.280569
Si Si3 0.539100 0.509592 0.761107
Si Si4 0.709607 0.685965 0.401083
Si Si5 0.342704 0.873112 0.622085
Si Si6 0.426252 0.806080 0.803300
Si Si7 0.334442 0.648716 0.199190
Si Si8 0.502014 0.168846 0.646870
O O1 0.173809 0.455649 0.443604
O O2 0.197462 0.632703 0.465236
O O3 0.047829 0.586214 0.631562
O O4 0.000000 0.537608 0.000000
O O5 0.094587 0.756823 0.444042
O O6 0.077152 0.927773 0.569788
O O7 0.228580 0.882636 0.002992
O O8 0.286076 0.843824 0.109576
O O9 0.651088 0.587715 0.492160
O O10 0.500000 0.470547 0.000000
O O11 0.408567 0.551269 0.020727
O O12 0.654628 0.772287 0.452588
O O13 0.673737 0.696680 0.639272
O O14 0.860051 0.692787 0.028896
O O15 0.482514 0.885135 0.352392
O O16 0.500000 0.766042 0.500000
O O17 0.418839 0.718342 0.913906
O O18 0.500000 0.134952 0.500000
#
# Coordination Sequence:
#
# PCOD8051063 Si02
#       8
#     4   4   4   4   4   4   4   4
#     4  12  28  45  67 106 138 180 228 280 338 407
#     4  11  25  44  68 103 133 178 224 277 343 406
#     4  10  25  42  69 101 135 177 227 278 340 400
#     4  11  24  45  68  98 136 180 227 280 342 397
#     4  11  26  43  70 101 135 177 229 278 340 401
#     4  10  23  42  67  97 133 175 224 277 337 400
#     4  11  23  45  69  96 134 179 228 277 333 400
#     4  12  26  45  71  97 142 181 222 282 345 403
#
# _framework density 20.924054999999999
#
# number of rings (size 3 to 8) (size 9 to 14) (size 15 to 20)
#    0.000    1.000    5.000    0.000    7.000    3.000 
#    0.000    0.000    0.000    0.000    0.000    0.000 
#    0.000    0.000    0.000    0.000    0.000    0.000 
#
# Total GULP energy -198376.957273 kJ/mol
# GULP energy per Si atom -12398.559830 kJ/mol
# Density = 2.087643 g / cm^3
# Si number density = 20.924055 Si / 1000 Ang^3
#
#
#
# Elastic Constant Matrix: (Units=GPa)
#
#
# Indices 1 2 3 4 5 6 
#
# 1 95.7437 29.4916 38.0198 0.0000 16.3920 0.0000
# 2 29.4916 79.3234 41.7700 0.0000 27.5589 0.0000
# 3 38.0198 41.7700 122.2557 0.0000 12.2476 0.0000
# 4 0.0000 0.0000 0.0000 12.0231 0.0000 1.2063
# 5 16.3920 27.5589 12.2476 0.0000 43.1579 0.0000
# 6 0.0000 0.0000 0.0000 1.2063 0.0000 17.2784
#
#
#
# Elastic Compliance Matrix: (Units=1/GPa)
#
#
# Indices 1 2 3 4 5 6 
#
# 1 0.012753 -0.002326 -0.002918 0.000000 -0.002531 0.000000
# 2 -0.002326 0.019647 -0.004962 0.000000 -0.010254 0.000000
# 3 -0.002918 -0.004962 0.010657 0.000000 0.001253 0.000000
# 4 0.000000 0.000000 0.000000 0.083760 0.000000 -0.005848
# 5 -0.002531 -0.010254 0.001253 0.000000 0.030324 0.000000
# 6 0.000000 0.000000 0.000000 -0.005848 0.000000 0.058284
#
#
# Mechanical properties :
#
#
# Convention : Reuss Voigt Hill
#
# Bulk Modulus (GPa) = 44.15931 57.32062 50.73996
# Shear Modulus (GPa) = 20.54363 27.02798 23.78580
#
# Velocity S-wave (km/s) = 3.13680 3.59795 3.37526
# Velocity P-wave (km/s) = 5.85403 6.68688 6.28427
#
# Compressibility (1/GPa) = 0.02264528
#
# Stress axis : x y z
#
# Youngs Moduli (GPa) = 78.41382 50.89918 93.83664
#
# Poissons Ratio (x) = 0.11838 0.27380
# Poissons Ratio (y) = 0.18237 0.46562
# Poissons Ratio (z) = 0.22880 0.25256
#
# Static dielectric constant tensor:
#      x y z
#    x 4.166240 0.000000 -0.036690 
#    y 0.000000 3.534820 0.000000 
#    z -0.036690 0.000000 4.065860 
# 
# 
# High freq. dielectric constant tensor:
#      x y z
#    x 1.832630 0.000000 -0.000620 
#    y 0.000000 1.806210 0.000000 
#    z -0.000620 0.000000 1.837250 
# 
# From -- ./inp_files/31068.got.cif
#   From: 2010.03.12/outbox.cif.g09.slc.cpg/sg5_16_cif.got.tgz:31068.got - 2010.03.31 09:47:26.
