data_PCOD8051782
_publ_section_title
;
Structure prediction by ZEFSAII (Michael W. Deem and Ramdas Pophale) SiO2 
 PCOD8051782
Probable space group: C 2
;
_chemical_formula_sum "Si O2"
_cell_formula_units_Z 24
_cell_length_a 9.318482
_cell_length_b 18.054840
_cell_length_c 9.564969
_cell_angle_alpha 90.000000
_cell_angle_beta 44.805474
_cell_angle_gamma 90.000000
_cell_volume 1134.038724
_symmetry_space_group_name_H-M "C 2"
_symmetry_group_IT_number 5
_symmetry_cell_setting 'monoclinic'
loop_
_space_group_symop_operation_xyz
x,y,z
-x,y,-z
1/2+x,1/2+y,z
1/2-x,1/2+y,-z
loop_
_atom_site_type_symbol
_atom_site_label
_atom_site_fract_x
_atom_site_fract_y
_atom_site_fract_z
Si Si1 0.514837 0.362670 0.644546
Si Si2 0.152585 0.106747 0.521062
Si Si3 0.075123 0.600609 0.102384
Si Si4 0.310387 0.746348 0.032150
Si Si5 0.577031 0.776869 0.598436
Si Si6 0.053180 0.003812 0.125069
O O1 0.500000 0.397936 0.500000
O O2 0.740582 0.331388 0.495881
O O3 0.480398 0.424007 0.784878
O O4 0.348782 0.298377 0.778557
O O5 0.380433 0.081737 0.330017
O O6 0.154955 0.193163 0.551832
O O7 0.000000 0.086962 0.500000
O O8 0.091663 0.064263 0.703086
O O9 0.202605 0.669583 0.070582
O O10 0.212896 0.527199 0.011304
O O11 0.000000 0.621215 0.000000
O O12 0.391714 0.786975 0.835945
O O13 0.500000 0.728058 0.000000
O O14 0.500000 0.798680 0.500000
O O15 0.000000 0.999324 0.000000
#
# Coordination Sequence:
#
# PCOD8051782 Si02
#       6
#     4   4   4   4   4   4
#     4  12  28  48  71 102 144 193 233 292 359 423
#     4  11  22  46  75 107 137 184 237 289 354 425
#     4  12  24  44  79 106 142 190 233 293 356 420
#     4  12  25  45  74 110 139 181 243 293 351 415
#     4  11  24  44  76 107 141 181 238 296 351 421
#     4  12  29  47  69 108 145 183 240 297 351 424
#
# _framework density 21.1633
#
# number of rings (size 3 to 8) (size 9 to 14) (size 15 to 20)
#    0.000    0.333    6.667    2.000    2.333    2.667 
#    0.000    0.000    0.000    0.000    0.000    0.000 
#    0.000    0.000    0.000    0.000    0.000    0.000 
#
# Total GULP energy -148871.181446 kJ/mol
# GULP energy per Si atom -12405.931787 kJ/mol
# Density = 2.111513 g / cm^3
# Si number density = 21.163300 Si / 1000 Ang^3
#
#
#
# Elastic Constant Matrix: (Units=GPa)
#
#
# Indices 1 2 3 4 5 6 
#
# 1 125.5225 49.0064 58.3742 0.0002 11.2562 -0.0001
# 2 49.0064 83.0485 32.2489 0.0001 2.3211 -0.0001
# 3 58.3742 32.2489 146.6876 0.0001 -2.8041 0.0000
# 4 0.0002 0.0001 0.0001 164.7870 -0.0002 -61.6561
# 5 11.2562 2.3211 -2.8041 -0.0002 54.5878 0.0001
# 6 -0.0001 -0.0001 0.0000 -61.6561 0.0001 60.9355
#
#
#
# Elastic Compliance Matrix: (Units=1/GPa)
#
#
# Indices 1 2 3 4 5 6 
#
# 1 0.012069 -0.005654 -0.003607 0.000000 -0.002434 0.000000
# 2 -0.005654 0.015841 -0.001225 0.000000 0.000429 0.000000
# 3 -0.003607 -0.001225 0.008545 0.000000 0.001235 0.000000
# 4 0.000000 0.000000 0.000000 0.009765 0.000000 0.009881
# 5 -0.002434 0.000429 0.001235 0.000000 0.018866 0.000000
# 6 0.000000 0.000000 0.000000 0.009881 0.000000 0.026409
#
#
# Mechanical properties :
#
#
# Convention : Reuss Voigt Hill
#
# Bulk Modulus (GPa) = 64.57416 70.50197 67.53806
# Shear Modulus (GPa) = 42.50719 70.43733 56.47226
#
# Velocity S-wave (km/s) = 4.48653 5.77538 5.17126
# Velocity P-wave (km/s) = 7.57741 8.82377 8.22424
#
# Compressibility (1/GPa) = 0.01548607
#
# Stress axis : x y z
#
# Youngs Moduli (GPa) = 82.85366 63.12811 117.02382
#
# Poissons Ratio (x) = 0.35690 0.42206
# Poissons Ratio (y) = 0.46842 0.14330
# Poissons Ratio (z) = 0.29882 0.07730
#
# Static dielectric constant tensor:
#      x y z
#    x 0.046270 0.000000 -3.974700 
#    y 0.000000 3.699120 0.000000 
#    z -3.974700 0.000000 0.328450 
# 
# 
# High freq. dielectric constant tensor:
#      x y z
#    x 1.838520 0.000000 -0.000540 
#    y 0.000000 1.820630 0.000000 
#    z -0.000540 0.000000 1.855700 
# 
# From -- ./inp_files/16699.got.cif
#   From: 2010.03.12/outbox.cif.g09.slc.cpg/sg5_9_cif.got.tgz:16699.got - 2010.03.31 09:47:26.
