data_PCOD8051450
_publ_section_title
;
Structure prediction by ZEFSAII (Michael W. Deem and Ramdas Pophale) SiO2 
 PCOD8051450
Probable space group: C 2
;
_chemical_formula_sum "Si O2"
_cell_formula_units_Z 24
_cell_length_a 23.323233
_cell_length_b 5.435500
_cell_length_c 11.939776
_cell_angle_alpha 90.000000
_cell_angle_beta 138.188094
_cell_angle_gamma 90.000000
_cell_volume 1009.128925
_symmetry_space_group_name_H-M "C 2"
_symmetry_group_IT_number 5
_symmetry_cell_setting 'monoclinic'
loop_
_space_group_symop_operation_xyz
x,y,z
-x,y,-z
1/2+x,1/2+y,z
1/2-x,1/2+y,-z
loop_
_atom_site_type_symbol
_atom_site_label
_atom_site_fract_x
_atom_site_fract_y
_atom_site_fract_z
Si Si1 0.859487 0.155320 0.107960
Si Si2 0.167675 0.474614 0.139190
Si Si3 0.289258 0.865586 0.216177
Si Si4 0.677458 0.205249 0.549867
Si Si5 0.527315 0.486771 0.256252
Si Si6 0.570709 0.002081 0.213888
O O1 0.864469 0.383333 0.028251
O O2 0.772884 0.007175 0.959301
O O3 0.856332 0.224983 0.234239
O O4 0.945436 0.996246 0.218607
O O5 0.229616 0.705898 0.212363
O O6 0.222415 0.271301 0.288813
O O7 0.085520 0.519640 0.100857
O O8 0.347455 0.043210 0.377495
O O9 0.614885 0.446502 0.456578
O O10 0.661420 0.044600 0.413387
O O11 0.510894 0.238047 0.159097
O O12 0.532227 0.735338 0.189512
#
# Coordination Sequence:
#
# PCOD8051450 Si02
#       6
#     4   4   4   4   4   4
#     4  11  25  45  73 101 147 191 249 299 365 444
#     4  11  24  42  72 104 143 193 243 300 359 443
#     4  11  23  46  71 105 137 200 247 302 360 440
#     4   9  24  41  74 107 141 184 246 295 368 425
#     4  10  25  46  70 108 144 186 231 309 368 426
#     4  10  25  44  71 106 144 183 241 296 374 428
#
# _framework density 23.782888
#
# number of rings (size 3 to 8) (size 9 to 14) (size 15 to 20)
#    1.000    0.667    1.667    1.000   11.667    0.667 
#    0.000    5.000    0.000    0.000    0.000    0.000 
#    0.000    0.000    0.000    0.000    0.000    0.000 
#
# Total GULP energy -148715.431173 kJ/mol
# GULP energy per Si atom -12392.952598 kJ/mol
# Density = 2.372876 g / cm^3
# Si number density = 23.782888 Si / 1000 Ang^3
#
#
#
# Elastic Constant Matrix: (Units=GPa)
#
#
# Indices 1 2 3 4 5 6 
#
# 1 158.0484 57.3555 3.2876 0.0000 -22.7639 0.0000
# 2 57.3555 142.5668 13.6434 -0.0001 -13.9773 0.0001
# 3 3.2876 13.6434 26.4631 0.0000 -6.7101 0.0000
# 4 0.0000 -0.0001 0.0000 31.8853 0.0000 -5.1166
# 5 -22.7639 -13.9773 -6.7101 0.0000 28.1797 0.0000
# 6 0.0000 0.0001 0.0000 -5.1166 0.0000 37.7137
#
#
#
# Elastic Compliance Matrix: (Units=1/GPa)
#
#
# Indices 1 2 3 4 5 6 
#
# 1 0.008150 -0.002913 0.001908 0.000000 0.005593 0.000000
# 2 -0.002913 0.008654 -0.003840 0.000000 0.001025 0.000000
# 3 0.001908 -0.003840 0.041973 0.000000 0.009631 0.000000
# 4 0.000000 0.000000 0.000000 0.032060 0.000000 0.004350
# 5 0.005593 0.001025 0.009631 0.000000 0.042806 0.000000
# 6 0.000000 0.000000 0.000000 0.004350 0.000000 0.027106
#
#
# Mechanical properties :
#
#
# Convention : Reuss Voigt Hill
#
# Bulk Modulus (GPa) = 20.37206 52.85014 36.61110
# Shear Modulus (GPa) = 26.76608 36.40853 31.58731
#
# Velocity S-wave (km/s) = 3.35839 3.91688 3.64834
# Velocity P-wave (km/s) = 4.86033 6.53652 5.75973
#
# Compressibility (1/GPa) = 0.04908683
#
# Stress axis : x y z
#
# Youngs Moduli (GPa) = 122.69569 115.55119 23.82463
#
# Poissons Ratio (x) = 0.33661 -0.04545
# Poissons Ratio (y) = 0.35742 0.09149
# Poissons Ratio (z) = -0.23405 0.44372
#
# Static dielectric constant tensor:
#      x y z
#    x 3.989580 0.000000 0.021760 
#    y 0.000000 4.309790 0.000000 
#    z 0.021760 0.000000 4.227230 
# 
# 
# High freq. dielectric constant tensor:
#      x y z
#    x 1.928060 0.000000 0.000260 
#    y 0.000000 1.946020 0.000000 
#    z 0.000260 0.000000 1.947470 
# 
# From -- ./inp_files/45523.got.cif
#   From: 2010.03.12/outbox.cif.g09.slc.cpg/sg5_23_cif.got.tgz:45523.got - 2010.03.31 09:47:26.
