data_PCOD8051545
_publ_section_title
;
Structure prediction by ZEFSAII (Michael W. Deem and Ramdas Pophale) SiO2 
 PCOD8051545
Probable space group: C 2
;
_chemical_formula_sum "Si O2"
_cell_formula_units_Z 16
_cell_length_a 28.449201
_cell_length_b 4.892542
_cell_length_c 9.304723
_cell_angle_alpha 90.000000
_cell_angle_beta 151.781808
_cell_angle_gamma 90.000000
_cell_volume 612.369606
_symmetry_space_group_name_H-M "C 2"
_symmetry_group_IT_number 5
_symmetry_cell_setting 'monoclinic'
loop_
_space_group_symop_operation_xyz
x,y,z
-x,y,-z
1/2+x,1/2+y,z
1/2-x,1/2+y,-z
loop_
_atom_site_type_symbol
_atom_site_label
_atom_site_fract_x
_atom_site_fract_y
_atom_site_fract_z
Si Si1 0.593646 0.898300 0.834106
Si Si2 0.492682 0.573567 0.140082
Si Si3 0.183513 0.033567 0.835317
Si Si4 0.190006 0.752426 0.295433
O O1 0.500000 0.037912 0.500000
O O2 0.557265 0.792044 0.889996
O O3 0.637043 0.650565 0.857263
O O4 0.675899 0.127651 0.095623
O O5 0.600397 0.488680 0.489625
O O6 0.500000 0.699220 0.000000
O O7 0.419077 0.311753 0.932184
O O8 0.268891 0.237343 0.007016
O O9 0.247131 0.532910 0.549787
#
# Coordination Sequence:
#
# PCOD8051545 Si02
#       4
#     4   4   4   4
#     4  10  26  51  80 109 158 199 255 317 378 447
#     4  11  28  50  77 115 158 197 256 314 379 454
#     4  11  29  49  80 115 151 201 255 313 384 451
#     4  12  27  48  76 112 151 205 251 310 379 449
#
# _framework density 26.128014
#
# number of rings (size 3 to 8) (size 9 to 14) (size 15 to 20)
#    0.000    1.000    2.500    0.000   14.000    4.000 
#    0.000    0.000    0.000    0.000    0.000    0.000 
#    0.000    0.000    0.000    0.000    0.000    0.000 
#
# Total GULP energy -99197.599229 kJ/mol
# GULP energy per Si atom -12399.699904 kJ/mol
# Density = 2.606855 g / cm^3
# Si number density = 26.128014 Si / 1000 Ang^3
#
#
#
# Elastic Constant Matrix: (Units=GPa)
#
#
# Indices 1 2 3 4 5 6 
#
# 1 125.8902 4.3714 53.9070 0.0000 -29.6457 0.0000
# 2 4.3714 96.4919 57.6237 0.0000 -10.2365 0.0000
# 3 53.9070 57.6237 222.9529 0.0000 0.8373 0.0000
# 4 0.0000 0.0000 0.0000 37.9312 0.0000 4.1731
# 5 -29.6457 -10.2365 0.8373 0.0000 34.8468 0.0000
# 6 0.0000 0.0000 0.0000 4.1731 0.0000 24.0166
#
#
#
# Elastic Compliance Matrix: (Units=1/GPa)
#
#
# Indices 1 2 3 4 5 6 
#
# 1 0.012060 0.002846 -0.003694 0.000000 0.011185 0.000000
# 2 0.002846 0.013416 -0.004180 0.000000 0.006463 0.000000
# 3 -0.003694 -0.004180 0.006476 0.000000 -0.004526 0.000000
# 4 0.000000 0.000000 0.000000 0.026877 0.000000 -0.004670
# 5 0.011185 0.006463 -0.004526 0.000000 0.040220 0.000000
# 6 0.000000 0.000000 0.000000 -0.004670 0.000000 0.042449
#
#
# Mechanical properties :
#
#
# Convention : Reuss Voigt Hill
#
# Bulk Modulus (GPa) = 45.66818 75.23769 60.45294
# Shear Modulus (GPa) = 31.47570 41.32111 36.39840
#
# Velocity S-wave (km/s) = 3.47460 3.98111 3.73645
# Velocity P-wave (km/s) = 5.79774 7.07040 6.46546
#
# Compressibility (1/GPa) = 0.02189709
#
# Stress axis : x y z
#
# Youngs Moduli (GPa) = 82.91804 74.53530 154.42514
#
# Poissons Ratio (x) = -0.21212 0.57037
# Poissons Ratio (y) = -0.23598 0.64549
# Poissons Ratio (z) = 0.30626 0.31155
#
# Static dielectric constant tensor:
#      x y z
#    x 4.421710 0.000000 0.093930 
#    y 0.000000 4.549730 0.000000 
#    z 0.093930 0.000000 5.464070 
# 
# 
# High freq. dielectric constant tensor:
#      x y z
#    x 2.033340 0.000000 -0.003210 
#    y 0.000000 2.041110 0.000000 
#    z -0.003210 0.000000 2.076780 
# 
# From -- ./inp_files/22393.got.cif
#   From: 2010.03.12/outbox.cif.g09.slc.cpg/sg5_12_cif.got.tgz:22393.got - 2010.03.31 09:47:26.
