data_PCOD8051387
_publ_section_title
;
Structure prediction by ZEFSAII (Michael W. Deem and Ramdas Pophale) SiO2 
 PCOD8051387
Probable space group: C 2
;
_chemical_formula_sum "Si O2"
_cell_formula_units_Z 26
_cell_length_a 13.845923
_cell_length_b 12.922647
_cell_length_c 6.493020
_cell_angle_alpha 90.000000
_cell_angle_beta 90.311833
_cell_angle_gamma 90.000000
_cell_volume 1161.752730
_symmetry_space_group_name_H-M "C 2"
_symmetry_group_IT_number 5
_symmetry_cell_setting 'monoclinic'
loop_
_space_group_symop_operation_xyz
x,y,z
-x,y,-z
1/2+x,1/2+y,z
1/2-x,1/2+y,-z
loop_
_atom_site_type_symbol
_atom_site_label
_atom_site_fract_x
_atom_site_fract_y
_atom_site_fract_z
Si Si1 0.500000 0.454080 0.000000
Si Si2 0.928912 0.819031 0.661172
Si Si3 0.654618 0.603054 0.918176
Si Si4 0.500000 0.759668 0.000000
Si Si5 0.072099 0.424556 0.310864
Si Si6 0.165790 0.726764 0.957212
Si Si7 0.792180 0.917254 0.341909
Si Si8 0.000000 0.590422 0.000000
O O1 0.508207 0.383268 0.796987
O O2 0.595483 0.519924 0.053188
O O3 0.863974 0.745901 0.803593
O O4 0.853032 0.892736 0.544809
O O5 0.000000 0.760151 0.500000
O O6 0.743001 0.650192 0.047346
O O7 0.686550 0.536749 0.719850
O O8 0.578288 0.694001 0.868690
O O9 0.554625 0.824385 0.172429
O O10 0.179692 0.415005 0.400601
O O11 0.000000 0.431015 0.500000
O O12 0.060606 0.523786 0.163473
O O13 0.187346 0.833675 0.840928
O O14 0.073918 0.662850 0.867488
#
# Coordination Sequence:
#
# PCOD8051387 Si02
#       8
#     2   4   4   2   4   4   4   2
#     4  11  23  47  71  96 138 181 223 295 349 402
#     4  12  24  44  73 100 141 175 233 295 348 403
#     4  11  23  46  70 100 137 185 234 278 354 407
#     4  10  24  47  71  98 144 186 226 291 341 416
#     4  11  26  46  68 105 145 180 228 285 351 411
#     4  12  25  46  70 103 141 184 235 285 347 419
#     4  12  25  47  71 104 137 186 235 293 344 415
#     4  11  25  44  74  96 144 187 225 282 352 416
#
# _framework density 22.379975999999999
#
# number of rings (size 3 to 8) (size 9 to 14) (size 15 to 20)
#    0.000    0.615    6.154    1.385    2.154    3.077 
#    8.308    0.000    0.000    0.000    0.000    0.000 
#    0.000    0.000    0.000    0.000    0.000    0.000 
#
# Total GULP energy -161084.811396 kJ/mol
# GULP energy per Si atom -12391.139338 kJ/mol
# Density = 2.232904 g / cm^3
# Si number density = 22.379976 Si / 1000 Ang^3
#
#
#
# Elastic Constant Matrix: (Units=GPa)
#
#
# Indices 1 2 3 4 5 6 
#
# 1 150.5436 42.8180 35.9308 0.0000 -7.3142 0.0000
# 2 42.8180 116.9451 28.2578 0.0000 -1.7439 0.0000
# 3 35.9308 28.2578 97.6405 0.0000 -4.9986 0.0000
# 4 0.0000 0.0000 0.0000 8.3772 0.0000 -5.9843
# 5 -7.3142 -1.7439 -4.9986 0.0000 39.8944 0.0000
# 6 0.0000 0.0000 0.0000 -5.9843 0.0000 42.3057
#
#
#
# Elastic Compliance Matrix: (Units=1/GPa)
#
#
# Indices 1 2 3 4 5 6 
#
# 1 0.007879 -0.002345 -0.002166 0.000000 0.001071 0.000000
# 2 -0.002345 0.009892 -0.002013 0.000000 -0.000250 0.000000
# 3 -0.002166 -0.002013 0.011671 0.000000 0.000977 0.000000
# 4 0.000000 0.000000 0.000000 0.132790 0.000000 0.018784
# 5 0.001071 -0.000250 0.000977 0.000000 0.025374 0.000000
# 6 0.000000 0.000000 0.000000 0.018784 0.000000 0.026295
#
#
# Mechanical properties :
#
#
# Convention : Reuss Voigt Hill
#
# Bulk Modulus (GPa) = 60.99537 64.34914 62.67226
# Shear Modulus (GPa) = 21.51345 35.32364 28.41855
#
# Velocity S-wave (km/s) = 3.10382 3.97717 3.56732
# Velocity P-wave (km/s) = 6.33707 7.06441 6.71060
#
# Compressibility (1/GPa) = 0.01639469
#
# Stress axis : x y z
#
# Youngs Moduli (GPa) = 126.92649 101.08830 85.68180
#
# Poissons Ratio (x) = 0.23709 0.18556
# Poissons Ratio (y) = 0.29769 0.17244
# Poissons Ratio (z) = 0.27488 0.20345
#
# Static dielectric constant tensor:
#      x y z
#    x 4.367540 0.000000 -0.043240 
#    y 0.000000 4.226600 0.000000 
#    z -0.043240 0.000000 3.685120 
# 
# 
# High freq. dielectric constant tensor:
#      x y z
#    x 1.912860 0.000000 -0.003540 
#    y 0.000000 1.891700 0.000000 
#    z -0.003540 0.000000 1.850070 
# 
# From -- ./inp_files/6888.got.cif
#   From: 2010.03.12/outbox.cif.g09.slc.cpg/sg5_4_cif.got.tgz:6888.got - 2010.03.31 09:47:26.
