data_PCOD8051765
_publ_section_title
;
Structure prediction by ZEFSAII (Michael W. Deem and Ramdas Pophale) SiO2 
 PCOD8051765
Probable space group: C 2
;
_chemical_formula_sum "Si O2"
_cell_formula_units_Z 32
_cell_length_a 10.644746
_cell_length_b 9.372679
_cell_length_c 13.700950
_cell_angle_alpha 90.000000
_cell_angle_beta 89.425143
_cell_angle_gamma 90.000000
_cell_volume 1366.872067
_symmetry_space_group_name_H-M "C 2"
_symmetry_group_IT_number 5
_symmetry_cell_setting 'monoclinic'
loop_
_space_group_symop_operation_xyz
x,y,z
-x,y,-z
1/2+x,1/2+y,z
1/2-x,1/2+y,-z
loop_
_atom_site_type_symbol
_atom_site_label
_atom_site_fract_x
_atom_site_fract_y
_atom_site_fract_z
Si Si1 0.454180 0.170640 0.394558
Si Si2 0.702601 0.358281 0.048867
Si Si3 0.309007 0.054821 0.899817
Si Si4 0.306082 0.951097 0.306228
Si Si5 0.528812 0.848056 0.851825
Si Si6 0.406529 0.558511 0.800054
Si Si7 0.786276 0.650495 0.685981
Si Si8 0.063591 0.986467 0.607390
O O1 0.500000 0.198117 0.500000
O O2 0.568492 0.110171 0.328087
O O3 0.401301 0.324360 0.363520
O O4 0.347610 0.048674 0.396590
O O5 0.663605 0.193524 0.032432
O O6 0.848154 0.351634 0.082219
O O7 0.598362 0.424583 0.124136
O O8 0.703765 0.452185 0.949775
O O9 0.248286 0.110707 0.797732
O O10 0.438784 0.973654 0.886834
O O11 0.428944 0.876258 0.259313
O O12 0.214774 0.821382 0.337176
O O13 0.240538 0.062639 0.231280
O O14 0.452662 0.698674 0.856640
O O15 0.477803 0.540748 0.696885
O O16 0.694479 0.573666 0.609724
O O17 0.000000 0.007468 0.500000
#
# Coordination Sequence:
#
# PCOD8051765 Si02
#       8
#     4   4   4   4   4   4   4   4
#     4  11  26  43  68 105 138 185 238 286 350 412
#     4  11  25  45  68 100 140 176 232 289 344 424
#     4  12  23  45  71 100 134 183 229 283 355 412
#     4  11  23  42  69  98 136 180 226 288 344 411
#     4  11  23  44  66  96 135 180 225 282 344 414
#     4  11  22  45  69  98 138 182 227 285 346 409
#     4  12  24  47  69 100 147 178 233 294 343 419
#     4  11  25  45  70 102 141 187 232 287 349 415
#
# _framework density 23.411117000000001
#
# number of rings (size 3 to 8) (size 9 to 14) (size 15 to 20)
#    0.000    0.750    6.250    1.125    3.500    0.500 
#    0.000    4.375    0.000    0.000    0.000    0.000 
#    0.000    0.000    0.000    0.000    0.000    0.000 
#
# Total GULP energy -198236.528739 kJ/mol
# GULP energy per Si atom -12389.783046 kJ/mol
# Density = 2.335783 g / cm^3
# Si number density = 23.411117 Si / 1000 Ang^3
#
#
#
# Elastic Constant Matrix: (Units=GPa)
#
#
# Indices 1 2 3 4 5 6 
#
# 1 60.9572 50.7436 5.9506 0.0000 3.9959 0.0000
# 2 50.7436 157.0313 28.3494 0.0000 13.5257 0.0000
# 3 5.9506 28.3494 65.0592 0.0000 -3.9184 0.0000
# 4 0.0000 0.0000 0.0000 37.1407 0.0000 1.7558
# 5 3.9959 13.5257 -3.9184 0.0000 26.7373 0.0000
# 6 0.0000 0.0000 0.0000 1.7558 0.0000 42.4938
#
#
#
# Elastic Compliance Matrix: (Units=1/GPa)
#
#
# Indices 1 2 3 4 5 6 
#
# 1 0.022539 -0.007569 0.001276 0.000000 0.000648 0.000000
# 2 -0.007569 0.009899 -0.003889 0.000000 -0.004446 0.000000
# 3 0.001276 -0.003889 0.017207 0.000000 0.004298 0.000000
# 4 0.000000 0.000000 0.000000 0.026977 0.000000 -0.001115
# 5 0.000648 -0.004446 0.004298 0.000000 0.040183 0.000000
# 6 0.000000 0.000000 0.000000 -0.001115 0.000000 0.023579
#
#
# Mechanical properties :
#
#
# Convention : Reuss Voigt Hill
#
# Bulk Modulus (GPa) = 34.15241 50.34833 42.25037
# Shear Modulus (GPa) = 29.32362 34.47463 31.89913
#
# Velocity S-wave (km/s) = 3.54298 3.84158 3.69530
# Velocity P-wave (km/s) = 5.59971 6.42104 6.02439
#
# Compressibility (1/GPa) = 0.02928051
#
# Stress axis : x y z
#
# Youngs Moduli (GPa) = 44.36729 101.01752 58.11437
#
# Poissons Ratio (x) = 0.76465 -0.07415
# Poissons Ratio (y) = 0.33584 0.22601
# Poissons Ratio (z) = -0.05661 0.39286
#
# Static dielectric constant tensor:
#      x y z
#    x 3.941770 0.000000 -0.000320 
#    y 0.000000 4.423490 0.000000 
#    z -0.000320 0.000000 4.076260 
# 
# 
# High freq. dielectric constant tensor:
#      x y z
#    x 1.922670 0.000000 -0.010500 
#    y 0.000000 1.936650 0.000000 
#    z -0.010500 0.000000 1.915740 
# 
# From -- ./inp_files/52462.got.cif
#   From: 2010.03.12/outbox.cif.g09.slc.cpg/sg5_27_cif.got.tgz:52462.got - 2010.03.31 09:47:26.
