data_PCOD8051089
_publ_section_title
;
Structure prediction by ZEFSAII (Michael W. Deem and Ramdas Pophale) SiO2 
 PCOD8051089
Probable space group: C 2
;
_chemical_formula_sum "Si O2"
_cell_formula_units_Z 28
_cell_length_a 11.942729
_cell_length_b 8.040186
_cell_length_c 23.222975
_cell_angle_alpha 90.000000
_cell_angle_beta 26.498004
_cell_angle_gamma 90.000000
_cell_volume 994.911886
_symmetry_space_group_name_H-M "C 2"
_symmetry_group_IT_number 5
_symmetry_cell_setting 'monoclinic'
loop_
_space_group_symop_operation_xyz
x,y,z
-x,y,-z
1/2+x,1/2+y,z
1/2-x,1/2+y,-z
loop_
_atom_site_type_symbol
_atom_site_label
_atom_site_fract_x
_atom_site_fract_y
_atom_site_fract_z
Si Si1 0.247422 0.515550 0.915592
Si Si2 0.428992 0.061260 0.205135
Si Si3 0.605317 0.060456 0.571535
Si Si4 0.723363 0.251950 0.353662
Si Si5 0.075969 0.186372 0.058335
Si Si6 0.036273 0.209872 0.312523
Si Si7 0.456094 0.246832 0.740847
O O1 0.158265 0.373881 0.002887
O O2 0.404449 0.431271 0.789772
O O3 0.412460 0.649471 0.876975
O O4 0.000000 0.597068 0.000000
O O5 0.728606 0.056857 0.059797
O O6 0.375958 0.148660 0.290076
O O7 0.320120 0.169718 0.201096
O O8 0.294175 0.882302 0.269893
O O9 0.383028 0.086500 0.627415
O O10 0.872212 0.063119 0.416947
O O11 0.617342 0.223673 0.608546
O O12 0.559277 0.890568 0.625231
O O13 0.500000 0.317334 0.500000
O O14 0.985007 0.208665 0.267224
O O15 0.805673 0.151132 0.154917
#
# Coordination Sequence:
#
# PCOD8051089 Si02
#       7
#     4   4   4   4   4   4   4
#     4   9  21  43  63  94 133 175 226 269 331 394
#     4  11  23  42  72  98 134 180 224 276 340 400
#     4  11  24  46  72  96 140 179 219 287 340 397
#     4  10  23  45  64  97 135 174 222 283 339 399
#     4  10  23  43  66  97 139 175 222 278 325 404
#     4  11  24  47  66 103 134 173 234 278 336 406
#     4  10  23  43  68  98 135 185 216 274 344 395
#
# _framework density 28.143197000000001
#
# number of rings (size 3 to 8) (size 9 to 14) (size 15 to 20)
#    0.000    1.714    1.429    3.000    8.000    0.000 
#   12.857    3.571    0.000    0.000    0.000    0.000 
#    0.000    0.000    0.000    0.000    0.000    0.000 
#
# Total GULP energy -173497.378830 kJ/mol
# GULP energy per Si atom -12392.669916 kJ/mol
# Density = 2.807914 g / cm^3
# Si number density = 28.143197 Si / 1000 Ang^3
#
#
#
# Elastic Constant Matrix: (Units=GPa)
#
#
# Indices 1 2 3 4 5 6 
#
# 1 178.2448 22.6003 22.3950 0.0045 -11.6908 0.0011
# 2 22.6003 78.0659 -7.9843 0.0026 -10.5707 0.0013
# 3 22.3950 -7.9843 37.0471 0.0218 -11.5396 0.0104
# 4 0.0045 0.0026 0.0218 23.3648 0.0019 -9.7618
# 5 -11.6908 -10.5707 -11.5396 0.0019 53.2148 0.0008
# 6 0.0011 0.0013 0.0104 -9.7618 0.0008 46.5519
#
#
#
# Elastic Compliance Matrix: (Units=1/GPa)
#
#
# Indices 1 2 3 4 5 6 
#
# 1 0.006458 -0.002319 -0.004403 0.000004 0.000003 0.000002
# 2 -0.002319 0.014549 0.005661 -0.000008 0.003608 -0.000003
# 3 -0.004403 0.005661 0.033163 -0.000038 0.007349 -0.000016
# 4 0.000004 -0.000008 -0.000038 0.046909 -0.000011 0.009837
# 5 0.000003 0.003608 0.007349 -0.000011 0.021103 -0.000004
# 6 0.000002 -0.000003 -0.000016 0.009837 -0.000004 0.023544
#
#
# Mechanical properties :
#
#
# Convention : Reuss Voigt Hill
#
# Bulk Modulus (GPa) = 19.21274 40.81996 30.01635
# Shear Modulus (GPa) = 30.26700 41.71607 35.99153
#
# Velocity S-wave (km/s) = 3.28298 3.85421 3.58001
# Velocity P-wave (km/s) = 4.60568 5.86025 5.27042
#
# Compressibility (1/GPa) = 0.05204880
#
# Stress axis : x y z
#
# Youngs Moduli (GPa) = 154.85402 68.73441 30.15390
#
# Poissons Ratio (x) = 0.15942 0.13275
# Poissons Ratio (y) = 0.35916 -0.17071
# Poissons Ratio (z) = 0.68175 -0.38914
#
# Static dielectric constant tensor:
#      x y z
#    x 5.618880 0.000000 0.233810 
#    y 0.000000 4.775340 0.000010 
#    z 0.233810 0.000010 5.301410 
# 
# 
# High freq. dielectric constant tensor:
#      x y z
#    x 2.168340 0.000000 0.013710 
#    y 0.000000 2.122140 0.000000 
#    z 0.013710 0.000000 2.143940 
# 
# From -- ./inp_files/70357.got.cif
#   From: 2010.03.12/outbox.cif.g09.slc.cpg/sg5_36_cif.got.tgz:70357.got - 2010.03.31 09:47:26.
