data_PCOD8051829
_publ_section_title
;
Structure prediction by ZEFSAII (Michael W. Deem and Ramdas Pophale) SiO2 
 PCOD8051829
Probable space group: C 2
;
_chemical_formula_sum "Si O2"
_cell_formula_units_Z 24
_cell_length_a 11.294836
_cell_length_b 8.897330
_cell_length_c 20.004663
_cell_angle_alpha 90.000000
_cell_angle_beta 146.974706
_cell_angle_gamma 90.000000
_cell_volume 1095.657260
_symmetry_space_group_name_H-M "C 2"
_symmetry_group_IT_number 5
_symmetry_cell_setting 'monoclinic'
loop_
_space_group_symop_operation_xyz
x,y,z
-x,y,-z
1/2+x,1/2+y,z
1/2-x,1/2+y,-z
loop_
_atom_site_type_symbol
_atom_site_label
_atom_site_fract_x
_atom_site_fract_y
_atom_site_fract_z
Si Si1 0.856171 0.908530 0.747625
Si Si2 0.754447 0.392908 0.627160
Si Si3 0.761200 0.713387 0.580511
Si Si4 0.267496 0.938026 0.867729
Si Si5 0.576075 0.700984 0.689387
Si Si6 0.796618 0.727853 0.272105
O O1 0.751878 0.856379 0.626520
O O2 0.796450 0.793533 0.778941
O O3 0.116770 0.917372 0.862004
O O4 0.762644 0.065940 0.727843
O O5 0.500000 0.355805 0.500000
O O6 0.823764 0.565120 0.651634
O O7 0.900683 0.292864 0.647955
O O8 0.809919 0.350257 0.729305
O O9 0.532606 0.676494 0.435739
O O10 0.941817 0.741221 0.609057
O O11 0.297733 0.775393 0.845658
O O12 0.500000 0.002912 0.000000
O O13 0.140695 0.048725 0.756957
#
# Coordination Sequence:
#
# PCOD8051829 Si02
#       6
#     4   4   4   4   4   4
#     4  11  24  43  67  99 133 172 226 282 332 404
#     4  12  22  38  65  99 140 178 209 270 347 412
#     4  11  24  39  66 103 143 174 211 271 346 417
#     4  11  27  48  69  93 132 186 236 280 329 388
#     4  12  24  41  68 100 138 179 219 275 342 399
#     4  11  23  42  67  98 135 175 223 277 333 400
#
# _framework density 21.904661000000001
#
# number of rings (size 3 to 8) (size 9 to 14) (size 15 to 20)
#    0.000    0.667    5.000    3.500    2.333    4.000 
#    0.000    0.833    0.000    0.000    0.000    0.000 
#    0.000    0.000    0.000    0.000    0.000    0.000 
#
# Total GULP energy -148726.058186 kJ/mol
# GULP energy per Si atom -12393.838182 kJ/mol
# Density = 2.185480 g / cm^3
# Si number density = 21.904661 Si / 1000 Ang^3
#
#
#
# Elastic Constant Matrix: (Units=GPa)
#
#
# Indices 1 2 3 4 5 6 
#
# 1 133.9890 61.0313 28.2165 0.0000 30.9997 0.0000
# 2 61.0313 127.6551 30.2768 0.0001 2.4189 0.0000
# 3 28.2165 30.2768 91.1915 0.0003 20.8874 0.0000
# 4 0.0000 0.0001 0.0003 18.2158 0.0000 0.2665
# 5 30.9997 2.4189 20.8874 0.0000 27.8910 0.0000
# 6 0.0000 0.0000 0.0000 0.2665 0.0000 56.6863
#
#
#
# Elastic Compliance Matrix: (Units=1/GPa)
#
#
# Indices 1 2 3 4 5 6 
#
# 1 0.013909 -0.006728 0.001614 0.000000 -0.016085 0.000000
# 2 -0.006728 0.011822 -0.004009 0.000000 0.009455 0.000000
# 3 0.001614 -0.004009 0.014640 0.000000 -0.012410 0.000000
# 4 0.000000 0.000000 0.000000 0.054901 0.000000 -0.000258
# 5 -0.016085 0.009455 -0.012410 0.000000 0.062206 0.000000
# 6 0.000000 0.000000 0.000000 -0.000258 0.000000 0.017642
#
#
# Mechanical properties :
#
#
# Convention : Reuss Voigt Hill
#
# Bulk Modulus (GPa) = 45.19575 65.76498 55.48036
# Shear Modulus (GPa) = 24.90768 36.11270 30.51019
#
# Velocity S-wave (km/s) = 3.37574 4.06474 3.73616
# Velocity P-wave (km/s) = 5.98932 7.21927 6.63287
#
# Compressibility (1/GPa) = 0.02212598
#
# Stress axis : x y z
#
# Youngs Moduli (GPa) = 71.89368 84.58851 68.30575
#
# Poissons Ratio (x) = 0.56912 -0.11026
# Poissons Ratio (y) = 0.48371 0.27383
# Poissons Ratio (z) = -0.11606 0.33911
#
# Static dielectric constant tensor:
#      x y z
#    x 4.472650 0.000000 0.274620 
#    y 0.000000 3.982140 0.000000 
#    z 0.274620 0.000000 3.475470 
# 
# 
# High freq. dielectric constant tensor:
#      x y z
#    x 1.900000 0.000000 0.026150 
#    y 0.000000 1.867240 0.000000 
#    z 0.026150 0.000000 1.804600 
# 
# From -- ./inp_files/68299.got.cif
#   From: 2010.03.12/outbox.cif.g09.slc.cpg/sg5_35_cif.got.tgz:68299.got - 2010.03.31 09:47:26.
