data_PCOD8051238
_publ_section_title
;
Structure prediction by ZEFSAII (Michael W. Deem and Ramdas Pophale) SiO2 
 PCOD8051238
Probable space group: C 2
;
_chemical_formula_sum "Si O2"
_cell_formula_units_Z 32
_cell_length_a 30.958884
_cell_length_b 5.178131
_cell_length_c 15.139554
_cell_angle_alpha 90.000000
_cell_angle_beta 144.814641
_cell_angle_gamma 90.000000
_cell_volume 1398.499674
_symmetry_space_group_name_H-M "C 2"
_symmetry_group_IT_number 5
_symmetry_cell_setting 'monoclinic'
loop_
_space_group_symop_operation_xyz
x,y,z
-x,y,-z
1/2+x,1/2+y,z
1/2-x,1/2+y,-z
loop_
_atom_site_type_symbol
_atom_site_label
_atom_site_fract_x
_atom_site_fract_y
_atom_site_fract_z
Si Si1 0.313305 0.662740 0.400172
Si Si2 0.472020 0.618014 0.713623
Si Si3 0.596788 0.249018 0.876793
Si Si4 0.846370 0.673977 0.349088
Si Si5 0.350304 0.224035 0.848331
Si Si6 0.940697 0.242357 0.975247
Si Si7 0.293494 0.371477 0.077230
Si Si8 0.996834 0.448476 0.595951
O O1 0.382674 0.619549 0.586127
O O2 0.306171 0.393894 0.337393
O O3 0.236504 0.707197 0.326913
O O4 0.320277 0.896971 0.342359
O O5 0.518651 0.351970 0.789136
O O6 0.515063 0.792901 0.858130
O O7 0.469891 0.708901 0.608631
O O8 0.645774 0.444447 0.898088
O O9 0.576391 0.025466 0.772183
O O10 0.646957 0.152931 0.042382
O O11 0.826726 0.712564 0.214655
O O12 0.937174 0.683682 0.506255
O O13 0.381558 0.509267 0.882625
O O14 0.398255 0.005657 0.877365
O O15 0.000000 0.166606 0.000000
O O16 0.261300 0.648193 0.054592
O O17 0.000000 0.355789 0.500000
#
# Coordination Sequence:
#
# PCOD8051238 Si02
#       8
#     4   4   4   4   4   4   4   4
#     4  11  23  41  64  93 129 167 208 266 326 383
#     4  10  24  41  67  94 129 174 217 269 323 389
#     4  11  22  39  61  85 126 172 221 263 319 382
#     4  11  22  38  57  87 125 170 217 262 315 369
#     4  11  23  42  68  96 128 166 208 265 329 386
#     4  11  24  45  71  99 129 167 215 263 322 395
#     4  12  26  38  56  85 126 173 222 274 317 370
#     4  11  21  37  59  90 124 172 222 267 304 375
#
# _framework density 22.881661999999999
#
# number of rings (size 3 to 8) (size 9 to 14) (size 15 to 20)
#    0.000    1.000    3.750    3.375    1.750    3.500 
#    0.000    1.250    0.000    0.000    0.000    0.000 
#    0.000    0.000    0.000    0.000    0.000    0.000 
#
# Total GULP energy -198235.191834 kJ/mol
# GULP energy per Si atom -12389.699490 kJ/mol
# Density = 2.282958 g / cm^3
# Si number density = 22.881662 Si / 1000 Ang^3
#
#
#
# Elastic Constant Matrix: (Units=GPa)
#
#
# Indices 1 2 3 4 5 6 
#
# 1 76.0943 13.0387 23.8576 0.0000 20.0001 0.0004
# 2 13.0387 97.0340 22.1641 0.0008 9.6631 0.0010
# 3 23.8576 22.1641 75.5302 -0.0001 31.4420 0.0001
# 4 0.0000 0.0008 -0.0001 24.7392 0.0000 6.7738
# 5 20.0001 9.6631 31.4420 0.0000 34.5715 0.0002
# 6 0.0004 0.0010 0.0001 6.7738 0.0002 28.9768
#
#
#
# Elastic Compliance Matrix: (Units=1/GPa)
#
#
# Indices 1 2 3 4 5 6 
#
# 1 0.015757 -0.001015 -0.001613 0.000000 -0.007364 0.000000
# 2 -0.001015 0.011113 -0.003044 0.000000 0.000250 0.000000
# 3 -0.001613 -0.003044 0.022369 0.000000 -0.018560 0.000000
# 4 0.000000 0.000000 0.000000 0.043186 0.000000 -0.010095
# 5 -0.007364 0.000250 -0.018560 0.000000 0.049996 0.000000
# 6 0.000000 0.000000 0.000000 -0.010095 0.000000 0.036870
#
#
# Mechanical properties :
#
#
# Convention : Reuss Voigt Hill
#
# Bulk Modulus (GPa) = 26.39077 40.75326 33.57202
# Shear Modulus (GPa) = 24.59814 30.29737 27.44775
#
# Velocity S-wave (km/s) = 3.28230 3.64275 3.46721
# Velocity P-wave (km/s) = 5.09149 5.96171 5.54370
#
# Compressibility (1/GPa) = 0.03789203
#
# Stress axis : x y z
#
# Youngs Moduli (GPa) = 63.46361 89.98817 44.70510
#
# Poissons Ratio (x) = 0.09137 0.07213
# Poissons Ratio (y) = 0.06444 0.13610
# Poissons Ratio (z) = 0.10240 0.27395
#
# Static dielectric constant tensor:
#      x y z
#    x 3.938330 0.000000 0.374890 
#    y 0.000000 3.802440 0.000000 
#    z 0.374890 0.000000 4.675070 
# 
# 
# High freq. dielectric constant tensor:
#      x y z
#    x 1.877400 0.000000 0.021080 
#    y 0.000000 1.896910 0.000000 
#    z 0.021080 0.000000 1.908650 
# 
# From -- ./inp_files/58316.got.cif
#   From: 2010.03.12/outbox.cif.g09.slc.cpg/sg5_30_cif.got.tgz:58316.got - 2010.03.31 09:47:26.
