data_PCOD8051595
_publ_section_title
;
Structure prediction by ZEFSAII (Michael W. Deem and Ramdas Pophale) SiO2 
 PCOD8051595
Probable space group: C 2
;
_chemical_formula_sum "Si O2"
_cell_formula_units_Z 30
_cell_length_a 11.073796
_cell_length_b 15.637628
_cell_length_c 9.231510
_cell_angle_alpha 90.000000
_cell_angle_beta 74.697144
_cell_angle_gamma 90.000000
_cell_volume 1541.921640
_symmetry_space_group_name_H-M "C 2"
_symmetry_group_IT_number 5
_symmetry_cell_setting 'monoclinic'
loop_
_space_group_symop_operation_xyz
x,y,z
-x,y,-z
1/2+x,1/2+y,z
1/2-x,1/2+y,-z
loop_
_atom_site_type_symbol
_atom_site_label
_atom_site_fract_x
_atom_site_fract_y
_atom_site_fract_z
Si Si1 0.491699 0.195410 0.330474
Si Si2 0.163159 0.577723 0.820071
Si Si3 0.902515 0.026406 0.158234
Si Si4 0.602412 0.335242 0.842019
Si Si5 0.726200 0.156269 0.090769
Si Si6 0.365953 0.782961 0.880341
Si Si7 0.500000 0.929430 0.000000
Si Si8 0.941513 0.130316 0.674352
O O1 0.500000 0.191339 0.500000
O O2 0.419905 0.113082 0.286647
O O3 0.425014 0.280640 0.293624
O O4 0.634456 0.198692 0.233994
O O5 0.309811 0.577270 0.725465
O O6 0.108128 0.485390 0.886248
O O7 0.151840 0.639760 0.963253
O O8 0.773737 0.065929 0.138119
O O9 0.951946 0.082053 0.272899
O O10 0.881676 0.931049 0.221650
O O11 0.000000 0.024669 0.000000
O O12 0.730978 0.308579 0.870156
O O13 0.500000 0.324075 0.000000
O O14 0.844013 0.220366 0.027010
O O15 0.441999 0.867903 0.895741
O O16 0.431998 0.727511 0.734634
O O17 0.000000 0.136829 0.500000
#
# Coordination Sequence:
#
# PCOD8051595 Si02
#       8
#     4   4   4   4   4   4   2   4
#     4  12  24  40  65  94 128 174 220 265 335 398
#     4  11  22  43  68  92 131 172 220 272 326 383
#     4  11  22  37  65  99 123 164 227 266 322 382
#     4  11  22  40  64  95 129 168 218 279 316 378
#     4  11  20  41  68  92 128 169 220 272 316 398
#     4  11  22  40  69  96 130 169 221 268 329 381
#     4  12  24  40  72 106 124 166 232 278 324 384
#     4  11  25  44  66  93 142 180 209 265 337 399
#
# _framework density 19.456242
#
# number of rings (size 3 to 8) (size 9 to 14) (size 15 to 20)
#    0.000    0.800    8.000    1.600    3.733    0.533 
#    0.000    2.000    0.000    0.000    0.000    0.000 
#    0.000    0.000    0.000    0.000    0.000    0.000 
#
# Total GULP energy -185965.727142 kJ/mol
# GULP energy per Si atom -12397.715143 kJ/mol
# Density = 1.941196 g / cm^3
# Si number density = 19.456242 Si / 1000 Ang^3
#
#
#
# Elastic Constant Matrix: (Units=GPa)
#
#
# Indices 1 2 3 4 5 6 
#
# 1 82.2654 57.6413 49.9792 0.0000 7.8097 0.0000
# 2 57.6413 113.5995 32.8731 0.0000 -3.0295 0.0000
# 3 49.9792 32.8731 119.9652 0.0000 -4.2332 0.0000
# 4 0.0000 0.0000 0.0000 10.4222 0.0000 -0.5521
# 5 7.8097 -3.0295 -4.2332 0.0000 28.4638 0.0000
# 6 0.0000 0.0000 0.0000 -0.5521 0.0000 40.6154
#
#
#
# Elastic Compliance Matrix: (Units=1/GPa)
#
#
# Indices 1 2 3 4 5 6 
#
# 1 0.025520 -0.010890 -0.007978 0.000000 -0.009348 0.000000
# 2 -0.010890 0.014219 0.000804 0.000000 0.004621 0.000000
# 3 -0.007978 0.000804 0.011580 0.000000 0.003997 0.000000
# 4 0.000000 0.000000 0.000000 0.096018 0.000000 0.001305
# 5 -0.009348 0.004621 0.003997 0.000000 0.038783 0.000000
# 6 0.000000 0.000000 0.000000 0.001305 0.000000 0.024639
#
#
# Mechanical properties :
#
#
# Convention : Reuss Voigt Hill
#
# Bulk Modulus (GPa) = 65.82698 66.31304 66.07001
# Shear Modulus (GPa) = 19.84502 27.58937 23.71719
#
# Velocity S-wave (km/s) = 3.19718 3.76975 3.49521
# Velocity P-wave (km/s) = 6.89464 7.28733 7.09370
#
# Compressibility (1/GPa) = 0.01519134
#
# Stress axis : x y z
#
# Youngs Moduli (GPa) = 39.18452 70.32771 86.35354
#
# Poissons Ratio (x) = 0.76586 0.68892
# Poissons Ratio (y) = 0.42671 -0.06939
# Poissons Ratio (z) = 0.31261 -0.05651
#
# Static dielectric constant tensor:
#      x y z
#    x 3.795890 0.000000 -0.140050 
#    y 0.000000 4.373140 0.000000 
#    z -0.140050 0.000000 3.344250 
# 
# 
# High freq. dielectric constant tensor:
#      x y z
#    x 1.772060 0.000000 0.002470 
#    y 0.000000 1.763800 0.000000 
#    z 0.002470 0.000000 1.732420 
# 
# From -- ./inp_files/20626.got.cif
#   From: 2010.03.12/outbox.cif.g09.slc.cpg/sg5_11_cif.got.tgz:20626.got - 2010.03.31 09:47:26.
