data_PCOD8051188
_publ_section_title
;
Structure prediction by ZEFSAII (Michael W. Deem and Ramdas Pophale) SiO2 
 PCOD8051188
Probable space group: C 2
;
_chemical_formula_sum "Si O2"
_cell_formula_units_Z 18
_cell_length_a 5.192923
_cell_length_b 24.143548
_cell_length_c 5.691524
_cell_angle_alpha 90.000000
_cell_angle_beta 89.080382
_cell_angle_gamma 90.000000
_cell_volume 713.486243
_symmetry_space_group_name_H-M "C 2"
_symmetry_group_IT_number 5
_symmetry_cell_setting 'monoclinic'
loop_
_space_group_symop_operation_xyz
x,y,z
-x,y,-z
1/2+x,1/2+y,z
1/2-x,1/2+y,-z
loop_
_atom_site_type_symbol
_atom_site_label
_atom_site_fract_x
_atom_site_fract_y
_atom_site_fract_z
Si Si1 0.351633 0.703950 0.252710
Si Si2 0.000000 0.403458 0.000000
Si Si3 0.745784 0.321259 0.350683
Si Si4 0.246839 0.973335 0.636924
Si Si5 0.260191 0.086822 0.849519
O O1 0.500000 0.702563 0.500000
O O2 0.178895 0.759781 0.249317
O O3 0.182260 0.647467 0.261196
O O4 0.500000 0.703945 0.000000
O O5 0.783325 0.442485 0.883345
O O6 0.190717 0.364934 0.849623
O O7 0.500000 0.342824 0.500000
O O8 0.000000 0.315218 0.500000
O O9 0.500000 0.953310 0.500000
O O10 0.000000 0.951001 0.500000
O O11 0.229119 0.039936 0.652124
O O12 0.500000 0.067605 0.000000
O O13 0.000000 0.088078 0.000000
#
# Coordination Sequence:
#
# PCOD8051188 Si02
#       5
#     4   2   4   4   4
#     4  10  23  48  80 118 161 210 265 339 411 491
#     4  12  28  54  76 114 164 214 272 342 398 492
#     4  11  27  50  78 113 154 211 271 330 406 485
#     4  12  28  48  79 115 153 208 269 333 404 484
#     4  11  24  47  78 114 155 202 258 330 408 485
#
# _framework density 25.228238999999999
#
# number of rings (size 3 to 8) (size 9 to 14) (size 15 to 20)
#    0.000    0.889    2.222    2.667    0.000   16.000 
#    0.000    0.000    0.000    0.000    0.000    0.000 
#    0.000    0.000    0.000    0.000    0.000    0.000 
#
# Total GULP energy -111526.343668 kJ/mol
# GULP energy per Si atom -12391.815963 kJ/mol
# Density = 2.517082 g / cm^3
# Si number density = 25.228239 Si / 1000 Ang^3
#
#
#
# Elastic Constant Matrix: (Units=GPa)
#
#
# Indices 1 2 3 4 5 6 
#
# 1 170.1691 34.1231 55.0295 0.0000 5.4205 0.0000
# 2 34.1231 195.4924 55.1063 0.0000 3.9883 0.0000
# 3 55.0295 55.1063 142.6776 0.0000 7.3201 0.0000
# 4 0.0000 0.0000 0.0000 77.6523 0.0000 -6.2934
# 5 5.4205 3.9883 7.3201 0.0000 48.1308 0.0000
# 6 0.0000 0.0000 0.0000 -6.2934 0.0000 35.3005
#
#
#
# Elastic Compliance Matrix: (Units=1/GPa)
#
#
# Indices 1 2 3 4 5 6 
#
# 1 0.006763 -0.000497 -0.002398 0.000000 -0.000356 0.000000
# 2 -0.000497 0.005778 -0.002034 0.000000 -0.000113 0.000000
# 3 -0.002398 -0.002034 0.008765 0.000000 -0.000894 0.000000
# 4 0.000000 0.000000 0.000000 0.013067 0.000000 0.002330
# 5 -0.000356 -0.000113 -0.000894 0.000000 0.020962 0.000000
# 6 0.000000 0.000000 0.000000 0.002330 0.000000 0.028743
#
#
# Mechanical properties :
#
#
# Convention : Reuss Voigt Hill
#
# Bulk Modulus (GPa) = 87.35637 88.53966 87.94801
# Shear Modulus (GPa) = 51.14940 56.48874 53.81907
#
# Velocity S-wave (km/s) = 4.50762 4.73705 4.62376
# Velocity P-wave (km/s) = 7.86086 8.06791 7.96506
#
# Compressibility (1/GPa) = 0.01144736
#
# Stress axis : x y z
#
# Youngs Moduli (GPa) = 147.86188 173.07841 114.08738
#
# Poissons Ratio (x) = 0.08606 0.27360
# Poissons Ratio (y) = 0.07352 0.23205
# Poissons Ratio (z) = 0.35460 0.35203
#
# Static dielectric constant tensor:
#      x y z
#    x 4.212720 0.000000 -0.027920 
#    y 0.000000 5.476550 0.000000 
#    z -0.027920 0.000000 4.602380 
# 
# 
# High freq. dielectric constant tensor:
#      x y z
#    x 1.988380 0.000000 0.001480 
#    y 0.000000 2.048830 0.000000 
#    z 0.001480 0.000000 2.007670 
# 
# From -- ./inp_files/895.got.cif
#   From: 2010.03.12/outbox.cif.g09.slc.cpg/sg5_1_cif.got.tgz:895.got - 2010.03.31 09:47:26.
