data_PCOD8051382
_publ_section_title
;
Structure prediction by ZEFSAII (Michael W. Deem and Ramdas Pophale) SiO2 
 PCOD8051382
Probable space group: C 2
;
_chemical_formula_sum "Si O2"
_cell_formula_units_Z 30
_cell_length_a 21.137079
_cell_length_b 14.848325
_cell_length_c 14.970783
_cell_angle_alpha 90.000000
_cell_angle_beta 161.970402
_cell_angle_gamma 90.000000
_cell_volume 1454.250373
_symmetry_space_group_name_H-M "C 2"
_symmetry_group_IT_number 5
_symmetry_cell_setting 'monoclinic'
loop_
_space_group_symop_operation_xyz
x,y,z
-x,y,-z
1/2+x,1/2+y,z
1/2-x,1/2+y,-z
loop_
_atom_site_type_symbol
_atom_site_label
_atom_site_fract_x
_atom_site_fract_y
_atom_site_fract_z
Si Si1 0.397320 0.597390 0.671004
Si Si2 0.898364 0.006651 0.490058
Si Si3 0.437929 0.236093 0.747282
Si Si4 0.294053 0.003667 0.425877
Si Si5 0.200292 0.648209 0.715820
Si Si6 0.317624 0.066694 0.966931
Si Si7 0.500000 0.347320 0.000000
Si Si8 0.264835 0.823394 0.689134
O O1 0.354384 0.528195 0.533823
O O2 0.242169 0.678803 0.450034
O O3 0.373310 0.551855 0.736025
O O4 0.628642 0.632475 0.978900
O O5 0.873380 0.898774 0.446537
O O6 0.728433 0.052377 0.199262
O O7 0.119294 0.044968 0.759484
O O8 0.600154 0.170002 0.913903
O O9 0.339242 0.307198 0.546643
O O10 0.543653 0.288862 0.970279
O O11 0.334378 0.059313 0.389887
O O12 0.506803 0.997211 0.765753
O O13 0.207539 0.905351 0.287857
O O14 0.267232 0.730428 0.744648
O O15 0.000000 0.674461 0.500000
O O16 0.500000 0.857296 0.000000
#
# Coordination Sequence:
#
# PCOD8051382 Si02
#       8
#     4   4   4   4   4   4   2   4
#     4  11  21  42  69  94 130 184 224 269 343 403
#     4  11  26  42  69 101 134 178 226 277 346 397
#     4  11  24  43  68  94 135 174 227 278 334 401
#     4  11  22  43  70  95 136 173 229 276 328 403
#     4  12  23  41  69  97 136 180 221 279 347 397
#     4  10  24  47  64  94 144 179 214 277 346 410
#     4  12  24  40  70 106 124 176 236 278 324 402
#     4  12  25  44  66 105 132 175 237 288 322 405
#
# _framework density 20.629186000000001
#
# number of rings (size 3 to 8) (size 9 to 14) (size 15 to 20)
#    0.000    0.800    5.333    2.400    7.467    0.000 
#    0.000    2.667    0.000    0.000    0.000    0.000 
#    0.000    0.000    0.000    0.000    0.000    0.000 
#
# Total GULP energy -186025.189873 kJ/mol
# GULP energy per Si atom -12401.679325 kJ/mol
# Density = 2.058223 g / cm^3
# Si number density = 20.629186 Si / 1000 Ang^3
#
#
#
# Elastic Constant Matrix: (Units=GPa)
#
#
# Indices 1 2 3 4 5 6 
#
# 1 80.7006 28.8789 35.2097 0.0002 -6.4511 0.0001
# 2 28.8789 91.7154 46.4403 0.0001 -0.0424 0.0000
# 3 35.2097 46.4403 142.3196 0.0003 1.5815 0.0001
# 4 0.0002 0.0001 0.0003 36.7479 0.0003 -5.2756
# 5 -6.4511 -0.0424 1.5815 0.0003 35.4186 0.0001
# 6 0.0001 0.0000 0.0001 -5.2756 0.0001 29.6906
#
#
#
# Elastic Compliance Matrix: (Units=1/GPa)
#
#
# Indices 1 2 3 4 5 6 
#
# 1 0.014978 -0.003381 -0.002634 0.000000 0.002842 0.000000
# 2 -0.003381 0.013826 -0.003670 0.000000 -0.000435 0.000000
# 3 -0.002634 -0.003670 0.008885 0.000000 -0.000881 0.000000
# 4 0.000000 0.000000 0.000000 0.027925 0.000000 0.004962
# 5 0.002842 -0.000435 -0.000881 0.000000 0.028790 0.000000
# 6 0.000000 0.000000 0.000000 0.004962 0.000000 0.034562
#
#
# Mechanical properties :
#
#
# Convention : Reuss Voigt Hill
#
# Bulk Modulus (GPa) = 54.58830 59.53260 57.06045
# Shear Modulus (GPa) = 32.37434 33.98521 33.17977
#
# Velocity S-wave (km/s) = 3.96580 4.06326 4.01482
# Velocity P-wave (km/s) = 6.89124 7.13684 7.01512
#
# Compressibility (1/GPa) = 0.01831895
#
# Stress axis : x y z
#
# Youngs Moduli (GPa) = 66.76592 72.32640 112.54347
#
# Poissons Ratio (x) = 0.24455 0.29641
# Poissons Ratio (y) = 0.22575 0.41307
# Poissons Ratio (z) = 0.17584 0.26546
#
# Static dielectric constant tensor:
#      x y z
#    x 3.595530 0.000000 -0.184320 
#    y 0.000000 3.668780 0.000000 
#    z -0.184320 0.000000 3.931640 
# 
# 
# High freq. dielectric constant tensor:
#      x y z
#    x 1.801610 0.000000 -0.016380 
#    y 0.000000 1.799710 0.000000 
#    z -0.016380 0.000000 1.823350 
# 
# From -- ./inp_files/57149.got.cif
#   From: 2010.03.12/outbox.cif.g09.slc.cpg/sg5_29_cif.got.tgz:57149.got - 2010.03.31 09:47:26.
