data_PCOD8051727
_publ_section_title
;
Structure prediction by ZEFSAII (Michael W. Deem and Ramdas Pophale) SiO2 
 PCOD8051727
Probable space group: C 2
;
_chemical_formula_sum "Si O2"
_cell_formula_units_Z 24
_cell_length_a 22.762506
_cell_length_b 8.793330
_cell_length_c 10.584429
_cell_angle_alpha 90.000000
_cell_angle_beta 148.256081
_cell_angle_gamma 90.000000
_cell_volume 1114.624847
_symmetry_space_group_name_H-M "C 2"
_symmetry_group_IT_number 5
_symmetry_cell_setting 'monoclinic'
loop_
_space_group_symop_operation_xyz
x,y,z
-x,y,-z
1/2+x,1/2+y,z
1/2-x,1/2+y,-z
loop_
_atom_site_type_symbol
_atom_site_label
_atom_site_fract_x
_atom_site_fract_y
_atom_site_fract_z
Si Si1 0.435032 0.701890 0.507503
Si Si2 0.710000 0.385777 0.123026
Si Si3 0.487075 0.186836 0.122369
Si Si4 0.381801 0.382227 0.309868
Si Si5 0.946618 0.337778 0.037644
Si Si6 0.778522 0.705873 0.324777
O O1 0.500000 0.757297 0.500000
O O2 0.319662 0.787550 0.308853
O O3 0.408381 0.523096 0.451112
O O4 0.507508 0.729374 0.766850
O O5 0.740466 0.531197 0.263576
O O6 0.613879 0.287236 0.011379
O O7 0.670243 0.445829 0.914428
O O8 0.603446 0.237112 0.394881
O O9 0.464668 0.010963 0.112315
O O10 0.500000 0.217470 0.000000
O O11 0.500000 0.296635 0.500000
O O12 0.294844 0.262785 0.210353
O O13 0.814958 0.308217 0.778845
O O14 0.000000 0.299234 0.000000
#
# Coordination Sequence:
#
# PCOD8051727 Si02
#       6
#     4   4   4   4   4   4
#     4  11  24  44  71 103 143 186 234 289 350 414
#     4  12  24  44  71 104 140 182 234 288 349 419
#     4  11  27  47  70 105 138 184 236 285 349 418
#     4  11  22  42  68 103 141 176 232 287 345 413
#     4  11  26  49  71 103 142 186 235 289 352 415
#     4  12  25  45  71 102 141 182 229 287 347 414
#
# _framework density 21.531908999999999
#
# number of rings (size 3 to 8) (size 9 to 14) (size 15 to 20)
#    0.000    0.667    3.333    5.000    2.333    2.667 
#    0.000    0.000    0.000    0.000    0.000    0.000 
#    0.000    0.000    0.000    0.000    0.000    0.000 
#
# Total GULP energy -148834.832436 kJ/mol
# GULP energy per Si atom -12402.902703 kJ/mol
# Density = 2.148290 g / cm^3
# Si number density = 21.531909 Si / 1000 Ang^3
#
#
#
# Elastic Constant Matrix: (Units=GPa)
#
#
# Indices 1 2 3 4 5 6 
#
# 1 129.0921 55.2198 55.2205 0.0000 16.0193 0.0000
# 2 55.2198 85.8211 36.3894 0.0000 9.0300 0.0000
# 3 55.2205 36.3894 114.1276 0.0000 28.8316 0.0000
# 4 0.0000 0.0000 0.0000 39.1680 0.0000 2.9804
# 5 16.0193 9.0300 28.8316 0.0000 48.0691 0.0000
# 6 0.0000 0.0000 0.0000 2.9804 0.0000 29.9139
#
#
#
# Elastic Compliance Matrix: (Units=1/GPa)
#
#
# Indices 1 2 3 4 5 6 
#
# 1 0.012019 -0.006093 -0.003713 0.000000 -0.000634 0.000000
# 2 -0.006093 0.016562 -0.002428 0.000000 0.000375 0.000000
# 3 -0.003713 -0.002428 0.012852 0.000000 -0.006015 0.000000
# 4 0.000000 0.000000 0.000000 0.025726 0.000000 -0.002563
# 5 -0.000634 0.000375 -0.006015 0.000000 0.024552 0.000000
# 6 0.000000 0.000000 0.000000 -0.002563 0.000000 0.033685
#
#
# Mechanical properties :
#
#
# Convention : Reuss Voigt Hill
#
# Bulk Modulus (GPa) = 58.93568 69.18890 64.06229
# Shear Modulus (GPa) = 32.15041 35.57761 33.86401
#
# Velocity S-wave (km/s) = 3.86832 4.06928 3.97008
# Velocity P-wave (km/s) = 6.88351 7.36761 7.12967
#
# Compressibility (1/GPa) = 0.01696765
#
# Stress axis : x y z
#
# Youngs Moduli (GPa) = 83.19859 60.37830 77.80742
#
# Poissons Ratio (x) = 0.36786 0.28888
# Poissons Ratio (y) = 0.50690 0.18889
# Poissons Ratio (z) = 0.30890 0.14658
#
# Static dielectric constant tensor:
#      x y z
#    x 3.647430 0.000000 0.167860 
#    y 0.000000 3.822130 0.000000 
#    z 0.167860 0.000000 4.159000 
# 
# 
# High freq. dielectric constant tensor:
#      x y z
#    x 1.850480 0.000000 0.012200 
#    y 0.000000 1.844260 0.000000 
#    z 0.012200 0.000000 1.866270 
# 
# From -- ./inp_files/47345.got.cif
#   From: 2010.03.12/outbox.cif.g09.slc.cpg/sg5_24_cif.got.tgz:47345.got - 2010.03.31 09:47:26.
