data_PCOD8051410
_publ_section_title
;
Structure prediction by ZEFSAII (Michael W. Deem and Ramdas Pophale) SiO2 
 PCOD8051410
Probable space group: C 2
;
_chemical_formula_sum "Si O2"
_cell_formula_units_Z 28
_cell_length_a 16.838776
_cell_length_b 4.927697
_cell_length_c 13.392703
_cell_angle_alpha 90.000000
_cell_angle_beta 73.802080
_cell_angle_gamma 90.000000
_cell_volume 1067.164591
_symmetry_space_group_name_H-M "C 2"
_symmetry_group_IT_number 5
_symmetry_cell_setting 'monoclinic'
loop_
_space_group_symop_operation_xyz
x,y,z
-x,y,-z
1/2+x,1/2+y,z
1/2-x,1/2+y,-z
loop_
_atom_site_type_symbol
_atom_site_label
_atom_site_fract_x
_atom_site_fract_y
_atom_site_fract_z
Si Si1 0.795014 0.578540 0.441662
Si Si2 0.274966 0.943191 0.236191
Si Si3 0.626471 0.090985 0.223565
Si Si4 0.501160 0.106669 0.113993
Si Si5 0.746791 0.747654 0.068302
Si Si6 0.575754 0.596962 0.770748
Si Si7 0.473544 0.881335 0.399920
O O1 0.752645 0.288823 0.473500
O O2 0.778906 0.645953 0.330037
O O3 0.892706 0.576161 0.434130
O O4 0.309953 0.093319 0.122350
O O5 0.330778 0.682813 0.241258
O O6 0.279141 0.531309 0.009327
O O7 0.589802 0.194392 0.129312
O O8 0.683384 0.325035 0.249114
O O9 0.674427 0.816105 0.174435
O O10 0.551850 0.037695 0.325992
O O11 0.431972 0.283768 0.196028
O O12 0.484270 0.790796 0.142280
O O13 0.500000 0.180307 0.000000
O O14 0.551700 0.628005 0.662046
O O15 0.500000 0.775185 0.500000
#
# Coordination Sequence:
#
# PCOD8051410 Si02
#       7
#     4   4   4   4   4   4   4
#     4  11  27  49  79 115 149 202 253 310 389 463
#     4  11  27  46  79 105 159 193 265 314 385 456
#     4  11  27  47  78 115 151 204 262 317 382 468
#     4  11  26  45  70 100 149 191 249 311 381 440
#     4  12  28  46  73 115 154 202 265 324 387 458
#     4  10  26  45  67 106 142 195 246 304 377 452
#     4  10  24  48  77 108 156 194 247 313 380 447
#
# _framework density 26.237750999999999
#
# number of rings (size 3 to 8) (size 9 to 14) (size 15 to 20)
#    0.000    1.143    1.429    1.286   12.000    6.857 
#    0.000    3.571    0.000    0.000    0.000    0.000 
#    0.000    0.000    0.000    0.000    0.000    0.000 
#
# Total GULP energy -173532.936340 kJ/mol
# GULP energy per Si atom -12395.209739 kJ/mol
# Density = 2.617803 g / cm^3
# Si number density = 26.237751 Si / 1000 Ang^3
#
#
#
# Elastic Constant Matrix: (Units=GPa)
#
#
# Indices 1 2 3 4 5 6 
#
# 1 111.8880 7.7462 55.5406 0.0000 11.2027 0.0000
# 2 7.7462 78.0857 26.6674 0.0000 -2.6958 0.0000
# 3 55.5406 26.6674 149.7190 0.0000 37.0317 0.0000
# 4 0.0000 0.0000 0.0000 37.7158 0.0000 -10.8220
# 5 11.2027 -2.6958 37.0317 0.0000 49.3176 0.0000
# 6 0.0000 0.0000 0.0000 -10.8220 0.0000 16.8780
#
#
#
# Elastic Compliance Matrix: (Units=1/GPa)
#
#
# Indices 1 2 3 4 5 6 
#
# 1 0.010987 0.000422 -0.004346 0.000000 0.000791 0.000000
# 2 0.000422 0.014064 -0.003473 0.000000 0.003281 0.000000
# 3 -0.004346 -0.003473 0.010700 0.000000 -0.007237 0.000000
# 4 0.000000 0.000000 0.000000 0.032492 0.000000 0.020833
# 5 0.000791 0.003281 -0.007237 0.000000 0.025711 0.000000
# 6 0.000000 0.000000 0.000000 0.020833 0.000000 0.072607
#
#
# Mechanical properties :
#
#
# Convention : Reuss Voigt Hill
#
# Bulk Modulus (GPa) = 47.72006 57.73347 52.72677
# Shear Modulus (GPa) = 26.54767 37.43153 31.98960
#
# Velocity S-wave (km/s) = 3.18435 3.78117 3.49552
# Velocity P-wave (km/s) = 5.63446 6.41208 6.03581
#
# Compressibility (1/GPa) = 0.02095555
#
# Stress axis : x y z
#
# Youngs Moduli (GPa) = 91.01943 71.10392 93.45626
#
# Poissons Ratio (x) = -0.02999 0.40620
# Poissons Ratio (y) = -0.03839 0.32457
# Poissons Ratio (z) = 0.39561 0.24694
#
# Static dielectric constant tensor:
#      x y z
#    x 4.960640 0.000000 0.174050 
#    y 0.000000 4.359090 0.000000 
#    z 0.174050 0.000000 4.936420 
# 
# 
# High freq. dielectric constant tensor:
#      x y z
#    x 2.059830 0.000000 0.008360 
#    y 0.000000 2.040080 0.000000 
#    z 0.008360 0.000000 2.062530 
# 
# From -- ./inp_files/45649.got.cif
#   From: 2010.03.12/outbox.cif.g09.slc.cpg/sg5_23_cif.got.tgz:45649.got - 2010.03.31 09:47:26.
