data_PCOD8051762
_publ_section_title
;
Structure prediction by ZEFSAII (Michael W. Deem and Ramdas Pophale) SiO2 
 PCOD8051762
Probable space group: C 2
;
_chemical_formula_sum "Si O2"
_cell_formula_units_Z 28
_cell_length_a 14.523448
_cell_length_b 13.079908
_cell_length_c 9.429691
_cell_angle_alpha 90.000000
_cell_angle_beta 132.883112
_cell_angle_gamma 90.000000
_cell_volume 1312.574207
_symmetry_space_group_name_H-M "C 2"
_symmetry_group_IT_number 5
_symmetry_cell_setting 'monoclinic'
loop_
_space_group_symop_operation_xyz
x,y,z
-x,y,-z
1/2+x,1/2+y,z
1/2-x,1/2+y,-z
loop_
_atom_site_type_symbol
_atom_site_label
_atom_site_fract_x
_atom_site_fract_y
_atom_site_fract_z
Si Si1 0.730100 0.084710 0.532972
Si Si2 0.216490 0.126010 0.899516
Si Si3 0.642948 0.423598 0.673839
Si Si4 0.530262 0.693012 0.198352
Si Si5 0.361224 0.212395 0.797498
Si Si6 0.217384 0.368644 0.464714
Si Si7 0.363840 0.192870 0.303844
O O1 0.878394 0.100834 0.652272
O O2 0.640145 0.114622 0.307491
O O3 0.724375 0.166349 0.655866
O O4 0.690005 0.969575 0.532071
O O5 0.258779 0.196409 0.812948
O O6 0.095642 0.179456 0.842510
O O7 0.200701 0.008225 0.838573
O O8 0.328629 0.124895 0.131799
O O9 0.500000 0.456496 0.500000
O O10 0.721736 0.417933 0.612061
O O11 0.648071 0.311851 0.751966
O O12 0.592595 0.803124 0.302705
O O13 0.500000 0.687597 0.000000
O O14 0.322561 0.307883 0.660848
O O15 0.500000 0.231397 0.000000
O O16 0.500000 0.161146 0.500000
#
# Coordination Sequence:
#
# PCOD8051762 Si02
#       7
#     4   4   4   4   4   4   4
#     4  11  22  45  67  98 142 184 222 293 362 411
#     4  12  25  44  76 108 137 185 249 291 350 428
#     4  11  23  43  76 100 138 196 236 281 356 431
#     4  11  23  46  71 101 147 183 234 299 352 424
#     4  11  25  44  70 101 140 182 241 296 341 429
#     4  11  24  44  69 101 144 184 230 292 366 408
#     4  11  24  47  68  98 141 181 234 298 345 421
#
# _framework density 21.332128000000001
#
# number of rings (size 3 to 8) (size 9 to 14) (size 15 to 20)
#    0.000    0.857    5.714    1.714    4.000    2.286 
#   10.286    0.000    0.000    0.000    0.000    0.000 
#    0.000    0.000    0.000    0.000    0.000    0.000 
#
# Total GULP energy -173564.453334 kJ/mol
# GULP energy per Si atom -12397.460952 kJ/mol
# Density = 2.128358 g / cm^3
# Si number density = 21.332128 Si / 1000 Ang^3
#
#
#
# Elastic Constant Matrix: (Units=GPa)
#
#
# Indices 1 2 3 4 5 6 
#
# 1 83.1373 57.9982 31.8163 0.0000 -8.5042 0.0000
# 2 57.9982 144.0904 85.6759 0.0000 10.1310 0.0000
# 3 31.8163 85.6759 155.7624 0.0000 1.4887 0.0000
# 4 0.0000 0.0000 0.0000 35.8357 0.0000 -4.1012
# 5 -8.5042 10.1310 1.4887 0.0000 31.1444 0.0000
# 6 0.0000 0.0000 0.0000 -4.1012 0.0000 23.3729
#
#
#
# Elastic Compliance Matrix: (Units=1/GPa)
#
#
# Indices 1 2 3 4 5 6 
#
# 1 0.018385 -0.008420 0.000802 0.000000 0.007721 0.000000
# 2 -0.008420 0.014474 -0.006177 0.000000 -0.006712 0.000000
# 3 0.000802 -0.006177 0.009637 0.000000 0.001768 0.000000
# 4 0.000000 0.000000 0.000000 0.028477 0.000000 0.004997
# 5 0.007721 -0.006712 0.001768 0.000000 0.036316 0.000000
# 6 0.000000 0.000000 0.000000 0.004997 0.000000 0.043661
#
#
# Mechanical properties :
#
#
# Convention : Reuss Voigt Hill
#
# Bulk Modulus (GPa) = 67.08729 81.55233 74.31981
# Shear Modulus (GPa) = 27.24654 31.90393 29.57524
#
# Velocity S-wave (km/s) = 3.57775 3.87147 3.72750
# Velocity P-wave (km/s) = 6.97024 7.63526 7.31032
#
# Compressibility (1/GPa) = 0.01490595
#
# Stress axis : x y z
#
# Youngs Moduli (GPa) = 54.39199 69.08796 103.76554
#
# Poissons Ratio (x) = 0.58173 -0.08325
# Poissons Ratio (y) = 0.45799 0.64100
# Poissons Ratio (z) = -0.04364 0.42679
#
# Static dielectric constant tensor:
#      x y z
#    x 4.003210 0.000000 -0.020150 
#    y 0.000000 3.942750 0.000000 
#    z -0.020150 0.000000 3.973670 
# 
# 
# High freq. dielectric constant tensor:
#      x y z
#    x 1.838660 0.000000 0.000620 
#    y 0.000000 1.836750 0.000000 
#    z 0.000620 0.000000 1.844580 
# 
# From -- ./inp_files/24679.got.cif
#   From: 2010.03.12/outbox.cif.g09.slc.cpg/sg5_13_cif.got.tgz:24679.got - 2010.03.31 09:47:26.
