data_PCOD8051741
_publ_section_title
;
Structure prediction by ZEFSAII (Michael W. Deem and Ramdas Pophale) SiO2 
 PCOD8051741
Probable space group: C 2
;
_chemical_formula_sum "Si O2"
_cell_formula_units_Z 28
_cell_length_a 26.946538
_cell_length_b 6.424715
_cell_length_c 8.259062
_cell_angle_alpha 90.000000
_cell_angle_beta 65.414616
_cell_angle_gamma 90.000000
_cell_volume 1300.214335
_symmetry_space_group_name_H-M "C 2"
_symmetry_group_IT_number 5
_symmetry_cell_setting 'monoclinic'
loop_
_space_group_symop_operation_xyz
x,y,z
-x,y,-z
1/2+x,1/2+y,z
1/2-x,1/2+y,-z
loop_
_atom_site_type_symbol
_atom_site_label
_atom_site_fract_x
_atom_site_fract_y
_atom_site_fract_z
Si Si1 0.500000 0.734720 0.500000
Si Si2 0.869485 0.131426 0.254292
Si Si3 0.908946 0.567264 0.635765
Si Si4 0.500000 0.147275 0.000000
Si Si5 0.813005 0.439147 0.561687
Si Si6 0.108311 0.494572 0.974181
Si Si7 0.203032 0.751322 0.689326
Si Si8 0.461131 0.404763 0.327521
O O1 0.499508 0.587088 0.343605
O O2 0.446298 0.869712 0.548141
O O3 0.857101 0.316293 0.395462
O O4 0.817929 0.984363 0.305371
O O5 0.918061 0.990451 0.256007
O O6 0.880795 0.245913 0.064569
O O7 0.846443 0.525327 0.669294
O O8 0.908676 0.581060 0.828875
O O9 0.932932 0.772614 0.512798
O O10 0.557057 0.022909 0.920781
O O11 0.502429 0.269404 0.166123
O O12 0.790078 0.635485 0.491749
O O13 0.763574 0.286234 0.683648
O O14 0.162950 0.622431 0.858229
#
# Coordination Sequence:
#
# PCOD8051741 Si02
#       8
#     2   4   4   2   4   4   4   4
#     4  12  26  40  70 100 138 184 224 282 366 416
#     4  11  22  43  69  98 124 178 232 277 336 415
#     4  12  26  46  64 103 145 179 225 297 344 421
#     4  12  24  44  72  98 136 178 236 294 328 432
#     4  11  22  43  73  98 131 179 231 285 344 408
#     4  11  27  42  64 100 141 177 231 286 350 410
#     4  11  22  44  71  98 129 175 235 286 333 419
#     4  12  25  44  70 100 136 182 233 283 354 407
#
# _framework density 21.534911999999998
#
# number of rings (size 3 to 8) (size 9 to 14) (size 15 to 20)
#    0.000    0.571    5.714    3.000    4.000    1.143 
#    2.571    0.000    0.000    0.000    0.000    0.000 
#    0.000    0.000    0.000    0.000    0.000    0.000 
#
# Total GULP energy -173499.390831 kJ/mol
# GULP energy per Si atom -12392.813631 kJ/mol
# Density = 2.148590 g / cm^3
# Si number density = 21.534912 Si / 1000 Ang^3
#
#
#
# Elastic Constant Matrix: (Units=GPa)
#
#
# Indices 1 2 3 4 5 6 
#
# 1 115.4400 37.3782 18.3406 0.0000 -10.1265 0.0000
# 2 37.3782 104.5613 35.6086 0.0000 -2.7503 0.0000
# 3 18.3406 35.6086 92.3129 0.0000 3.5660 0.0000
# 4 0.0000 0.0000 0.0000 23.1059 0.0000 9.4542
# 5 -10.1265 -2.7503 3.5660 0.0000 29.9371 0.0000
# 6 0.0000 0.0000 0.0000 9.4542 0.0000 34.5969
#
#
#
# Elastic Compliance Matrix: (Units=1/GPa)
#
#
# Indices 1 2 3 4 5 6 
#
# 1 0.010135 -0.003235 -0.000891 0.000000 0.003237 0.000000
# 2 -0.003235 0.012112 -0.004049 0.000000 0.000501 0.000000
# 3 -0.000891 -0.004049 0.012656 0.000000 -0.002181 0.000000
# 4 0.000000 0.000000 0.000000 0.048727 0.000000 -0.013316
# 5 0.003237 0.000501 -0.002181 0.000000 0.034804 0.000000
# 6 0.000000 0.000000 0.000000 -0.013316 0.000000 0.032543
#
#
# Mechanical properties :
#
#
# Convention : Reuss Voigt Hill
#
# Bulk Modulus (GPa) = 53.89556 54.99656 54.44606
# Shear Modulus (GPa) = 28.81656 32.26044 30.53850
#
# Velocity S-wave (km/s) = 3.66202 3.87467 3.76984
# Velocity P-wave (km/s) = 6.55453 6.75360 6.65481
#
# Compressibility (1/GPa) = 0.01855440
#
# Stress axis : x y z
#
# Youngs Moduli (GPa) = 98.66439 82.56240 79.01529
#
# Poissons Ratio (x) = 0.26705 0.07041
# Poissons Ratio (y) = 0.31914 0.31992
# Poissons Ratio (z) = 0.08791 0.33428
#
# Static dielectric constant tensor:
#      x y z
#    x 3.912660 0.000000 -0.066310 
#    y 0.000000 4.071220 0.000000 
#    z -0.066310 0.000000 3.696990 
# 
# 
# High freq. dielectric constant tensor:
#      x y z
#    x 1.854270 0.000000 -0.010850 
#    y 0.000000 1.856400 0.000000 
#    z -0.010850 0.000000 1.825380 
# 
# From -- ./inp_files/31376.got.cif
#   From: 2010.03.12/outbox.cif.g09.slc.cpg/sg5_16_cif.got.tgz:31376.got - 2010.03.31 09:47:26.
