data_PCOD8051040
_publ_section_title
;
Structure prediction by ZEFSAII (Michael W. Deem and Ramdas Pophale) SiO2 
 PCOD8051040
Probable space group: C 2
;
_chemical_formula_sum "Si O2"
_cell_formula_units_Z 22
_cell_length_a 30.869911
_cell_length_b 5.051498
_cell_length_c 12.708990
_cell_angle_alpha 90.000000
_cell_angle_beta 26.905442
_cell_angle_gamma 90.000000
_cell_volume 896.816962
_symmetry_space_group_name_H-M "C 2"
_symmetry_group_IT_number 5
_symmetry_cell_setting 'monoclinic'
loop_
_space_group_symop_operation_xyz
x,y,z
-x,y,-z
1/2+x,1/2+y,z
1/2-x,1/2+y,-z
loop_
_atom_site_type_symbol
_atom_site_label
_atom_site_fract_x
_atom_site_fract_y
_atom_site_fract_z
Si Si1 0.801895 0.983180 0.419523
Si Si2 0.539959 0.169116 0.205538
Si Si3 0.696475 0.684414 0.154570
Si Si4 0.500000 0.893211 0.500000
Si Si5 0.939884 0.164814 0.952019
Si Si6 0.867865 0.951286 0.499695
O O1 0.770143 0.729662 0.421245
O O2 0.810243 0.870321 0.520181
O O3 0.898386 0.092681 0.155787
O O4 0.592049 0.449045 0.068948
O O5 0.426104 0.200911 0.422858
O O6 0.548410 0.082415 0.308134
O O7 0.591981 0.952932 0.018326
O O8 0.583888 0.709714 0.366852
O O9 0.702234 0.581081 0.262172
O O10 0.748942 0.464940 0.968871
O O11 0.055120 0.167310 0.709114
#
# Coordination Sequence:
#
# PCOD8051040 Si02
#       6
#     4   4   4   2   4   4
#     4  12  28  45  72 109 148 183 244 310 370 443
#     4  10  23  41  77  97 140 189 247 289 361 442
#     4  12  29  47  77 113 152 201 251 314 371 445
#     4  12  24  52  72 114 150 202 254 302 376 452
#     4  10  23  46  72  99 134 201 227 291 368 437
#     4  10  26  50  70 103 147 188 247 297 374 438
#
# _framework density 24.531206000000001
#
# number of rings (size 3 to 8) (size 9 to 14) (size 15 to 20)
#    1.091    0.000    1.818    2.727    2.545   10.909 
#    3.273    0.000    0.000    0.000    0.000    0.000 
#    0.000    0.000    0.000    0.000    0.000    0.000 
#
# Total GULP energy -136330.803602 kJ/mol
# GULP energy per Si atom -12393.709418 kJ/mol
# Density = 2.447537 g / cm^3
# Si number density = 24.531206 Si / 1000 Ang^3
#
#
#
# Elastic Constant Matrix: (Units=GPa)
#
#
# Indices 1 2 3 4 5 6 
#
# 1 87.8238 19.6087 29.4470 -0.0071 28.6727 0.0092
# 2 19.6087 123.3762 9.2530 0.1088 -0.5247 0.0143
# 3 29.4470 9.2530 82.7596 0.0581 17.0968 0.0080
# 4 -0.0071 0.1088 0.0581 43.1613 0.0145 0.0884
# 5 28.6727 -0.5247 17.0968 0.0145 35.3868 0.0024
# 6 0.0092 0.0143 0.0080 0.0884 0.0024 30.1024
#
#
#
# Elastic Compliance Matrix: (Units=1/GPa)
#
#
# Indices 1 2 3 4 5 6 
#
# 1 0.017047 -0.002518 -0.003247 0.000018 -0.012281 -0.000002
# 2 -0.002518 0.008558 -0.000565 -0.000022 0.002440 -0.000003
# 3 -0.003247 -0.000565 0.014175 -0.000017 -0.004226 -0.000002
# 4 0.000018 -0.000022 -0.000017 0.023169 -0.000016 -0.000068
# 5 -0.012281 0.002440 -0.004226 -0.000016 0.040288 0.000001
# 6 -0.000002 -0.000003 -0.000002 -0.000068 0.000001 0.033220
#
#
# Mechanical properties :
#
#
# Convention : Reuss Voigt Hill
#
# Bulk Modulus (GPa) = 36.87333 45.61966 41.24650
# Shear Modulus (GPa) = 31.61419 37.44016 34.52717
#
# Velocity S-wave (km/s) = 3.59379 3.91093 3.75571
# Velocity P-wave (km/s) = 5.68192 6.24746 5.97139
#
# Compressibility (1/GPa) = 0.02711987
#
# Stress axis : x y z
#
# Youngs Moduli (GPa) = 58.66185 116.84616 70.54848
#
# Poissons Ratio (x) = 0.29422 0.22906
# Poissons Ratio (y) = 0.14771 0.03986
# Poissons Ratio (z) = 0.19047 0.06602
#
# Static dielectric constant tensor:
#      x y z
#    x 4.040060 -0.000070 0.089760 
#    y -0.000070 4.233710 0.000030 
#    z 0.089760 0.000030 4.294720 
# 
# 
# High freq. dielectric constant tensor:
#      x y z
#    x 1.949130 0.000000 0.018930 
#    y 0.000000 1.974880 0.000000 
#    z 0.018930 0.000000 1.981800 
# 
# From -- ./inp_files/48210.got.cif
#   From: 2010.03.12/outbox.cif.g09.slc.cpg/sg5_25_cif.got.tgz:48210.got - 2010.03.31 09:47:26.
