data_PCOD8051521
_publ_section_title
;
Structure prediction by ZEFSAII (Michael W. Deem and Ramdas Pophale) SiO2 
 PCOD8051521
Probable space group: C 2
;
_chemical_formula_sum "Si O2"
_cell_formula_units_Z 20
_cell_length_a 24.013874
_cell_length_b 4.959129
_cell_length_c 14.355710
_cell_angle_alpha 90.000000
_cell_angle_beta 150.743193
_cell_angle_gamma 90.000000
_cell_volume 835.519848
_symmetry_space_group_name_H-M "C 2"
_symmetry_group_IT_number 5
_symmetry_cell_setting 'monoclinic'
loop_
_space_group_symop_operation_xyz
x,y,z
-x,y,-z
1/2+x,1/2+y,z
1/2-x,1/2+y,-z
loop_
_atom_site_type_symbol
_atom_site_label
_atom_site_fract_x
_atom_site_fract_y
_atom_site_fract_z
Si Si1 0.500000 0.719810 0.000000
Si Si2 0.726637 0.958598 0.406825
Si Si3 0.651289 0.510383 0.064075
Si Si4 0.000000 0.869102 0.500000
Si Si5 0.326171 0.295047 0.099627
Si Si6 0.295392 0.511476 0.313202
O O1 0.401345 0.909165 0.815741
O O2 0.455608 0.538935 0.021936
O O3 0.766449 0.763249 0.547047
O O4 0.811698 0.914872 0.443731
O O5 0.738043 0.301975 0.236789
O O6 0.716880 0.793311 0.144110
O O7 0.614015 0.395768 0.908655
O O8 0.077893 0.696369 0.685808
O O9 0.082620 0.052351 0.557555
O O10 0.242680 0.047071 0.955890
#
# Coordination Sequence:
#
# PCOD8051521 Si02
#       6
#     2   4   4   2   4   4
#     4  10  26  46  74 100 142 186 224 284 352 396
#     4  11  25  47  69 104 139 180 234 284 337 414
#     4  11  23  48  69 101 142 179 228 288 336 411
#     4  12  26  46  74 100 138 188 228 280 358 392
#     4  12  25  47  69 101 139 180 233 286 337 408
#     4  11  25  45  71 102 140 177 235 282 335 421
#
# _framework density 23.937193000000001
#
# number of rings (size 3 to 8) (size 9 to 14) (size 15 to 20)
#    0.000    0.800    4.000    2.400    2.800   10.400 
#    3.600    0.000    0.000    0.000    0.000    0.000 
#    0.000    0.000    0.000    0.000    0.000    0.000 
#
# Total GULP energy -123992.568028 kJ/mol
# GULP energy per Si atom -12399.256803 kJ/mol
# Density = 2.388271 g / cm^3
# Si number density = 23.937193 Si / 1000 Ang^3
#
#
#
# Elastic Constant Matrix: (Units=GPa)
#
#
# Indices 1 2 3 4 5 6 
#
# 1 190.6310 25.0435 62.9998 0.0000 15.5984 -0.0001
# 2 25.0435 84.9308 15.5305 0.0001 11.7725 0.0001
# 3 62.9998 15.5305 119.1540 0.0000 -9.3984 0.0000
# 4 0.0000 0.0001 0.0000 23.5791 0.0000 -10.5741
# 5 15.5984 11.7725 -9.3984 0.0000 48.1688 0.0000
# 6 -0.0001 0.0001 0.0000 -10.5741 0.0000 30.9077
#
#
#
# Elastic Compliance Matrix: (Units=1/GPa)
#
#
# Indices 1 2 3 4 5 6 
#
# 1 0.006811 -0.000961 -0.003688 0.000000 -0.002690 0.000000
# 2 -0.000961 0.012739 -0.001395 0.000000 -0.003074 0.000000
# 3 -0.003688 -0.001395 0.010812 0.000000 0.003645 0.000000
# 4 0.000000 0.000000 0.000000 0.050097 0.000000 0.017139
# 5 -0.002690 -0.003074 0.003645 0.000000 0.023094 0.000000
# 6 0.000000 0.000000 0.000000 0.017139 0.000000 0.038218
#
#
# Mechanical properties :
#
#
# Convention : Reuss Voigt Hill
#
# Bulk Modulus (GPa) = 54.72296 66.87371 60.79834
# Shear Modulus (GPa) = 31.25995 39.94056 35.60025
#
# Velocity S-wave (km/s) = 3.61767 4.08923 3.86065
# Velocity P-wave (km/s) = 6.35301 7.09179 6.73254
#
# Compressibility (1/GPa) = 0.01827387
#
# Stress axis : x y z
#
# Youngs Moduli (GPa) = 146.82220 78.50003 92.49193
#
# Poissons Ratio (x) = 0.07544 0.34112
# Poissons Ratio (y) = 0.14110 0.12900
# Poissons Ratio (z) = 0.54149 0.10949
#
# Static dielectric constant tensor:
#      x y z
#    x 4.767570 0.000000 -0.054580 
#    y 0.000000 4.031060 0.000000 
#    z -0.054580 0.000000 4.050180 
# 
# 
# High freq. dielectric constant tensor:
#      x y z
#    x 1.983280 0.000000 -0.015250 
#    y 0.000000 1.934810 0.000000 
#    z -0.015250 0.000000 1.931230 
# 
# From -- ./inp_files/45371.got.cif
#   From: 2010.03.12/outbox.cif.g09.slc.cpg/sg5_23_cif.got.tgz:45371.got - 2010.03.31 09:47:26.
