data_PCOD8051496
_publ_section_title
;
Structure prediction by ZEFSAII (Michael W. Deem and Ramdas Pophale) SiO2 
 PCOD8051496
Probable space group: C 2
;
_chemical_formula_sum "Si O2"
_cell_formula_units_Z 30
_cell_length_a 24.620598
_cell_length_b 11.629580
_cell_length_c 13.364505
_cell_angle_alpha 90.000000
_cell_angle_beta 160.570891
_cell_angle_gamma 90.000000
_cell_volume 1272.888485
_symmetry_space_group_name_H-M "C 2"
_symmetry_group_IT_number 5
_symmetry_cell_setting 'monoclinic'
loop_
_space_group_symop_operation_xyz
x,y,z
-x,y,-z
1/2+x,1/2+y,z
1/2-x,1/2+y,-z
loop_
_atom_site_type_symbol
_atom_site_label
_atom_site_fract_x
_atom_site_fract_y
_atom_site_fract_z
Si Si1 0.754928 0.460020 0.911683
Si Si2 0.040884 0.845593 0.223923
Si Si3 0.941234 0.344554 0.649322
Si Si4 0.401893 0.674871 0.422767
Si Si5 0.768200 0.011291 0.576995
Si Si6 0.949027 0.951578 0.259872
Si Si7 0.500000 0.155581 0.000000
Si Si8 0.372368 0.736200 0.857602
O O1 0.748122 0.598863 0.881146
O O2 0.614057 0.399986 0.598657
O O3 0.712107 0.426744 0.952535
O O4 0.936684 0.426513 0.198764
O O5 0.207642 0.807501 0.565171
O O6 0.921917 0.894636 0.103715
O O7 0.083773 0.949582 0.223274
O O8 0.955106 0.739096 0.015836
O O9 0.838800 0.273208 0.388844
O O10 0.822911 0.416188 0.514889
O O11 0.047168 0.252151 0.894885
O O12 0.500000 0.730372 0.500000
O O13 0.525371 0.589693 0.698606
O O14 0.842230 0.102485 0.782803
O O15 0.652709 0.075106 0.294519
O O16 0.500000 0.789516 0.000000
#
# Coordination Sequence:
#
# PCOD8051496 Si02
#       8
#     4   4   4   4   4   4   2   4
#     4   8  18  37  64  89 122 161 202 256 308 363
#     4  11  21  41  64  89 126 166 208 252 315 372
#     4  12  21  40  69  86 122 173 198 257 322 366
#     4   8  19  38  63  93 118 158 212 249 307 374
#     4  11  26  39  60  95 125 159 212 259 308 377
#     4   8  17  37  63  88 124 158 207 254 297 371
#     4  10  26  40  58  98 126 160 210 254 312 370
#     4  11  23  40  61  91 126 164 212 253 313 379
#
# _framework density 23.568444
#
# number of rings (size 3 to 8) (size 9 to 14) (size 15 to 20)
#    0.800    1.333    2.667    0.800    2.800    1.067 
#    0.000   12.000    0.000    0.000    0.000    0.000 
#    0.000    0.000    0.000    0.000    0.000    0.000 
#
# Total GULP energy -185844.841617 kJ/mol
# GULP energy per Si atom -12389.656108 kJ/mol
# Density = 2.351480 g / cm^3
# Si number density = 23.568444 Si / 1000 Ang^3
#
#
#
# Elastic Constant Matrix: (Units=GPa)
#
#
# Indices 1 2 3 4 5 6 
#
# 1 167.9223 67.8268 34.6640 0.0000 -1.9429 0.0000
# 2 67.8268 102.1391 24.0553 0.0000 -13.5090 0.0000
# 3 34.6640 24.0553 22.7881 0.0000 0.7006 0.0000
# 4 0.0000 0.0000 0.0000 19.8697 0.0000 -6.4580
# 5 -1.9429 -13.5090 0.7006 0.0000 22.8773 0.0000
# 6 0.0000 0.0000 0.0000 -6.4580 0.0000 41.0756
#
#
#
# Elastic Compliance Matrix: (Units=1/GPa)
#
#
# Indices 1 2 3 4 5 6 
#
# 1 0.009795 -0.004237 -0.010384 0.000000 -0.001352 0.000000
# 2 -0.004237 0.016569 -0.011345 0.000000 0.009771 0.000000
# 3 -0.010384 -0.011345 0.071955 0.000000 -0.009785 0.000000
# 4 0.000000 0.000000 0.000000 0.053038 0.000000 0.008339
# 5 -0.001352 0.009771 -0.009785 0.000000 0.049666 0.000000
# 6 0.000000 0.000000 0.000000 0.008339 0.000000 0.025656
#
#
# Mechanical properties :
#
#
# Convention : Reuss Voigt Hill
#
# Bulk Modulus (GPa) = 21.55857 60.66017 41.10937
# Shear Modulus (GPa) = 17.00251 27.85142 22.42697
#
# Velocity S-wave (km/s) = 2.68882 3.44135 3.08810
# Velocity P-wave (km/s) = 4.33668 6.44859 5.49505
#
# Compressibility (1/GPa) = 0.04638527
#
# Stress axis : x y z
#
# Youngs Moduli (GPa) = 102.09564 60.35473 13.89757
#
# Poissons Ratio (x) = 0.25575 0.14432
# Poissons Ratio (y) = 0.43263 0.15766
# Poissons Ratio (z) = 1.06021 0.68470
#
# Static dielectric constant tensor:
#      x y z
#    x 4.206400 0.000000 -0.105570 
#    y 0.000000 4.119980 0.000000 
#    z -0.105570 0.000000 4.001600 
# 
# 
# High freq. dielectric constant tensor:
#      x y z
#    x 1.938130 0.000000 -0.001750 
#    y 0.000000 1.924330 0.000000 
#    z -0.001750 0.000000 1.912830 
# 
# From -- ./inp_files/58193.got.cif
#   From: 2010.03.12/outbox.cif.g09.slc.cpg/sg5_30_cif.got.tgz:58193.got - 2010.03.31 09:47:26.
