data_PCOD8051698
_publ_section_title
;
Structure prediction by ZEFSAII (Michael W. Deem and Ramdas Pophale) SiO2 
 PCOD8051698
Probable space group: C 2
;
_chemical_formula_sum "Si O2"
_cell_formula_units_Z 24
_cell_length_a 9.120475
_cell_length_b 13.334367
_cell_length_c 9.682194
_cell_angle_alpha 90.000000
_cell_angle_beta 76.718657
_cell_angle_gamma 90.000000
_cell_volume 1146.013461
_symmetry_space_group_name_H-M "C 2"
_symmetry_group_IT_number 5
_symmetry_cell_setting 'monoclinic'
loop_
_space_group_symop_operation_xyz
x,y,z
-x,y,-z
1/2+x,1/2+y,z
1/2-x,1/2+y,-z
loop_
_atom_site_type_symbol
_atom_site_label
_atom_site_fract_x
_atom_site_fract_y
_atom_site_fract_z
Si Si1 0.717163 0.524750 0.934670
Si Si2 0.549108 0.289655 0.642223
Si Si3 0.133739 0.724450 0.067196
Si Si4 0.615368 0.709425 0.353113
Si Si5 0.888637 0.343234 0.900075
Si Si6 0.976604 0.005067 0.766868
O O1 0.745441 0.637590 0.970986
O O2 0.871062 0.461870 0.869713
O O3 0.627031 0.538732 0.812179
O O4 0.635808 0.473909 0.085048
O O5 0.500000 0.258559 0.500000
O O6 0.423972 0.239664 0.766100
O O7 0.714893 0.243922 0.641231
O O8 0.529627 0.409652 0.664240
O O9 0.216700 0.818694 0.980716
O O10 0.000000 0.691310 0.000000
O O11 0.500000 0.731906 0.500000
O O12 0.556730 0.779754 0.242075
O O13 0.598715 0.592091 0.312618
O O14 0.000000 0.320877 0.000000
#
# Coordination Sequence:
#
# PCOD8051698 Si02
#       6
#     4   4   4   4   4   4
#     4  11  22  39  73 108 134 177 243 297 354 421
#     4  12  27  47  72 103 144 191 233 296 360 422
#     4  12  22  44  70 100 138 181 241 297 352 421
#     4  12  27  46  71 105 145 189 238 290 361 431
#     4  12  24  42  70 105 139 183 237 298 351 419
#     4  11  22  45  73 101 139 183 236 295 358 418
#
# _framework density 20.942163000000001
#
# number of rings (size 3 to 8) (size 9 to 14) (size 15 to 20)
#    0.000    0.333    6.667    2.000    4.667    0.000 
#    0.000    2.500    0.000    0.000    0.000    0.000 
#    0.000    0.000    0.000    0.000    0.000    0.000 
#
# Total GULP energy -148693.816946 kJ/mol
# GULP energy per Si atom -12391.151412 kJ/mol
# Density = 2.089450 g / cm^3
# Si number density = 20.942163 Si / 1000 Ang^3
#
#
#
# Elastic Constant Matrix: (Units=GPa)
#
#
# Indices 1 2 3 4 5 6 
#
# 1 86.7950 36.3656 45.6752 0.0000 12.2799 0.0000
# 2 36.3656 102.0593 32.4040 0.0000 6.2659 0.0000
# 3 45.6752 32.4040 136.9159 0.0000 5.5354 0.0000
# 4 0.0000 0.0000 0.0000 40.2700 0.0000 -0.1199
# 5 12.2799 6.2659 5.5354 0.0000 42.7998 0.0000
# 6 0.0000 0.0000 0.0000 -0.1199 0.0000 41.2761
#
#
#
# Elastic Compliance Matrix: (Units=1/GPa)
#
#
# Indices 1 2 3 4 5 6 
#
# 1 0.015953 -0.004139 -0.004204 0.000000 -0.003427 0.000000
# 2 -0.004139 0.011733 -0.001382 0.000000 -0.000351 0.000000
# 3 -0.004204 -0.001382 0.009023 0.000000 0.000241 0.000000
# 4 0.000000 0.000000 0.000000 0.024833 0.000000 0.000072
# 5 -0.003427 -0.000351 0.000241 0.000000 0.024368 0.000000
# 6 0.000000 0.000000 0.000000 0.000072 0.000000 0.024227
#
#
# Mechanical properties :
#
#
# Convention : Reuss Voigt Hill
#
# Bulk Modulus (GPa) = 57.93718 61.62887 59.78303
# Shear Modulus (GPa) = 36.94387 38.95752 37.95070
#
# Velocity S-wave (km/s) = 4.20466 4.31773 4.26157
# Velocity P-wave (km/s) = 7.16224 7.37218 7.26797
#
# Compressibility (1/GPa) = 0.01726007
#
# Stress axis : x y z
#
# Youngs Moduli (GPa) = 62.68533 85.22661 110.82301
#
# Poissons Ratio (x) = 0.35277 0.46586
# Poissons Ratio (y) = 0.25946 0.15315
# Poissons Ratio (z) = 0.26351 0.11778
#
# Static dielectric constant tensor:
#      x y z
#    x 3.647530 0.000000 0.051420 
#    y 0.000000 3.811200 0.000000 
#    z 0.051420 0.000000 3.793960 
# 
# 
# High freq. dielectric constant tensor:
#      x y z
#    x 1.819740 0.000000 0.007290 
#    y 0.000000 1.834880 0.000000 
#    z 0.007290 0.000000 1.819190 
# 
# From -- ./inp_files/14925.got.cif
#   From: 2010.03.12/outbox.cif.g09.slc.cpg/sg5_8_cif.got.tgz:14925.got - 2010.03.31 09:47:26.
