data_PCOD8051805
_publ_section_title
;
Structure prediction by ZEFSAII (Michael W. Deem and Ramdas Pophale) SiO2 
 PCOD8051805
Probable space group: C 2
;
_chemical_formula_sum "Si O2"
_cell_formula_units_Z 26
_cell_length_a 13.606326
_cell_length_b 23.081728
_cell_length_c 9.731350
_cell_angle_alpha 90.000000
_cell_angle_beta 25.687541
_cell_angle_gamma 90.000000
_cell_volume 1324.751595
_symmetry_space_group_name_H-M "C 2"
_symmetry_group_IT_number 5
_symmetry_cell_setting 'monoclinic'
loop_
_space_group_symop_operation_xyz
x,y,z
-x,y,-z
1/2+x,1/2+y,z
1/2-x,1/2+y,-z
loop_
_atom_site_type_symbol
_atom_site_label
_atom_site_fract_x
_atom_site_fract_y
_atom_site_fract_z
Si Si1 0.806826 0.569890 0.856394
Si Si2 0.500000 0.303365 0.500000
Si Si3 0.443086 0.654861 0.408557
Si Si4 0.463150 0.479382 0.200850
Si Si5 0.026019 0.261787 0.127364
Si Si6 0.786786 0.372843 0.350534
Si Si7 0.399689 0.065788 0.256798
O O1 0.000000 0.580670 0.500000
O O2 0.899286 0.577813 0.892435
O O3 0.622492 0.620886 0.085329
O O4 0.691876 0.505832 0.982226
O O5 0.603467 0.342941 0.486460
O O6 0.295375 0.265167 0.821117
O O7 0.500000 0.657120 0.500000
O O8 0.419569 0.718513 0.372628
O O9 0.203338 0.623596 0.684169
O O10 0.361056 0.422538 0.396003
O O11 0.282265 0.530351 0.428702
O O12 0.500000 0.460691 0.000000
O O13 0.896363 0.323641 0.312720
O O14 0.000000 0.242153 0.000000
O O15 0.000000 0.400504 0.000000
O O16 0.500000 0.029870 0.000000
#
# Coordination Sequence:
#
# PCOD8051805 Si02
#       7
#     4   2   4   4   4   4   4
#     4  11  24  40  62  91 124 166 206 254 317 372
#     4   8  18  40  60  88 112 164 214 252 300 382
#     4  11  24  40  61  96 127 162 208 260 312 374
#     4  11  23  39  61  91 125 160 212 260 312 372
#     4   9  21  39  63  89 123 163 212 253 308 368
#     4   9  20  41  63  89 120 162 211 257 306 368
#     4  11  23  42  60  89 127 162 205 257 313 377
#
# _framework density 19.626321000000001
#
# number of rings (size 3 to 8) (size 9 to 14) (size 15 to 20)
#    0.000    2.154    3.077    0.462    3.231    4.923 
#    2.769    0.000    0.000    0.000    0.000    0.000 
#    0.000    0.000    0.000    0.000    0.000    0.000 
#
# Total GULP energy -161052.237349 kJ/mol
# GULP energy per Si atom -12388.633642 kJ/mol
# Density = 1.958165 g / cm^3
# Si number density = 19.626321 Si / 1000 Ang^3
#
#
#
# Elastic Constant Matrix: (Units=GPa)
#
#
# Indices 1 2 3 4 5 6 
#
# 1 107.4992 36.1367 40.4058 -0.0258 -4.8755 0.0111
# 2 36.1367 99.2599 41.2488 0.0367 7.4383 -0.0258
# 3 40.4058 41.2488 104.1228 0.0771 3.1751 -0.0722
# 4 -0.0258 0.0367 0.0771 25.7466 0.0078 13.4152
# 5 -4.8755 7.4383 3.1751 0.0078 39.0985 0.0123
# 6 0.0111 -0.0258 -0.0722 13.4152 0.0123 16.4220
#
#
#
# Elastic Compliance Matrix: (Units=1/GPa)
#
#
# Indices 1 2 3 4 5 6 
#
# 1 0.011705 -0.003014 -0.003419 0.000071 0.002311 -0.000088
# 2 -0.003014 0.012980 -0.003895 -0.000022 -0.002529 0.000025
# 3 -0.003419 -0.003895 0.012496 -0.000108 -0.000700 0.000140
# 4 0.000071 -0.000022 -0.000108 0.067625 0.000026 -0.055244
# 5 0.002311 -0.002529 -0.000700 0.000026 0.026403 -0.000050
# 6 -0.000088 0.000025 0.000140 -0.055244 -0.000050 0.106023
#
#
# Mechanical properties :
#
#
# Convention : Reuss Voigt Hill
#
# Bulk Modulus (GPa) = 60.51635 60.71827 60.61731
# Shear Modulus (GPa) = 18.98277 29.12611 24.05444
#
# Velocity S-wave (km/s) = 3.11337 3.85649 3.50469
# Velocity P-wave (km/s) = 6.62007 7.12982 6.87967
#
# Compressibility (1/GPa) = 0.01652446
#
# Stress axis : x y z
#
# Youngs Moduli (GPa) = 85.43008 77.04084 80.02852
#
# Poissons Ratio (x) = 0.23219 0.27362
# Poissons Ratio (y) = 0.25748 0.31174
# Poissons Ratio (z) = 0.29209 0.30011
#
# Static dielectric constant tensor:
#      x y z
#    x 3.559630 -0.000040 -0.252710 
#    y -0.000040 3.479100 0.000090 
#    z -0.252710 0.000090 3.813060 
# 
# 
# High freq. dielectric constant tensor:
#      x y z
#    x 1.763440 0.000000 -0.011560 
#    y 0.000000 1.751150 0.000010 
#    z -0.011560 0.000010 1.779090 
# 
# From -- ./inp_files/17469.got.cif
#   From: 2010.03.12/outbox.cif.g09.slc.cpg/sg5_9_cif.got.tgz:17469.got - 2010.03.31 09:47:26.
