data_PCOD8051981
_publ_section_title
;
Structure prediction by ZEFSAII (Michael W. Deem and Ramdas Pophale) SiO2 
 PCOD8051981
Probable space group: C 2
;
_chemical_formula_sum "Si O2"
_cell_formula_units_Z 30
_cell_length_a 11.515741
_cell_length_b 7.883321
_cell_length_c 14.963321
_cell_angle_alpha 90.000000
_cell_angle_beta 76.213784
_cell_angle_gamma 90.000000
_cell_volume 1319.271032
_symmetry_space_group_name_H-M "C 2"
_symmetry_group_IT_number 5
_symmetry_cell_setting 'monoclinic'
loop_
_space_group_symop_operation_xyz
x,y,z
-x,y,-z
1/2+x,1/2+y,z
1/2-x,1/2+y,-z
loop_
_atom_site_type_symbol
_atom_site_label
_atom_site_fract_x
_atom_site_fract_y
_atom_site_fract_z
Si Si1 0.395887 0.036820 0.951127
Si Si2 0.000000 0.582065 0.500000
Si Si3 0.814249 0.176667 0.890736
Si Si4 0.573124 0.696275 0.397476
Si Si5 0.613249 0.914196 0.633962
Si Si6 0.686015 0.224786 0.727149
Si Si7 0.862114 0.823647 0.646579
Si Si8 0.448625 0.352508 0.817843
O O1 0.446260 0.189401 0.881821
O O2 0.364704 0.863159 0.904422
O O3 0.500000 0.985529 0.000000
O O4 0.278867 0.112987 0.018692
O O5 0.105201 0.480929 0.532495
O O6 0.056103 0.678110 0.406795
O O7 0.752761 0.181825 0.806030
O O8 0.917344 0.031249 0.870528
O O9 0.500000 0.747300 0.500000
O O10 0.499893 0.787533 0.330090
O O11 0.710830 0.765718 0.366194
O O12 0.570600 0.496955 0.388832
O O13 0.734405 0.807507 0.623102
O O14 0.611835 0.059788 0.709010
O O15 0.586638 0.371730 0.756911
O O16 0.855453 0.811311 0.754949
#
# Coordination Sequence:
#
# PCOD8051981 Si02
#       8
#     4   2   4   4   4   4   4   4
#     4  12  28  48  82 113 155 188 247 313 371 462
#     4  12  24  40  70 102 138 196 240 308 380 420
#     4  12  26  50  76 117 151 198 242 305 390 444
#     4  11  24  46  69 103 145 192 253 313 365 435
#     4  11  25  44  67 101 141 191 251 305 365 434
#     4  11  26  46  73 107 153 191 249 310 363 453
#     4  11  26  44  68 103 147 191 244 306 378 440
#     4  12  25  52  76 109 157 197 247 311 376 451
#
# _framework density 22.739832
#
# number of rings (size 3 to 8) (size 9 to 14) (size 15 to 20)
#    0.000    0.533    8.000    0.000    5.600    1.600 
#    4.800    0.000    0.000    0.000    0.000    0.000 
#    0.000    0.000    0.000    0.000    0.000    0.000 
#
# Total GULP energy -185854.891537 kJ/mol
# GULP energy per Si atom -12390.326102 kJ/mol
# Density = 2.268807 g / cm^3
# Si number density = 22.739832 Si / 1000 Ang^3
#
#
#
# Elastic Constant Matrix: (Units=GPa)
#
#
# Indices 1 2 3 4 5 6 
#
# 1 143.3172 49.2265 37.4278 0.0000 -0.9871 0.0000
# 2 49.2265 103.4780 20.7559 0.0000 0.8515 0.0000
# 3 37.4278 20.7559 87.6994 0.0000 -0.8183 0.0000
# 4 0.0000 0.0000 0.0000 26.4401 0.0000 13.1430
# 5 -0.9871 0.8515 -0.8183 0.0000 48.3684 0.0000
# 6 0.0000 0.0000 0.0000 13.1430 0.0000 36.4544
#
#
#
# Elastic Compliance Matrix: (Units=1/GPa)
#
#
# Indices 1 2 3 4 5 6 
#
# 1 0.009026 -0.003699 -0.002975 0.000000 0.000199 0.000000
# 2 -0.003699 0.011664 -0.001185 0.000000 -0.000301 0.000000
# 3 -0.002975 -0.001185 0.012954 0.000000 0.000179 0.000000
# 4 0.000000 0.000000 0.000000 0.046080 0.000000 -0.016613
# 5 0.000199 -0.000301 0.000179 0.000000 0.020687 0.000000
# 6 0.000000 0.000000 0.000000 -0.016613 0.000000 0.033421
#
#
# Mechanical properties :
#
#
# Convention : Reuss Voigt Hill
#
# Bulk Modulus (GPa) = 55.78104 61.03500 58.40802
# Shear Modulus (GPa) = 32.14923 37.39152 34.77038
#
# Velocity S-wave (km/s) = 3.76411 4.05942 3.91455
# Velocity P-wave (km/s) = 6.59354 6.99076 6.79505
#
# Compressibility (1/GPa) = 0.01792724
#
# Stress axis : x y z
#
# Youngs Moduli (GPa) = 110.78721 85.73657 77.19474
#
# Poissons Ratio (x) = 0.31713 0.22965
# Poissons Ratio (y) = 0.40979 0.09145
# Poissons Ratio (z) = 0.32958 0.10157
#
# Static dielectric constant tensor:
#      x y z
#    x 4.460390 0.000000 -0.055910 
#    y 0.000000 4.228240 0.000000 
#    z -0.055910 0.000000 4.219200 
# 
# 
# High freq. dielectric constant tensor:
#      x y z
#    x 1.906520 0.000000 0.002110 
#    y 0.000000 1.904220 0.000000 
#    z 0.002110 0.000000 1.897220 
# 
# From -- ./inp_files/52264.got.cif
#   From: 2010.03.12/outbox.cif.g09.slc.cpg/sg5_27_cif.got.tgz:52264.got - 2010.03.31 09:47:26.
