data_PCOD8051767
_publ_section_title
;
Structure prediction by ZEFSAII (Michael W. Deem and Ramdas Pophale) SiO2 
 PCOD8051767
Probable space group: C 2
;
_chemical_formula_sum "Si O2"
_cell_formula_units_Z 30
_cell_length_a 11.770282
_cell_length_b 7.794756
_cell_length_c 29.145434
_cell_angle_alpha 90.000000
_cell_angle_beta 149.429569
_cell_angle_gamma 90.000000
_cell_volume 1359.984106
_symmetry_space_group_name_H-M "C 2"
_symmetry_group_IT_number 5
_symmetry_cell_setting 'monoclinic'
loop_
_space_group_symop_operation_xyz
x,y,z
-x,y,-z
1/2+x,1/2+y,z
1/2-x,1/2+y,-z
loop_
_atom_site_type_symbol
_atom_site_label
_atom_site_fract_x
_atom_site_fract_y
_atom_site_fract_z
Si Si1 0.633963 0.844960 0.839164
Si Si2 0.542219 0.240171 0.121608
Si Si3 0.860494 0.906833 0.355012
Si Si4 0.892451 0.367194 0.068247
Si Si5 0.977707 0.608590 0.646207
Si Si6 0.240575 0.291953 0.708041
Si Si7 0.833355 0.695010 0.191726
Si Si8 0.000000 0.983931 0.500000
O O1 0.386057 0.828113 0.733012
O O2 0.644037 0.776121 0.895005
O O3 0.802067 0.726457 0.869041
O O4 0.704569 0.044669 0.858611
O O5 0.689124 0.301651 0.214766
O O6 0.440343 0.059620 0.098556
O O7 0.332217 0.365857 0.039924
O O8 0.950151 0.871621 0.437494
O O9 0.007683 0.794696 0.371952
O O10 0.872636 0.108830 0.344838
O O11 0.101898 0.295486 0.113069
O O12 0.715999 0.598427 0.565398
O O13 0.067017 0.452402 0.644162
O O14 0.113369 0.608933 0.740884
O O15 0.460824 0.317891 0.752710
#
# Coordination Sequence:
#
# PCOD8051767 Si02
#       8
#     4   4   4   4   4   4   4   2
#     4  11  22  47  65  91 139 182 225 294 352 398
#     4  12  24  42  68  97 141 184 238 293 344 413
#     4  11  25  48  72 104 141 180 234 292 351 429
#     4  12  26  41  65 102 136 185 240 288 345 416
#     4  12  25  47  75 100 143 183 232 294 359 421
#     4  11  24  48  73 103 139 195 234 286 362 415
#     4  11  22  45  70  95 137 182 233 287 347 422
#     4  12  26  48  72 112 140 176 236 298 350 436
#
# _framework density 22.059083000000001
#
# number of rings (size 3 to 8) (size 9 to 14) (size 15 to 20)
#    0.000    0.533    8.000    1.200    3.733    0.533 
#    4.800    1.333    0.000    0.000    0.000    0.000 
#    0.000    0.000    0.000    0.000    0.000    0.000 
#
# Total GULP energy -185967.149403 kJ/mol
# GULP energy per Si atom -12397.809960 kJ/mol
# Density = 2.200888 g / cm^3
# Si number density = 22.059083 Si / 1000 Ang^3
#
#
#
# Elastic Constant Matrix: (Units=GPa)
#
#
# Indices 1 2 3 4 5 6 
#
# 1 112.3878 38.9931 5.6301 -0.0001 11.3069 -0.0002
# 2 38.9931 59.2757 22.3724 -0.0005 6.0419 -0.0005
# 3 5.6301 22.3724 63.3906 -0.0001 -0.7282 -0.0002
# 4 -0.0001 -0.0005 -0.0001 25.5959 0.0001 18.5163
# 5 11.3069 6.0419 -0.7282 0.0001 36.9415 0.0001
# 6 -0.0002 -0.0005 -0.0002 18.5163 0.0001 68.5297
#
#
#
# Elastic Compliance Matrix: (Units=1/GPa)
#
#
# Indices 1 2 3 4 5 6 
#
# 1 0.011913 -0.008304 0.001847 0.000000 -0.002252 0.000000
# 2 -0.008304 0.025667 -0.008342 0.000000 -0.001821 0.000000
# 3 0.001847 -0.008342 0.018569 0.000000 0.001165 0.000000
# 4 0.000000 0.000000 0.000000 0.048560 0.000000 -0.013121
# 5 -0.002252 -0.001821 0.001165 0.000000 0.028080 0.000000
# 6 0.000000 0.000000 0.000000 -0.013121 0.000000 0.018137
#
#
# Mechanical properties :
#
#
# Convention : Reuss Voigt Hill
#
# Bulk Modulus (GPa) = 37.66471 41.00502 39.33486
# Shear Modulus (GPa) = 26.40265 37.41731 31.90998
#
# Velocity S-wave (km/s) = 3.46339 4.12300 3.80750
# Velocity P-wave (km/s) = 5.75369 6.42609 6.09916
#
# Compressibility (1/GPa) = 0.02655005
#
# Stress axis : x y z
#
# Youngs Moduli (GPa) = 83.94240 38.96034 53.85402
#
# Poissons Ratio (x) = 0.32353 -0.09946
# Poissons Ratio (y) = 0.69707 0.44925
# Poissons Ratio (z) = -0.15503 0.32501
#
# Static dielectric constant tensor:
#      x y z
#    x 3.920730 0.000000 0.785650 
#    y 0.000000 3.887830 0.000000 
#    z 0.785650 0.000000 2.370170 
# 
# 
# High freq. dielectric constant tensor:
#      x y z
#    x 1.884770 0.000000 0.007150 
#    y 0.000000 1.848070 0.000000 
#    z 0.007150 0.000000 1.865070 
# 
# From -- ./inp_files/71712.got.cif
#   From: 2010.03.12/outbox.cif.g09.slc.cpg/sg5_36_cif.got.tgz:71712.got - 2010.03.31 09:47:26.
