data_PCOD8051693
_publ_section_title
;
Structure prediction by ZEFSAII (Michael W. Deem and Ramdas Pophale) SiO2 
 PCOD8051693
Probable space group: C 2
;
_chemical_formula_sum "Si O2"
_cell_formula_units_Z 32
_cell_length_a 20.745352
_cell_length_b 14.915010
_cell_length_c 14.394550
_cell_angle_alpha 90.000000
_cell_angle_beta 160.589537
_cell_angle_gamma 90.000000
_cell_volume 1480.186379
_symmetry_space_group_name_H-M "C 2"
_symmetry_group_IT_number 5
_symmetry_cell_setting 'monoclinic'
loop_
_space_group_symop_operation_xyz
x,y,z
-x,y,-z
1/2+x,1/2+y,z
1/2-x,1/2+y,-z
loop_
_atom_site_type_symbol
_atom_site_label
_atom_site_fract_x
_atom_site_fract_y
_atom_site_fract_z
Si Si1 0.655730 0.121480 0.946548
Si Si2 0.961981 0.039075 0.614879
Si Si3 0.787168 0.285679 0.219819
Si Si4 0.092627 0.495251 0.025177
Si Si5 0.087531 0.517232 0.517690
Si Si6 0.770019 0.705454 0.674611
Si Si7 0.458586 0.456197 0.089543
Si Si8 0.142464 0.392368 0.431135
O O1 0.695559 0.228554 0.009478
O O2 0.858088 0.073950 0.199312
O O3 0.561383 0.080064 0.912778
O O4 0.504560 0.105252 0.656075
O O5 0.836357 0.114122 0.502047
O O6 0.822551 0.983773 0.355312
O O7 0.039930 0.972137 0.798747
O O8 0.818361 0.212869 0.342792
O O9 0.000000 0.329526 0.500000
O O10 0.639155 0.359099 0.056281
O O11 0.000000 0.514730 0.000000
O O12 0.002734 0.406678 0.853839
O O13 0.043996 0.430302 0.391771
O O14 0.000000 0.499484 0.500000
O O15 0.320374 0.528147 0.848863
O O16 0.701716 0.788174 0.516861
O O17 0.000000 0.697900 0.000000
O O18 0.668363 0.454388 0.328258
#
# Coordination Sequence:
#
# PCOD8051693 Si02
#       8
#     4   4   4   4   4   4   4   4
#     4  11  24  41  65  99 135 164 220 278 324 380
#     4  12  24  41  67  99 132 172 217 268 329 391
#     4  12  23  39  65  96 127 165 222 270 315 384
#     4  11  22  39  67  97 130 173 214 266 331 389
#     4  11  22  39  67  97 130 173 214 266 331 389
#     4  12  23  39  65  96 127 165 222 270 315 384
#     4  12  24  41  67  99 132 172 217 268 329 391
#     4  11  24  41  65  99 135 164 220 278 324 380
#
# _framework density 21.618898999999999
#
# number of rings (size 3 to 8) (size 9 to 14) (size 15 to 20)
#    0.000    0.500    7.500    1.500    0.000    0.000 
#    0.000    1.250    0.000    0.000    0.000    0.000 
#    0.000    0.000    0.000    0.000    0.000    0.000 
#
# Total GULP energy -198267.015440 kJ/mol
# GULP energy per Si atom -12391.688465 kJ/mol
# Density = 2.156969 g / cm^3
# Si number density = 21.618899 Si / 1000 Ang^3
#
#
#
# Elastic Constant Matrix: (Units=GPa)
#
#
# Indices 1 2 3 4 5 6 
#
# 1 111.0252 15.8322 32.1639 0.0001 -4.3747 0.0001
# 2 15.8322 64.8861 37.8729 0.0000 -9.9039 0.0000
# 3 32.1639 37.8729 139.8100 0.0001 -19.1221 0.0001
# 4 0.0001 0.0000 0.0001 29.4587 0.0001 -3.5477
# 5 -4.3747 -9.9039 -19.1221 0.0001 35.8356 0.0001
# 6 0.0001 0.0000 0.0001 -3.5477 0.0001 25.9992
#
#
#
# Elastic Compliance Matrix: (Units=1/GPa)
#
#
# Indices 1 2 3 4 5 6 
#
# 1 0.009738 -0.001286 -0.001918 0.000000 -0.000190 0.000000
# 2 -0.001286 0.018704 -0.004407 0.000000 0.002661 0.000000
# 3 -0.001918 -0.004407 0.009265 0.000000 0.003492 0.000000
# 4 0.000000 0.000000 0.000000 0.034513 0.000000 0.004709
# 5 -0.000190 0.002661 0.003492 0.000000 0.030481 0.000000
# 6 0.000000 0.000000 0.000000 0.004709 0.000000 0.039105
#
#
# Mechanical properties :
#
#
# Convention : Reuss Voigt Hill
#
# Bulk Modulus (GPa) = 44.47204 54.16214 49.31709
# Shear Modulus (GPa) = 30.39089 33.58218 31.98654
#
# Velocity S-wave (km/s) = 3.75341 3.94556 3.85068
# Velocity P-wave (km/s) = 6.27692 6.77231 6.52931
#
# Compressibility (1/GPa) = 0.02248604
#
# Stress axis : x y z
#
# Youngs Moduli (GPa) = 102.68544 53.46538 107.93061
#
# Poissons Ratio (x) = 0.06874 0.20702
# Poissons Ratio (y) = 0.13202 0.47564
# Poissons Ratio (z) = 0.19696 0.23562
#
# Static dielectric constant tensor:
#      x y z
#    x 4.013100 0.000000 -0.020500 
#    y 0.000000 3.678600 0.000000 
#    z -0.020500 0.000000 4.323920 
# 
# 
# High freq. dielectric constant tensor:
#      x y z
#    x 1.856960 0.000000 0.007990 
#    y 0.000000 1.813650 0.000000 
#    z 0.007990 0.000000 1.859400 
# 
# From -- ./inp_files/57193.got.cif
#   From: 2010.03.12/outbox.cif.g09.slc.cpg/sg5_29_cif.got.tgz:57193.got - 2010.03.31 09:47:26.
