data_PCOD8051305
_publ_section_title
;
Structure prediction by ZEFSAII (Michael W. Deem and Ramdas Pophale) SiO2 
 PCOD8051305
Probable space group: C 2
;
_chemical_formula_sum "Si O2"
_cell_formula_units_Z 20
_cell_length_a 7.568785
_cell_length_b 12.391134
_cell_length_c 16.253929
_cell_angle_alpha 90.000000
_cell_angle_beta 39.659531
_cell_angle_gamma 90.000000
_cell_volume 972.901472
_symmetry_space_group_name_H-M "C 2"
_symmetry_group_IT_number 5
_symmetry_cell_setting 'monoclinic'
loop_
_space_group_symop_operation_xyz
x,y,z
-x,y,-z
1/2+x,1/2+y,z
1/2-x,1/2+y,-z
loop_
_atom_site_type_symbol
_atom_site_label
_atom_site_fract_x
_atom_site_fract_y
_atom_site_fract_z
Si Si1 0.000000 0.546460 0.000000
Si Si2 0.478251 0.025791 0.303278
Si Si3 0.000000 0.184381 0.500000
Si Si4 0.500611 0.662309 0.097330
Si Si5 0.177291 0.399290 0.793699
Si Si6 0.807774 0.853855 0.492204
O O1 0.204336 0.623253 0.976722
O O2 0.172654 0.470465 0.877135
O O3 0.508034 0.953343 0.211113
O O4 0.394646 0.952126 0.411122
O O5 0.236981 0.112533 0.373545
O O6 0.764610 0.085060 0.219739
O O7 0.119883 0.254403 0.532002
O O8 0.453725 0.782980 0.144275
O O9 0.500000 0.656923 0.000000
O O10 0.498123 0.390728 0.652566
O O11 0.000000 0.818335 0.500000
#
# Coordination Sequence:
#
# PCOD8051305 Si02
#       6
#     2   4   2   4   4   4
#     4  12  28  42  70  98 132 188 230 272 336 398
#     4  11  24  46  69 102 140 170 228 282 334 405
#     4  12  22  44  72  98 140 178 208 286 348 390
#     4  12  26  46  68  99 139 183 225 279 330 400
#     4  11  23  46  68 100 136 175 233 273 333 404
#     4  10  24  44  67 105 136 173 224 279 334 412
#
# _framework density 20.557067
#
# number of rings (size 3 to 8) (size 9 to 14) (size 15 to 20)
#    0.000    0.800    8.000    0.000    2.800    4.800 
#    1.800    0.000    0.000    0.000    0.000    0.000 
#    0.000    0.000    0.000    0.000    0.000    0.000 
#
# Total GULP energy -124056.045656 kJ/mol
# GULP energy per Si atom -12405.604566 kJ/mol
# Density = 2.051028 g / cm^3
# Si number density = 20.557067 Si / 1000 Ang^3
#
#
#
# Elastic Constant Matrix: (Units=GPa)
#
#
# Indices 1 2 3 4 5 6 
#
# 1 116.6303 71.2203 56.8841 -0.0002 -6.2067 -0.0007
# 2 71.2203 153.3662 62.3825 0.0010 2.3728 -0.0013
# 3 56.8841 62.3825 123.9714 -0.0020 9.8776 -0.0095
# 4 -0.0002 0.0010 -0.0020 38.3812 0.0015 -1.2030
# 5 -6.2067 2.3728 9.8776 0.0015 32.8028 0.0024
# 6 -0.0007 -0.0013 -0.0095 -1.2030 0.0024 16.7710
#
#
#
# Elastic Compliance Matrix: (Units=1/GPa)
#
#
# Indices 1 2 3 4 5 6 
#
# 1 0.013769 -0.004718 -0.004281 0.000000 0.004236 -0.000003
# 2 -0.004718 0.009829 -0.002719 0.000000 -0.000785 -0.000001
# 3 -0.004281 -0.002719 0.011729 0.000001 -0.004145 0.000007
# 4 0.000000 0.000000 0.000001 0.026113 -0.000002 0.001873
# 5 0.004236 -0.000785 -0.004145 -0.000002 0.032592 -0.000007
# 6 -0.000003 -0.000001 0.000007 0.001873 -0.000007 0.059761
#
#
# Mechanical properties :
#
#
# Convention : Reuss Voigt Hill
#
# Bulk Modulus (GPa) = 84.09467 86.10465 85.09966
# Shear Modulus (GPa) = 27.59500 31.15640 29.37570
#
# Velocity S-wave (km/s) = 3.66780 3.89730 3.78429
# Velocity P-wave (km/s) = 7.67683 7.88851 7.78339
#
# Compressibility (1/GPa) = 0.01189136
#
# Stress axis : x y z
#
# Youngs Moduli (GPa) = 72.62916 101.73670 85.25835
#
# Poissons Ratio (x) = 0.48000 0.36500
# Poissons Ratio (y) = 0.34267 0.23179
# Poissons Ratio (z) = 0.31093 0.27659
#
# Static dielectric constant tensor:
#      x y z
#    x 3.564810 0.000000 0.035990 
#    y 0.000000 3.938510 0.000000 
#    z 0.035990 0.000000 3.921420 
# 
# 
# High freq. dielectric constant tensor:
#      x y z
#    x 1.792460 0.000000 0.003230 
#    y 0.000000 1.819090 0.000000 
#    z 0.003230 0.000000 1.816290 
# 
# From -- ./inp_files/14268.got.cif
#   From: 2010.03.12/outbox.cif.g09.slc.cpg/sg5_8_cif.got.tgz:14268.got - 2010.03.31 09:47:26.
