data_PCOD8051717
_publ_section_title
;
Structure prediction by ZEFSAII (Michael W. Deem and Ramdas Pophale) SiO2 
 PCOD8051717
Probable space group: C 2
;
_chemical_formula_sum "Si O2"
_cell_formula_units_Z 26
_cell_length_a 9.462886
_cell_length_b 18.795541
_cell_length_c 9.520384
_cell_angle_alpha 90.000000
_cell_angle_beta 44.619229
_cell_angle_gamma 90.000000
_cell_volume 1189.357584
_symmetry_space_group_name_H-M "C 2"
_symmetry_group_IT_number 5
_symmetry_cell_setting 'monoclinic'
loop_
_space_group_symop_operation_xyz
x,y,z
-x,y,-z
1/2+x,1/2+y,z
1/2-x,1/2+y,-z
loop_
_atom_site_type_symbol
_atom_site_label
_atom_site_fract_x
_atom_site_fract_y
_atom_site_fract_z
Si Si1 0.170066 0.593760 0.705229
Si Si2 0.500000 0.508178 0.000000
Si Si3 0.445449 0.988156 0.685104
Si Si4 0.120463 0.335853 0.549813
Si Si5 0.522679 0.255348 0.821133
Si Si6 0.080988 0.241098 0.092071
Si Si7 0.554065 0.594293 0.244489
O O1 0.987599 0.542461 0.783762
O O2 0.103900 0.675502 0.742615
O O3 0.356638 0.577981 0.472623
O O4 0.241977 0.573629 0.812868
O O5 0.532146 0.556252 0.112850
O O6 0.291255 0.463303 0.153752
O O7 0.500000 0.028248 0.500000
O O8 0.592088 0.920198 0.588160
O O9 0.348485 0.313413 0.355986
O O10 0.000000 0.306026 0.500000
O O11 0.047286 0.304370 0.749315
O O12 0.500000 0.275908 0.000000
O O13 0.307383 0.264908 0.902683
O O14 0.072610 0.178162 0.210004
O O15 0.000000 0.216541 0.000000
#
# Coordination Sequence:
#
# PCOD8051717 Si02
#       7
#     4   2   4   4   4   4   4
#     4  11  23  43  68 106 142 181 235 290 352 409
#     4  12  24  44  70 104 138 186 234 280 360 414
#     4  11  26  45  70 103 144 187 230 292 349 419
#     4  11  24  47  70  97 143 181 240 288 345 428
#     4  12  23  41  78 103 130 191 239 289 353 411
#     4  12  25  43  66 108 137 177 234 296 354 408
#     4  11  22  41  72 101 140 180 228 293 348 415
#
# _framework density 21.860541000000001
#
# number of rings (size 3 to 8) (size 9 to 14) (size 15 to 20)
#    0.000    0.615    6.923    0.923    0.000    3.077 
#    2.769    1.538    0.000    0.000    0.000    0.000 
#    0.000    0.000    0.000    0.000    0.000    0.000 
#
# Total GULP energy -161166.546910 kJ/mol
# GULP energy per Si atom -12397.426685 kJ/mol
# Density = 2.181079 g / cm^3
# Si number density = 21.860541 Si / 1000 Ang^3
#
#
#
# Elastic Constant Matrix: (Units=GPa)
#
#
# Indices 1 2 3 4 5 6 
#
# 1 146.3368 38.5878 57.6984 0.0000 -2.3263 0.0000
# 2 38.5878 95.0749 40.1441 0.0000 -1.4712 0.0000
# 3 57.6984 40.1441 92.9590 0.0000 -1.6502 0.0000
# 4 0.0000 0.0000 0.0000 78.1994 0.0000 -1.2014
# 5 -2.3263 -1.4712 -1.6502 0.0000 47.3332 0.0000
# 6 0.0000 0.0000 0.0000 -1.2014 0.0000 26.6025
#
#
#
# Elastic Compliance Matrix: (Units=1/GPa)
#
#
# Indices 1 2 3 4 5 6 
#
# 1 0.009251 -0.001625 -0.005037 0.000000 0.000229 0.000000
# 2 -0.001625 0.013151 -0.004668 0.000000 0.000166 0.000000
# 3 -0.005037 -0.004668 0.015902 0.000000 0.000162 0.000000
# 4 0.000000 0.000000 0.000000 0.012797 0.000000 0.000578
# 5 0.000229 0.000166 0.000162 0.000000 0.021149 0.000000
# 6 0.000000 0.000000 0.000000 0.000578 0.000000 0.037617
#
#
# Mechanical properties :
#
#
# Convention : Reuss Voigt Hill
#
# Bulk Modulus (GPa) = 63.91235 67.47013 65.69124
# Shear Modulus (GPa) = 36.30018 43.62304 39.96161
#
# Velocity S-wave (km/s) = 4.07939 4.47197 4.28018
# Velocity P-wave (km/s) = 7.17554 7.58917 7.38525
#
# Compressibility (1/GPa) = 0.01564643
#
# Stress axis : x y z
#
# Youngs Moduli (GPa) = 108.09122 76.04023 62.88438
#
# Poissons Ratio (x) = 0.12354 0.31672
# Poissons Ratio (y) = 0.17562 0.29353
# Poissons Ratio (z) = 0.54441 0.35494
#
# Static dielectric constant tensor:
#      x y z
#    x 4.073740 0.000000 -0.160820 
#    y 0.000000 3.539010 0.000000 
#    z -0.160820 0.000000 4.206770 
# 
# 
# High freq. dielectric constant tensor:
#      x y z
#    x 1.863560 0.000000 -0.005460 
#    y 0.000000 1.831710 0.000000 
#    z -0.005460 0.000000 1.881280 
# 
# From -- ./inp_files/16986.got.cif
#   From: 2010.03.12/outbox.cif.g09.slc.cpg/sg5_9_cif.got.tgz:16986.got - 2010.03.31 09:47:26.
