data_PCOD8051108
_publ_section_title
;
Structure prediction by ZEFSAII (Michael W. Deem and Ramdas Pophale) SiO2 
 PCOD8051108
Probable space group: C 2
;
_chemical_formula_sum "Si O2"
_cell_formula_units_Z 24
_cell_length_a 13.902068
_cell_length_b 6.719408
_cell_length_c 13.730873
_cell_angle_alpha 90.000000
_cell_angle_beta 126.980711
_cell_angle_gamma 90.000000
_cell_volume 1024.630607
_symmetry_space_group_name_H-M "C 2"
_symmetry_group_IT_number 5
_symmetry_cell_setting 'monoclinic'
loop_
_space_group_symop_operation_xyz
x,y,z
-x,y,-z
1/2+x,1/2+y,z
1/2-x,1/2+y,-z
loop_
_atom_site_type_symbol
_atom_site_label
_atom_site_fract_x
_atom_site_fract_y
_atom_site_fract_z
Si Si1 0.320647 0.895350 0.059938
Si Si2 0.988450 0.068043 0.243373
Si Si3 0.097206 0.670217 0.724163
Si Si4 0.219778 0.935911 0.284842
Si Si5 0.639140 0.194691 0.064549
Si Si6 0.576227 0.857611 0.456166
O O1 0.388477 0.688191 0.121794
O O2 0.181893 0.850281 0.005545
O O3 0.377540 0.074151 0.155756
O O4 0.332740 0.967016 0.954474
O O5 0.067003 0.210648 0.360094
O O6 0.081295 0.981801 0.221500
O O7 0.924092 0.903409 0.271954
O O8 0.209758 0.623082 0.720735
O O9 0.976458 0.573784 0.605289
O O10 0.219109 0.748655 0.208708
O O11 0.285214 0.873967 0.425161
O O12 0.500000 0.225176 0.000000
O O13 0.500000 0.770223 0.500000
#
# Coordination Sequence:
#
# PCOD8051108 Si02
#       6
#     4   4   4   4   4   4
#     4  10  25  45  69 101 138 185 237 294 347 418
#     4  11  23  43  75 103 141 190 236 289 360 418
#     4   9  21  44  67  95 143 180 229 292 348 412
#     4  10  23  43  72 107 142 184 241 288 357 424
#     4  11  25  48  70  99 146 185 240 294 347 424
#     4   9  21  43  63 104 144 177 236 292 345 429
#
# _framework density 23.423074
#
# number of rings (size 3 to 8) (size 9 to 14) (size 15 to 20)
#    0.000    2.000    0.000    2.000    7.000    3.333 
#    3.000    3.333    0.000    0.000    0.000    0.000 
#    0.000    0.000    0.000    0.000    0.000    0.000 
#
# Total GULP energy -148751.690153 kJ/mol
# GULP energy per Si atom -12395.974179 kJ/mol
# Density = 2.336976 g / cm^3
# Si number density = 23.423074 Si / 1000 Ang^3
#
#
#
# Elastic Constant Matrix: (Units=GPa)
#
#
# Indices 1 2 3 4 5 6 
#
# 1 144.6248 55.8475 49.5346 0.0000 14.9606 0.0000
# 2 55.8475 130.8371 54.1230 0.0000 -3.7094 0.0000
# 3 49.5346 54.1230 90.3822 0.0000 -0.7542 0.0000
# 4 0.0000 0.0000 0.0000 24.3649 0.0000 -16.2081
# 5 14.9606 -3.7094 -0.7542 0.0000 31.3975 0.0000
# 6 0.0000 0.0000 0.0000 -16.2081 0.0000 30.7080
#
#
#
# Elastic Compliance Matrix: (Units=1/GPa)
#
#
# Indices 1 2 3 4 5 6 
#
# 1 0.009796 -0.002774 -0.003750 0.000000 -0.005086 0.000000
# 2 -0.002774 0.010981 -0.005034 0.000000 0.002498 0.000000
# 3 -0.003750 -0.005034 0.016147 0.000000 0.001580 0.000000
# 4 0.000000 0.000000 0.000000 0.063251 0.000000 0.033385
# 5 -0.005086 0.002498 0.001580 0.000000 0.034606 0.000000
# 6 0.000000 0.000000 0.000000 0.033385 0.000000 0.050186
#
#
# Mechanical properties :
#
#
# Convention : Reuss Voigt Hill
#
# Bulk Modulus (GPa) = 72.42709 76.09492 74.26101
# Shear Modulus (GPa) = 23.50887 31.05002 27.27944
#
# Velocity S-wave (km/s) = 3.17150 3.64485 3.41638
# Velocity P-wave (km/s) = 6.66330 7.09020 6.88006
#
# Compressibility (1/GPa) = 0.01380699
#
# Stress axis : x y z
#
# Youngs Moduli (GPa) = 102.07964 91.06960 61.93111
#
# Poissons Ratio (x) = 0.25267 0.23224
# Poissons Ratio (y) = 0.28322 0.31176
# Poissons Ratio (z) = 0.38279 0.45845
#
# Static dielectric constant tensor:
#      x y z
#    x 4.232420 0.000000 -0.095020 
#    y 0.000000 4.077250 0.000000 
#    z -0.095020 0.000000 4.552870 
# 
# 
# High freq. dielectric constant tensor:
#      x y z
#    x 1.920980 0.000000 0.006120 
#    y 0.000000 1.913470 0.000000 
#    z 0.006120 0.000000 1.941170 
# 
# From -- ./inp_files/53896.got.cif
#   From: 2010.03.12/outbox.cif.g09.slc.cpg/sg5_27_cif.got.tgz:53896.got - 2010.03.31 09:47:26.
