data_PCOD8051691
_publ_section_title
;
Structure prediction by ZEFSAII (Michael W. Deem and Ramdas Pophale) SiO2 
 PCOD8051691
Probable space group: C 2
;
_chemical_formula_sum "Si O2"
_cell_formula_units_Z 26
_cell_length_a 21.805830
_cell_length_b 7.446024
_cell_length_c 14.558324
_cell_angle_alpha 90.000000
_cell_angle_beta 150.529319
_cell_angle_gamma 90.000000
_cell_volume 1162.931745
_symmetry_space_group_name_H-M "C 2"
_symmetry_group_IT_number 5
_symmetry_cell_setting 'monoclinic'
loop_
_space_group_symop_operation_xyz
x,y,z
-x,y,-z
1/2+x,1/2+y,z
1/2-x,1/2+y,-z
loop_
_atom_site_type_symbol
_atom_site_label
_atom_site_fract_x
_atom_site_fract_y
_atom_site_fract_z
Si Si1 0.925272 0.512380 0.489484
Si Si2 0.654028 0.009117 0.144975
Si Si3 0.616482 0.112821 0.891237
Si Si4 0.000000 0.811698 0.000000
Si Si5 0.862092 0.027768 0.107999
Si Si6 0.426326 0.607791 0.488178
Si Si7 0.153302 0.118766 0.112853
O O1 0.891218 0.309953 0.415261
O O2 0.790408 0.595273 0.334957
O O3 0.000000 0.600195 0.500000
O O4 0.007315 0.523573 0.688476
O O5 0.802661 0.994003 0.344047
O O6 0.602842 0.805165 0.092065
O O7 0.599244 0.071343 0.975678
O O8 0.609211 0.160271 0.162515
O O9 0.608401 0.323507 0.871676
O O10 0.750144 0.040156 0.034049
O O11 0.943241 0.951368 0.000270
O O12 0.987804 0.114766 0.310375
O O13 0.828146 0.138700 0.972325
O O14 0.500000 0.514435 0.500000
#
# Coordination Sequence:
#
# PCOD8051691 Si02
#       7
#     4   4   4   2   4   4   4
#     4  11  22  39  67 105 141 176 222 284 353 413
#     4  12  25  46  73 100 136 186 231 285 343 408
#     4  12  23  39  66 106 142 176 222 282 352 416
#     4  12  26  52  70  94 138 190 242 278 332 406
#     4  12  23  39  66 106 142 176 222 282 352 416
#     4  11  22  39  67 105 141 176 222 284 353 413
#     4  12  25  46  73 100 136 186 231 285 343 408
#
# _framework density 22.357289000000002
#
# number of rings (size 3 to 8) (size 9 to 14) (size 15 to 20)
#    0.000    0.308    6.154    4.154    0.000    1.231 
#    0.000    1.538    0.000    0.000    0.000    0.000 
#    0.000    0.000    0.000    0.000    0.000    0.000 
#
# Total GULP energy -161066.664950 kJ/mol
# GULP energy per Si atom -12389.743458 kJ/mol
# Density = 2.230640 g / cm^3
# Si number density = 22.357289 Si / 1000 Ang^3
#
#
#
# Elastic Constant Matrix: (Units=GPa)
#
#
# Indices 1 2 3 4 5 6 
#
# 1 68.6657 26.9709 45.8670 0.0000 23.3295 0.0000
# 2 26.9709 153.4309 13.6788 0.0000 19.8846 0.0000
# 3 45.8670 13.6788 126.7363 0.0000 0.4342 0.0000
# 4 0.0000 0.0000 0.0000 30.7206 0.0000 1.1091
# 5 23.3295 19.8846 0.4342 0.0000 31.9711 0.0000
# 6 0.0000 0.0000 0.0000 1.1091 0.0000 18.1232
#
#
#
# Elastic Compliance Matrix: (Units=1/GPa)
#
#
# Indices 1 2 3 4 5 6 
#
# 1 0.028693 -0.001570 -0.010147 0.000000 -0.019823 0.000000
# 2 -0.001570 0.007247 -0.000202 0.000000 -0.003359 0.000000
# 3 -0.010147 -0.000202 0.011559 0.000000 0.007373 0.000000
# 4 0.000000 0.000000 0.000000 0.032624 0.000000 -0.001997
# 5 -0.019823 -0.003359 0.007373 0.000000 0.047732 0.000000
# 6 0.000000 0.000000 0.000000 -0.001997 0.000000 0.055300
#
#
# Mechanical properties :
#
#
# Convention : Reuss Voigt Hill
#
# Bulk Modulus (GPa) = 42.26496 57.98515 50.12505
# Shear Modulus (GPa) = 23.26878 33.65073 28.45976
#
# Velocity S-wave (km/s) = 3.22960 3.88382 3.57172
# Velocity P-wave (km/s) = 5.73170 6.78999 6.28317
#
# Compressibility (1/GPa) = 0.02366026
#
# Stress axis : x y z
#
# Youngs Moduli (GPa) = 34.85197 137.98934 86.51115
#
# Poissons Ratio (x) = 0.21666 0.87781
# Poissons Ratio (y) = 0.05472 0.01751
# Poissons Ratio (z) = 0.35364 0.02793
#
# Static dielectric constant tensor:
#      x y z
#    x 3.976600 0.000000 0.137910 
#    y 0.000000 4.254200 0.000000 
#    z 0.137910 0.000000 3.932730 
# 
# 
# High freq. dielectric constant tensor:
#      x y z
#    x 1.856210 0.000000 0.015660 
#    y 0.000000 1.905790 0.000000 
#    z 0.015660 0.000000 1.872810 
# 
# From -- ./inp_files/56854.got.cif
#   From: 2010.03.12/outbox.cif.g09.slc.cpg/sg5_29_cif.got.tgz:56854.got - 2010.03.31 09:47:26.
