data_PCOD8051460
_publ_section_title
;
Structure prediction by ZEFSAII (Michael W. Deem and Ramdas Pophale) SiO2 
 PCOD8051460
Probable space group: C 2
;
_chemical_formula_sum "Si O2"
_cell_formula_units_Z 26
_cell_length_a 16.601657
_cell_length_b 11.438675
_cell_length_c 7.110286
_cell_angle_alpha 90.000000
_cell_angle_beta 62.179643
_cell_angle_gamma 90.000000
_cell_volume 1194.181757
_symmetry_space_group_name_H-M "C 2"
_symmetry_group_IT_number 5
_symmetry_cell_setting 'monoclinic'
loop_
_space_group_symop_operation_xyz
x,y,z
-x,y,-z
1/2+x,1/2+y,z
1/2-x,1/2+y,-z
loop_
_atom_site_type_symbol
_atom_site_label
_atom_site_fract_x
_atom_site_fract_y
_atom_site_fract_z
Si Si1 0.500000 0.645041 0.000000
Si Si2 0.543131 0.470436 0.250873
Si Si3 0.205194 0.753637 0.662747
Si Si4 0.508816 0.218858 0.708610
Si Si5 0.265466 0.416899 0.031389
Si Si6 0.134255 0.553232 0.969947
Si Si7 0.331696 0.809250 0.186225
O O1 0.483308 0.560123 0.195072
O O2 0.412362 0.721430 0.048422
O O3 0.500000 0.475727 0.500000
O O4 0.542989 0.336886 0.175669
O O5 0.650297 0.497709 0.130024
O O6 0.112508 0.743638 0.646913
O O7 0.207570 0.639515 0.791646
O O8 0.287683 0.762180 0.426307
O O9 0.215721 0.868803 0.781138
O O10 0.500000 0.187920 0.500000
O O11 0.462397 0.115243 0.881050
O O12 0.179202 0.506615 0.117830
O O13 0.243397 0.313530 0.901609
O O14 0.124072 0.440197 0.842159
#
# Coordination Sequence:
#
# PCOD8051460 Si02
#       7
#     2   4   4   4   4   4   4
#     4  12  28  44  72  98 154 188 238 306 376 434
#     4  11  24  41  72 103 139 186 249 298 360 440
#     4  12  24  46  80 101 147 199 243 304 375 428
#     4  11  24  45  77 115 142 192 255 311 362 437
#     4  10  25  46  69 104 147 186 245 306 362 445
#     4  10  26  45  73 109 153 185 252 309 365 442
#     4  10  28  47  68 108 147 195 246 298 381 440
#
# _framework density 21.772227999999998
#
# number of rings (size 3 to 8) (size 9 to 14) (size 15 to 20)
#    0.923    0.308    1.538    3.231    6.462    2.462 
#    0.000    0.000    0.000    0.000    0.000    0.000 
#    0.000    0.000    0.000    0.000    0.000    0.000 
#
# Total GULP energy -161060.730077 kJ/mol
# GULP energy per Si atom -12389.286929 kJ/mol
# Density = 2.172267 g / cm^3
# Si number density = 21.772228 Si / 1000 Ang^3
#
#
#
# Elastic Constant Matrix: (Units=GPa)
#
#
# Indices 1 2 3 4 5 6 
#
# 1 105.4611 33.6754 31.0967 0.0000 12.2221 0.0000
# 2 33.6754 114.5656 44.3543 0.0000 5.5095 0.0000
# 3 31.0967 44.3543 102.6653 0.0000 2.1267 0.0000
# 4 0.0000 0.0000 0.0000 14.1319 0.0000 5.8731
# 5 12.2221 5.5095 2.1267 0.0000 25.8356 0.0000
# 6 0.0000 0.0000 0.0000 5.8731 0.0000 44.4825
#
#
#
# Elastic Compliance Matrix: (Units=1/GPa)
#
#
# Indices 1 2 3 4 5 6 
#
# 1 0.011448 -0.002200 -0.002419 0.000000 -0.004747 0.000000
# 2 -0.002200 0.010995 -0.004064 0.000000 -0.000969 0.000000
# 3 -0.002419 -0.004064 0.012208 0.000000 0.001006 0.000000
# 4 0.000000 0.000000 0.000000 0.074870 0.000000 -0.009885
# 5 -0.004747 -0.000969 0.001006 0.000000 0.041076 0.000000
# 6 0.000000 0.000000 0.000000 -0.009885 0.000000 0.023786
#
#
# Mechanical properties :
#
#
# Convention : Reuss Voigt Hill
#
# Bulk Modulus (GPa) = 57.85095 60.10498 58.97796
# Shear Modulus (GPa) = 25.31513 31.12773 28.22143
#
# Velocity S-wave (km/s) = 3.41358 3.78524 3.60420
# Velocity P-wave (km/s) = 6.49348 6.83888 6.66842
#
# Compressibility (1/GPa) = 0.01728580
#
# Stress axis : x y z
#
# Youngs Moduli (GPa) = 87.35042 90.94805 81.91507
#
# Poissons Ratio (x) = 0.20012 0.19812
# Poissons Ratio (y) = 0.19220 0.33288
# Poissons Ratio (z) = 0.21127 0.36959
#
# Static dielectric constant tensor:
#      x y z
#    x 4.025360 0.000000 0.071870 
#    y 0.000000 4.035210 0.000000 
#    z 0.071870 0.000000 3.659640 
# 
# 
# High freq. dielectric constant tensor:
#      x y z
#    x 1.861730 0.000000 0.000250 
#    y 0.000000 1.856550 0.000000 
#    z 0.000250 0.000000 1.842370 
# 
# From -- ./inp_files/27220.got.cif
#   From: 2010.03.12/outbox.cif.g09.slc.cpg/sg5_14_cif.got.tgz:27220.got - 2010.03.31 09:47:26.
