data_PCOD8051652
_publ_section_title
;
Structure prediction by ZEFSAII (Michael W. Deem and Ramdas Pophale) SiO2 
 PCOD8051652
Probable space group: C 2
;
_chemical_formula_sum "Si O2"
_cell_formula_units_Z 32
_cell_length_a 13.398747
_cell_length_b 11.277732
_cell_length_c 11.195592
_cell_angle_alpha 90.000000
_cell_angle_beta 69.658802
_cell_angle_gamma 90.000000
_cell_volume 1586.239608
_symmetry_space_group_name_H-M "C 2"
_symmetry_group_IT_number 5
_symmetry_cell_setting 'monoclinic'
loop_
_space_group_symop_operation_xyz
x,y,z
-x,y,-z
1/2+x,1/2+y,z
1/2-x,1/2+y,-z
loop_
_atom_site_type_symbol
_atom_site_label
_atom_site_fract_x
_atom_site_fract_y
_atom_site_fract_z
Si Si1 0.872054 0.531420 0.041649
Si Si2 0.580962 0.220679 0.621556
Si Si3 0.607071 0.280393 0.885206
Si Si4 0.231849 0.140375 0.629559
Si Si5 0.500398 0.979675 0.367996
Si Si6 0.899971 0.974809 0.478939
Si Si7 0.304359 0.901249 0.298236
Si Si8 0.290343 0.971447 0.818577
O O1 0.841570 0.668053 0.071573
O O2 0.819024 0.441924 0.156712
O O3 0.811976 0.511063 0.943189
O O4 0.000000 0.514462 0.000000
O O5 0.591278 0.232782 0.758806
O O6 0.686060 0.170965 0.510839
O O7 0.486592 0.124899 0.636532
O O8 0.551255 0.350937 0.589069
O O9 0.689274 0.387750 0.853406
O O10 0.500000 0.320810 0.000000
O O11 0.180306 0.260494 0.700463
O O12 0.140897 0.055814 0.612359
O O13 0.280637 0.076003 0.724811
O O14 0.500000 0.926718 0.500000
O O15 0.389638 0.959666 0.349520
O O16 0.597156 0.910789 0.263801
O O17 0.809814 0.946958 0.612794
O O18 0.000000 0.040765 0.500000
#
# Coordination Sequence:
#
# PCOD8051652 Si02
#       8
#     4   4   4   4   4   4   4   4
#     4  11  23  47  69  94 131 179 231 276 328 407
#     4  11  21  42  71  95 134 174 227 281 325 401
#     4  11  24  45  70  98 137 177 226 279 332 405
#     4  11  24  43  64 102 139 171 224 283 340 397
#     4  12  21  40  69  99 126 170 225 278 333 393
#     4  11  23  41  65  98 135 174 219 276 338 401
#     4  11  24  43  64  98 136 173 223 280 337 403
#     4  12  25  43  71 100 131 176 230 276 337 401
#
# _framework density 20.173497999999999
#
# number of rings (size 3 to 8) (size 9 to 14) (size 15 to 20)
#    0.000    0.750    6.250    1.125    5.250    1.500 
#    2.250    0.625    0.000    0.000    0.000    0.000 
#    0.000    0.000    0.000    0.000    0.000    0.000 
#
# Total GULP energy -198279.982304 kJ/mol
# GULP energy per Si atom -12392.498894 kJ/mol
# Density = 2.012758 g / cm^3
# Si number density = 20.173498 Si / 1000 Ang^3
#
#
#
# Elastic Constant Matrix: (Units=GPa)
#
#
# Indices 1 2 3 4 5 6 
#
# 1 107.0564 33.4780 57.9321 0.0000 5.0412 0.0000
# 2 33.4780 88.8262 39.9576 0.0000 -13.0146 0.0000
# 3 57.9321 39.9576 145.9156 0.0000 8.4407 0.0000
# 4 0.0000 0.0000 0.0000 46.0745 0.0000 2.8293
# 5 5.0412 -13.0146 8.4407 0.0000 39.4288 0.0000
# 6 0.0000 0.0000 0.0000 2.8293 0.0000 14.8256
#
#
#
# Elastic Compliance Matrix: (Units=1/GPa)
#
#
# Indices 1 2 3 4 5 6 
#
# 1 0.012605 -0.003207 -0.004022 0.000000 -0.001809 0.000000
# 2 -0.003207 0.014733 -0.003105 0.000000 0.005938 0.000000
# 3 -0.004022 -0.003105 0.009447 0.000000 -0.002533 0.000000
# 4 0.000000 0.000000 0.000000 0.021961 0.000000 -0.004191
# 5 -0.001809 0.005938 -0.002533 0.000000 0.028096 0.000000
# 6 0.000000 0.000000 0.000000 -0.004191 0.000000 0.068251
#
#
# Mechanical properties :
#
#
# Convention : Reuss Voigt Hill
#
# Bulk Modulus (GPa) = 62.04084 67.17040 64.60562
# Shear Modulus (GPa) = 27.60409 34.09446 30.84927
#
# Velocity S-wave (km/s) = 3.70311 4.11550 3.91474
# Velocity P-wave (km/s) = 7.00746 7.48009 7.24763
#
# Compressibility (1/GPa) = 0.01611841
#
# Stress axis : x y z
#
# Youngs Moduli (GPa) = 79.33241 67.87371 105.85599
#
# Poissons Ratio (x) = 0.21765 0.42573
# Poissons Ratio (y) = 0.25440 0.32867
# Poissons Ratio (z) = 0.31906 0.21074
#
# Static dielectric constant tensor:
#      x y z
#    x 3.511240 0.000000 0.026940 
#    y 0.000000 3.831670 0.000000 
#    z 0.026940 0.000000 3.888060 
# 
# 
# High freq. dielectric constant tensor:
#      x y z
#    x 1.789880 0.000000 0.010290 
#    y 0.000000 1.781430 0.000000 
#    z 0.010290 0.000000 1.802210 
# 
# From -- ./inp_files/39413.got.cif
#   From: 2010.03.12/outbox.cif.g09.slc.cpg/sg5_20_cif.got.tgz:39413.got - 2010.03.31 09:47:26.
