data_PCOD8051319
_publ_section_title
;
Structure prediction by ZEFSAII (Michael W. Deem and Ramdas Pophale) SiO2 
 PCOD8051319
Probable space group: C 2
;
_chemical_formula_sum "Si O2"
_cell_formula_units_Z 26
_cell_length_a 13.344161
_cell_length_b 8.639279
_cell_length_c 14.563761
_cell_angle_alpha 90.000000
_cell_angle_beta 40.393404
_cell_angle_gamma 90.000000
_cell_volume 1088.025114
_symmetry_space_group_name_H-M "C 2"
_symmetry_group_IT_number 5
_symmetry_cell_setting 'monoclinic'
loop_
_space_group_symop_operation_xyz
x,y,z
-x,y,-z
1/2+x,1/2+y,z
1/2-x,1/2+y,-z
loop_
_atom_site_type_symbol
_atom_site_label
_atom_site_fract_x
_atom_site_fract_y
_atom_site_fract_z
Si Si1 0.166384 0.433650 0.294933
Si Si2 0.977026 0.320613 0.183399
Si Si3 0.815188 0.808670 0.025955
Si Si4 0.000000 0.695518 0.500000
Si Si5 0.411715 0.476268 0.260492
Si Si6 0.695375 0.444852 0.460027
Si Si7 0.000000 0.542399 0.000000
Si Si8 0.000000 0.184342 0.500000
O O1 0.279672 0.437005 0.128481
O O2 0.264902 0.395951 0.317474
O O3 0.076476 0.594229 0.365694
O O4 0.047383 0.288797 0.378306
O O5 0.881714 0.414184 0.330498
O O6 0.156315 0.292402 0.081162
O O7 0.915755 0.146977 0.213418
O O8 0.938831 0.424464 0.120414
O O9 0.938647 0.873428 0.868046
O O10 0.870127 0.650973 0.040334
O O11 0.870226 0.788932 0.537920
O O12 0.383873 0.478924 0.387981
O O13 0.648208 0.583523 0.425588
#
# Coordination Sequence:
#
# PCOD8051319 Si02
#       8
#     4   4   4   2   4   4   2   2
#     4  11  23  45  74 104 146 194 247 310 377 444
#     4  12  29  48  79 111 152 203 250 319 378 454
#     4  12  27  51  75 111 152 203 253 312 385 450
#     4  10  24  44  72 108 146 194 242 318 374 448
#     4  12  27  46  73 106 149 192 249 311 373 453
#     4  11  26  46  72 111 146 193 255 307 377 452
#     4  12  28  52  78 112 156 198 260 314 378 456
#     4  10  24  44  74 104 148 194 250 322 370 452
#
# _framework density 23.896508999999998
#
# number of rings (size 3 to 8) (size 9 to 14) (size 15 to 20)
#    0.000    0.615    3.077    2.769    8.615    6.154 
#    0.000    0.000    0.000    0.000    0.000    0.000 
#    0.000    0.000    0.000    0.000    0.000    0.000 
#
# Total GULP energy -161102.094504 kJ/mol
# GULP energy per Si atom -12392.468808 kJ/mol
# Density = 2.384212 g / cm^3
# Si number density = 23.896509 Si / 1000 Ang^3
#
#
#
# Elastic Constant Matrix: (Units=GPa)
#
#
# Indices 1 2 3 4 5 6 
#
# 1 68.2013 32.2554 25.9890 0.0000 -4.1829 0.0000
# 2 32.2554 136.6441 61.8251 0.0000 2.3740 0.0000
# 3 25.9890 61.8251 129.2057 0.0000 5.7370 0.0000
# 4 0.0000 0.0000 0.0000 32.8958 0.0000 6.1543
# 5 -4.1829 2.3740 5.7370 0.0000 43.8618 0.0000
# 6 0.0000 0.0000 0.0000 6.1543 0.0000 7.3412
#
#
#
# Elastic Compliance Matrix: (Units=1/GPa)
#
#
# Indices 1 2 3 4 5 6 
#
# 1 0.017045 -0.003148 -0.002013 0.000000 0.002059 0.000000
# 2 -0.003148 0.009922 -0.004101 0.000000 -0.000301 0.000000
# 3 -0.002013 -0.004101 0.010165 0.000000 -0.001300 0.000000
# 4 0.000000 0.000000 0.000000 0.036054 0.000000 -0.030225
# 5 0.002059 -0.000301 -0.001300 0.000000 0.023182 0.000000
# 6 0.000000 0.000000 0.000000 -0.030225 0.000000 0.161555
#
#
# Mechanical properties :
#
#
# Convention : Reuss Voigt Hill
#
# Bulk Modulus (GPa) = 53.74596 63.79890 58.77243
# Shear Modulus (GPa) = 17.68969 31.08519 24.38744
#
# Velocity S-wave (km/s) = 2.72373 3.61061 3.19806
# Velocity P-wave (km/s) = 5.69487 6.64364 6.18747
#
# Compressibility (1/GPa) = 0.01860605
#
# Stress axis : x y z
#
# Youngs Moduli (GPa) = 58.66812 100.78318 98.37935
#
# Poissons Ratio (x) = 0.31730 0.19808
# Poissons Ratio (y) = 0.18471 0.40347
# Poissons Ratio (z) = 0.11813 0.41333
#
# Static dielectric constant tensor:
#      x y z
#    x 4.160820 0.000000 -0.185510 
#    y 0.000000 4.425370 0.000000 
#    z -0.185510 0.000000 4.432280 
# 
# 
# High freq. dielectric constant tensor:
#      x y z
#    x 1.943940 0.000000 -0.013010 
#    y 0.000000 1.959250 0.000000 
#    z -0.013010 0.000000 1.956420 
# 
# From -- ./inp_files/54107.got.cif
#   From: 2010.03.12/outbox.cif.g09.slc.cpg/sg5_28_cif.got.tgz:54107.got - 2010.03.31 09:47:26.
