data_PCOD8051714
_publ_section_title
;
Structure prediction by ZEFSAII (Michael W. Deem and Ramdas Pophale) SiO2 
 PCOD8051714
Probable space group: C 2
;
_chemical_formula_sum "Si O2"
_cell_formula_units_Z 28
_cell_length_a 21.546898
_cell_length_b 7.262335
_cell_length_c 15.375070
_cell_angle_alpha 90.000000
_cell_angle_beta 148.809637
_cell_angle_gamma 90.000000
_cell_volume 1245.976645
_symmetry_space_group_name_H-M "C 2"
_symmetry_group_IT_number 5
_symmetry_cell_setting 'monoclinic'
loop_
_space_group_symop_operation_xyz
x,y,z
-x,y,-z
1/2+x,1/2+y,z
1/2-x,1/2+y,-z
loop_
_atom_site_type_symbol
_atom_site_label
_atom_site_fract_x
_atom_site_fract_y
_atom_site_fract_z
Si Si1 0.302169 0.163670 0.457080
Si Si2 0.639810 0.273839 0.665283
Si Si3 0.353550 0.308969 0.017806
Si Si4 0.824234 0.538458 0.126071
Si Si5 0.407415 0.491119 0.694425
Si Si6 0.951999 0.325381 0.630809
Si Si7 0.138731 0.197538 0.646351
O O1 0.305851 0.185529 0.357248
O O2 0.329715 0.358289 0.537745
O O3 0.172884 0.079488 0.326256
O O4 0.400939 0.016950 0.608262
O O5 0.500000 0.236339 0.500000
O O6 0.689179 0.184612 0.812039
O O7 0.671060 0.487817 0.704527
O O8 0.365213 0.115678 0.081628
O O9 0.481401 0.373071 0.132185
O O10 0.308190 0.449133 0.039542
O O11 0.244857 0.316470 0.817812
O O12 0.919467 0.372582 0.259515
O O13 0.467946 0.664003 0.719224
O O14 0.852248 0.247487 0.444267
O O15 0.000000 0.245864 0.500000
#
# Coordination Sequence:
#
# PCOD8051714 Si02
#       7
#     4   4   4   4   4   4   4
#     4  12  24  45  73 101 143 191 244 285 354 432
#     4  11  22  41  70 106 141 183 239 293 357 426
#     4  12  25  42  68 110 150 183 237 298 355 417
#     4  12  24  41  70 109 149 179 235 306 357 413
#     4  12  26  46  72 106 140 195 243 292 349 430
#     4  12  23  44  74 102 145 190 235 290 359 425
#     4  11  24  41  69 106 149 188 231 291 364 427
#
# _framework density 22.472331000000001
#
# number of rings (size 3 to 8) (size 9 to 14) (size 15 to 20)
#    0.000    0.286    7.143    2.571    2.000    0.000 
#    0.000    2.857    0.000    1.714    0.000    0.000 
#    0.000    0.000    0.000    0.000    0.000    0.000 
#
# Total GULP energy -173474.947548 kJ/mol
# GULP energy per Si atom -12391.067682 kJ/mol
# Density = 2.242118 g / cm^3
# Si number density = 22.472331 Si / 1000 Ang^3
#
#
#
# Elastic Constant Matrix: (Units=GPa)
#
#
# Indices 1 2 3 4 5 6 
#
# 1 98.2235 4.8511 29.1731 0.0000 17.1230 0.0000
# 2 4.8511 12.3090 -19.4803 0.0000 13.9602 0.0000
# 3 29.1731 -19.4803 78.9893 0.0000 16.4030 0.0000
# 4 0.0000 0.0000 0.0000 28.8160 0.0000 5.3299
# 5 17.1230 13.9602 16.4030 0.0000 36.2905 0.0000
# 6 0.0000 0.0000 0.0000 5.3299 0.0000 38.1632
#
#
#
# Elastic Compliance Matrix: (Units=1/GPa)
#
#
# Indices 1 2 3 4 5 6 
#
# 1 0.010106 0.025704 0.006236 0.000000 -0.017474 0.000000
# 2 0.025704 -0.359447 -0.137214 0.000000 0.188163 0.000000
# 3 0.006236 -0.137214 -0.037337 0.000000 0.066717 0.000000
# 4 0.000000 0.000000 0.000000 0.035623 0.000000 -0.004975
# 5 -0.017474 0.188163 0.066717 0.000000 -0.066737 0.000000
# 6 0.000000 0.000000 0.000000 -0.004975 0.000000 0.026898
#
#
# Mechanical properties :
#
#
# Convention : Reuss Voigt Hill
#
# Bulk Modulus (GPa) = -1.67441 24.28997 11.30778
# Shear Modulus (GPa) = -13.17796 32.31912 9.57058
#
# Velocity S-wave (km/s) = -2.42421 3.79644 2.06593
# Velocity P-wave (km/s) = 2.92958 5.48175 3.27621
#
# Compressibility (1/GPa) = -0.59722662
#
# Stress axis : x y z
#
# Youngs Moduli (GPa) = 98.95454 -2.78205 -26.78310
#
# Poissons Ratio (x) = 0.07151 0.16701
# Poissons Ratio (y) = -2.54353 -3.67501
# Poissons Ratio (z) = -0.61703 -0.38174
#
# Static dielectric constant tensor:
#      x y z
#    x 3.985020 0.000000 0.049560 
#    y 0.000000 4.341700 0.000000 
#    z 0.049560 0.000000 3.871380 
# 
# 
# High freq. dielectric constant tensor:
#      x y z
#    x 1.864360 0.000000 0.007200 
#    y 0.000000 1.910820 0.000000 
#    z 0.007200 0.000000 1.870340 
# 
# From -- ./inp_files/56930.got.cif
#   From: 2010.03.12/outbox.cif.g09.slc.cpg/sg5_29_cif.got.tgz:56930.got - 2010.03.31 09:47:26.
