data_PCOD8051710
_publ_section_title
;
Structure prediction by ZEFSAII (Michael W. Deem and Ramdas Pophale) SiO2 
 PCOD8051710
Probable space group: C 2
;
_chemical_formula_sum "Si O2"
_cell_formula_units_Z 24
_cell_length_a 11.054182
_cell_length_b 9.345644
_cell_length_c 10.853093
_cell_angle_alpha 90.000000
_cell_angle_beta 90.450060
_cell_angle_gamma 90.000000
_cell_volume 1121.181622
_symmetry_space_group_name_H-M "C 2"
_symmetry_group_IT_number 5
_symmetry_cell_setting 'monoclinic'
loop_
_space_group_symop_operation_xyz
x,y,z
-x,y,-z
1/2+x,1/2+y,z
1/2-x,1/2+y,-z
loop_
_atom_site_type_symbol
_atom_site_label
_atom_site_fract_x
_atom_site_fract_y
_atom_site_fract_z
Si Si1 0.168569 0.292760 0.108295
Si Si2 0.762476 0.031372 0.278177
Si Si3 0.199863 0.587693 0.731148
Si Si4 0.536190 0.193700 0.369964
Si Si5 0.125732 0.994594 0.467826
Si Si6 0.610466 0.795488 0.831194
O O1 0.249193 0.416348 0.170177
O O2 0.224944 0.140936 0.149980
O O3 0.031994 0.305658 0.152720
O O4 0.179539 0.302390 0.961944
O O5 0.632989 0.102871 0.297143
O O6 0.860314 0.148613 0.237903
O O7 0.805849 0.955552 0.404571
O O8 0.288331 0.594915 0.613087
O O9 0.155465 0.426101 0.748263
O O10 0.086222 0.694307 0.711960
O O11 0.500000 0.120586 0.500000
O O12 0.588435 0.352078 0.392782
O O13 0.000000 0.077097 0.500000
#
# Coordination Sequence:
#
# PCOD8051710 Si02
#       6
#     4   4   4   4   4   4
#     4  11  25  43  67  94 131 176 223 277 321 378
#     4  12  23  43  69  97 134 171 218 272 331 387
#     4  12  23  44  70  94 136 175 215 272 331 388
#     4  11  22  41  66  99 131 170 211 261 334 398
#     4  11  24  41  66  99 134 166 214 267 330 395
#     4  11  25  45  65  96 129 176 230 266 322 389
#
# _framework density 21.405988000000001
#
# number of rings (size 3 to 8) (size 9 to 14) (size 15 to 20)
#    0.000    0.667    5.000    4.000    0.000    0.000 
#    0.000    0.000    0.000    0.000    0.000    0.000 
#    0.000    0.000    0.000    0.000    0.000    0.000 
#
# Total GULP energy -148826.887702 kJ/mol
# GULP energy per Si atom -12402.240642 kJ/mol
# Density = 2.135727 g / cm^3
# Si number density = 21.405988 Si / 1000 Ang^3
#
#
#
# Elastic Constant Matrix: (Units=GPa)
#
#
# Indices 1 2 3 4 5 6 
#
# 1 103.6248 24.9315 29.2974 0.0000 8.7255 0.0000
# 2 24.9315 89.4214 19.3270 0.0000 8.3309 0.0000
# 3 29.2974 19.3270 85.7755 0.0000 15.8342 0.0000
# 4 0.0000 0.0000 0.0000 33.2663 0.0000 6.1403
# 5 8.7255 8.3309 15.8342 0.0000 42.7200 0.0000
# 6 0.0000 0.0000 0.0000 6.1403 0.0000 26.2472
#
#
#
# Elastic Compliance Matrix: (Units=1/GPa)
#
#
# Indices 1 2 3 4 5 6 
#
# 1 0.011169 -0.002370 -0.003161 0.000000 -0.000647 0.000000
# 2 -0.002370 0.012338 -0.001734 0.000000 -0.001279 0.000000
# 3 -0.003161 -0.001734 0.013898 0.000000 -0.004168 0.000000
# 4 0.000000 0.000000 0.000000 0.031417 0.000000 -0.007350
# 5 -0.000647 -0.001279 -0.004168 0.000000 0.025335 0.000000
# 6 0.000000 0.000000 0.000000 -0.007350 0.000000 0.039819
#
#
# Mechanical properties :
#
#
# Convention : Reuss Voigt Hill
#
# Bulk Modulus (GPa) = 43.71945 47.32597 45.52271
# Shear Modulus (GPa) = 32.02434 34.13107 33.07770
#
# Velocity S-wave (km/s) = 3.87207 3.99741 3.93524
# Velocity P-wave (km/s) = 6.36073 6.59260 6.47770
#
# Compressibility (1/GPa) = 0.02287312
#
# Stress axis : x y z
#
# Youngs Moduli (GPa) = 89.53546 81.05110 71.95197
#
# Poissons Ratio (x) = 0.19212 0.22746
# Poissons Ratio (y) = 0.21224 0.12478
# Poissons Ratio (z) = 0.28304 0.14056
#
# Static dielectric constant tensor:
#      x y z
#    x 4.147250 0.000000 0.015510 
#    y 0.000000 3.649620 0.000000 
#    z 0.015510 0.000000 3.874370 
# 
# 
# High freq. dielectric constant tensor:
#      x y z
#    x 1.859470 0.000000 0.005280 
#    y 0.000000 1.828470 0.000000 
#    z 0.005280 0.000000 1.838720 
# 
# From -- ./inp_files/38357.got.cif
#   From: 2010.03.12/outbox.cif.g09.slc.cpg/sg5_20_cif.got.tgz:38357.got - 2010.03.31 09:47:26.
