data_PCOD8051087
_publ_section_title
;
Structure prediction by ZEFSAII (Michael W. Deem and Ramdas Pophale) SiO2 
 PCOD8051087
Probable space group: C 2
;
_chemical_formula_sum "Si O2"
_cell_formula_units_Z 28
_cell_length_a 8.299629
_cell_length_b 7.332540
_cell_length_c 23.272836
_cell_angle_alpha 90.000000
_cell_angle_beta 51.408824
_cell_angle_gamma 90.000000
_cell_volume 1107.021801
_symmetry_space_group_name_H-M "C 2"
_symmetry_group_IT_number 5
_symmetry_cell_setting 'monoclinic'
loop_
_space_group_symop_operation_xyz
x,y,z
-x,y,-z
1/2+x,1/2+y,z
1/2-x,1/2+y,-z
loop_
_atom_site_type_symbol
_atom_site_label
_atom_site_fract_x
_atom_site_fract_y
_atom_site_fract_z
Si Si1 0.869495 0.683520 0.629074
Si Si2 0.144573 0.726331 0.823832
Si Si3 0.797867 0.824252 0.305487
Si Si4 0.191603 0.051604 0.419578
Si Si5 0.260425 0.830164 0.224348
Si Si6 0.272157 0.659561 0.040281
Si Si7 0.823296 0.255157 0.906649
O O1 0.753472 0.493698 0.640812
O O2 0.743749 0.758839 0.710366
O O3 0.104216 0.620530 0.591811
O O4 0.839100 0.831861 0.584577
O O5 0.260354 0.855586 0.749949
O O6 0.156072 0.534600 0.788489
O O7 0.259530 0.692294 0.857737
O O8 0.906592 0.784387 0.890627
O O9 0.685197 0.649993 0.358977
O O10 0.041069 0.797289 0.244745
O O11 0.000000 0.118552 0.500000
O O12 0.428418 0.726808 0.147009
O O13 0.256522 0.460224 0.069603
O O14 0.500000 0.745243 0.000000
O O15 0.229418 0.642592 0.980897
#
# Coordination Sequence:
#
# PCOD8051087 Si02
#       7
#     4   4   4   4   4   4   4
#     4  11  26  46  80 110 157 203 261 320 391 476
#     4  11  23  42  68  97 142 189 257 314 385 458
#     4  11  25  45  78 106 153 200 254 320 386 466
#     4  11  28  50  77 119 161 204 265 318 402 475
#     4  10  23  43  66 103 140 189 252 310 382 453
#     4  11  24  41  61  93 139 186 246 305 387 452
#     4  11  25  41  67  96 140 187 245 313 381 458
#
# _framework density 25.293089999999999
#
# number of rings (size 3 to 8) (size 9 to 14) (size 15 to 20)
#    0.000    1.143    1.429    3.000    6.000    8.571 
#    0.000    0.000    0.000    0.000    0.000    0.000 
#    0.000    0.000    0.000    0.000    0.000    0.000 
#
# Total GULP energy -173435.004143 kJ/mol
# GULP energy per Si atom -12388.214582 kJ/mol
# Density = 2.523552 g / cm^3
# Si number density = 25.293090 Si / 1000 Ang^3
#
#
#
# Elastic Constant Matrix: (Units=GPa)
#
#
# Indices 1 2 3 4 5 6 
#
# 1 78.8129 26.9171 47.0547 0.0000 -2.2307 0.0000
# 2 26.9171 71.8098 41.4550 0.0000 -14.5874 0.0000
# 3 47.0547 41.4550 180.9498 0.0000 -12.8187 0.0000
# 4 0.0000 0.0000 0.0000 33.0129 0.0000 0.4040
# 5 -2.2307 -14.5874 -12.8187 0.0000 27.8445 0.0000
# 6 0.0000 0.0000 0.0000 0.4040 0.0000 33.5357
#
#
#
# Elastic Compliance Matrix: (Units=1/GPa)
#
#
# Indices 1 2 3 4 5 6 
#
# 1 0.016204 -0.004701 -0.003328 0.000000 -0.002696 0.000000
# 2 -0.004701 0.018824 -0.002500 0.000000 0.008334 0.000000
# 3 -0.003328 -0.002500 0.007084 0.000000 0.001685 0.000000
# 4 0.000000 0.000000 0.000000 0.030296 0.000000 -0.000365
# 5 -0.002696 0.008334 0.001685 0.000000 0.040840 0.000000
# 6 0.000000 0.000000 0.000000 -0.000365 0.000000 0.029823
#
#
# Mechanical properties :
#
#
# Convention : Reuss Voigt Hill
#
# Bulk Modulus (GPa) = 47.49382 62.49180 54.99281
# Shear Modulus (GPa) = 29.21494 33.28833 31.25163
#
# Velocity S-wave (km/s) = 3.40230 3.63175 3.51890
# Velocity P-wave (km/s) = 5.85255 6.50745 6.18867
#
# Compressibility (1/GPa) = 0.02105537
#
# Stress axis : x y z
#
# Youngs Moduli (GPa) = 61.71209 53.12458 141.16645
#
# Poissons Ratio (x) = 0.24972 0.46979
# Poissons Ratio (y) = 0.29008 0.35287
# Poissons Ratio (z) = 0.20537 0.13279
#
# Static dielectric constant tensor:
#      x y z
#    x 4.291790 0.000000 -0.008870 
#    y 0.000000 4.491020 0.000000 
#    z -0.008870 0.000000 4.945550 
# 
# 
# High freq. dielectric constant tensor:
#      x y z
#    x 1.990150 0.000000 -0.001930 
#    y 0.000000 1.999720 0.000000 
#    z -0.001930 0.000000 2.031880 
# 
# From -- ./inp_files/70143.got.cif
#   From: 2010.03.12/outbox.cif.g09.slc.cpg/sg5_36_cif.got.tgz:70143.got - 2010.03.31 09:47:26.
