data_PCOD8051826
_publ_section_title
;
Structure prediction by ZEFSAII (Michael W. Deem and Ramdas Pophale) SiO2 
 PCOD8051826
Probable space group: C 2
;
_chemical_formula_sum "Si O2"
_cell_formula_units_Z 20
_cell_length_a 22.945017
_cell_length_b 8.350508
_cell_length_c 9.061352
_cell_angle_alpha 90.000000
_cell_angle_beta 150.006603
_cell_angle_gamma 90.000000
_cell_volume 867.915782
_symmetry_space_group_name_H-M "C 2"
_symmetry_group_IT_number 5
_symmetry_cell_setting 'monoclinic'
loop_
_space_group_symop_operation_xyz
x,y,z
-x,y,-z
1/2+x,1/2+y,z
1/2-x,1/2+y,-z
loop_
_atom_site_type_symbol
_atom_site_label
_atom_site_fract_x
_atom_site_fract_y
_atom_site_fract_z
Si Si1 0.785874 0.888590 0.385742
Si Si2 0.028179 0.725415 0.392374
Si Si3 0.708546 0.949649 0.751710
Si Si4 0.788527 0.729200 0.694600
Si Si5 0.634050 0.730672 0.833195
O O1 0.891107 0.865760 0.499449
O O2 0.806476 0.760729 0.561363
O O3 0.786401 0.068066 0.447457
O O4 0.662986 0.845381 0.036582
O O5 0.093611 0.555350 0.522097
O O6 0.000000 0.765067 0.500000
O O7 0.911128 0.712261 0.043486
O O8 0.716371 0.879049 0.603607
O O9 0.708061 0.795799 0.857203
O O10 0.824615 0.051212 0.041629
O O11 0.500000 0.732918 0.500000
#
# Coordination Sequence:
#
# PCOD8051826 Si02
#       5
#     4   4   4   4   4
#     4  11  24  44  70  99 135 179 223 271 335 398
#     4  11  24  45  71  99 133 176 221 275 334 393
#     4  11  24  41  68  99 130 173 223 271 327 396
#     4  12  25  46  68  97 140 176 220 279 332 395
#     4  11  23  42  65  96 131 170 219 270 324 388
#
# _framework density 23.043709
#
# number of rings (size 3 to 8) (size 9 to 14) (size 15 to 20)
#    0.000    0.800    0.000    9.600    0.000    5.600 
#    0.000   12.000    0.000    0.000    0.000    0.000 
#    0.000    0.000    0.000    0.000    0.000    0.000 
#
# Total GULP energy -124038.698596 kJ/mol
# GULP energy per Si atom -12403.869860 kJ/mol
# Density = 2.299126 g / cm^3
# Si number density = 23.043709 Si / 1000 Ang^3
#
#
#
# Elastic Constant Matrix: (Units=GPa)
#
#
# Indices 1 2 3 4 5 6 
#
# 1 154.4287 53.1985 55.4327 0.0000 -2.6002 0.0000
# 2 53.1985 111.7513 15.2694 0.0000 19.6158 0.0000
# 3 55.4327 15.2694 114.2397 0.0000 -0.4508 0.0000
# 4 0.0000 0.0000 0.0000 24.7242 0.0000 -9.2457
# 5 -2.6002 19.6158 -0.4508 0.0000 25.1019 0.0000
# 6 0.0000 0.0000 0.0000 -9.2457 0.0000 39.0725
#
#
#
# Elastic Compliance Matrix: (Units=1/GPa)
#
#
# Indices 1 2 3 4 5 6 
#
# 1 0.009688 -0.004897 -0.004028 0.000000 0.004758 0.000000
# 2 -0.004897 0.013081 0.000585 0.000000 -0.010719 0.000000
# 3 -0.004028 0.000585 0.010627 0.000000 -0.000684 0.000000
# 4 0.000000 0.000000 0.000000 0.044373 0.000000 0.010500
# 5 0.004758 -0.010719 -0.000684 0.000000 0.048694 0.000000
# 6 0.000000 0.000000 0.000000 0.010500 0.000000 0.028078
#
#
# Mechanical properties :
#
#
# Convention : Reuss Voigt Hill
#
# Bulk Modulus (GPa) = 59.81631 69.80233 64.80932
# Shear Modulus (GPa) = 28.28174 34.88099 31.58136
#
# Velocity S-wave (km/s) = 3.50710 3.89484 3.70604
# Velocity P-wave (km/s) = 6.51258 7.11220 6.81898
#
# Compressibility (1/GPa) = 0.01671785
#
# Stress axis : x y z
#
# Youngs Moduli (GPa) = 103.21776 76.44644 94.10014
#
# Poissons Ratio (x) = 0.37435 0.37901
# Poissons Ratio (y) = 0.50544 -0.05508
# Poissons Ratio (z) = 0.41574 -0.04475
#
# Static dielectric constant tensor:
#      x y z
#    x 4.350270 0.000000 -0.127540 
#    y 0.000000 4.192980 0.000000 
#    z -0.127540 0.000000 4.102620 
# 
# 
# High freq. dielectric constant tensor:
#      x y z
#    x 1.916930 0.000000 -0.008070 
#    y 0.000000 1.921400 0.000000 
#    z -0.008070 0.000000 1.910420 
# 
# From -- ./inp_files/18244.got.cif
#   From: 2010.03.12/outbox.cif.g09.slc.cpg/sg5_10_cif.got.tgz:18244.got - 2010.03.31 09:47:26.
