data_PCOD8051750
_publ_section_title
;
Structure prediction by ZEFSAII (Michael W. Deem and Ramdas Pophale) SiO2 
 PCOD8051750
Probable space group: C 2
;
_chemical_formula_sum "Si O2"
_cell_formula_units_Z 32
_cell_length_a 8.471498
_cell_length_b 15.173564
_cell_length_c 11.519068
_cell_angle_alpha 90.000000
_cell_angle_beta 78.752106
_cell_angle_gamma 90.000000
_cell_volume 1452.252958
_symmetry_space_group_name_H-M "C 2"
_symmetry_group_IT_number 5
_symmetry_cell_setting 'monoclinic'
loop_
_space_group_symop_operation_xyz
x,y,z
-x,y,-z
1/2+x,1/2+y,z
1/2-x,1/2+y,-z
loop_
_atom_site_type_symbol
_atom_site_label
_atom_site_fract_x
_atom_site_fract_y
_atom_site_fract_z
Si Si1 0.190840 0.035460 0.458385
Si Si2 0.127649 0.932507 0.257163
Si Si3 0.823346 0.226164 0.475942
Si Si4 0.695938 0.768242 0.774427
Si Si5 0.855540 0.338545 0.837594
Si Si6 0.190244 0.489696 0.990806
Si Si7 0.278528 0.387848 0.379588
Si Si8 0.314260 0.189455 0.995022
O O1 0.250638 0.135078 0.464452
O O2 0.000000 0.024435 0.500000
O O3 0.218331 0.006441 0.321415
O O4 0.285364 0.970448 0.534055
O O5 0.178049 0.837024 0.295159
O O6 0.935667 0.926442 0.292759
O O7 0.193945 0.944433 0.118998
O O8 0.841607 0.209634 0.333965
O O9 0.703714 0.304878 0.534030
O O10 0.000000 0.245328 0.500000
O O11 0.541155 0.821914 0.843799
O O12 0.776825 0.716688 0.868673
O O13 0.843321 0.352422 0.701010
O O14 0.782493 0.428165 0.901251
O O15 0.767195 0.250994 0.896654
O O16 0.252962 0.589720 0.991717
O O17 0.000000 0.489155 0.000000
O O18 0.500000 0.192562 0.000000
#
# Coordination Sequence:
#
# PCOD8051750 Si02
#       8
#     4   4   4   4   4   4   4   4
#     4   9  22  41  64  98 135 175 226 274 336 401
#     4  11  22  44  68  93 137 179 222 284 337 393
#     4  11  23  43  69 102 136 181 224 275 341 404
#     4  12  23  44  73  92 141 180 221 281 340 405
#     4  12  24  43  66 101 135 179 226 276 342 405
#     4  11  24  44  69  96 133 181 223 279 346 399
#     4  11  24  40  69 101 135 177 228 282 331 403
#     4  11  26  45  66 103 136 176 233 283 338 404
#
# _framework density 22.034728000000001
#
# number of rings (size 3 to 8) (size 9 to 14) (size 15 to 20)
#    0.000    1.000    5.000    1.125    3.500    1.000 
#    2.250    0.000    5.500    0.000    0.000    0.000 
#    0.000    0.000    0.000    0.000    0.000    0.000 
#
# Total GULP energy -198261.186953 kJ/mol
# GULP energy per Si atom -12391.324185 kJ/mol
# Density = 2.198458 g / cm^3
# Si number density = 22.034728 Si / 1000 Ang^3
#
#
#
# Elastic Constant Matrix: (Units=GPa)
#
#
# Indices 1 2 3 4 5 6 
#
# 1 59.1628 16.8905 27.6479 0.0000 8.7441 0.0000
# 2 16.8905 148.3625 35.1198 0.0000 6.2636 0.0000
# 3 27.6479 35.1198 123.0627 0.0000 18.7966 0.0000
# 4 0.0000 0.0000 0.0000 31.2950 0.0000 0.5015
# 5 8.7441 6.2636 18.7966 0.0000 26.2076 0.0000
# 6 0.0000 0.0000 0.0000 0.5015 0.0000 19.2163
#
#
#
# Elastic Compliance Matrix: (Units=1/GPa)
#
#
# Indices 1 2 3 4 5 6 
#
# 1 0.019413 -0.001239 -0.003441 0.000000 -0.003713 0.000000
# 2 -0.001239 0.007309 -0.001801 0.000000 -0.000042 0.000000
# 3 -0.003441 -0.001801 0.010300 0.000000 -0.005809 0.000000
# 4 0.000000 0.000000 0.000000 0.031967 0.000000 -0.000834
# 5 -0.003713 -0.000042 -0.005809 0.000000 0.043572 0.000000
# 6 0.000000 0.000000 0.000000 -0.000834 0.000000 0.052061
#
#
# Mechanical properties :
#
#
# Convention : Reuss Voigt Hill
#
# Bulk Modulus (GPa) = 41.56110 54.43385 47.99748
# Shear Modulus (GPa) = 26.93889 32.07240 29.50565
#
# Velocity S-wave (km/s) = 3.50031 3.81929 3.66328
# Velocity P-wave (km/s) = 5.93623 6.64881 6.30260
#
# Compressibility (1/GPa) = 0.02406096
#
# Stress axis : x y z
#
# Youngs Moduli (GPa) = 51.51209 136.80937 97.08476
#
# Poissons Ratio (x) = 0.16949 0.33404
# Poissons Ratio (y) = 0.06382 0.17488
# Poissons Ratio (z) = 0.17724 0.24643
#
# Static dielectric constant tensor:
#      x y z
#    x 3.737650 0.000000 0.067190 
#    y 0.000000 4.238720 0.000000 
#    z 0.067190 0.000000 3.986740 
# 
# 
# High freq. dielectric constant tensor:
#      x y z
#    x 1.843260 0.000000 0.000080 
#    y 0.000000 1.876810 0.000000 
#    z 0.000080 0.000000 1.880110 
# 
# From -- ./inp_files/36430.got.cif
#   From: 2010.03.12/outbox.cif.g09.slc.cpg/sg5_19_cif.got.tgz:36430.got - 2010.03.31 09:47:26.
