data_PCOD8051083
_publ_section_title
;
Structure prediction by ZEFSAII (Michael W. Deem and Ramdas Pophale) SiO2 
 PCOD8051083
Probable space group: C 2
;
_chemical_formula_sum "Si O2"
_cell_formula_units_Z 28
_cell_length_a 14.662112
_cell_length_b 11.198165
_cell_length_c 17.460989
_cell_angle_alpha 90.000000
_cell_angle_beta 24.324101
_cell_angle_gamma 90.000000
_cell_volume 1180.868661
_symmetry_space_group_name_H-M "C 2"
_symmetry_group_IT_number 5
_symmetry_cell_setting 'monoclinic'
loop_
_space_group_symop_operation_xyz
x,y,z
-x,y,-z
1/2+x,1/2+y,z
1/2-x,1/2+y,-z
loop_
_atom_site_type_symbol
_atom_site_label
_atom_site_fract_x
_atom_site_fract_y
_atom_site_fract_z
Si Si1 0.385098 0.013510 0.011678
Si Si2 0.704518 0.189739 0.466227
Si Si3 0.830776 0.539726 0.793134
Si Si4 0.132625 0.001768 0.783040
Si Si5 0.984757 0.119363 0.385932
Si Si6 0.628745 0.253172 0.829132
Si Si7 0.629506 0.936579 0.688088
O O1 0.473254 0.145341 0.920944
O O2 0.438184 0.929606 0.899320
O O3 0.500000 0.963040 0.000000
O O4 0.126062 0.022258 0.228813
O O5 0.455661 0.167621 0.688135
O O6 0.763181 0.081380 0.363250
O O7 0.871288 0.201361 0.409465
O O8 0.723064 0.318350 0.413107
O O9 0.783302 0.496995 0.743759
O O10 0.007004 0.450873 0.699971
O O11 0.611475 0.554499 0.012438
O O12 0.134610 0.858703 0.760272
O O13 0.130077 0.200769 0.331847
O O14 0.797267 0.047077 0.576481
O O15 0.500000 0.313455 0.000000
#
# Coordination Sequence:
#
# PCOD8051083 Si02
#       7
#     4   4   4   4   4   4   4
#     4   9  21  41  63  97 119 168 221 263 322 376
#     4  11  24  40  62  99 134 170 208 268 328 393
#     4  10  23  43  63  95 125 175 217 257 327 382
#     4  11  21  43  65  94 128 166 219 272 320 376
#     4   9  21  43  63  95 130 168 223 263 321 387
#     4   9  18  39  68  88 119 160 217 270 307 371
#     4  11  23  43  66  94 136 172 211 270 327 392
#
# _framework density 23.711358000000001
#
# number of rings (size 3 to 8) (size 9 to 14) (size 15 to 20)
#    0.000    2.286    1.429    2.143    2.000    3.429 
#   28.286    0.000    0.000    0.000    0.000    0.000 
#    0.000    0.000    0.000    0.000    0.000    0.000 
#
# Total GULP energy -173469.017816 kJ/mol
# GULP energy per Si atom -12390.644130 kJ/mol
# Density = 2.365739 g / cm^3
# Si number density = 23.711358 Si / 1000 Ang^3
#
#
#
# Elastic Constant Matrix: (Units=GPa)
#
#
# Indices 1 2 3 4 5 6 
#
# 1 45.7543 24.0586 26.0663 0.0188 -4.4142 0.0110
# 2 24.0586 64.2288 14.5210 0.0661 10.1689 -0.0247
# 3 26.0663 14.5210 113.7645 0.0924 -1.7348 -0.0144
# 4 0.0188 0.0661 0.0924 23.6743 -0.0210 4.6630
# 5 -4.4142 10.1689 -1.7348 -0.0210 37.2524 0.0031
# 6 0.0110 -0.0247 -0.0144 4.6630 0.0031 24.6092
#
#
#
# Elastic Compliance Matrix: (Units=1/GPa)
#
#
# Indices 1 2 3 4 5 6 
#
# 1 0.031929 -0.011732 -0.005716 0.000043 0.006720 -0.000038
# 2 -0.011732 0.021124 -0.000117 -0.000063 -0.007162 0.000039
# 3 -0.005716 -0.000117 0.010112 -0.000038 -0.000174 0.000016
# 4 0.000043 -0.000063 -0.000038 0.043878 0.000046 -0.008314
# 5 0.006720 -0.007162 -0.000174 0.000046 0.029587 -0.000023
# 6 -0.000038 0.000039 0.000016 -0.008314 -0.000023 0.042211
#
#
# Mechanical properties :
#
#
# Convention : Reuss Voigt Hill
#
# Bulk Modulus (GPa) = 35.66893 39.22661 37.44777
# Shear Modulus (GPa) = 22.38975 27.71396 25.05185
#
# Velocity S-wave (km/s) = 3.07622 3.42249 3.25396
# Velocity P-wave (km/s) = 5.26243 5.67426 5.47222
#
# Compressibility (1/GPa) = 0.02803560
#
# Stress axis : x y z
#
# Youngs Moduli (GPa) = 31.31922 47.33893 98.89125
#
# Poissons Ratio (x) = 0.55536 0.56526
# Poissons Ratio (y) = 0.36743 0.01162
# Poissons Ratio (z) = 0.17902 0.00556
#
# Static dielectric constant tensor:
#      x y z
#    x 4.060240 0.000030 -0.056260 
#    y 0.000030 3.921230 0.000190 
#    z -0.056260 0.000190 4.519650 
# 
# 
# High freq. dielectric constant tensor:
#      x y z
#    x 1.926160 0.000000 -0.004790 
#    y 0.000000 1.915060 0.000010 
#    z -0.004790 0.000010 1.953340 
# 
# From -- ./inp_files/66703.got.cif
#   From: 2010.03.12/outbox.cif.g09.slc.cpg/sg5_34_cif.got.tgz:66703.got - 2010.03.31 09:47:26.
