data_PCOD8051124
_publ_section_title
;
Structure prediction by ZEFSAII (Michael W. Deem and Ramdas Pophale) SiO2 
 PCOD8051124
Probable space group: C 2
;
_chemical_formula_sum "Si O2"
_cell_formula_units_Z 32
_cell_length_a 10.190585
_cell_length_b 9.553089
_cell_length_c 15.773170
_cell_angle_alpha 90.000000
_cell_angle_beta 89.999851
_cell_angle_gamma 90.000000
_cell_volume 1535.542792
_symmetry_space_group_name_H-M "C 2"
_symmetry_group_IT_number 5
_symmetry_cell_setting 'monoclinic'
loop_
_space_group_symop_operation_xyz
x,y,z
-x,y,-z
1/2+x,1/2+y,z
1/2-x,1/2+y,-z
loop_
_atom_site_type_symbol
_atom_site_label
_atom_site_fract_x
_atom_site_fract_y
_atom_site_fract_z
Si Si1 0.133576 0.863170 0.963997
Si Si2 0.000009 0.209052 0.290167
Si Si3 0.499996 0.209042 0.343088
Si Si4 0.392566 0.437471 0.227725
Si Si5 0.270682 0.624506 0.581525
Si Si6 0.229318 0.293557 0.581529
Si Si7 0.392575 0.980641 0.772294
Si Si8 0.633585 0.054814 0.035973
O O1 0.126197 0.862842 0.862582
O O2 0.249997 0.958976 0.998512
O O3 0.156424 0.708973 0.999955
O O4 0.000000 0.928058 0.000000
O O5 0.122200 0.153166 0.345708
O O6 0.041370 0.328964 0.224194
O O7 0.877827 0.264943 0.345713
O O8 0.958640 0.089138 0.224196
O O9 0.486351 0.344957 0.285241
O O10 0.370661 0.190830 0.398675
O O11 0.629363 0.227190 0.398652
O O12 0.513609 0.073189 0.285183
O O13 0.249991 0.459071 0.270529
O O14 0.250024 0.459028 0.564165
O O15 0.323700 0.709034 0.499998
O O16 0.373780 0.055230 0.862611
O O17 0.500000 0.989897 0.000000
#
# Coordination Sequence:
#
# PCOD8051124 Si02
#       8
#     4   4   4   4   4   4   4   4
#     4  10  23  44  67 101 137 174 219 275 333 401
#     4  12  25  46  67 100 138 174 232 278 337 404
#     4  12  23  44  69  98 136 174 226 270 345 396
#     4  11  24  43  70 100 136 176 221 283 330 399
#     4  12  28  44  69 100 134 181 224 284 340 401
#     4  12  28  44  69 100 134 181 224 284 340 401
#     4  11  24  43  70 100 136 176 221 283 330 399
#     4  10  23  44  67 101 137 174 219 275 333 401
#
# _framework density 20.839535999999999
#
# number of rings (size 3 to 8) (size 9 to 14) (size 15 to 20)
#    0.000    0.750    5.000    2.250    3.500    6.500 
#    4.500    0.000    0.000    0.000    0.000    0.000 
#    0.000    0.000    0.000    0.000    0.000    0.000 
#
# Total GULP energy -198396.630363 kJ/mol
# GULP energy per Si atom -12399.789398 kJ/mol
# Density = 2.079210 g / cm^3
# Si number density = 20.839536 Si / 1000 Ang^3
#
#
#
# Elastic Constant Matrix: (Units=GPa)
#
#
# Indices 1 2 3 4 5 6 
#
# 1 131.1048 38.2055 21.1958 0.0000 0.0002 0.0000
# 2 38.2055 155.4492 51.9299 0.0000 -0.0083 0.0000
# 3 21.1958 51.9299 79.7597 0.0000 -0.0062 0.0000
# 4 0.0000 0.0000 0.0000 65.8030 0.0000 -0.0378
# 5 0.0002 -0.0083 -0.0062 0.0000 27.6397 0.0000
# 6 0.0000 0.0000 0.0000 -0.0378 0.0000 37.5778
#
#
#
# Elastic Compliance Matrix: (Units=1/GPa)
#
#
# Indices 1 2 3 4 5 6 
#
# 1 0.008294 -0.001664 -0.001121 0.000000 -0.000001 0.000000
# 2 -0.001664 0.008555 -0.005128 0.000000 0.000001 0.000000
# 3 -0.001121 -0.005128 0.016174 0.000000 0.000002 0.000000
# 4 0.000000 0.000000 0.000000 0.015197 0.000000 0.000015
# 5 -0.000001 0.000001 0.000002 0.000000 0.036180 0.000000
# 6 0.000000 0.000000 0.000000 0.000015 0.000000 0.026611
#
#
# Mechanical properties :
#
#
# Convention : Reuss Voigt Hill
#
# Bulk Modulus (GPa) = 58.14674 65.44178 61.79426
# Shear Modulus (GPa) = 37.71649 43.20293 40.45971
#
# Velocity S-wave (km/s) = 4.25885 4.55810 4.41101
# Velocity P-wave (km/s) = 7.22125 7.69237 7.46053
#
# Compressibility (1/GPa) = 0.01719787
#
# Stress axis : x y z
#
# Youngs Moduli (GPa) = 120.57551 116.89170 61.82754
#
# Poissons Ratio (x) = 0.19451 0.06928
# Poissons Ratio (y) = 0.20064 0.31704
# Poissons Ratio (z) = 0.13511 0.59939
#
# Static dielectric constant tensor:
#      x y z
#    x 4.104080 0.000000 0.000050 
#    y 0.000000 3.856350 0.000000 
#    z 0.000050 0.000000 3.543660 
# 
# 
# High freq. dielectric constant tensor:
#      x y z
#    x 1.837320 0.000000 0.000000 
#    y 0.000000 1.829800 0.000000 
#    z 0.000000 0.000000 1.804790 
# 
# From -- ./inp_files/52463.got.cif
#   From: 2010.03.12/outbox.cif.g09.slc.cpg/sg5_27_cif.got.tgz:52463.got - 2010.03.31 09:47:26.
