data_PCOD8051259
_publ_section_title
;
Structure prediction by ZEFSAII (Michael W. Deem and Ramdas Pophale) SiO2 
 PCOD8051259
Probable space group: C 2
;
_chemical_formula_sum "Si O2"
_cell_formula_units_Z 26
_cell_length_a 7.737732
_cell_length_b 24.058553
_cell_length_c 8.102366
_cell_angle_alpha 90.000000
_cell_angle_beta 52.386443
_cell_angle_gamma 90.000000
_cell_volume 1194.812803
_symmetry_space_group_name_H-M "C 2"
_symmetry_group_IT_number 5
_symmetry_cell_setting 'monoclinic'
loop_
_space_group_symop_operation_xyz
x,y,z
-x,y,-z
1/2+x,1/2+y,z
1/2-x,1/2+y,-z
loop_
_atom_site_type_symbol
_atom_site_label
_atom_site_fract_x
_atom_site_fract_y
_atom_site_fract_z
Si Si1 0.259003 0.617280 0.062969
Si Si2 0.000000 0.666262 0.500000
Si Si3 0.767124 0.716969 0.168830
Si Si4 0.000000 0.952546 0.500000
Si Si5 0.771234 0.495119 0.056158
Si Si6 0.814510 0.249685 0.427574
Si Si7 0.261694 0.872074 0.559652
Si Si8 0.500000 0.417379 0.000000
O O1 0.058940 0.627805 0.308940
O O2 0.500000 0.621296 0.000000
O O3 0.238889 0.657911 0.918724
O O4 0.213534 0.556661 0.021207
O O5 0.198810 0.710467 0.363695
O O6 0.567736 0.756114 0.224937
O O7 0.727697 0.710963 0.386656
O O8 0.000000 0.746460 0.000000
O O9 0.203556 0.915610 0.448807
O O10 0.085909 0.992082 0.304978
O O11 0.701682 0.454942 0.946467
O O12 0.000000 0.475604 0.000000
O O13 0.724362 0.311271 0.503937
O O14 0.500000 0.880740 0.500000
O O15 0.083470 0.877785 0.806593
#
# Coordination Sequence:
#
# PCOD8051259 Si02
#       8
#     4   2   4   2   4   4   4   2
#     4  12  25  42  65  95 132 169 219 261 333 384
#     4  12  25  42  64  98 132 170 215 274 308 400
#     4  11  22  41  64  96 133 174 209 261 316 396
#     4  10  25  44  70  94 130 164 223 274 322 384
#     4  11  24  46  67  96 125 171 215 277 327 383
#     4  11  24  39  66  98 134 170 218 256 328 383
#     4  11  22  42  67  97 128 172 214 268 319 387
#     4  10  24  42  68  94 130 166 224 268 322 380
#
# _framework density 21.760732999999998
#
# number of rings (size 3 to 8) (size 9 to 14) (size 15 to 20)
#    0.000    0.923    5.385    1.846    1.077    2.462 
#    1.385    0.000    3.385    0.000    0.000    0.000 
#    0.000    0.000    0.000    0.000    0.000    0.000 
#
# Total GULP energy -161085.755260 kJ/mol
# GULP energy per Si atom -12391.211943 kJ/mol
# Density = 2.171120 g / cm^3
# Si number density = 21.760733 Si / 1000 Ang^3
#
#
#
# Elastic Constant Matrix: (Units=GPa)
#
#
# Indices 1 2 3 4 5 6 
#
# 1 107.5257 34.0041 21.1568 0.0000 -18.4786 0.0000
# 2 34.0041 129.9593 59.0042 0.0000 -3.0849 0.0000
# 3 21.1568 59.0042 96.0192 0.0000 -15.1992 0.0000
# 4 0.0000 0.0000 0.0000 20.9372 0.0000 -4.5033
# 5 -18.4786 -3.0849 -15.1992 0.0000 34.1506 0.0000
# 6 0.0000 0.0000 0.0000 -4.5033 0.0000 2.6191
#
#
#
# Elastic Compliance Matrix: (Units=1/GPa)
#
#
# Indices 1 2 3 4 5 6 
#
# 1 0.011182 -0.002900 0.000253 0.000000 0.005901 0.000000
# 2 -0.002900 0.011567 -0.007048 0.000000 -0.003661 0.000000
# 3 0.000253 -0.007048 0.015718 0.000000 0.006496 0.000000
# 4 0.000000 0.000000 0.000000 0.075792 0.000000 0.130319
# 5 0.005901 -0.003661 0.006496 0.000000 0.035035 0.000000
# 6 0.000000 0.000000 0.000000 0.130319 0.000000 0.605892
#
#
# Mechanical properties :
#
#
# Convention : Reuss Voigt Hill
#
# Bulk Modulus (GPa) = 52.42578 62.42605 57.42591
# Shear Modulus (GPa) = 6.40257 26.16398 16.28328
#
# Velocity S-wave (km/s) = 1.71716 3.47125 2.73845
# Velocity P-wave (km/s) = 5.29866 6.69447 6.03704
#
# Compressibility (1/GPa) = 0.01907459
#
# Stress axis : x y z
#
# Youngs Moduli (GPa) = 89.43217 86.45455 63.61968
#
# Poissons Ratio (x) = 0.25074 -0.01607
# Poissons Ratio (y) = 0.25938 0.44841
# Poissons Ratio (z) = -0.02258 0.60936
#
# Static dielectric constant tensor:
#      x y z
#    x 4.721510 0.000000 -0.109470 
#    y 0.000000 3.667570 0.000000 
#    z -0.109470 0.000000 4.010510 
# 
# 
# High freq. dielectric constant tensor:
#      x y z
#    x 1.871600 0.000000 -0.004820 
#    y 0.000000 1.844320 0.000000 
#    z -0.004820 0.000000 1.856220 
# 
# From -- ./inp_files/17042.got.cif
#   From: 2010.03.12/outbox.cif.g09.slc.cpg/sg5_9_cif.got.tgz:17042.got - 2010.03.31 09:47:26.
