data_PCOD8051811
_publ_section_title
;
Structure prediction by ZEFSAII (Michael W. Deem and Ramdas Pophale) SiO2 
 PCOD8051811
Probable space group: C 2
;
_chemical_formula_sum "Si O2"
_cell_formula_units_Z 30
_cell_length_a 12.948227
_cell_length_b 12.899191
_cell_length_c 8.725354
_cell_angle_alpha 90.000000
_cell_angle_beta 111.101737
_cell_angle_gamma 90.000000
_cell_volume 1359.598785
_symmetry_space_group_name_H-M "C 2"
_symmetry_group_IT_number 5
_symmetry_cell_setting 'monoclinic'
loop_
_space_group_symop_operation_xyz
x,y,z
-x,y,-z
1/2+x,1/2+y,z
1/2-x,1/2+y,-z
loop_
_atom_site_type_symbol
_atom_site_label
_atom_site_fract_x
_atom_site_fract_y
_atom_site_fract_z
Si Si1 0.328960 0.358420 0.623481
Si Si2 0.621257 0.171758 0.535448
Si Si3 0.226925 0.179932 0.085336
Si Si4 0.399067 0.942284 0.547333
Si Si5 0.000000 0.974573 0.500000
Si Si6 0.382548 0.888022 0.875814
Si Si7 0.886777 0.801770 0.980863
Si Si8 0.342081 0.495216 0.151037
O O1 0.309739 0.242922 0.545546
O O2 0.216215 0.418378 0.591775
O O3 0.410489 0.410891 0.546893
O O4 0.367470 0.364052 0.816322
O O5 0.500000 0.223582 0.500000
O O6 0.691375 0.154868 0.728974
O O7 0.594224 0.065939 0.432143
O O8 0.141573 0.271224 0.080427
O O9 0.297796 0.215577 0.975971
O O10 0.161291 0.079063 0.988910
O O11 0.500000 0.899019 0.500000
O O12 0.400488 0.881497 0.705835
O O13 0.921963 0.036352 0.333769
O O14 0.283388 0.967739 0.863145
O O15 0.500000 0.929217 0.000000
O O16 0.896086 0.887391 0.121215
O O17 0.000000 0.741647 0.000000
#
# Coordination Sequence:
#
# PCOD8051811 Si02
#       8
#     4   4   4   4   2   4   4   4
#     4  12  22  43  72 100 146 179 238 296 354 419
#     4  11  23  42  73 103 137 188 240 294 346 419
#     4  11  25  47  66 105 141 183 232 289 364 424
#     4  11  26  44  70 103 138 191 233 289 348 425
#     4  12  22  46  74 104 142 188 240 302 364 414
#     4  11  26  48  68  98 146 190 226 291 360 422
#     4  11  23  39  69 103 132 179 230 287 346 415
#     4  11  25  46  73 101 139 186 235 295 358 426
#
# _framework density 22.065334
#
# number of rings (size 3 to 8) (size 9 to 14) (size 15 to 20)
#    0.000    0.800    4.667    2.400    9.333    1.067 
#    2.400    1.333    1.467    0.000    0.000    0.000 
#    0.000    0.000    0.000    0.000    0.000    0.000 
#
# Total GULP energy -185865.813959 kJ/mol
# GULP energy per Si atom -12391.054264 kJ/mol
# Density = 2.201511 g / cm^3
# Si number density = 22.065334 Si / 1000 Ang^3
#
#
#
# Elastic Constant Matrix: (Units=GPa)
#
#
# Indices 1 2 3 4 5 6 
#
# 1 140.7761 25.6441 24.4549 0.0000 -1.5119 0.0000
# 2 25.6441 63.1986 6.7084 0.0000 -2.9110 0.0000
# 3 24.4549 6.7084 111.5854 0.0000 11.2766 0.0000
# 4 0.0000 0.0000 0.0000 -2.5435 0.0000 17.5810
# 5 -1.5119 -2.9110 11.2766 0.0000 47.3124 0.0000
# 6 0.0000 0.0000 0.0000 17.5810 0.0000 12.8868
#
#
#
# Elastic Compliance Matrix: (Units=1/GPa)
#
#
# Indices 1 2 3 4 5 6 
#
# 1 0.007939 -0.003030 -0.001603 0.000000 0.000449 0.000000
# 2 -0.003030 0.017153 -0.000475 0.000000 0.001072 0.000000
# 3 -0.001603 -0.000475 0.009581 0.000000 -0.002364 0.000000
# 4 0.000000 0.000000 0.000000 -0.037695 0.000000 0.051426
# 5 0.000449 0.001072 -0.002364 0.000000 0.021780 0.000000
# 6 0.000000 0.000000 0.000000 0.051426 0.000000 0.007440
#
#
# Mechanical properties :
#
#
# Convention : Reuss Voigt Hill
#
# Bulk Modulus (GPa) = 40.89280 47.68610 44.28945
# Shear Modulus (GPa) = 112.19367 28.78132 70.48749
#
# Velocity S-wave (km/s) = 7.13838 3.61552 5.65811
# Velocity P-wave (km/s) = 9.30134 6.25201 7.92472
#
# Compressibility (1/GPa) = 0.02445418
#
# Stress axis : x y z
#
# Youngs Moduli (GPa) = 125.96323 58.30006 104.37812
#
# Poissons Ratio (x) = 0.17668 0.16733
# Poissons Ratio (y) = 0.38173 0.04962
# Poissons Ratio (z) = 0.20193 0.02771
#
# Static dielectric constant tensor:
#      x y z
#    x 4.597930 0.000000 0.351950 
#    y 0.000000 3.653080 0.000000 
#    z 0.351950 0.000000 4.340560 
# 
# 
# High freq. dielectric constant tensor:
#      x y z
#    x 1.881160 0.000000 -0.000360 
#    y 0.000000 1.842600 0.000000 
#    z -0.000360 0.000000 1.880580 
# 
# From -- ./inp_files/20675.got.cif
#   From: 2010.03.12/outbox.cif.g09.slc.cpg/sg5_11_cif.got.tgz:20675.got - 2010.03.31 09:47:26.
