data_PCOD8052432
_publ_section_title
;
Structure prediction by ZEFSAII (Michael W. Deem and Ramdas Pophale) SiO2 
 PCOD8052432
Probable space group: P M
;
_chemical_formula_sum "Si O2"
_cell_formula_units_Z 16
_cell_length_a 14.186546
_cell_length_b 9.083950
_cell_length_c 19.086089
_cell_angle_alpha 90.000000
_cell_angle_beta 19.163488
_cell_angle_gamma 90.000000
_cell_volume 807.407220
_symmetry_space_group_name_H-M "P M"
_symmetry_group_IT_number 6
_symmetry_cell_setting 'monoclinic'
loop_
_space_group_symop_operation_xyz
x,y,z
x,-y,z
loop_
_atom_site_type_symbol
_atom_site_label
_atom_site_fract_x
_atom_site_fract_y
_atom_site_fract_z
Si Si1 0.784570 0.833315 0.648010
Si Si2 0.844586 0.831809 0.065194
Si Si3 0.182577 0.829284 0.235399
Si Si4 0.796499 0.672826 0.240056
Si Si5 0.154155 0.671481 0.721864
Si Si6 0.634348 0.331358 0.998422
Si Si7 0.346354 0.165978 0.320715
Si Si8 0.201929 0.673302 0.081981
O O1 0.958958 0.795963 0.454507
O O2 0.000561 0.813669 0.563282
O O3 0.665388 0.000000 0.728833
O O4 0.525490 0.721473 0.837938
O O5 0.913458 0.748165 0.088058
O O6 0.502561 0.818258 0.286283
O O7 0.935397 0.000000 0.011688
O O8 0.035488 0.766354 0.869106
O O9 0.502561 0.769398 0.029483
O O10 0.076461 0.748559 0.239857
O O11 0.212033 0.000000 0.198234
O O12 0.808838 0.500000 0.218908
O O13 0.475018 0.725879 0.481890
O O14 0.998985 0.723407 0.161164
O O15 0.142862 0.500000 0.751347
O O16 0.971152 0.697619 0.778545
O O17 0.576520 0.500000 0.018521
O O18 0.473361 0.293521 0.183374
O O19 0.410574 0.000000 0.244936
O O20 0.195731 0.500000 0.097392
#
# Coordination Sequence:
#
# PCOD8052432 Si02
#       8
#     2   2   2   2   2   2   2   2
#     4   9  19  37  59  82 111 145 177 216 272 329
#     4  10  20  35  58  86 113 141 177 223 272 324
#     4  10  21  38  59  81 111 147 178 219 275 329
#     4  10  23  41  56  75 108 148 188 227 269 320
#     4   9  19  37  59  82 111 146 180 219 270 324
#     4   9  16  29  54  86 113 138 175 220 266 322
#     4   8  16  32  53  81 114 144 174 212 268 330
#     4  11  24  39  56  79 107 143 189 234 270 314
#
# _framework density 19.816517999999999
#
# number of rings (size 3 to 8) (size 9 to 14) (size 15 to 20)
#    0.000    2.500    0.000    2.250    0.000    7.000 
#    0.000    6.250    0.000    0.000    0.000    0.000 
#    0.000    0.000    0.000    0.000    0.000    0.000 
#
# Total GULP energy -198335.736828 kJ/mol
# GULP energy per Si atom -12395.983552 kJ/mol
# Density = 1.977141 g / cm^3
# Si number density = 19.816518 Si / 1000 Ang^3
#
#
#
# Elastic Constant Matrix: (Units=GPa)
#
#
# Indices 1 2 3 4 5 6 
#
# 1 72.6697 18.7545 -8.3098 0.0000 -2.6963 0.0000
# 2 18.7545 54.2157 4.4124 0.0000 -1.5258 0.0000
# 3 -8.3098 4.4124 44.0729 0.0000 -6.2688 0.0000
# 4 0.0000 0.0000 0.0000 23.8563 0.0000 0.6232
# 5 -2.6963 -1.5258 -6.2688 0.0000 25.6694 0.0000
# 6 0.0000 0.0000 0.0000 0.6232 0.0000 28.4243
#
#
#
# Elastic Compliance Matrix: (Units=1/GPa)
#
#
# Indices 1 2 3 4 5 6 
#
# 1 0.015758 -0.005702 0.003863 0.000000 0.002260 0.000000
# 2 -0.005702 0.020671 -0.003165 0.000000 -0.000143 0.000000
# 3 0.003863 -0.003165 0.024621 0.000000 0.006231 0.000000
# 4 0.000000 0.000000 0.000000 0.041942 0.000000 -0.000920
# 5 0.002260 -0.000143 0.006231 0.000000 0.040707 0.000000
# 6 0.000000 0.000000 0.000000 -0.000920 0.000000 0.035201
#
#
# Mechanical properties :
#
#
# Convention : Reuss Voigt Hill
#
# Bulk Modulus (GPa) = 19.59124 22.29695 20.94409
# Shear Modulus (GPa) = 24.28108 25.99676 25.13892
#
# Velocity S-wave (km/s) = 3.50422 3.62591 3.56558
# Velocity P-wave (km/s) = 5.12645 5.36710 5.24815
#
# Compressibility (1/GPa) = 0.05104323
#
# Stress axis : x y z
#
# Youngs Moduli (GPa) = 63.45958 48.37739 40.61538
#
# Poissons Ratio (x) = 0.27584 -0.15691
# Poissons Ratio (y) = 0.36184 0.12854
# Poissons Ratio (z) = -0.24517 0.15311
#
# Static dielectric constant tensor:
#      x y z
#    x 3.705670 0.000000 -0.287640 
#    y 0.000000 3.574420 0.000000 
#    z -0.287640 0.000000 3.449760 
# 
# 
# High freq. dielectric constant tensor:
#      x y z
#    x 1.772640 0.000000 -0.014280 
#    y 0.000000 1.776480 0.000000 
#    z -0.014280 0.000000 1.755370 
# 
# From -- ./inp_files/4567.got.cif
#   From: 2010.03.12/outbox.cif.g09.slc.cpg/sg6_3_cif.got.tgz:4567.got - 2010.03.30 10:24:59.
