data_PCOD8052759
_publ_section_title
;
Structure prediction by ZEFSAII (Michael W. Deem and Ramdas Pophale) SiO2 
 PCOD8052759
Probable space group: C M
;
_chemical_formula_sum "Si O2"
_cell_formula_units_Z 32
_cell_length_a 24.708703
_cell_length_b 8.999298
_cell_length_c 18.967129
_cell_angle_alpha 90.000000
_cell_angle_beta 153.520630
_cell_angle_gamma 90.000000
_cell_volume 1880.502180
_symmetry_space_group_name_H-M "C M"
_symmetry_group_IT_number 8
_symmetry_cell_setting 'monoclinic'
loop_
_space_group_symop_operation_xyz
x,y,z
x,-y,z
1/2+x,1/2+y,z
1/2+x,1/2-y,z
loop_
_atom_site_type_symbol
_atom_site_label
_atom_site_fract_x
_atom_site_fract_y
_atom_site_fract_z
Si Si1 0.675970 0.174162 0.095910
Si Si2 0.405255 0.834548 0.393809
Si Si3 0.642828 0.675350 0.662923
Si Si4 0.179343 0.329781 0.561146
Si Si5 0.478466 0.173779 0.216699
Si Si6 0.800943 0.664777 0.128543
Si Si7 0.385210 0.673618 0.977189
Si Si8 0.451748 0.668296 0.896697
O O1 0.778382 0.251372 0.265481
O O2 0.696466 0.226476 0.037926
O O3 0.691921 0.000000 0.119582
O O4 0.543063 0.219360 0.965912
O O5 0.521069 0.742705 0.556356
O O6 0.410258 0.844482 0.313860
O O7 0.405845 0.000000 0.427898
O O8 0.640806 0.500000 0.669626
O O9 0.646529 0.717714 0.585257
O O10 0.757968 0.741238 0.838332
O O11 0.155425 0.500000 0.558441
O O12 0.102888 0.289219 0.402576
O O13 0.321223 0.311218 0.707570
O O14 0.361867 0.223056 0.127754
O O15 0.470929 0.000000 0.190034
O O16 0.477898 0.268609 0.144624
O O17 0.744814 0.500000 0.052216
O O18 0.359873 0.500000 0.956195
O O19 0.443507 0.709258 0.969598
O O20 0.499324 0.500000 0.942638
#
# Coordination Sequence:
#
# PCOD8052759 Si02
#       8
#     4   4   4   4   4   4   4   4
#     4  10  18  28  47  75 100 123 162 214 251 282
#     4   9  16  29  48  70  97 127 157 194 243 295
#     4  11  19  29  48  75 101 126 164 209 247 288
#     4   9  17  31  51  71  97 132 166 202 247 296
#     4  10  18  32  52  76 102 129 162 203 251 299
#     4   8  16  29  49  72  98 129 157 195 246 297
#     4  10  22  35  49  70 103 140 167 199 248 301
#     4   9  18  33  50  69  96 134 171 200 243 300
#
# _framework density 17.016731
#
# number of rings (size 3 to 8) (size 9 to 14) (size 15 to 20)
#    0.750    1.750    1.250    3.375    0.000    3.500 
#    0.000    0.000    0.000    1.500    0.000    1.750 
#    0.000    0.000    0.000    0.000    0.000    0.000 
#
# Total GULP energy -198298.401179 kJ/mol
# GULP energy per Si atom -12393.650074 kJ/mol
# Density = 1.697800 g / cm^3
# Si number density = 17.016731 Si / 1000 Ang^3
#
#
#
# Elastic Constant Matrix: (Units=GPa)
#
#
# Indices 1 2 3 4 5 6 
#
# 1 63.1556 39.8625 41.4147 0.0000 7.7302 0.0000
# 2 39.8625 116.6549 45.2968 0.0000 10.0146 0.0000
# 3 41.4147 45.2968 90.3402 0.0000 1.2117 0.0000
# 4 0.0000 0.0000 0.0000 27.0837 0.0000 2.1226
# 5 7.7302 10.0146 1.2117 0.0000 26.1701 0.0000
# 6 0.0000 0.0000 0.0000 2.1226 0.0000 23.1455
#
#
#
# Elastic Compliance Matrix: (Units=1/GPa)
#
#
# Indices 1 2 3 4 5 6 
#
# 1 0.025517 -0.004654 -0.009293 0.000000 -0.005326 0.000000
# 2 -0.004654 0.011891 -0.003789 0.000000 -0.003000 0.000000
# 3 -0.009293 -0.003789 0.017183 0.000000 0.003399 0.000000
# 4 0.000000 0.000000 0.000000 0.037190 0.000000 -0.003411
# 5 -0.005326 -0.003000 0.003399 0.000000 0.040776 0.000000
# 6 0.000000 0.000000 0.000000 -0.003411 0.000000 0.043518
#
#
# Mechanical properties :
#
#
# Convention : Reuss Voigt Hill
#
# Bulk Modulus (GPa) = 52.29835 58.14432 55.22134
# Shear Modulus (GPa) = 22.94423 24.85163 23.89793
#
# Velocity S-wave (km/s) = 3.67595 3.82569 3.75157
# Velocity P-wave (km/s) = 6.98692 7.33196 7.16152
#
# Compressibility (1/GPa) = 0.01912106
#
# Stress axis : x y z
#
# Youngs Moduli (GPa) = 39.18924 84.09536 58.19547
#
# Poissons Ratio (x) = 0.39137 0.54081
# Poissons Ratio (y) = 0.18238 0.22048
# Poissons Ratio (z) = 0.36418 0.31860
#
# Static dielectric constant tensor:
#      x y z
#    x 2.838010 0.000000 0.093610 
#    y 0.000000 3.102890 0.000000 
#    z 0.093610 0.000000 3.104070 
# 
# 
# High freq. dielectric constant tensor:
#      x y z
#    x 1.620120 0.000000 0.017120 
#    y 0.000000 1.659980 0.000000 
#    z 0.017120 0.000000 1.642390 
# 
# From -- ./inp_files/30052.got.cif
#   From: 2010.03.12/outbox.cif.g09.slc.cpg/sg8_16_cif.got.tgz:30052.got - 2010.03.31 10:45:26.
