data_PCOD8052652
_publ_section_title
;
Structure prediction by ZEFSAII (Michael W. Deem and Ramdas Pophale) SiO2 
 PCOD8052652
Probable space group: P C
;
_chemical_formula_sum "Si O2"
_cell_formula_units_Z 14
_cell_length_a 8.819291
_cell_length_b 18.031406
_cell_length_c 5.231621
_cell_angle_alpha 90.000000
_cell_angle_beta 124.444040
_cell_angle_gamma 90.000000
_cell_volume 686.095346
_symmetry_space_group_name_H-M "P C"
_symmetry_group_IT_number 7
_symmetry_cell_setting 'monoclinic'
loop_
_space_group_symop_operation_xyz
x,y,z
x,-y,1/2+z
loop_
_atom_site_type_symbol
_atom_site_label
_atom_site_fract_x
_atom_site_fract_y
_atom_site_fract_z
Si Si1 0.987820 0.227949 0.395270
Si Si2 0.495217 0.980453 0.726581
Si Si3 0.485711 0.338764 0.330611
Si Si4 0.184975 0.452122 0.016811
Si Si5 0.402181 0.751835 0.239571
Si Si6 0.675571 0.879453 0.562242
Si Si7 0.902369 0.680501 0.310128
O O1 0.931891 0.259785 0.616568
O O2 0.203976 0.211335 0.598167
O O3 0.884272 0.148897 0.272365
O O4 0.928570 0.283482 0.113454
O O5 0.661079 0.043347 0.891880
O O6 0.374826 0.989474 0.868172
O O7 0.587107 0.899966 0.761072
O O8 0.390851 0.419095 0.216368
O O9 0.385944 0.297524 0.470304
O O10 0.697724 0.352023 0.597717
O O11 0.462513 0.295059 0.043370
O O12 0.152591 0.508549 0.216027
O O13 0.041626 0.385908 0.901582
O O14 0.550710 0.814962 0.322597
#
# Coordination Sequence:
#
# PCOD8052652 Si02
#       7
#     2   2   2   2   2   2   2
#     4  12  23  39  66  97 127 164 211 270 318 359
#     4   8  20  36  58  84 132 162 210 242 318 384
#     4  12  24  43  66  97 126 162 217 260 308 384
#     4  12  26  44  68  90 138 164 200 260 328 374
#     4  12  23  39  66  97 127 164 211 270 318 359
#     4  10  22  38  66  88 130 170 210 254 330 358
#     4  12  24  43  66  97 126 162 217 260 308 384
#
# _framework density 20.405327
#
# number of rings (size 3 to 8) (size 9 to 14) (size 15 to 20)
#    0.857    0.000    5.714    1.714    4.000    1.143 
#    0.000    1.429    0.000    0.000    0.000    0.000 
#    0.000    0.000    0.000    0.000    0.000    0.000 
#
# Total GULP energy -173447.804818 kJ/mol
# GULP energy per Si atom -12389.128916 kJ/mol
# Density = 2.035888 g / cm^3
# Si number density = 20.405327 Si / 1000 Ang^3
#
#
#
# Elastic Constant Matrix: (Units=GPa)
#
#
# Indices 1 2 3 4 5 6 
#
# 1 58.1743 -3.3044 17.9204 0.0000 -3.0586 0.0000
# 2 -3.3044 65.3934 8.7514 0.0000 0.5697 0.0000
# 3 17.9204 8.7514 73.0905 0.0000 -6.8140 0.0000
# 4 0.0000 0.0000 0.0000 25.7541 0.0000 -3.4887
# 5 -3.0586 0.5697 -6.8140 0.0000 39.9883 0.0000
# 6 0.0000 0.0000 0.0000 -3.4887 0.0000 14.5280
#
#
#
# Elastic Compliance Matrix: (Units=1/GPa)
#
#
# Indices 1 2 3 4 5 6 
#
# 1 0.018770 0.001577 -0.004734 0.000000 0.000606 0.000000
# 2 0.001577 0.015685 -0.002311 0.000000 -0.000497 0.000000
# 3 -0.004734 -0.002311 0.015332 0.000000 0.002283 0.000000
# 4 0.000000 0.000000 0.000000 0.040134 0.000000 0.009638
# 5 0.000606 -0.000497 0.002283 0.000000 0.025450 0.000000
# 6 0.000000 0.000000 0.000000 0.009638 0.000000 0.071147
#
#
# Mechanical properties :
#
#
# Convention : Reuss Voigt Hill
#
# Bulk Modulus (GPa) = 25.74001 27.04366 26.39183
# Shear Modulus (GPa) = 23.76370 27.60678 25.68524
#
# Velocity S-wave (km/s) = 3.41630 3.68220 3.55174
# Velocity P-wave (km/s) = 5.31067 5.60001 5.45726
#
# Compressibility (1/GPa) = 0.03885003
#
# Stress axis : x y z
#
# Youngs Moduli (GPa) = 53.27782 63.75380 65.22317
#
# Poissons Ratio (x) = -0.10052 0.30878
# Poissons Ratio (y) = -0.08400 0.15073
# Poissons Ratio (z) = 0.25223 0.14733
#
# Static dielectric constant tensor:
#      x y z
#    x 3.785480 0.000000 -0.175780 
#    y 0.000000 3.698120 0.000000 
#    z -0.175780 0.000000 4.009170 
# 
# 
# High freq. dielectric constant tensor:
#      x y z
#    x 1.793130 0.000000 -0.018990 
#    y 0.000000 1.791180 0.000000 
#    z -0.018990 0.000000 1.810260 
# 
# From -- ./inp_files/932.got.cif
#   From: 2010.03.12/outbox.cif.g09.slc.cpg/sg7_cif.got.tgz:932.got - 2010.03.30 08:40:41.
