data_PCOD8052232
_publ_section_title
;
Structure prediction by ZEFSAII (Michael W. Deem and Ramdas Pophale) SiO2 
 PCOD8052232
Probable space group: P M
;
_chemical_formula_sum "Si O2"
_cell_formula_units_Z 16
_cell_length_a 17.260312
_cell_length_b 8.904692
_cell_length_c 11.490964
_cell_angle_alpha 90.000000
_cell_angle_beta 31.563025
_cell_angle_gamma 90.000000
_cell_volume 924.459137
_symmetry_space_group_name_H-M "P M"
_symmetry_group_IT_number 6
_symmetry_cell_setting 'monoclinic'
loop_
_space_group_symop_operation_xyz
x,y,z
x,-y,z
loop_
_atom_site_type_symbol
_atom_site_label
_atom_site_fract_x
_atom_site_fract_y
_atom_site_fract_z
Si Si1 0.930840 0.668106 0.420140
Si Si2 0.849736 0.828380 0.302439
Si Si3 0.420222 0.822806 0.615070
Si Si4 0.718533 0.675251 0.254023
Si Si5 0.072981 0.177512 0.436597
Si Si6 0.257559 0.668069 0.024896
Si Si7 0.025757 0.325752 0.740501
Si Si8 0.157691 0.171134 0.784094
O O1 0.866879 0.500000 0.519482
O O2 0.831750 0.756286 0.453320
O O3 0.933365 0.755072 0.541472
O O4 0.100835 0.660567 0.156270
O O5 0.744079 0.739141 0.350331
O O6 0.796581 0.000000 0.375188
O O7 0.019533 0.815219 0.047159
O O8 0.579167 0.758184 0.373980
O O9 0.303841 0.775426 0.664955
O O10 0.426459 0.000000 0.621674
O O11 0.377833 0.753227 0.793887
O O12 0.686116 0.500000 0.305642
O O13 0.858768 0.709602 0.993473
O O14 0.227003 0.242255 0.185141
O O15 0.060900 0.225845 0.584605
O O16 0.071734 0.000000 0.427589
O O17 0.315137 0.500000 0.979104
O O18 0.048479 0.500000 0.681871
O O19 0.138541 0.279237 0.698082
O O20 0.173784 0.000000 0.719559
#
# Coordination Sequence:
#
# PCOD8052232 Si02
#       8
#     2   2   2   2   2   2   2   2
#     4   9  17  28  47  74 101 128 160 202 248 296
#     4  10  17  30  50  74 102 130 167 210 254 299
#     4  11  20  33  52  77 106 135 169 207 254 305
#     4  10  22  35  49  72 106 141 171 205 252 306
#     4  10  18  30  50  75 101 129 167 212 254 295
#     4   9  18  30  49  75 102 130 163 204 249 297
#     4  10  20  34  51  73 100 133 172 211 250 298
#     4   9  18  30  48  72  98 128 165 209 251 296
#
# _framework density 17.307417999999998
#
# number of rings (size 3 to 8) (size 9 to 14) (size 15 to 20)
#    0.750    1.500    1.250    3.000    0.000    3.000 
#    0.000    0.000    0.000    1.500    0.000    7.000 
#    0.000    0.000    0.000    0.000    0.000    0.000 
#
# Total GULP energy -198341.025060 kJ/mol
# GULP energy per Si atom -12396.314066 kJ/mol
# Density = 1.726803 g / cm^3
# Si number density = 17.307418 Si / 1000 Ang^3
#
#
#
# Elastic Constant Matrix: (Units=GPa)
#
#
# Indices 1 2 3 4 5 6 
#
# 1 91.3562 51.5685 42.0084 0.0000 4.2643 0.0000
# 2 51.5685 128.9786 39.0192 0.0000 10.7932 0.0000
# 3 42.0084 39.0192 55.1929 0.0000 1.2472 0.0000
# 4 0.0000 0.0000 0.0000 25.5165 0.0000 2.5511
# 5 4.2643 10.7932 1.2472 0.0000 29.3711 0.0000
# 6 0.0000 0.0000 0.0000 2.5511 0.0000 33.0928
#
#
#
# Elastic Compliance Matrix: (Units=1/GPa)
#
#
# Indices 1 2 3 4 5 6 
#
# 1 0.018309 -0.003875 -0.011179 0.000000 -0.000760 0.000000
# 2 -0.003875 0.011019 -0.004767 0.000000 -0.003284 0.000000
# 3 -0.011179 -0.004767 0.029949 0.000000 0.002103 0.000000
# 4 0.000000 0.000000 0.000000 0.039495 0.000000 -0.003045
# 5 -0.000760 -0.003284 0.002103 0.000000 0.035275 0.000000
# 6 0.000000 0.000000 0.000000 -0.003045 0.000000 0.030453
#
#
# Mechanical properties :
#
#
# Convention : Reuss Voigt Hill
#
# Bulk Modulus (GPa) = 50.92546 60.08000 55.50273
# Shear Modulus (GPa) = 23.73180 27.12485 25.42833
#
# Velocity S-wave (km/s) = 3.70698 3.96313 3.83719
# Velocity P-wave (km/s) = 6.91449 7.46530 7.19517
#
# Compressibility (1/GPa) = 0.01963654
#
# Stress axis : x y z
#
# Youngs Moduli (GPa) = 54.61664 90.74866 33.38983
#
# Poissons Ratio (x) = 0.35165 0.37327
# Poissons Ratio (y) = 0.21164 0.15916
# Poissons Ratio (z) = 0.61056 0.43258
#
# Static dielectric constant tensor:
#      x y z
#    x 3.085880 0.000000 -0.021490 
#    y 0.000000 3.313350 0.000000 
#    z -0.021490 0.000000 2.879890 
# 
# 
# High freq. dielectric constant tensor:
#      x y z
#    x 1.657260 0.000000 0.006060 
#    y 0.000000 1.687550 0.000000 
#    z 0.006060 0.000000 1.626610 
# 
# From -- ./inp_files/5341.got.cif
#   From: 2010.03.12/outbox.cif.g09.slc.cpg/sg6_3_cif.got.tgz:5341.got - 2010.03.30 10:24:59.
