data_PCOD8052143
_publ_section_title
;
Structure prediction by ZEFSAII (Michael W. Deem and Ramdas Pophale) SiO2 
 PCOD8052143
Probable space group: C 2
;
_chemical_formula_sum "Si O2"
_cell_formula_units_Z 24
_cell_length_a 7.842768
_cell_length_b 17.727880
_cell_length_c 8.516973
_cell_angle_alpha 90.000000
_cell_angle_beta 118.307190
_cell_angle_gamma 90.000000
_cell_volume 1042.558138
_symmetry_space_group_name_H-M "C 2"
_symmetry_group_IT_number 5
_symmetry_cell_setting 'monoclinic'
loop_
_space_group_symop_operation_xyz
x,y,z
-x,y,-z
1/2+x,1/2+y,z
1/2-x,1/2+y,-z
loop_
_atom_site_type_symbol
_atom_site_label
_atom_site_fract_x
_atom_site_fract_y
_atom_site_fract_z
Si Si1 0.479639 0.813920 0.306725
Si Si2 0.493328 0.970872 0.177653
Si Si3 0.845211 0.743889 0.303837
Si Si4 0.216783 0.073079 0.549103
Si Si5 0.873223 0.713298 0.806451
Si Si6 0.197812 0.085287 0.173719
O O1 0.500000 0.805841 0.500000
O O2 0.413963 0.897963 0.235198
O O3 0.682428 0.800032 0.302200
O O4 0.312276 0.753348 0.193290
O O5 0.702351 0.997032 0.334815
O O6 0.355575 0.041575 0.142399
O O7 0.500000 0.948295 0.000000
O O8 0.730074 0.674069 0.179509
O O9 0.000000 0.718012 0.500000
O O10 0.984996 0.774373 0.222583
O O11 0.323394 0.148465 0.657725
O O12 0.222248 0.060800 0.365093
O O13 0.000000 0.085823 0.500000
O O14 0.000000 0.675550 0.000000
O O15 0.000000 0.064485 0.000000
#
# Coordination Sequence:
#
# PCOD8052143 Si02
#       6
#     4   4   4   4   4   4
#     4  12  27  49  73 106 148 193 240 300 362 427
#     4  12  28  49  70 104 147 189 238 297 361 428
#     4  12  24  46  76 109 144 188 242 296 358 429
#     4  12  24  46  74 107 140 190 239 297 358 425
#     4  12  27  44  77 111 146 188 244 297 357 430
#     4  12  25  44  76 106 142 187 241 296 357 426
#
# _framework density 23.020299000000001
#
# number of rings (size 3 to 8) (size 9 to 14) (size 15 to 20)
#    0.000    0.000    5.000    4.500    7.000    1.333 
#    3.000    0.000    0.000    0.000    0.000    0.000 
#    0.000    0.000    0.000    0.000    0.000    0.000 
#
# Total GULP energy -148708.272926 kJ/mol
# GULP energy per Si atom -12392.356077 kJ/mol
# Density = 2.296790 g / cm^3
# Si number density = 23.020299 Si / 1000 Ang^3
#
#
#
# Elastic Constant Matrix: (Units=GPa)
#
#
# Indices 1 2 3 4 5 6 
#
# 1 122.8682 8.9279 31.9410 0.0000 0.4017 0.0000
# 2 8.9279 82.2177 25.2114 0.0000 -1.5605 0.0000
# 3 31.9410 25.2114 148.4738 0.0000 11.3313 0.0000
# 4 0.0000 0.0000 0.0000 17.9416 0.0000 -7.8736
# 5 0.4017 -1.5605 11.3313 0.0000 20.8708 0.0000
# 6 0.0000 0.0000 0.0000 -7.8736 0.0000 32.8830
#
#
#
# Elastic Compliance Matrix: (Units=1/GPa)
#
#
# Indices 1 2 3 4 5 6 
#
# 1 0.008646 -0.000352 -0.001863 0.000000 0.000819 0.000000
# 2 -0.000352 0.012946 -0.002292 0.000000 0.002219 0.000000
# 3 -0.001863 -0.002292 0.007861 0.000000 -0.004404 0.000000
# 4 0.000000 0.000000 0.000000 0.062281 0.000000 0.014913
# 5 0.000819 0.002219 -0.004404 0.000000 0.050455 0.000000
# 6 0.000000 0.000000 0.000000 0.014913 0.000000 0.033982
#
#
# Mechanical properties :
#
#
# Convention : Reuss Voigt Hill
#
# Bulk Modulus (GPa) = 48.92442 53.96893 51.44668
# Shear Modulus (GPa) = 26.04209 33.50437 29.77323
#
# Velocity S-wave (km/s) = 3.36708 3.81914 3.60021
# Velocity P-wave (km/s) = 6.03450 6.55307 6.29912
#
# Compressibility (1/GPa) = 0.02043969
#
# Stress axis : x y z
#
# Youngs Moduli (GPa) = 115.66130 77.24409 127.20787
#
# Poissons Ratio (x) = 0.02720 0.23695
# Poissons Ratio (y) = 0.04073 0.29154
# Poissons Ratio (z) = 0.21544 0.17703
#
# Static dielectric constant tensor:
#      x y z
#    x 4.559950 0.000000 0.021910 
#    y 0.000000 3.857490 0.000000 
#    z 0.021910 0.000000 4.283070 
# 
# 
# High freq. dielectric constant tensor:
#      x y z
#    x 1.929710 0.000000 -0.003720 
#    y 0.000000 1.877240 0.000000 
#    z -0.003720 0.000000 1.931160 
# 
# From -- ./inp_files/16858.got.cif
#   From: 2010.03.12/outbox.cif.g09.slc.cpg/sg5_9_cif.got.tgz:16858.got - 2010.03.31 09:47:26.
