data_PCOD8052179
_publ_section_title
;
Structure prediction by ZEFSAII (Michael W. Deem and Ramdas Pophale) SiO2 
 PCOD8052179
Probable space group: C 2
;
_chemical_formula_sum "Si O2"
_cell_formula_units_Z 14
_cell_length_a 8.762061
_cell_length_b 4.586251
_cell_length_c 12.462610
_cell_angle_alpha 90.000000
_cell_angle_beta 105.321108
_cell_angle_gamma 90.000000
_cell_volume 483.011399
_symmetry_space_group_name_H-M "C 2"
_symmetry_group_IT_number 5
_symmetry_cell_setting 'monoclinic'
loop_
_space_group_symop_operation_xyz
x,y,z
-x,y,-z
1/2+x,1/2+y,z
1/2-x,1/2+y,-z
loop_
_atom_site_type_symbol
_atom_site_label
_atom_site_fract_x
_atom_site_fract_y
_atom_site_fract_z
Si Si1 0.000000 0.918090 0.500000
Si Si2 0.709692 0.239323 0.357196
Si Si3 0.092493 0.242139 0.208226
Si Si4 0.260168 0.861811 0.073417
O O1 0.098658 0.695751 0.441723
O O2 0.113151 0.136911 0.587276
O O3 0.683246 0.580629 0.324187
O O4 0.648393 0.075484 0.236937
O O5 0.136824 0.079221 0.107312
O O6 0.901862 0.255556 0.178150
O O7 0.325938 0.073048 0.989080
#
# Coordination Sequence:
#
# PCOD8052179 Si02
#       4
#     2   4   4   4
#     4  12  28  50  80 114 156 204 256 316 380 456
#     4  12  27  48  77 113 154 201 255 314 381 452
#     4  12  26  48  76 111 152 199 252 314 378 452
#     4  12  26  47  78 113 154 201 254 313 380 454
#
# _framework density 28.984825000000001
#
# number of rings (size 3 to 8) (size 9 to 14) (size 15 to 20)
#    0.000    0.000    0.000    9.429    0.000   10.286 
#    0.000    0.000    0.000    0.000    0.000    0.000 
#    0.000    0.000    0.000    0.000    0.000    0.000 
#
# Total GULP energy -86787.044181 kJ/mol
# GULP energy per Si atom -12398.149169 kJ/mol
# Density = 2.891885 g / cm^3
# Si number density = 28.984825 Si / 1000 Ang^3
#
#
#
# Elastic Constant Matrix: (Units=GPa)
#
#
# Indices 1 2 3 4 5 6 
#
# 1 94.7185 22.8282 11.0895 0.0000 15.2958 0.0000
# 2 22.8282 128.1384 22.6836 0.0000 8.2994 0.0000
# 3 11.0895 22.6836 80.5174 0.0000 33.2708 0.0000
# 4 0.0000 0.0000 0.0000 47.8403 0.0000 -13.3116
# 5 15.2958 8.2994 33.2708 0.0000 26.9958 0.0000
# 6 0.0000 0.0000 0.0000 -13.3116 0.0000 41.3063
#
#
#
# Elastic Compliance Matrix: (Units=1/GPa)
#
#
# Indices 1 2 3 4 5 6 
#
# 1 0.012338 -0.002086 0.003081 0.000000 -0.010147 0.000000
# 2 -0.002086 0.008572 -0.003112 0.000000 0.002382 0.000000
# 3 0.003081 -0.003112 0.026894 0.000000 -0.033935 0.000000
# 4 0.000000 0.000000 0.000000 0.022962 0.000000 0.007400
# 5 -0.010147 0.002382 -0.033935 0.000000 0.083883 0.000000
# 6 0.000000 0.000000 0.000000 0.007400 0.000000 0.026594
#
#
# Mechanical properties :
#
#
# Convention : Reuss Voigt Hill
#
# Bulk Modulus (GPa) = 22.95104 46.28633 34.61868
# Shear Modulus (GPa) = 24.99984 39.68003 32.33993
#
# Velocity S-wave (km/s) = 2.94005 3.70400 3.34391
# Velocity P-wave (km/s) = 4.41142 5.85634 5.18446
#
# Compressibility (1/GPa) = 0.04357100
#
# Stress axis : x y z
#
# Youngs Moduli (GPa) = 81.04849 116.65387 37.18253
#
# Poissons Ratio (x) = 0.24338 -0.11457
# Poissons Ratio (y) = 0.16910 0.11571
# Poissons Ratio (z) = -0.24974 0.36302
#
# Static dielectric constant tensor:
#      x y z
#    x 4.852590 0.000000 -0.258010 
#    y 0.000000 5.303580 0.000000 
#    z -0.258010 0.000000 5.431600 
# 
# 
# High freq. dielectric constant tensor:
#      x y z
#    x 2.159870 0.000000 -0.004860 
#    y 0.000000 2.198670 0.000000 
#    z -0.004860 0.000000 2.196560 
# 
# From -- ./inp_files/34498.got.cif
#   From: 2010.03.12/outbox.cif.g09.slc.cpg/sg5_18_cif.got.tgz:34498.got - 2010.03.31 09:47:26.
