data_PCOD8052707
_publ_section_title
;
Structure prediction by ZEFSAII (Michael W. Deem and Ramdas Pophale) SiO2 
 PCOD8052707
Probable space group: C M
;
_chemical_formula_sum "Si O2"
_cell_formula_units_Z 32
_cell_length_a 19.431392
_cell_length_b 9.023759
_cell_length_c 11.517825
_cell_angle_alpha 90.000000
_cell_angle_beta 71.960396
_cell_angle_gamma 90.000000
_cell_volume 1920.306487
_symmetry_space_group_name_H-M "C M"
_symmetry_group_IT_number 8
_symmetry_cell_setting 'monoclinic'
loop_
_space_group_symop_operation_xyz
x,y,z
x,-y,z
1/2+x,1/2+y,z
1/2+x,1/2-y,z
loop_
_atom_site_type_symbol
_atom_site_label
_atom_site_fract_x
_atom_site_fract_y
_atom_site_fract_z
Si Si1 0.288040 0.665048 0.809730
Si Si2 0.235752 0.670149 0.482599
Si Si3 0.604888 0.669875 0.663541
Si Si4 0.166334 0.670900 0.279681
Si Si5 0.698294 0.675110 0.026907
Si Si6 0.372665 0.674701 0.549540
Si Si7 0.128253 0.336302 0.869320
Si Si8 0.533500 0.327458 0.463558
O O1 0.312027 0.500000 0.839103
O O2 0.344572 0.737244 0.688976
O O3 0.211429 0.651685 0.780764
O O4 0.274588 0.770258 0.929114
O O5 0.218629 0.500000 0.526337
O O6 0.182154 0.778918 0.576450
O O7 0.225620 0.690866 0.350023
O O8 0.317847 0.715777 0.473813
O O9 0.611520 0.500000 0.696245
O O10 0.581720 0.758568 0.791926
O O11 0.545249 0.695683 0.595217
O O12 0.157948 0.500000 0.247292
O O13 0.195504 0.766098 0.158260
O O14 0.088164 0.729663 0.360400
O O15 0.694087 0.500000 0.028375
O O16 0.630075 0.741301 0.988480
O O17 0.376467 0.500000 0.564486
O O18 0.452843 0.733081 0.477845
O O19 0.095961 0.500000 0.910860
O O20 0.544042 0.500000 0.424519
#
# Coordination Sequence:
#
# PCOD8052707 Si02
#       8
#     4   4   4   4   4   4   4   4
#     4   8  15  27  47  71  92 117 150 190 230 270
#     4   9  16  28  48  67  87 121 161 195 226 267
#     4  10  17  26  42  69  98 121 150 190 235 274
#     4  10  19  31  47  69  95 124 159 194 229 275
#     4  10  18  29  47  70  94 119 152 197 239 273
#     4   9  15  29  50  71  94 122 155 190 229 273
#     4   9  16  27  45  68  91 116 149 189 228 269
#     4   9  19  31  46  69  99 128 154 189 230 273
#
# _framework density 16.664007000000002
#
# number of rings (size 3 to 8) (size 9 to 14) (size 15 to 20)
#    0.750    2.000    1.250    1.875    0.000    1.000 
#    0.000    1.250    0.000    1.500    0.000    5.250 
#    0.000    0.000    0.000    0.000    0.000    0.000 
#
# Total GULP energy -198244.193782 kJ/mol
# GULP energy per Si atom -12390.262111 kJ/mol
# Density = 1.662608 g / cm^3
# Si number density = 16.664007 Si / 1000 Ang^3
#
#
#
# Elastic Constant Matrix: (Units=GPa)
#
#
# Indices 1 2 3 4 5 6 
#
# 1 86.7985 26.3733 34.0425 0.0000 5.3011 0.0000
# 2 26.3733 105.3745 50.8108 0.0000 5.4039 0.0000
# 3 34.0425 50.8108 99.8293 0.0000 3.6896 0.0000
# 4 0.0000 0.0000 0.0000 30.1390 0.0000 1.8483
# 5 5.3011 5.4039 3.6896 0.0000 16.7164 0.0000
# 6 0.0000 0.0000 0.0000 1.8483 0.0000 14.8103
#
#
#
# Elastic Compliance Matrix: (Units=1/GPa)
#
#
# Indices 1 2 3 4 5 6 
#
# 1 0.013633 -0.001417 -0.003816 0.000000 -0.003023 0.000000
# 2 -0.001417 0.012844 -0.005966 0.000000 -0.002386 0.000000
# 3 -0.003816 -0.005966 0.014356 0.000000 -0.000030 0.000000
# 4 0.000000 0.000000 0.000000 0.033436 0.000000 -0.004173
# 5 -0.003023 -0.002386 -0.000030 0.000000 0.061558 0.000000
# 6 0.000000 0.000000 0.000000 -0.004173 0.000000 0.068041
#
#
# Mechanical properties :
#
#
# Convention : Reuss Voigt Hill
#
# Bulk Modulus (GPa) = 54.24482 57.16172 55.70327
# Shear Modulus (GPa) = 21.51377 24.38484 22.94931
#
# Velocity S-wave (km/s) = 3.59699 3.82949 3.71506
# Velocity P-wave (km/s) = 7.06214 7.34373 7.20431
#
# Compressibility (1/GPa) = 0.01843494
#
# Stress axis : x y z
#
# Youngs Moduli (GPa) = 73.35299 77.85994 69.65793
#
# Poissons Ratio (x) = 0.11033 0.26581
# Poissons Ratio (y) = 0.10394 0.41556
# Poissons Ratio (z) = 0.27991 0.46449
#
# Static dielectric constant tensor:
#      x y z
#    x 2.989350 0.000000 0.141360 
#    y 0.000000 3.083330 0.000000 
#    z 0.141360 0.000000 3.027960 
# 
# 
# High freq. dielectric constant tensor:
#      x y z
#    x 1.601550 0.000000 0.014180 
#    y 0.000000 1.638710 0.000000 
#    z 0.014180 0.000000 1.634010 
# 
# From -- ./inp_files/22746.got.cif
#   From: 2010.03.12/outbox.cif.g09.slc.cpg/sg8_12_cif.got.tgz:22746.got - 2010.03.31 10:45:26.
