data_PCOD8052639
_publ_section_title
;
Structure prediction by ZEFSAII (Michael W. Deem and Ramdas Pophale) SiO2 
 PCOD8052639
Probable space group: P C
;
_chemical_formula_sum "Si O2"
_cell_formula_units_Z 10
_cell_length_a 7.104809
_cell_length_b 12.785454
_cell_length_c 5.241602
_cell_angle_alpha 90.000000
_cell_angle_beta 119.635987
_cell_angle_gamma 90.000000
_cell_volume 413.851548
_symmetry_space_group_name_H-M "P C"
_symmetry_group_IT_number 7
_symmetry_cell_setting 'monoclinic'
loop_
_space_group_symop_operation_xyz
x,y,z
x,-y,1/2+z
loop_
_atom_site_type_symbol
_atom_site_label
_atom_site_fract_x
_atom_site_fract_y
_atom_site_fract_z
Si Si1 0.902350 0.771602 0.626200
Si Si2 0.175300 0.234698 0.810057
Si Si3 0.260240 0.462568 0.994875
Si Si4 0.536141 0.932597 0.434833
Si Si5 0.735492 0.449882 0.905154
O O1 0.761328 0.871838 0.605975
O O2 0.750722 0.674148 0.450352
O O3 0.045970 0.801418 0.475893
O O4 0.030554 0.741539 0.966731
O O5 0.338408 0.144834 0.842906
O O6 0.301016 0.341696 0.959903
O O7 0.133959 0.472668 0.183785
O O8 0.480992 0.520610 0.233074
O O9 0.522328 0.020319 0.642446
O O10 0.843968 0.483723 0.710119
#
# Coordination Sequence:
#
# PCOD8052639 Si02
#       5
#     2   2   2   2   2
#     4  12  27  46  72 106 142 184 236 289 348 419
#     4  12  27  46  72 106 142 184 236 289 348 419
#     4  10  21  39  65  97 141 183 222 272 330 404
#     4  12  28  50  76 102 136 182 234 302 366 414
#     4  10  21  39  65  97 141 183 222 272 330 404
#
# _framework density 24.163250999999999
#
# number of rings (size 3 to 8) (size 9 to 14) (size 15 to 20)
#    0.000    0.800    0.000    7.200    0.000   16.000 
#    0.000    0.000    0.000    0.000    0.000    0.000 
#    0.000    0.000    0.000    0.000    0.000    0.000 
#
# Total GULP energy -124033.790443 kJ/mol
# GULP energy per Si atom -12403.379044 kJ/mol
# Density = 2.410825 g / cm^3
# Si number density = 24.163251 Si / 1000 Ang^3
#
#
#
# Elastic Constant Matrix: (Units=GPa)
#
#
# Indices 1 2 3 4 5 6 
#
# 1 128.6514 49.2419 52.6199 0.0000 -25.9400 0.0000
# 2 49.2419 133.7523 34.0273 0.0000 -0.7061 0.0000
# 3 52.6199 34.0273 158.2570 0.0000 -30.5453 0.0000
# 4 0.0000 0.0000 0.0000 32.6245 0.0000 -18.8348
# 5 -25.9400 -0.7061 -30.5453 0.0000 45.6948 0.0000
# 6 0.0000 0.0000 0.0000 -18.8348 0.0000 37.8382
#
#
#
# Elastic Compliance Matrix: (Units=1/GPa)
#
#
# Indices 1 2 3 4 5 6 
#
# 1 0.010870 -0.003485 -0.001934 0.000000 0.004824 0.000000
# 2 -0.003485 0.009080 -0.001319 0.000000 -0.002719 0.000000
# 3 -0.001934 -0.001319 0.008071 0.000000 0.004277 0.000000
# 4 0.000000 0.000000 0.000000 0.043012 0.000000 0.021410
# 5 0.004824 -0.002719 0.004277 0.000000 0.027440 0.000000
# 6 0.000000 0.000000 0.000000 0.021410 0.000000 0.037086
#
#
# Mechanical properties :
#
#
# Convention : Reuss Voigt Hill
#
# Bulk Modulus (GPa) = 68.74110 76.93765 72.83938
# Shear Modulus (GPa) = 32.49212 42.21627 37.35420
#
# Velocity S-wave (km/s) = 3.67098 4.18440 3.93607
# Velocity P-wave (km/s) = 6.81752 7.43340 7.13211
#
# Compressibility (1/GPa) = 0.01454734
#
# Stress axis : x y z
#
# Youngs Moduli (GPa) = 91.99283 110.12622 123.90200
#
# Poissons Ratio (x) = 0.38374 0.23963
# Poissons Ratio (y) = 0.32055 0.16339
# Poissons Ratio (z) = 0.17792 0.14522
#
# Static dielectric constant tensor:
#      x y z
#    x 5.214240 0.000000 -0.616250 
#    y 0.000000 4.202330 0.000000 
#    z -0.616250 0.000000 4.874690 
# 
# 
# High freq. dielectric constant tensor:
#      x y z
#    x 2.005170 0.000000 -0.013230 
#    y 0.000000 1.951710 0.000000 
#    z -0.013230 0.000000 1.991640 
# 
# From -- ./inp_files/571.got.cif
#   From: 2010.03.12/outbox.cif.g09.slc.cpg/sg7_cif.got.tgz:571.got - 2010.03.30 08:40:41.
