data_PCOD8052892
_publ_section_title
;
Structure prediction by ZEFSAII (Michael W. Deem and Ramdas Pophale) SiO2 
 PCOD8052892
Probable space group: C M
;
_chemical_formula_sum "Si O2"
_cell_formula_units_Z 32
_cell_length_a 23.896158
_cell_length_b 8.626786
_cell_length_c 25.168286
_cell_angle_alpha 90.000000
_cell_angle_beta 162.091686
_cell_angle_gamma 90.000000
_cell_volume 1595.395553
_symmetry_space_group_name_H-M "C M"
_symmetry_group_IT_number 8
_symmetry_cell_setting 'monoclinic'
loop_
_space_group_symop_operation_xyz
x,y,z
x,-y,z
1/2+x,1/2+y,z
1/2+x,1/2-y,z
loop_
_atom_site_type_symbol
_atom_site_label
_atom_site_fract_x
_atom_site_fract_y
_atom_site_fract_z
Si Si1 0.900450 0.819986 0.708830
Si Si2 0.529930 0.175535 0.325830
Si Si3 0.910632 0.815439 0.019510
Si Si4 0.271078 0.178256 0.186679
Si Si5 0.296761 0.815741 0.329999
Si Si6 0.776824 0.818920 0.012849
Si Si7 0.904861 0.320846 0.823857
Si Si8 0.176447 0.317102 0.710889
O O1 0.745356 0.787857 0.524281
O O2 0.846845 0.721482 0.711933
O O3 0.905168 0.000000 0.729189
O O4 0.095121 0.773817 0.861723
O O5 0.450529 0.197582 0.313323
O O6 0.435310 0.290094 0.198824
O O7 0.495725 0.000000 0.275290
O O8 0.847429 0.757795 0.019894
O O9 0.112584 0.749244 0.189937
O O10 0.915464 0.000000 0.021212
O O11 0.772014 0.747840 0.849914
O O12 0.312460 0.239549 0.283172
O O13 0.203749 0.000000 0.127293
O O14 0.117416 0.283614 0.021438
O O15 0.471457 0.749738 0.519871
O O16 0.297311 0.000000 0.332515
O O17 0.730415 0.000000 0.969705
O O18 0.867246 0.500000 0.800637
O O19 0.791716 0.221213 0.763175
O O20 0.167948 0.500000 0.708421
#
# Coordination Sequence:
#
# PCOD8052892 Si02
#       8
#     4   4   4   4   4   4   4   4
#     4  11  23  41  63  86 115 158 205 240 285 355
#     4  10  22  39  62  88 113 153 202 245 289 348
#     4   9  19  35  57  86 116 150 195 240 285 339
#     4  10  18  34  60  85 112 146 189 240 290 351
#     4   9  17  32  59  89 109 142 194 238 277 333
#     4  11  23  38  59  90 123 154 193 249 306 343
#     4  12  23  35  56  89 122 152 185 237 306 351
#     4  10  19  36  62  85 112 153 195 235 280 344
#
# _framework density 20.057721999999998
#
# number of rings (size 3 to 8) (size 9 to 14) (size 15 to 20)
#    0.000    1.750    2.500    2.625    0.000    4.000 
#    0.000    5.625    0.000    0.000    0.000    0.000 
#    0.000    0.000    0.000    0.000    0.000    0.000 
#
# Total GULP energy -198424.762543 kJ/mol
# GULP energy per Si atom -12401.547659 kJ/mol
# Density = 2.001207 g / cm^3
# Si number density = 20.057722 Si / 1000 Ang^3
#
#
#
# Elastic Constant Matrix: (Units=GPa)
#
#
# Indices 1 2 3 4 5 6 
#
# 1 122.9021 4.5134 53.1673 -0.0133 -10.8903 -0.0080
# 2 4.5134 24.3853 20.2337 0.0287 -0.4111 0.0132
# 3 53.1673 20.2337 153.1407 0.0670 -1.8523 0.0337
# 4 -0.0133 0.0287 0.0670 15.2637 0.0197 -0.7553
# 5 -10.8903 -0.4111 -1.8523 0.0197 13.8426 0.0047
# 6 -0.0080 0.0132 0.0337 -0.7553 0.0047 21.0825
#
#
#
# Elastic Compliance Matrix: (Units=1/GPa)
#
#
# Indices 1 2 3 4 5 6 
#
# 1 0.010360 0.001257 -0.003670 0.000013 0.007697 0.000008
# 2 0.001257 0.046214 -0.006525 -0.000060 0.001488 -0.000021
# 3 -0.003670 -0.006525 0.008643 -0.000027 -0.001924 -0.000012
# 4 0.000013 -0.000060 -0.000027 0.065632 -0.000089 0.002351
# 5 0.007697 0.001488 -0.001924 -0.000089 0.078083 -0.000015
# 6 0.000008 -0.000021 -0.000012 0.002351 -0.000015 0.047517
#
#
# Mechanical properties :
#
#
# Convention : Reuss Voigt Hill
#
# Bulk Modulus (GPa) = 21.12245 50.69522 35.90883
# Shear Modulus (GPa) = 17.23519 24.87199 21.05359
#
# Velocity S-wave (km/s) = 2.93453 3.52521 3.24335
# Velocity P-wave (km/s) = 4.69421 6.47295 5.65397
#
# Compressibility (1/GPa) = 0.04734300
#
# Stress axis : x y z
#
# Youngs Moduli (GPa) = 96.52576 21.63825 115.70314
#
# Poissons Ratio (x) = -0.02720 0.42460
# Poissons Ratio (y) = -0.12135 0.75491
# Poissons Ratio (z) = 0.35423 0.14118
#
# Static dielectric constant tensor:
#      x y z
#    x 3.667970 -0.000040 -0.004670 
#    y -0.000040 3.289360 -0.000080 
#    z -0.004670 -0.000080 3.951080 
# 
# 
# High freq. dielectric constant tensor:
#      x y z
#    x 1.779220 0.000000 0.001280 
#    y 0.000000 1.747820 0.000000 
#    z 0.001280 0.000000 1.798060 
# 
# From -- ./inp_files/32345.got.cif
#   From: 2010.03.12/outbox.cif.g09.slc.cpg/sg8_17_cif.got.tgz:32345.got - 2010.03.31 10:45:26.
