data_PCOD8052410
_publ_section_title
;
Structure prediction by ZEFSAII (Michael W. Deem and Ramdas Pophale) SiO2 
 PCOD8052410
Probable space group: P M
;
_chemical_formula_sum "Si O2"
_cell_formula_units_Z 16
_cell_length_a 15.714455
_cell_length_b 8.985109
_cell_length_c 14.045696
_cell_angle_alpha 90.000000
_cell_angle_beta 26.587257
_cell_angle_gamma 90.000000
_cell_volume 887.600233
_symmetry_space_group_name_H-M "P M"
_symmetry_group_IT_number 6
_symmetry_cell_setting 'monoclinic'
loop_
_space_group_symop_operation_xyz
x,y,z
x,-y,z
loop_
_atom_site_type_symbol
_atom_site_label
_atom_site_fract_x
_atom_site_fract_y
_atom_site_fract_z
Si Si1 0.329080 0.329553 0.637950
Si Si2 0.328845 0.824580 0.936711
Si Si3 0.349580 0.173387 0.133244
Si Si4 0.348301 0.173259 0.421497
Si Si5 0.045882 0.673650 0.085118
Si Si6 0.021371 0.170958 0.604501
Si Si7 0.621356 0.676056 0.005371
Si Si8 0.614267 0.327869 0.516273
O O1 0.318552 0.500000 0.613098
O O2 0.329750 0.219669 0.548961
O O3 0.518437 0.300835 0.509911
O O4 0.147953 0.287862 0.883762
O O5 0.516660 0.766749 0.696502
O O6 0.321008 0.000000 0.936063
O O7 0.335611 0.772390 0.038997
O O8 0.139048 0.759629 0.079674
O O9 0.147142 0.204966 0.385218
O O10 0.402191 0.000000 0.089400
O O11 0.518677 0.263623 0.013777
O O12 0.149088 0.207870 0.569058
O O13 0.397986 0.000000 0.364063
O O14 0.520988 0.261515 0.200348
O O15 0.067382 0.500000 0.085738
O O16 0.829892 0.725742 0.291865
O O17 0.840966 0.277586 0.784934
O O18 0.952974 0.000000 0.673959
O O19 0.608020 0.500000 0.020274
O O20 0.596410 0.500000 0.563213
#
# Coordination Sequence:
#
# PCOD8052410 Si02
#       8
#     2   2   2   2   2   2   2   2
#     4   9  18  33  53  78 107 138 174 216 260 307
#     4  10  20  34  54  80 107 137 175 217 260 307
#     4   9  20  38  56  75 105 142 175 212 260 311
#     4  10  21  37  56  78 106 139 173 212 260 312
#     4   9  19  36  55  75 105 142 176 214 260 309
#     4   9  19  37  56  74 103 140 173 210 260 313
#     4  11  22  35  55  81 106 134 172 217 260 308
#     4   9  19  36  55  77 107 142 176 212 260 311
#
# _framework density 18.026133000000002
#
# number of rings (size 3 to 8) (size 9 to 14) (size 15 to 20)
#    0.000    2.500    0.000    3.375    0.000    8.000 
#    0.000    5.000    0.000    0.000    0.000    0.000 
#    0.000    0.000    0.000    0.000    0.000    0.000 
#
# Total GULP energy -198443.342272 kJ/mol
# GULP energy per Si atom -12402.708892 kJ/mol
# Density = 1.798510 g / cm^3
# Si number density = 18.026133 Si / 1000 Ang^3
#
#
#
# Elastic Constant Matrix: (Units=GPa)
#
#
# Indices 1 2 3 4 5 6 
#
# 1 127.9212 57.2183 82.3766 0.0000 10.4558 0.0000
# 2 57.2183 83.8503 48.8858 0.0000 -1.1451 0.0000
# 3 82.3766 48.8858 117.8487 0.0000 -16.4019 0.0000
# 4 0.0000 0.0000 0.0000 29.5809 0.0000 0.5257
# 5 10.4558 -1.1451 -16.4019 0.0000 31.7830 0.0000
# 6 0.0000 0.0000 0.0000 0.5257 0.0000 31.1492
#
#
#
# Elastic Compliance Matrix: (Units=1/GPa)
#
#
# Indices 1 2 3 4 5 6 
#
# 1 0.020674 -0.006234 -0.013837 0.000000 -0.014167 0.000000
# 2 -0.006234 0.017883 -0.002893 0.000000 0.001202 0.000000
# 3 -0.013837 -0.002893 0.021523 0.000000 0.015555 0.000000
# 4 0.000000 0.000000 0.000000 0.033816 0.000000 -0.000571
# 5 -0.014167 0.001202 0.015555 0.000000 0.044194 0.000000
# 6 0.000000 0.000000 0.000000 -0.000571 0.000000 0.032113
#
#
# Mechanical properties :
#
#
# Convention : Reuss Voigt Hill
#
# Bulk Modulus (GPa) = 70.66509 78.50906 74.58708
# Shear Modulus (GPa) = 22.63983 27.91192 25.27587
#
# Velocity S-wave (km/s) = 3.54778 3.93926 3.74863
# Velocity P-wave (km/s) = 7.48791 8.02108 7.75908
#
# Compressibility (1/GPa) = 0.01415126
#
# Stress axis : x y z
#
# Youngs Moduli (GPa) = 48.36930 55.91777 46.46262
#
# Poissons Ratio (x) = 0.34860 0.64290
# Poissons Ratio (y) = 0.30154 0.13443
# Poissons Ratio (z) = 0.66929 0.16179
#
# Static dielectric constant tensor:
#      x y z
#    x 3.387730 0.000000 -0.053450 
#    y 0.000000 3.259150 0.000000 
#    z -0.053450 0.000000 3.459770 
# 
# 
# High freq. dielectric constant tensor:
#      x y z
#    x 1.699930 0.000000 -0.000900 
#    y 0.000000 1.697530 0.000000 
#    z -0.000900 0.000000 1.701110 
# 
# From -- ./inp_files/5626.got.cif
#   From: 2010.03.12/outbox.cif.g09.slc.cpg/sg6_3_cif.got.tgz:5626.got - 2010.03.30 10:24:59.
