data_PCOD8052952
_publ_section_title
;
Structure prediction by ZEFSAII (Michael W. Deem and Ramdas Pophale) SiO2 
 PCOD8052952
Probable space group: C M
;
_chemical_formula_sum "Si O2"
_cell_formula_units_Z 32
_cell_length_a 22.657810
_cell_length_b 8.904906
_cell_length_c 11.329393
_cell_angle_alpha 90.000000
_cell_angle_beta 131.489776
_cell_angle_gamma 90.000000
_cell_volume 1712.295067
_symmetry_space_group_name_H-M "C M"
_symmetry_group_IT_number 8
_symmetry_cell_setting 'monoclinic'
loop_
_space_group_symop_operation_xyz
x,y,z
x,-y,z
1/2+x,1/2+y,z
1/2+x,1/2-y,z
loop_
_atom_site_type_symbol
_atom_site_label
_atom_site_fract_x
_atom_site_fract_y
_atom_site_fract_z
Si Si1 0.427220 0.324354 0.597310
Si Si2 0.653871 0.177895 0.771940
Si Si3 0.805666 0.178243 0.831654
Si Si4 0.775383 0.821169 0.527302
Si Si5 0.466947 0.678339 0.151975
Si Si6 0.591356 0.677730 0.913008
Si Si7 0.504356 0.323484 0.462354
Si Si8 0.120478 0.822395 0.218096
O O1 0.422303 0.500000 0.613104
O O2 0.346035 0.255136 0.539130
O O3 0.502604 0.263390 0.770081
O O4 0.438044 0.285984 0.473085
O O5 0.735668 0.232904 0.823707
O O6 0.650435 0.244952 0.898983
O O7 0.584411 0.237358 0.596867
O O8 0.648370 0.000000 0.771610
O O9 0.790974 0.237415 0.680160
O O10 0.810286 0.000000 0.836245
O O11 0.887749 0.245942 0.989277
O O12 0.694166 0.754827 0.375428
O O13 0.769856 0.000000 0.514463
O O14 0.464009 0.500000 0.142736
O O15 0.472147 0.733015 0.294255
O O16 0.542119 0.737470 0.179089
O O17 0.595886 0.500000 0.900193
O O18 0.616481 0.726685 0.076586
O O19 0.523798 0.500000 0.487983
O O20 0.128355 0.000000 0.241625
#
# Coordination Sequence:
#
# PCOD8052952 Si02
#       8
#     4   4   4   4   4   4   4   4
#     4   8  15  29  50  72  92 124 166 197 227 277
#     4  10  19  31  50  75 101 127 158 199 245 290
#     4   9  18  31  49  74  99 126 164 205 239 278
#     4  10  19  32  51  73 100 130 159 198 245 288
#     4   9  17  31  52  74  96 127 167 204 235 277
#     4   9  18  34  53  71  95 128 166 202 236 282
#     4   9  17  31  52  75  99 128 162 198 236 284
#     4  10  20  33  51  74  98 126 162 203 243 286
#
# _framework density 18.688367
#
# number of rings (size 3 to 8) (size 9 to 14) (size 15 to 20)
#    0.000    2.750    0.000    2.625    0.000    4.500 
#    0.000    5.625    0.000    6.000    0.000    0.000 
#    0.000    0.000    0.000    0.000    0.000    0.000 
#
# Total GULP energy -198375.915421 kJ/mol
# GULP energy per Si atom -12398.494714 kJ/mol
# Density = 1.864583 g / cm^3
# Si number density = 18.688367 Si / 1000 Ang^3
#
#
#
# Elastic Constant Matrix: (Units=GPa)
#
#
# Indices 1 2 3 4 5 6 
#
# 1 194.2287 32.2082 111.1136 0.0000 2.5235 0.0000
# 2 32.2082 24.1751 28.0749 0.0000 -2.1100 0.0000
# 3 111.1136 28.0749 171.3910 0.0000 -10.6849 0.0000
# 4 0.0000 0.0000 0.0000 25.4781 0.0000 2.1929
# 5 2.5235 -2.1100 -10.6849 0.0000 36.0926 0.0000
# 6 0.0000 0.0000 0.0000 2.1929 0.0000 22.5281
#
#
#
# Elastic Compliance Matrix: (Units=1/GPa)
#
#
# Indices 1 2 3 4 5 6 
#
# 1 0.009132 -0.006580 -0.004998 0.000000 -0.002503 0.000000
# 2 -0.006580 0.055833 -0.004735 0.000000 0.002322 0.000000
# 3 -0.004998 -0.004735 0.010041 0.000000 0.003045 0.000000
# 4 0.000000 0.000000 0.000000 0.039581 0.000000 -0.003853
# 5 -0.002503 0.002322 0.003045 0.000000 0.028919 0.000000
# 6 0.000000 0.000000 0.000000 -0.003853 0.000000 0.044764
#
#
# Mechanical properties :
#
#
# Convention : Reuss Voigt Hill
#
# Bulk Modulus (GPa) = 23.59702 81.39871 52.49786
# Shear Modulus (GPa) = 21.27466 31.37964 26.32715
#
# Velocity S-wave (km/s) = 3.37767 4.10213 3.75740
# Velocity P-wave (km/s) = 5.27878 8.12939 6.85392
#
# Compressibility (1/GPa) = 0.04237824
#
# Stress axis : x y z
#
# Youngs Moduli (GPa) = 109.51014 17.91062 99.59648
#
# Poissons Ratio (x) = 0.11785 0.49781
# Poissons Ratio (y) = 0.72055 0.47162
# Poissons Ratio (z) = 0.54736 0.08481
#
# Static dielectric constant tensor:
#      x y z
#    x 3.768500 0.000000 -0.042720 
#    y 0.000000 2.990050 0.000000 
#    z -0.042720 0.000000 3.554610 
# 
# 
# High freq. dielectric constant tensor:
#      x y z
#    x 1.742850 0.000000 -0.005620 
#    y 0.000000 1.678910 0.000000 
#    z -0.005620 0.000000 1.730600 
# 
# From -- ./inp_files/23752.got.cif
#   From: 2010.03.12/outbox.cif.g09.slc.cpg/sg8_12_cif.got.tgz:23752.got - 2010.03.31 10:45:26.
