data_PCOD8052000
_publ_section_title
;
Structure prediction by ZEFSAII (Michael W. Deem and Ramdas Pophale) SiO2 
 PCOD8052000
Probable space group: C 2
;
_chemical_formula_sum "Si O2"
_cell_formula_units_Z 28
_cell_length_a 5.739392
_cell_length_b 14.600240
_cell_length_c 16.121471
_cell_angle_alpha 90.000000
_cell_angle_beta 120.012832
_cell_angle_gamma 90.000000
_cell_volume 1169.782205
_symmetry_space_group_name_H-M "C 2"
_symmetry_group_IT_number 5
_symmetry_cell_setting 'monoclinic'
loop_
_space_group_symop_operation_xyz
x,y,z
-x,y,-z
1/2+x,1/2+y,z
1/2-x,1/2+y,-z
loop_
_atom_site_type_symbol
_atom_site_label
_atom_site_fract_x
_atom_site_fract_y
_atom_site_fract_z
Si Si1 0.323365 0.167880 0.554035
Si Si2 0.115902 0.224852 0.877516
Si Si3 0.500000 0.600538 0.000000
Si Si4 0.425465 0.998826 0.683551
Si Si5 0.005599 0.932921 0.181047
Si Si6 0.672700 0.318148 0.706028
Si Si7 0.563401 0.073477 0.137622
Si Si8 0.500000 0.362645 0.000000
O O1 0.500000 0.168898 0.500000
O O2 0.348971 0.064412 0.593594
O O3 0.448623 0.251839 0.628208
O O4 0.000000 0.188529 0.500000
O O5 0.374426 0.176741 0.880380
O O6 0.946735 0.261492 0.768641
O O7 0.946509 0.158010 0.906387
O O8 0.228943 0.302798 0.958913
O O9 0.776155 0.541906 0.046443
O O10 0.418845 0.065472 0.760930
O O11 0.227021 0.910090 0.659938
O O12 0.726722 0.964218 0.723452
O O13 0.907335 0.844833 0.214196
O O14 0.056670 0.918881 0.093348
O O15 0.789580 0.011683 0.138495
#
# Coordination Sequence:
#
# PCOD8052000 Si02
#       8
#     4   4   2   4   4   4   4   2
#     4  12  32  56  91 126 159 207 277 354 431 526
#     4  12  24  44  70 101 153 205 269 318 388 476
#     4  12  22  39  64 105 144 208 272 326 377 464
#     4  11  27  51  78 114 157 208 260 335 423 498
#     4  11  26  48  72 108 160 207 268 326 390 487
#     4  11  27  51  81 111 159 218 255 340 431 488
#     4  11  25  43  70 100 148 211 257 331 391 483
#     4  12  24  43  68 113 152 212 274 312 371 462
#
# _framework density 23.936081999999999
#
# number of rings (size 3 to 8) (size 9 to 14) (size 15 to 20)
#    0.000    0.571    2.857    3.429   10.000    4.000 
#    2.571    0.000    0.000    0.000    0.000    0.000 
#    0.000    0.000    0.000    0.000    0.000    0.000 
#
# Total GULP energy -173481.505263 kJ/mol
# GULP energy per Si atom -12391.536090 kJ/mol
# Density = 2.388160 g / cm^3
# Si number density = 23.936082 Si / 1000 Ang^3
#
#
#
# Elastic Constant Matrix: (Units=GPa)
#
#
# Indices 1 2 3 4 5 6 
#
# 1 130.2252 42.0028 47.6694 0.0000 17.6327 0.0000
# 2 42.0028 99.2848 50.1625 0.0000 12.4565 0.0000
# 3 47.6694 50.1625 109.7881 0.0000 19.9955 0.0000
# 4 0.0000 0.0000 0.0000 47.8216 0.0000 0.3072
# 5 17.6327 12.4565 19.9955 0.0000 51.8894 0.0000
# 6 0.0000 0.0000 0.0000 0.3072 0.0000 30.5582
#
#
#
# Elastic Compliance Matrix: (Units=1/GPa)
#
#
# Indices 1 2 3 4 5 6 
#
# 1 0.009726 -0.002505 -0.002781 0.000000 -0.001632 0.000000
# 2 -0.002505 0.013779 -0.005120 0.000000 -0.000484 0.000000
# 3 -0.002781 -0.005120 0.013185 0.000000 -0.002906 0.000000
# 4 0.000000 0.000000 0.000000 0.020912 0.000000 -0.000210
# 5 -0.001632 -0.000484 -0.002906 0.000000 0.021062 0.000000
# 6 0.000000 0.000000 0.000000 -0.000210 0.000000 0.032727
#
#
# Mechanical properties :
#
#
# Convention : Reuss Voigt Hill
#
# Bulk Modulus (GPa) = 62.98128 68.77416 65.87772
# Shear Modulus (GPa) = 36.36461 39.35140 37.85801
#
# Velocity S-wave (km/s) = 3.90197 4.05905 3.98128
# Velocity P-wave (km/s) = 6.83154 7.12479 6.97970
#
# Compressibility (1/GPa) = 0.01587773
#
# Stress axis : x y z
#
# Youngs Moduli (GPa) = 102.81799 72.57312 75.84441
#
# Poissons Ratio (x) = 0.18177 0.21095
# Poissons Ratio (y) = 0.25752 0.38834
# Poissons Ratio (z) = 0.28597 0.37159
#
# Static dielectric constant tensor:
#      x y z
#    x 4.642730 0.000000 0.056390 
#    y 0.000000 4.668150 0.000000 
#    z 0.056390 0.000000 4.163410 
# 
# 
# High freq. dielectric constant tensor:
#      x y z
#    x 1.967350 0.000000 0.005560 
#    y 0.000000 1.965620 0.000000 
#    z 0.005560 0.000000 1.933430 
# 
# From -- ./inp_files/58835.got.cif
#   From: 2010.03.12/outbox.cif.g09.slc.cpg/sg5_30_cif.got.tgz:58835.got - 2010.03.31 09:47:26.
