data_PCOD8052259
_publ_section_title
;
Structure prediction by ZEFSAII (Michael W. Deem and Ramdas Pophale) SiO2 
 PCOD8052259
Probable space group: P M
;
_chemical_formula_sum "Si O2"
_cell_formula_units_Z 16
_cell_length_a 10.501299
_cell_length_b 9.046707
_cell_length_c 12.257701
_cell_angle_alpha 90.000000
_cell_angle_beta 128.516308
_cell_angle_gamma 90.000000
_cell_volume 911.147290
_symmetry_space_group_name_H-M "P M"
_symmetry_group_IT_number 6
_symmetry_cell_setting 'monoclinic'
loop_
_space_group_symop_operation_xyz
x,y,z
x,-y,z
loop_
_atom_site_type_symbol
_atom_site_label
_atom_site_fract_x
_atom_site_fract_y
_atom_site_fract_z
Si Si1 0.286160 0.175097 0.633160
Si Si2 0.832418 0.170433 0.875520
Si Si3 0.068999 0.170472 0.185887
Si Si4 0.752125 0.825921 0.596222
Si Si5 0.575450 0.327077 0.885898
Si Si6 0.915617 0.824481 0.465106
Si Si7 0.817524 0.672807 0.201997
Si Si8 0.398851 0.826463 0.457238
O O1 0.400282 0.248335 0.786308
O O2 0.344034 0.234651 0.545933
O O3 0.101889 0.228217 0.554448
O O4 0.299461 0.000000 0.650757
O O5 0.853612 0.213285 0.759961
O O6 0.690311 0.267440 0.851156
O O7 0.777400 0.000000 0.857638
O O8 0.003899 0.198651 0.028497
O O9 0.259961 0.211575 0.293601
O O10 0.974653 0.270801 0.221116
O O11 0.042551 0.000000 0.207444
O O12 0.845400 0.760409 0.541562
O O13 0.570069 0.756667 0.509538
O O14 0.739540 0.000000 0.573282
O O15 0.553476 0.500000 0.856517
O O16 0.655062 0.291313 0.045937
O O17 0.805567 0.755182 0.310902
O O18 0.902308 0.000000 0.449771
O O19 0.838244 0.500000 0.233044
O O20 0.423093 0.000000 0.482776
#
# Coordination Sequence:
#
# PCOD8052259 Si02
#       8
#     2   2   2   2   2   2   2   2
#     4  10  18  31  51  75 101 129 165 208 247 288
#     4   9  16  29  50  74 100 131 162 198 248 295
#     4   9  16  28  50  76 100 127 163 203 244 292
#     4   9  17  30  49  73 101 130 160 199 246 293
#     4  10  20  32  49  75 102 129 166 210 248 289
#     4  10  20  34  52  74 102 133 166 203 245 297
#     4  10  20  33  49  72 103 133 165 206 250 292
#     4   9  15  27  48  75 101 124 157 201 244 284
#
# _framework density 17.560278
#
# number of rings (size 3 to 8) (size 9 to 14) (size 15 to 20)
#    0.000    2.500    2.500    0.750    0.000    2.000 
#    0.000    1.875    0.000    4.500    0.000    3.500 
#    0.000    0.000    0.000    0.000    0.000    0.000 
#
# Total GULP energy -198352.064102 kJ/mol
# GULP energy per Si atom -12397.004006 kJ/mol
# Density = 1.752031 g / cm^3
# Si number density = 17.560278 Si / 1000 Ang^3
#
#
#
# Elastic Constant Matrix: (Units=GPa)
#
#
# Indices 1 2 3 4 5 6 
#
# 1 117.8403 23.6829 77.0185 0.0000 -5.1899 0.0000
# 2 23.6829 34.1713 35.4566 0.0000 -0.7384 0.0000
# 3 77.0185 35.4566 154.4355 0.0000 -0.8807 0.0000
# 4 0.0000 0.0000 0.0000 21.8448 0.0000 0.8455
# 5 -5.1899 -0.7384 -0.8807 0.0000 29.6449 0.0000
# 6 0.0000 0.0000 0.0000 0.8455 0.0000 6.3436
#
#
#
# Elastic Compliance Matrix: (Units=1/GPa)
#
#
# Indices 1 2 3 4 5 6 
#
# 1 0.012932 -0.002939 -0.005763 0.000000 0.002020 0.000000
# 2 -0.002939 0.039098 -0.007509 0.000000 0.000236 0.000000
# 3 -0.005763 -0.007509 0.011068 0.000000 -0.000867 0.000000
# 4 0.000000 0.000000 0.000000 0.046015 0.000000 -0.006133
# 5 0.002020 0.000236 -0.000867 0.000000 0.034066 0.000000
# 6 0.000000 0.000000 0.000000 -0.006133 0.000000 0.158456
#
#
# Mechanical properties :
#
#
# Convention : Reuss Voigt Hill
#
# Bulk Modulus (GPa) = 32.59925 64.30700 48.45313
# Shear Modulus (GPa) = 14.52285 22.91929 18.72107
#
# Velocity S-wave (km/s) = 2.87893 3.61664 3.26867
# Velocity P-wave (km/s) = 5.44569 7.35801 6.47286
#
# Compressibility (1/GPa) = 0.03067555
#
# Stress axis : x y z
#
# Youngs Moduli (GPa) = 77.32476 25.57651 90.34707
#
# Poissons Ratio (x) = 0.07518 0.52069
# Poissons Ratio (y) = 0.22729 0.67844
# Poissons Ratio (z) = 0.44564 0.19206
#
# Static dielectric constant tensor:
#      x y z
#    x 3.221690 0.000000 0.066900 
#    y 0.000000 2.994720 0.000000 
#    z 0.066900 0.000000 3.574040 
# 
# 
# High freq. dielectric constant tensor:
#      x y z
#    x 1.649260 0.000000 0.008560 
#    y 0.000000 1.648340 0.000000 
#    z 0.008560 0.000000 1.697160 
# 
# From -- ./inp_files/3457.got.cif
#   From: 2010.03.12/outbox.cif.g09.slc.cpg/sg6_2_cif.got.tgz:3457.got - 2010.03.30 10:24:59.
