data_PCOD8052512
_publ_section_title
;
Structure prediction by ZEFSAII (Michael W. Deem and Ramdas Pophale) SiO2 
 PCOD8052512
Probable space group: P M
;
_chemical_formula_sum "Si O2"
_cell_formula_units_Z 16
_cell_length_a 10.159536
_cell_length_b 8.558039
_cell_length_c 8.763958
_cell_angle_alpha 90.000000
_cell_angle_beta 90.099394
_cell_angle_gamma 90.000000
_cell_volume 761.987363
_symmetry_space_group_name_H-M "P M"
_symmetry_group_IT_number 6
_symmetry_cell_setting 'monoclinic'
loop_
_space_group_symop_operation_xyz
x,y,z
x,-y,z
loop_
_atom_site_type_symbol
_atom_site_label
_atom_site_fract_x
_atom_site_fract_y
_atom_site_fract_z
Si Si1 0.339860 0.180580 0.691990
Si Si2 0.845004 0.681048 0.689381
Si Si3 0.604187 0.182570 0.518376
Si Si4 0.392784 0.680963 0.014511
Si Si5 0.078890 0.181711 0.512675
Si Si6 0.638305 0.183732 0.176989
Si Si7 0.898907 0.816831 0.012196
Si Si8 0.133390 0.317805 0.189681
O O1 0.455953 0.212956 0.572362
O O2 0.357906 0.284927 0.840228
O O3 0.204348 0.231715 0.612684
O O4 0.337098 0.000000 0.741267
O O5 0.849888 0.500000 0.735024
O O6 0.701158 0.721242 0.626383
O O7 0.873264 0.787788 0.834907
O O8 0.953361 0.717406 0.561252
O O9 0.615488 0.250528 0.346755
O O10 0.641793 0.000000 0.526228
O O11 0.422046 0.500000 0.033265
O O12 0.523038 0.771648 0.061752
O O13 0.273728 0.733563 0.122757
O O14 0.107265 0.213576 0.336715
O O15 0.045886 0.000000 0.533207
O O16 0.642892 0.000000 0.185314
O O17 0.775906 0.246375 0.110809
O O18 0.923858 0.000000 0.038473
O O19 0.025593 0.718931 0.061299
O O20 0.130106 0.500000 0.231726
#
# Coordination Sequence:
#
# PCOD8052512 Si02
#       8
#     2   2   2   2   2   2   2   2
#     4  10  22  39  62  89 118 155 202 250 296 349
#     4  12  25  40  60  89 124 161 198 246 303 359
#     4  10  21  40  63  89 119 154 200 251 298 354
#     4  11  24  39  59  88 123 159 196 240 297 360
#     4  11  23  41  65  91 118 156 202 248 298 358
#     4  10  22  40  63  88 117 154 200 250 297 349
#     4  11  23  40  63  90 119 159 207 252 296 352
#     4  11  24  41  61  90 124 158 197 247 303 359
#
# _framework density 20.997722
#
# number of rings (size 3 to 8) (size 9 to 14) (size 15 to 20)
#    0.000    1.250    0.000    5.625    0.000   12.000 
#    0.000    0.000    0.000    0.000    0.000    0.000 
#    0.000    0.000    0.000    0.000    0.000    0.000 
#
# Total GULP energy -198527.529823 kJ/mol
# GULP energy per Si atom -12407.970614 kJ/mol
# Density = 2.094993 g / cm^3
# Si number density = 20.997722 Si / 1000 Ang^3
#
#
#
# Elastic Constant Matrix: (Units=GPa)
#
#
# Indices 1 2 3 4 5 6 
#
# 1 80.7265 27.4814 -6.5458 0.0000 2.3926 0.0000
# 2 27.4814 38.4805 8.2443 0.0000 -4.7356 0.0000
# 3 -6.5458 8.2443 84.3564 0.0000 -0.3327 0.0000
# 4 0.0000 0.0000 0.0000 22.1427 0.0000 -4.2258
# 5 2.3926 -4.7356 -0.3327 0.0000 43.6082 0.0000
# 6 0.0000 0.0000 0.0000 -4.2258 0.0000 28.0696
#
#
#
# Elastic Compliance Matrix: (Units=1/GPa)
#
#
# Indices 1 2 3 4 5 6 
#
# 1 0.017116 -0.013067 0.002596 0.000000 -0.002338 0.000000
# 2 -0.013067 0.036882 -0.004600 0.000000 0.004687 0.000000
# 3 0.002596 -0.004600 0.012503 0.000000 -0.000547 0.000000
# 4 0.000000 0.000000 0.000000 0.046498 0.000000 0.007000
# 5 -0.002338 0.004687 -0.000547 0.000000 0.023565 0.000000
# 6 0.000000 0.000000 0.000000 0.007000 0.000000 0.036680
#
#
# Mechanical properties :
#
#
# Convention : Reuss Voigt Hill
#
# Bulk Modulus (GPa) = 27.50425 29.10258 28.30341
# Shear Modulus (GPa) = 23.20134 30.38966 26.79550
#
# Velocity S-wave (km/s) = 3.32768 3.80845 3.57615
# Velocity P-wave (km/s) = 5.28126 5.76446 5.52814
#
# Compressibility (1/GPa) = 0.03635802
#
# Stress axis : x y z
#
# Youngs Moduli (GPa) = 58.42557 27.11367 79.97868
#
# Poissons Ratio (x) = 0.35431 -0.20763
# Poissons Ratio (y) = 0.76347 0.36791
# Poissons Ratio (z) = -0.15167 0.12472
#
# Static dielectric constant tensor:
#      x y z
#    x 3.996560 0.000000 -0.102000 
#    y 0.000000 3.649240 0.000000 
#    z -0.102000 0.000000 3.898730 
# 
# 
# High freq. dielectric constant tensor:
#      x y z
#    x 1.839270 0.000000 -0.002480 
#    y 0.000000 1.815040 0.000000 
#    z -0.002480 0.000000 1.835410 
# 
# From -- ./inp_files/2687.got.cif
#   From: 2010.03.12/outbox.cif.g09.slc.cpg/sg6_2_cif.got.tgz:2687.got - 2010.03.30 10:24:59.
