data_PCOD8052831
_publ_section_title
;
Structure prediction by ZEFSAII (Michael W. Deem and Ramdas Pophale) SiO2 
 PCOD8052831
Probable space group: C M
;
_chemical_formula_sum "Si O2"
_cell_formula_units_Z 32
_cell_length_a 20.050839
_cell_length_b 8.865209
_cell_length_c 12.113447
_cell_angle_alpha 90.000000
_cell_angle_beta 124.730833
_cell_angle_gamma 90.000000
_cell_volume 1769.600628
_symmetry_space_group_name_H-M "C M"
_symmetry_group_IT_number 8
_symmetry_cell_setting 'monoclinic'
loop_
_space_group_symop_operation_xyz
x,y,z
x,-y,z
1/2+x,1/2+y,z
1/2+x,1/2-y,z
loop_
_atom_site_type_symbol
_atom_site_label
_atom_site_fract_x
_atom_site_fract_y
_atom_site_fract_z
Si Si1 0.945000 0.174252 0.015240
Si Si2 0.192967 0.676648 0.786120
Si Si3 0.311173 0.327522 0.707158
Si Si4 0.101397 0.820826 0.039318
Si Si5 0.828242 0.324429 0.059786
Si Si6 0.045018 0.179004 0.748040
Si Si7 0.370895 0.178091 0.553277
Si Si8 0.778709 0.676527 0.252614
O O1 0.913853 0.273311 0.088544
O O2 0.035747 0.226931 0.069971
O O3 0.941350 0.000000 0.047457
O O4 0.889721 0.202073 0.856251
O O5 0.180280 0.500000 0.791883
O O6 0.230241 0.710450 0.700388
O O7 0.107169 0.761251 0.713739
O O8 0.254034 0.733828 0.937453
O O9 0.310690 0.500000 0.665732
O O10 0.315321 0.218319 0.606110
O O11 0.188449 0.752033 0.155832
O O12 0.105143 0.000000 0.033143
O O13 0.075052 0.758311 0.894814
O O14 0.812940 0.500000 0.022430
O O15 0.831133 0.288985 0.192672
O O16 0.956655 0.240861 0.639580
O O17 0.041940 0.000000 0.741853
O O18 0.325222 0.243023 0.402053
O O19 0.384391 0.000000 0.559913
O O20 0.767478 0.500000 0.259791
#
# Coordination Sequence:
#
# PCOD8052831 Si02
#       8
#     4   4   4   4   4   4   4   4
#     4   9  17  31  53  79 106 135 173 226 276 315
#     4  10  20  34  54  82 111 138 175 226 276 317
#     4   9  18  34  53  76 109 144 175 215 274 325
#     4   9  16  32  56  77 101 138 179 217 263 318
#     4  10  18  32  54  78 107 143 180 218 266 322
#     4  11  20  35  58  81 107 142 183 223 270 320
#     4  11  22  35  54  80 112 146 183 222 263 321
#     4   9  19  35  54  77 107 146 180 215 270 322
#
# _framework density 18.083176999999999
#
# number of rings (size 3 to 8) (size 9 to 14) (size 15 to 20)
#    0.000    2.250    2.500    2.250    0.000    2.500 
#    0.000    3.750    0.000    3.000    0.000    0.000 
#    0.000    0.000    0.000    0.000    0.000    0.000 
#
# Total GULP energy -198394.828521 kJ/mol
# GULP energy per Si atom -12399.676783 kJ/mol
# Density = 1.804202 g / cm^3
# Si number density = 18.083177 Si / 1000 Ang^3
#
#
#
# Elastic Constant Matrix: (Units=GPa)
#
#
# Indices 1 2 3 4 5 6 
#
# 1 147.0530 42.4182 74.3060 0.0000 1.1550 0.0000
# 2 42.4182 60.2317 37.6806 0.0000 -2.9597 0.0000
# 3 74.3060 37.6806 114.7488 0.0000 1.1586 0.0000
# 4 0.0000 0.0000 0.0000 19.6656 0.0000 -0.9979
# 5 1.1550 -2.9597 1.1586 0.0000 24.1457 0.0000
# 6 0.0000 0.0000 0.0000 -0.9979 0.0000 33.6834
#
#
#
# Elastic Compliance Matrix: (Units=1/GPa)
#
#
# Indices 1 2 3 4 5 6 
#
# 1 0.010865 -0.004143 -0.005668 0.000000 -0.000756 0.000000
# 2 -0.004143 0.022679 -0.004796 0.000000 0.003208 0.000000
# 3 -0.005668 -0.004796 0.013970 0.000000 -0.000987 0.000000
# 4 0.000000 0.000000 0.000000 0.050927 0.000000 0.001509
# 5 -0.000756 0.003208 -0.000987 0.000000 0.041892 0.000000
# 6 0.000000 0.000000 0.000000 0.001509 0.000000 0.029733
#
#
# Mechanical properties :
#
#
# Convention : Reuss Voigt Hill
#
# Bulk Modulus (GPa) = 54.64807 70.09367 62.37087
# Shear Modulus (GPa) = 24.34510 26.67418 25.50964
#
# Velocity S-wave (km/s) = 3.67316 3.84485 3.75998
# Velocity P-wave (km/s) = 6.94805 7.65222 7.30862
#
# Compressibility (1/GPa) = 0.01829891
#
# Stress axis : x y z
#
# Youngs Moduli (GPa) = 92.03678 44.09400 71.58304
#
# Poissons Ratio (x) = 0.18270 0.40570
# Poissons Ratio (y) = 0.38134 0.34335
# Poissons Ratio (z) = 0.52163 0.21150
#
# Static dielectric constant tensor:
#      x y z
#    x 3.663290 0.000000 -0.007710 
#    y 0.000000 3.180310 0.000000 
#    z -0.007710 0.000000 3.263720 
# 
# 
# High freq. dielectric constant tensor:
#      x y z
#    x 1.718780 0.000000 -0.002680 
#    y 0.000000 1.683590 0.000000 
#    z -0.002680 0.000000 1.670940 
# 
# From -- ./inp_files/23711.got.cif
#   From: 2010.03.12/outbox.cif.g09.slc.cpg/sg8_12_cif.got.tgz:23711.got - 2010.03.31 10:45:26.
