data_PCOD8052270
_publ_section_title
;
Structure prediction by ZEFSAII (Michael W. Deem and Ramdas Pophale) SiO2 
 PCOD8052270
Probable space group: P M
;
_chemical_formula_sum "Si O2"
_cell_formula_units_Z 12
_cell_length_a 9.144128
_cell_length_b 8.288142
_cell_length_c 9.144093
_cell_angle_alpha 90.000000
_cell_angle_beta 61.153948
_cell_angle_gamma 90.000000
_cell_volume 607.021610
_symmetry_space_group_name_H-M "P M"
_symmetry_group_IT_number 6
_symmetry_cell_setting 'monoclinic'
loop_
_space_group_symop_operation_xyz
x,y,z
x,-y,z
loop_
_atom_site_type_symbol
_atom_site_label
_atom_site_fract_x
_atom_site_fract_y
_atom_site_fract_z
Si Si1 0.857550 0.685507 0.126690
Si Si2 0.736330 0.689905 0.596156
Si Si3 0.892450 0.186889 0.791214
Si Si4 0.053007 0.186155 0.279481
Si Si5 0.205792 0.685507 0.474946
Si Si6 0.541282 0.813109 0.440029
O O1 0.813749 0.500000 0.176192
O O2 0.027410 0.731799 0.132916
O O3 0.703315 0.790720 0.260116
O O4 0.889918 0.715592 0.942121
O O5 0.767799 0.500000 0.564706
O O6 0.741010 0.742583 0.763827
O O7 0.882101 0.791939 0.450365
O O8 0.568658 0.742554 0.591466
O O9 0.072354 0.209263 0.629161
O O10 0.860275 0.000000 0.838096
O O11 0.199550 0.268243 0.305083
O O12 0.096470 0.000000 0.236050
O O13 0.156311 0.500000 0.518782
O O14 0.390355 0.715629 0.442569
O O15 0.494436 0.000000 0.472215
#
# Coordination Sequence:
#
# PCOD8052270 Si02
#       6
#     2   2   2   2   2   2
#     4  11  21  36  56  81 109 142 179 221 266 316
#     4  10  18  32  53  78 105 140 179 218 260 314
#     4  11  21  36  56  81 109 142 179 221 266 316
#     4  10  18  32  53  78 105 140 179 218 260 314
#     4  11  21  36  56  81 109 142 179 221 266 316
#     4  11  21  36  56  81 109 142 179 221 266 316
#
# _framework density 19.768654999999999
#
# number of rings (size 3 to 8) (size 9 to 14) (size 15 to 20)
#    0.000    1.333    0.000   13.000    0.000    0.000 
#    0.000    1.667    0.000    0.000    0.000    0.000 
#    0.000    0.000    0.000    0.000    0.000    0.000 
#
# Total GULP energy -148793.477270 kJ/mol
# GULP energy per Si atom -12399.456439 kJ/mol
# Density = 1.972366 g / cm^3
# Si number density = 19.768655 Si / 1000 Ang^3
#
#
#
# Elastic Constant Matrix: (Units=GPa)
#
#
# Indices 1 2 3 4 5 6 
#
# 1 136.7606 20.9039 41.2753 0.0000 41.1643 0.0000
# 2 20.9039 110.7733 11.9273 0.0000 12.3322 0.0000
# 3 41.2753 11.9273 79.6781 0.0000 37.2289 0.0000
# 4 0.0000 0.0000 0.0000 27.9859 0.0000 7.3840
# 5 41.1643 12.3322 37.2289 0.0000 38.1487 0.0000
# 6 0.0000 0.0000 0.0000 7.3840 0.0000 33.3619
#
#
#
# Elastic Compliance Matrix: (Units=1/GPa)
#
#
# Indices 1 2 3 4 5 6 
#
# 1 0.010896 -0.000775 -0.000279 0.000000 -0.011234 0.000000
# 2 -0.000775 0.009420 0.000043 0.000000 -0.002250 0.000000
# 3 -0.000279 0.000043 0.023077 0.000000 -0.022233 0.000000
# 4 0.000000 0.000000 0.000000 0.037948 0.000000 -0.008399
# 5 -0.011234 -0.002250 -0.022233 0.000000 0.060760 0.000000
# 6 0.000000 0.000000 0.000000 -0.008399 0.000000 0.031833
#
#
# Mechanical properties :
#
#
# Convention : Reuss Voigt Hill
#
# Bulk Modulus (GPa) = 24.17230 52.82503 38.49867
# Shear Modulus (GPa) = 26.35072 36.77299 31.56185
#
# Velocity S-wave (km/s) = 3.65493 4.31764 4.00003
# Velocity P-wave (km/s) = 5.48320 7.18580 6.39144
#
# Compressibility (1/GPa) = 0.04136966
#
# Stress axis : x y z
#
# Youngs Moduli (GPa) = 91.77345 106.16082 43.33327
#
# Poissons Ratio (x) = 0.08232 0.01210
# Poissons Ratio (y) = 0.07117 -0.00187
# Poissons Ratio (z) = 0.02564 -0.00458
#
# Static dielectric constant tensor:
#      x y z
#    x 4.013510 0.000000 0.739420 
#    y 0.000000 3.600520 0.000000 
#    z 0.739420 0.000000 3.475240 
# 
# 
# High freq. dielectric constant tensor:
#      x y z
#    x 1.771000 0.000000 0.046580 
#    y 0.000000 1.791410 0.000000 
#    z 0.046580 0.000000 1.737090 
# 
# From -- ./inp_files/2422.got.cif
#   From: 2010.03.12/outbox.cif.g09.slc.cpg/sg6_2_cif.got.tgz:2422.got - 2010.03.30 10:24:59.
