data_PCOD8052715
_publ_section_title
;
Structure prediction by ZEFSAII (Michael W. Deem and Ramdas Pophale) SiO2 
 PCOD8052715
Probable space group: C M
;
_chemical_formula_sum "Si O2"
_cell_formula_units_Z 32
_cell_length_a 24.501303
_cell_length_b 8.855912
_cell_length_c 18.798809
_cell_angle_alpha 90.000000
_cell_angle_beta 27.073534
_cell_angle_gamma 90.000000
_cell_volume 1856.486337
_symmetry_space_group_name_H-M "C M"
_symmetry_group_IT_number 8
_symmetry_cell_setting 'monoclinic'
loop_
_space_group_symop_operation_xyz
x,y,z
x,-y,z
1/2+x,1/2+y,z
1/2+x,1/2-y,z
loop_
_atom_site_type_symbol
_atom_site_label
_atom_site_fract_x
_atom_site_fract_y
_atom_site_fract_z
Si Si1 0.998960 0.676151 0.872450
Si Si2 0.709346 0.825580 0.047467
Si Si3 0.003286 0.324677 0.466988
Si Si4 0.233046 0.828406 0.581109
Si Si5 0.966052 0.177694 0.363426
Si Si6 0.918909 0.323611 0.718200
Si Si7 0.767799 0.171643 0.142936
Si Si8 0.558253 0.672496 0.668618
O O1 0.019269 0.500000 0.859334
O O2 0.119621 0.763394 0.759059
O O3 0.977021 0.724928 0.815615
O O4 0.874871 0.728509 0.053937
O O5 0.578021 0.752782 0.193704
O O6 0.757571 0.802835 0.070574
O O7 0.698956 0.000000 0.038477
O O8 0.796730 0.745462 0.889988
O O9 0.000606 0.500000 0.446888
O O10 0.141071 0.279300 0.324504
O O11 0.951216 0.228759 0.462348
O O12 0.922793 0.292381 0.629372
O O13 0.347818 0.724873 0.457733
O O14 0.194904 0.822332 0.540907
O O15 0.258868 0.000000 0.575518
O O16 0.981677 0.000000 0.342415
O O17 0.925060 0.500000 0.727487
O O18 0.037155 0.243823 0.615498
O O19 0.799361 0.000000 0.124748
O O20 0.510069 0.500000 0.725306
#
# Coordination Sequence:
#
# PCOD8052715 Si02
#       8
#     4   4   4   4   4   4   4   4
#     4  10  17  26  46  75 100 122 159 210 247 285
#     4  10  19  31  50  71 100 135 166 207 254 301
#     4   9  21  36  50  71 106 142 167 201 256 309
#     4   9  18  32  50  72 100 132 166 206 254 303
#     4  11  21  33  52  77 101 130 173 217 248 292
#     4  11  20  32  52  78 104 133 170 211 251 301
#     4   9  16  30  48  69  99 133 167 200 248 305
#     4   9  18  30  48  73 100 133 162 198 250 302
#
# _framework density 17.236863
#
# number of rings (size 3 to 8) (size 9 to 14) (size 15 to 20)
#    0.750    1.500    1.250    4.125    0.000    3.000 
#    0.000    0.000    0.000    1.500    0.000    5.250 
#    0.000    0.000    0.000    0.000    0.000    0.000 
#
# Total GULP energy -198242.554169 kJ/mol
# GULP energy per Si atom -12390.159636 kJ/mol
# Density = 1.719763 g / cm^3
# Si number density = 17.236863 Si / 1000 Ang^3
#
#
#
# Elastic Constant Matrix: (Units=GPa)
#
#
# Indices 1 2 3 4 5 6 
#
# 1 57.7075 32.4662 41.8109 -0.0009 -13.5179 0.0002
# 2 32.4662 97.6661 39.6716 0.0017 -3.6961 0.0013
# 3 41.8109 39.6716 94.9271 0.0007 -7.6259 0.0007
# 4 -0.0009 0.0017 0.0007 26.8218 -0.0002 -5.3730
# 5 -13.5179 -3.6961 -7.6259 -0.0002 27.6265 -0.0005
# 6 0.0002 0.0013 0.0007 -5.3730 -0.0005 26.1246
#
#
#
# Elastic Compliance Matrix: (Units=1/GPa)
#
#
# Indices 1 2 3 4 5 6 
#
# 1 0.030516 -0.005571 -0.010199 0.000002 0.011371 0.000001
# 2 -0.005571 0.013351 -0.003274 -0.000001 -0.001843 -0.000001
# 3 -0.010199 -0.003274 0.016321 -0.000001 -0.000923 0.000000
# 4 0.000002 -0.000001 -0.000001 0.038885 0.000001 0.007997
# 5 0.011371 -0.001843 -0.000923 0.000001 0.041260 0.000001
# 6 0.000001 -0.000001 0.000000 0.007997 0.000001 0.039923
#
#
# Mechanical properties :
#
#
# Convention : Reuss Voigt Hill
#
# Bulk Modulus (GPa) = 45.24957 53.13312 49.19134
# Shear Modulus (GPa) = 22.15221 25.20469 23.67845
#
# Velocity S-wave (km/s) = 3.58881 3.82809 3.71038
# Velocity P-wave (km/s) = 6.59404 7.10150 6.85247
#
# Compressibility (1/GPa) = 0.02209966
#
# Stress axis : x y z
#
# Youngs Moduli (GPa) = 32.76918 74.90086 61.27159
#
# Poissons Ratio (x) = 0.41727 0.62493
# Poissons Ratio (y) = 0.18256 0.20060
# Poissons Ratio (z) = 0.33422 0.24522
#
# Static dielectric constant tensor:
#      x y z
#    x 2.900500 0.000000 -0.176480 
#    y 0.000000 3.240360 0.000000 
#    z -0.176480 0.000000 3.210540 
# 
# 
# High freq. dielectric constant tensor:
#      x y z
#    x 1.628450 0.000000 -0.025000 
#    y 0.000000 1.677580 0.000000 
#    z -0.025000 0.000000 1.651690 
# 
# From -- ./inp_files/30041.got.cif
#   From: 2010.03.12/outbox.cif.g09.slc.cpg/sg8_16_cif.got.tgz:30041.got - 2010.03.31 10:45:26.
