data_PCOD8052689
_publ_section_title
;
Structure prediction by ZEFSAII (Michael W. Deem and Ramdas Pophale) SiO2 
 PCOD8052689
Probable space group: C M
;
_chemical_formula_sum "Si O2"
_cell_formula_units_Z 32
_cell_length_a 5.297965
_cell_length_b 16.957874
_cell_length_c 18.320924
_cell_angle_alpha 90.000000
_cell_angle_beta 81.864512
_cell_angle_gamma 90.000000
_cell_volume 1629.427592
_symmetry_space_group_name_H-M "C M"
_symmetry_group_IT_number 8
_symmetry_cell_setting 'monoclinic'
loop_
_space_group_symop_operation_xyz
x,y,z
x,-y,z
1/2+x,1/2+y,z
1/2+x,1/2-y,z
loop_
_atom_site_type_symbol
_atom_site_label
_atom_site_fract_x
_atom_site_fract_y
_atom_site_fract_z
Si Si1 0.271110 0.092846 0.290600
Si Si2 0.107357 0.299029 0.679038
Si Si3 0.848901 0.657751 0.129916
Si Si4 0.879065 0.832130 0.068294
Si Si5 0.727496 0.092203 0.378838
Si Si6 0.991435 0.343775 0.835061
Si Si7 0.961623 0.831786 0.895915
Si Si8 0.130891 0.300409 0.516831
O O1 0.306773 0.142680 0.216345
O O2 0.498866 0.118522 0.334995
O O3 0.999743 0.117972 0.335140
O O4 0.280907 0.000000 0.272612
O O5 0.889558 0.232129 0.686153
O O6 0.034853 0.359689 0.746938
O O7 0.612096 0.160858 0.598728
O O8 0.856604 0.750782 0.113670
O O9 0.617141 0.619365 0.092420
O O10 0.117255 0.619390 0.092301
O O11 0.921848 0.813369 0.982174
O O12 0.692500 0.130560 0.458733
O O13 0.718952 0.000000 0.392689
O O14 0.985563 0.250072 0.851458
O O15 0.722109 0.381234 0.871787
O O16 0.223059 0.381084 0.872881
O O17 0.359978 0.237308 0.506086
#
# Coordination Sequence:
#
# PCOD8052689 Si02
#       8
#     4   4   4   4   4   4   4   4
#     4  10  21  37  57  73  93 127 174 219 248 296
#     4  10  16  27  41  63  99 131 152 194 252 289
#     4  10  18  32  45  66  96 123 158 193 259 289
#     4  10  19  30  43  68 100 135 149 203 244 309
#     4  10  21  40  57  75 101 137 177 214 253 311
#     4  10  14  22  36  59  85 129 159 188 218 289
#     4  10  16  23  39  59  90 130 164 182 229 291
#     4  10  21  35  52  79 110 136 162 217 263 310
#
# _framework density 19.638795999999999
#
# number of rings (size 3 to 8) (size 9 to 14) (size 15 to 20)
#    0.000    2.000    2.500    5.250    0.000    0.000 
#   13.500    0.000    0.000    0.000    0.000    0.000 
#    0.000   11.000    0.000    0.000    0.000    0.000 
#
# Total GULP energy -198271.772849 kJ/mol
# GULP energy per Si atom -12391.985803 kJ/mol
# Density = 1.959410 g / cm^3
# Si number density = 19.638796 Si / 1000 Ang^3
#
#
#
# Elastic Constant Matrix: (Units=GPa)
#
#
# Indices 1 2 3 4 5 6 
#
# 1 204.8215 12.0426 70.0964 0.0000 2.4891 0.0000
# 2 12.0426 14.3286 35.7875 0.0000 -2.4551 0.0000
# 3 70.0964 35.7875 192.0622 0.0000 -7.6965 0.0000
# 4 0.0000 0.0000 0.0000 0.3802 0.0000 0.9139
# 5 2.4891 -2.4551 -7.6965 0.0000 36.4826 0.0000
# 6 0.0000 0.0000 0.0000 0.9139 0.0000 4.9027
#
#
#
# Elastic Compliance Matrix: (Units=1/GPa)
#
#
# Indices 1 2 3 4 5 6 
#
# 1 0.005607 0.000639 -0.002197 0.000000 -0.000803 0.000000
# 2 0.000639 0.131110 -0.024519 0.000000 0.003607 0.000000
# 3 -0.002197 -0.024519 0.010607 0.000000 0.000738 0.000000
# 4 0.000000 0.000000 0.000000 4.765094 0.000000 -0.888284
# 5 -0.000803 0.003607 0.000738 0.000000 0.027863 0.000000
# 6 0.000000 0.000000 0.000000 -0.888284 0.000000 0.369558
#
#
# Mechanical properties :
#
#
# Convention : Reuss Voigt Hill
#
# Bulk Modulus (GPa) = 10.50768 71.89616 41.20192
# Shear Modulus (GPa) = 0.92700 27.90549 14.41625
#
# Velocity S-wave (km/s) = 0.68779 3.77362 2.71231
# Velocity P-wave (km/s) = 2.44802 7.46161 5.55286
#
# Compressibility (1/GPa) = 0.09516845
#
# Stress axis : x y z
#
# Youngs Moduli (GPa) = 178.36368 7.62718 94.27914
#
# Poissons Ratio (x) = -0.00487 0.20717
# Poissons Ratio (y) = -0.11389 2.31160
# Poissons Ratio (z) = 0.39193 0.18701
#
# Static dielectric constant tensor:
#      x y z
#    x 6.072910 0.000000 0.194380 
#    y 0.000000 2.709230 0.000000 
#    z 0.194380 0.000000 3.762320 
# 
# 
# High freq. dielectric constant tensor:
#      x y z
#    x 1.811940 0.000000 0.001460 
#    y 0.000000 1.667450 0.000000 
#    z 0.001460 0.000000 1.784000 
# 
# From -- ./inp_files/24950.got.cif
#   From: 2010.03.12/outbox.cif.g09.slc.cpg/sg8_13_cif.got.tgz:24950.got - 2010.03.31 10:45:26.
