data_PCOD8052620
_publ_section_title
;
Structure prediction by ZEFSAII (Michael W. Deem and Ramdas Pophale) SiO2 
 PCOD8052620
Probable space group: P C
;
_chemical_formula_sum "Si O2"
_cell_formula_units_Z 14
_cell_length_a 13.251575
_cell_length_b 13.110531
_cell_length_c 5.026660
_cell_angle_alpha 90.000000
_cell_angle_beta 59.086237
_cell_angle_gamma 90.000000
_cell_volume 749.246942
_symmetry_space_group_name_H-M "P C"
_symmetry_group_IT_number 7
_symmetry_cell_setting 'monoclinic'
loop_
_space_group_symop_operation_xyz
x,y,z
x,-y,1/2+z
loop_
_atom_site_type_symbol
_atom_site_label
_atom_site_fract_x
_atom_site_fract_y
_atom_site_fract_z
Si Si1 0.757260 0.786246 0.503490
Si Si2 0.993960 0.714136 0.330950
Si Si3 0.444824 0.565847 0.543463
Si Si4 0.176972 0.433692 0.353791
Si Si5 0.660319 0.303561 0.635536
Si Si6 0.885724 0.568152 0.855892
Si Si7 0.946459 0.065882 0.845079
O O1 0.697566 0.783725 0.296352
O O2 0.808943 0.897240 0.517354
O O3 0.868346 0.706272 0.342663
O O4 0.661758 0.749246 0.846712
O O5 0.969796 0.663697 0.655680
O O6 0.025796 0.834847 0.312383
O O7 0.097086 0.663142 0.024122
O O8 0.470332 0.526082 0.804858
O O9 0.311152 0.604104 0.696825
O O10 0.528578 0.661058 0.372616
O O11 0.150753 0.526677 0.592239
O O12 0.748520 0.400347 0.527811
O O13 0.916387 0.476730 0.604410
O O14 0.974500 0.021987 0.516879
#
# Coordination Sequence:
#
# PCOD8052620 Si02
#       7
#     2   2   2   2   2   2   2
#     4   9  21  31  53  75 103 125 171 216 270 312
#     4   9  21  34  52  76 107 131 182 208 264 320
#     4  10  20  33  49  71 104 146 188 210 238 295
#     4  10  21  35  51  74 108 148 178 210 249 301
#     4  11  18  33  47  74 105 141 170 214 239 306
#     4  11  20  28  45  72 105 140 161 200 250 297
#     4  10  21  36  55  78 104 133 170 222 278 323
#
# _framework density 18.68543
#
# number of rings (size 3 to 8) (size 9 to 14) (size 15 to 20)
#    0.857    1.143    0.000    5.143    0.000    3.429 
#    0.000    0.000    0.000    0.000    0.000    6.000 
#    0.000    0.000    0.000    0.000    0.000    0.000 
#
# Total GULP energy -173531.459724 kJ/mol
# GULP energy per Si atom -12395.104266 kJ/mol
# Density = 1.864290 g / cm^3
# Si number density = 18.685430 Si / 1000 Ang^3
#
#
#
# Elastic Constant Matrix: (Units=GPa)
#
#
# Indices 1 2 3 4 5 6 
#
# 1 40.1006 20.5261 27.3756 0.0000 4.0518 0.0000
# 2 20.5261 85.1816 28.0525 0.0000 -4.5884 0.0000
# 3 27.3756 28.0525 95.7586 0.0000 -4.1598 0.0000
# 4 0.0000 0.0000 0.0000 24.2986 0.0000 1.2475
# 5 4.0518 -4.5884 -4.1598 0.0000 32.3266 0.0000
# 6 0.0000 0.0000 0.0000 1.2475 0.0000 20.0101
#
#
#
# Elastic Compliance Matrix: (Units=1/GPa)
#
#
# Indices 1 2 3 4 5 6 
#
# 1 0.034253 -0.005837 -0.008351 0.000000 -0.006196 0.000000
# 2 -0.005837 0.014048 -0.002341 0.000000 0.002424 0.000000
# 3 -0.008351 -0.002341 0.013623 0.000000 0.002468 0.000000
# 4 0.000000 0.000000 0.000000 0.041287 0.000000 -0.002574
# 5 -0.006196 0.002424 0.002468 0.000000 0.032373 0.000000
# 6 0.000000 0.000000 0.000000 -0.002574 0.000000 0.050135
#
#
# Mechanical properties :
#
#
# Convention : Reuss Voigt Hill
#
# Bulk Modulus (GPa) = 34.64498 41.43880 38.04189
# Shear Modulus (GPa) = 21.89146 24.99948 23.44547
#
# Velocity S-wave (km/s) = 3.42655 3.66172 3.54608
# Velocity P-wave (km/s) = 5.85119 6.33268 6.09669
#
# Compressibility (1/GPa) = 0.02886421
#
# Stress axis : x y z
#
# Youngs Moduli (GPa) = 29.19494 71.18535 73.40270
#
# Poissons Ratio (x) = 0.41553 0.61301
# Poissons Ratio (y) = 0.17042 0.17185
# Poissons Ratio (z) = 0.24382 0.16666
#
# Static dielectric constant tensor:
#      x y z
#    x 3.273170 0.000000 0.070000 
#    y 0.000000 3.184800 0.000000 
#    z 0.070000 0.000000 3.561230 
# 
# 
# High freq. dielectric constant tensor:
#      x y z
#    x 1.704870 0.000000 0.020990 
#    y 0.000000 1.692520 0.000000 
#    z 0.020990 0.000000 1.737440 
# 
# From -- ./inp_files/1296.got.cif
#   From: 2010.03.12/outbox.cif.g09.slc.cpg/sg7_cif.got.tgz:1296.got - 2010.03.30 08:40:41.
