data_PCOD8052308
_publ_section_title
;
Structure prediction by ZEFSAII (Michael W. Deem and Ramdas Pophale) SiO2 
 PCOD8052308
Probable space group: P M
;
_chemical_formula_sum "Si O2"
_cell_formula_units_Z 16
_cell_length_a 10.250171
_cell_length_b 9.324192
_cell_length_c 12.004619
_cell_angle_alpha 90.000000
_cell_angle_beta 52.458793
_cell_angle_gamma 90.000000
_cell_volume 909.740451
_symmetry_space_group_name_H-M "P M"
_symmetry_group_IT_number 6
_symmetry_cell_setting 'monoclinic'
loop_
_space_group_symop_operation_xyz
x,y,z
x,-y,z
loop_
_atom_site_type_symbol
_atom_site_label
_atom_site_fract_x
_atom_site_fract_y
_atom_site_fract_z
Si Si1 0.212920 0.334663 0.559610
Si Si2 0.879986 0.168923 0.700565
Si Si3 0.542283 0.663728 0.276647
Si Si4 0.800093 0.166988 0.280753
Si Si5 0.354746 0.667556 0.721832
Si Si6 0.760131 0.663169 0.964761
Si Si7 0.685704 0.165272 0.581828
Si Si8 0.027872 0.664350 0.011638
O O1 0.155699 0.500000 0.600709
O O2 0.347142 0.314696 0.391555
O O3 0.294026 0.280866 0.632316
O O4 0.059261 0.237996 0.609208
O O5 0.764629 0.230610 0.858227
O O6 0.797817 0.210860 0.626866
O O7 0.897688 0.000000 0.707484
O O8 0.593114 0.500000 0.279968
O O9 0.637041 0.766417 0.311802
O O10 0.595333 0.696805 0.121863
O O11 0.792964 0.196627 0.416048
O O12 0.965523 0.238220 0.145882
O O13 0.804007 0.000000 0.249884
O O14 0.393483 0.500000 0.697643
O O15 0.518609 0.746546 0.672704
O O16 0.215294 0.704239 0.885640
O O17 0.759874 0.500000 0.921036
O O18 0.919485 0.691833 0.958009
O O19 0.634296 0.000000 0.614864
O O20 0.011422 0.500000 0.057865
#
# Coordination Sequence:
#
# PCOD8052308 Si02
#       8
#     2   2   2   2   2   2   2   2
#     4  10  19  35  57  82 107 135 177 225 268 312
#     4  11  23  37  53  76 110 149 181 214 261 318
#     4   9  18  33  55  80 107 134 169 222 273 311
#     4  10  19  32  52  78 107 140 177 215 260 315
#     4  10  19  34  58  83 105 135 179 224 266 314
#     4   9  17  33  54  78 108 139 171 218 268 313
#     4  10  23  39  52  75 112 146 179 219 263 313
#     4   9  18  33  53  80 110 134 167 221 271 312
#
# _framework density 17.587433999999998
#
# number of rings (size 3 to 8) (size 9 to 14) (size 15 to 20)
#    0.000    2.250    2.500    1.500    0.000    5.000 
#    0.000    1.250    0.000    6.000    0.000    0.000 
#    0.000    0.000    0.000    0.000    0.000    0.000 
#
# Total GULP energy -198417.333082 kJ/mol
# GULP energy per Si atom -12401.083318 kJ/mol
# Density = 1.754740 g / cm^3
# Si number density = 17.587434 Si / 1000 Ang^3
#
#
#
# Elastic Constant Matrix: (Units=GPa)
#
#
# Indices 1 2 3 4 5 6 
#
# 1 99.5883 61.6003 69.5798 0.0000 0.1339 0.0000
# 2 61.6003 91.6909 71.2296 0.0000 2.7789 0.0000
# 3 69.5798 71.2296 142.5004 0.0000 -1.9412 0.0000
# 4 0.0000 0.0000 0.0000 19.9048 0.0000 1.9399
# 5 0.1339 2.7789 -1.9412 0.0000 23.8450 0.0000
# 6 0.0000 0.0000 0.0000 1.9399 0.0000 23.5742
#
#
#
# Elastic Compliance Matrix: (Units=1/GPa)
#
#
# Indices 1 2 3 4 5 6 
#
# 1 0.018951 -0.009101 -0.004697 0.000000 0.000572 0.000000
# 2 -0.009101 0.022390 -0.006790 0.000000 -0.003111 0.000000
# 3 -0.004697 -0.006790 0.012730 0.000000 0.001854 0.000000
# 4 0.000000 0.000000 0.000000 0.050645 0.000000 -0.004168
# 5 0.000572 -0.003111 0.001854 0.000000 0.042448 0.000000
# 6 0.000000 0.000000 0.000000 -0.004168 0.000000 0.042762
#
#
# Mechanical properties :
#
#
# Convention : Reuss Voigt Hill
#
# Bulk Modulus (GPa) = 77.54464 82.06655 79.80559
# Shear Modulus (GPa) = 21.24045 22.22279 21.73162
#
# Velocity S-wave (km/s) = 3.47898 3.55852 3.51897
# Velocity P-wave (km/s) = 7.76688 7.97793 7.87311
#
# Compressibility (1/GPa) = 0.01289580
#
# Stress axis : x y z
#
# Youngs Moduli (GPa) = 52.76708 44.66374 78.55334
#
# Poissons Ratio (x) = 0.40647 0.36894
# Poissons Ratio (y) = 0.48022 0.53340
# Poissons Ratio (z) = 0.24783 0.30328
#
# Static dielectric constant tensor:
#      x y z
#    x 2.988890 0.000000 -0.057690 
#    y 0.000000 3.244040 0.000000 
#    z -0.057690 0.000000 3.543050 
# 
# 
# High freq. dielectric constant tensor:
#      x y z
#    x 1.647400 0.000000 -0.009760 
#    y 0.000000 1.679520 0.000000 
#    z -0.009760 0.000000 1.698040 
# 
# From -- ./inp_files/3461.got.cif
#   From: 2010.03.12/outbox.cif.g09.slc.cpg/sg6_2_cif.got.tgz:3461.got - 2010.03.30 10:24:59.
