data_PCOD8052227
_publ_section_title
;
Structure prediction by ZEFSAII (Michael W. Deem and Ramdas Pophale) SiO2 
 PCOD8052227
Probable space group: P M
;
_chemical_formula_sum "Si O2"
_cell_formula_units_Z 16
_cell_length_a 9.638589
_cell_length_b 8.890066
_cell_length_c 11.589801
_cell_angle_alpha 90.000000
_cell_angle_beta 69.700413
_cell_angle_gamma 90.000000
_cell_volume 931.423082
_symmetry_space_group_name_H-M "P M"
_symmetry_group_IT_number 6
_symmetry_cell_setting 'monoclinic'
loop_
_space_group_symop_operation_xyz
x,y,z
x,-y,z
loop_
_atom_site_type_symbol
_atom_site_label
_atom_site_fract_x
_atom_site_fract_y
_atom_site_fract_z
Si Si1 0.284900 0.328620 0.808320
Si Si2 0.301148 0.823302 0.561580
Si Si3 0.929255 0.825433 0.296636
Si Si4 0.479346 0.674415 0.179026
Si Si5 0.599979 0.173014 0.355720
Si Si6 0.394941 0.822512 0.987895
Si Si7 0.168693 0.675839 0.386754
Si Si8 0.103647 0.672184 0.068964
O O1 0.330325 0.500000 0.767992
O O2 0.266757 0.235203 0.698541
O O3 0.410844 0.254837 0.856219
O O4 0.125912 0.322259 0.923106
O O5 0.469403 0.777743 0.480407
O O6 0.183820 0.749187 0.508678
O O7 0.276714 0.000000 0.566313
O O8 0.756120 0.800865 0.374659
O O9 0.025274 0.744217 0.366302
O O10 0.957265 0.751128 0.161455
O O11 0.970781 0.000000 0.280729
O O12 0.503530 0.500000 0.148031
O O13 0.596791 0.729507 0.239926
O O14 0.511892 0.761995 0.048883
O O15 0.316347 0.712234 0.273287
O O16 0.579230 0.000000 0.325237
O O17 0.237954 0.767787 0.086862
O O18 0.406800 0.000000 0.970321
O O19 0.143163 0.500000 0.410164
O O20 0.112823 0.500000 0.111045
#
# Coordination Sequence:
#
# PCOD8052227 Si02
#       8
#     2   2   2   2   2   2   2   2
#     4   9  18  31  48  73 102 127 163 209 248 290
#     4  10  19  33  52  73  99 131 170 208 246 293
#     4  11  20  32  51  75 103 134 167 203 249 302
#     4  10  18  30  48  73 101 130 165 205 248 294
#     4   9  21  35  48  72 105 136 166 204 247 297
#     4  10  17  27  48  74  98 126 159 200 247 290
#     4  10  19  30  48  71  99 129 165 208 249 294
#     4   9  18  30  47  73 101 127 159 203 246 290
#
# _framework density 17.178014999999998
#
# number of rings (size 3 to 8) (size 9 to 14) (size 15 to 20)
#    0.750    1.500    1.250    3.000    0.000    2.500 
#    0.000    0.000    0.000    1.500    0.000    8.750 
#    0.000    0.000    0.000    0.000    0.000    0.000 
#
# Total GULP energy -198258.240487 kJ/mol
# GULP energy per Si atom -12391.140030 kJ/mol
# Density = 1.713892 g / cm^3
# Si number density = 17.178015 Si / 1000 Ang^3
#
#
#
# Elastic Constant Matrix: (Units=GPa)
#
#
# Indices 1 2 3 4 5 6 
#
# 1 77.0703 40.9467 37.7959 0.0000 12.5487 0.0000
# 2 40.9467 104.6271 43.7514 0.0000 14.4660 0.0000
# 3 37.7959 43.7514 102.0213 0.0000 23.0428 0.0000
# 4 0.0000 0.0000 0.0000 32.1977 0.0000 8.0503
# 5 12.5487 14.4660 23.0428 0.0000 22.5045 0.0000
# 6 0.0000 0.0000 0.0000 8.0503 0.0000 19.2879
#
#
#
# Elastic Compliance Matrix: (Units=1/GPa)
#
#
# Indices 1 2 3 4 5 6 
#
# 1 0.018013 -0.005038 -0.003871 0.000000 -0.002842 0.000000
# 2 -0.005038 0.013222 -0.003277 0.000000 -0.002335 0.000000
# 3 -0.003871 -0.003277 0.015191 0.000000 -0.011290 0.000000
# 4 0.000000 0.000000 0.000000 0.034677 0.000000 -0.014473
# 5 -0.002842 -0.002335 -0.011290 0.000000 0.059081 0.000000
# 6 0.000000 0.000000 0.000000 -0.014473 0.000000 0.057887
#
#
# Mechanical properties :
#
#
# Convention : Reuss Voigt Hill
#
# Bulk Modulus (GPa) = 45.33947 58.74519 52.04233
# Shear Modulus (GPa) = 21.75868 25.54633 23.65250
#
# Velocity S-wave (km/s) = 3.56288 3.86055 3.71469
# Velocity P-wave (km/s) = 6.58609 7.35825 6.98285
#
# Compressibility (1/GPa) = 0.02205584
#
# Stress axis : x y z
#
# Youngs Moduli (GPa) = 55.51610 75.62939 65.82874
#
# Poissons Ratio (x) = 0.38101 0.25481
# Poissons Ratio (y) = 0.27968 0.21569
# Poissons Ratio (z) = 0.21489 0.24780
#
# Static dielectric constant tensor:
#      x y z
#    x 2.938230 0.000000 0.144470 
#    y 0.000000 3.293190 0.000000 
#    z 0.144470 0.000000 3.118840 
# 
# 
# High freq. dielectric constant tensor:
#      x y z
#    x 1.623730 0.000000 0.021210 
#    y 0.000000 1.681700 0.000000 
#    z 0.021210 0.000000 1.649500 
# 
# From -- ./inp_files/4551.got.cif
#   From: 2010.03.12/outbox.cif.g09.slc.cpg/sg6_3_cif.got.tgz:4551.got - 2010.03.30 10:24:59.
