data_PCOD8052040
_publ_section_title
;
Structure prediction by ZEFSAII (Michael W. Deem and Ramdas Pophale) SiO2 
 PCOD8052040
Probable space group: C 2
;
_chemical_formula_sum "Si O2"
_cell_formula_units_Z 14
_cell_length_a 7.094286
_cell_length_b 7.115686
_cell_length_c 10.619076
_cell_angle_alpha 90.000000
_cell_angle_beta 88.764791
_cell_angle_gamma 90.000000
_cell_volume 535.933946
_symmetry_space_group_name_H-M "C 2"
_symmetry_group_IT_number 5
_symmetry_cell_setting 'monoclinic'
loop_
_space_group_symop_operation_xyz
x,y,z
-x,y,-z
1/2+x,1/2+y,z
1/2-x,1/2+y,-z
loop_
_atom_site_type_symbol
_atom_site_label
_atom_site_fract_x
_atom_site_fract_y
_atom_site_fract_z
Si Si1 0.057638 0.149670 0.859607
Si Si2 0.732908 0.625362 0.329630
Si Si3 0.521664 0.214022 0.139415
Si Si4 0.000000 0.850248 0.500000
O O1 0.262992 0.223547 0.820011
O O2 0.913329 0.238637 0.758809
O O3 0.060148 0.923593 0.852325
O O4 0.000000 0.218075 0.000000
O O5 0.825311 0.735846 0.444124
O O6 0.604039 0.460522 0.387470
O O7 0.905742 0.572236 0.232961
O O8 0.500000 0.128833 0.000000
#
# Coordination Sequence:
#
# PCOD8052040 Si02
#       4
#     4   4   4   2
#     4  11  25  48  79 116 150 191 248 322 384 439
#     4  12  28  56  72 118 148 208 252 310 366 464
#     4  11  25  48  79 116 150 191 248 322 384 439
#     4  12  32  48  82 100 166 206 252 296 372 450
#
# _framework density 26.122623000000001
#
# number of rings (size 3 to 8) (size 9 to 14) (size 15 to 20)
#    0.000    0.571    5.714    0.000    4.000    8.000 
#    0.000    0.000    0.000    0.000    0.000    0.000 
#    0.000    0.000    0.000    0.000    0.000    0.000 
#
# Total GULP energy -86754.935806 kJ/mol
# GULP energy per Si atom -12393.562258 kJ/mol
# Density = 2.606317 g / cm^3
# Si number density = 26.122623 Si / 1000 Ang^3
#
#
#
# Elastic Constant Matrix: (Units=GPa)
#
#
# Indices 1 2 3 4 5 6 
#
# 1 124.7910 -14.0200 21.6690 0.0000 21.0697 0.0000
# 2 -14.0200 32.6644 -16.6243 0.0000 5.1331 0.0000
# 3 21.6690 -16.6243 157.5450 0.0000 26.4555 0.0000
# 4 0.0000 0.0000 0.0000 -6.8883 0.0000 3.4868
# 5 21.0697 5.1331 26.4555 0.0000 75.9694 0.0000
# 6 0.0000 0.0000 0.0000 3.4868 0.0000 31.3457
#
#
#
# Elastic Compliance Matrix: (Units=1/GPa)
#
#
# Indices 1 2 3 4 5 6 
#
# 1 0.008981 0.004086 -0.000361 0.000000 -0.002641 0.000000
# 2 0.004086 0.035157 0.003969 0.000000 -0.004891 0.000000
# 3 -0.000361 0.003969 0.007269 0.000000 -0.002700 0.000000
# 4 0.000000 0.000000 0.000000 -0.137436 0.000000 0.015288
# 5 -0.002641 -0.004891 -0.002700 0.000000 0.015166 0.000000
# 6 0.000000 0.000000 0.000000 0.015288 0.000000 0.030202
#
#
# Mechanical properties :
#
#
# Convention : Reuss Voigt Hill
#
# Bulk Modulus (GPa) = 14.97072 33.00552 23.98812
# Shear Modulus (GPa) = -147.99721 41.68373 -53.15674
#
# Velocity S-wave (km/s) = -7.53510 3.99895 -4.51587
# Velocity P-wave (km/s) = 8.36423 5.82961 4.24122
#
# Compressibility (1/GPa) = 0.06679707
#
# Stress axis : x y z
#
# Youngs Moduli (GPa) = 111.34526 28.44386 137.56822
#
# Poissons Ratio (x) = -0.11623 0.04960
# Poissons Ratio (y) = -0.45500 -0.54602
# Poissons Ratio (z) = 0.04014 -0.11290
#
# Static dielectric constant tensor:
#      x y z
#    x 4.979400 0.000000 0.153110 
#    y 0.000000 4.180460 0.000000 
#    z 0.153110 0.000000 5.349980 
# 
# 
# High freq. dielectric constant tensor:
#      x y z
#    x 2.070420 0.000000 0.006550 
#    y 0.000000 2.014120 0.000000 
#    z 0.006550 0.000000 2.072010 
# 
# From -- ./inp_files/32743.got.cif
#   From: 2010.03.12/outbox.cif.g09.slc.cpg/sg5_17_cif.got.tgz:32743.got - 2010.03.31 09:47:26.
