data_PCOD8052976
_publ_section_title
;
Structure prediction by ZEFSAII (Michael W. Deem and Ramdas Pophale) SiO2 
 PCOD8052976
Probable space group: C M
;
_chemical_formula_sum "Si O2"
_cell_formula_units_Z 32
_cell_length_a 20.024980
_cell_length_b 8.959261
_cell_length_c 24.951512
_cell_angle_alpha 90.000000
_cell_angle_beta 23.311130
_cell_angle_gamma 90.000000
_cell_volume 1771.468511
_symmetry_space_group_name_H-M "C M"
_symmetry_group_IT_number 8
_symmetry_cell_setting 'monoclinic'
loop_
_space_group_symop_operation_xyz
x,y,z
x,-y,z
1/2+x,1/2+y,z
1/2+x,1/2-y,z
loop_
_atom_site_type_symbol
_atom_site_label
_atom_site_fract_x
_atom_site_fract_y
_atom_site_fract_z
Si Si1 0.854090 0.173571 0.255500
Si Si2 0.087405 0.171513 0.524373
Si Si3 0.585458 0.325387 0.176522
Si Si4 0.783313 0.173437 0.188649
Si Si5 0.772881 0.176872 0.477331
Si Si6 0.776526 0.172459 0.682910
Si Si7 0.415135 0.177149 0.988124
Si Si8 0.897568 0.676218 0.487200
O O1 0.702747 0.269592 0.390986
O O2 0.874732 0.207993 0.177753
O O3 0.029811 0.214058 0.156609
O O4 0.807807 0.000000 0.299517
O O5 0.114667 0.263251 0.559313
O O6 0.894251 0.190925 0.648366
O O7 0.132994 0.000000 0.501656
O O8 0.599737 0.500000 0.174204
O O9 0.441815 0.266042 0.322761
O O10 0.767229 0.256986 0.058247
O O11 0.589446 0.227034 0.334318
O O12 0.792719 0.000000 0.167245
O O13 0.886473 0.265088 0.069077
O O14 0.772462 0.246950 0.536731
O O15 0.759802 0.000000 0.491394
O O16 0.592546 0.234349 0.834494
O O17 0.846078 0.272310 0.583885
O O18 0.770618 0.000000 0.668677
O O19 0.414876 0.000000 0.990709
O O20 0.878228 0.500000 0.497706
#
# Coordination Sequence:
#
# PCOD8052976 Si02
#       8
#     4   4   4   4   4   4   4   4
#     4   9  17  32  52  77 105 136 176 222 268 318
#     4  10  19  32  51  78 109 142 179 224 270 315
#     4   8  15  29  52  76 100 133 173 216 261 309
#     4  10  20  33  52  80 110 138 177 227 269 313
#     4  10  19  33  55  81 107 138 177 225 275 324
#     4  10  22  37  54  77 111 150 186 219 264 324
#     4  10  20  36  55  77 107 145 182 219 265 323
#     4  11  21  34  55  82 111 142 180 226 270 316
#
# _framework density 18.064109999999999
#
# number of rings (size 3 to 8) (size 9 to 14) (size 15 to 20)
#    0.000    2.250    2.500    1.875    0.000    2.000 
#    0.000    1.250    0.000    1.500    0.000    0.000 
#    0.000    0.000    0.000    0.000    0.000    0.000 
#
# Total GULP energy -198381.704669 kJ/mol
# GULP energy per Si atom -12398.856542 kJ/mol
# Density = 1.802299 g / cm^3
# Si number density = 18.064110 Si / 1000 Ang^3
#
#
#
# Elastic Constant Matrix: (Units=GPa)
#
#
# Indices 1 2 3 4 5 6 
#
# 1 125.8372 39.8284 36.5876 -0.0065 -10.6921 0.0006
# 2 39.8284 63.3283 28.9396 -0.0001 -0.5128 0.0015
# 3 36.5876 28.9396 75.5651 -0.0181 -6.9517 0.0021
# 4 -0.0065 -0.0001 -0.0181 18.7798 -0.0013 3.0718
# 5 -10.6921 -0.5128 -6.9517 -0.0013 26.1050 0.0000
# 6 0.0006 0.0015 0.0021 3.0718 0.0000 32.2145
#
#
#
# Elastic Compliance Matrix: (Units=1/GPa)
#
#
# Indices 1 2 3 4 5 6 
#
# 1 0.010800 -0.005484 -0.002801 0.000001 0.003570 0.000000
# 2 -0.005484 0.021991 -0.006083 -0.000008 -0.003434 0.000000
# 3 -0.002801 -0.006083 0.017225 0.000016 0.003320 -0.000002
# 4 0.000001 -0.000008 0.000016 0.054092 0.000007 -0.005158
# 5 0.003570 -0.003434 0.003320 0.000007 0.040586 -0.000001
# 6 0.000000 0.000000 -0.000002 -0.005158 -0.000001 0.031534
#
#
# Mechanical properties :
#
#
# Convention : Reuss Voigt Hill
#
# Bulk Modulus (GPa) = 46.98887 52.82686 49.90787
# Shear Modulus (GPa) = 23.57859 26.04486 24.81172
#
# Velocity S-wave (km/s) = 3.61678 3.80123 3.71015
# Velocity P-wave (km/s) = 6.59622 6.96946 6.78541
#
# Compressibility (1/GPa) = 0.02128163
#
# Stress axis : x y z
#
# Youngs Moduli (GPa) = 92.59246 45.47226 58.05588
#
# Poissons Ratio (x) = 0.24935 0.16260
# Poissons Ratio (y) = 0.50774 0.35315
# Poissons Ratio (z) = 0.25933 0.27661
#
# Static dielectric constant tensor:
#      x y z
#    x 3.590080 0.000000 -0.274250 
#    y 0.000000 3.199540 0.000010 
#    z -0.274250 0.000010 3.242800 
# 
# 
# High freq. dielectric constant tensor:
#      x y z
#    x 1.715800 0.000000 -0.014490 
#    y 0.000000 1.690430 0.000000 
#    z -0.014490 0.000000 1.667660 
# 
# From -- ./inp_files/16863.got.cif
#   From: 2010.03.12/outbox.cif.g09.slc.cpg/sg8_9_cif.got.tgz:16863.got - 2010.03.31 10:45:26.
