data_PCOD8052494
_publ_section_title
;
Structure prediction by ZEFSAII (Michael W. Deem and Ramdas Pophale) SiO2 
 PCOD8052494
Probable space group: P M
;
_chemical_formula_sum "Si O2"
_cell_formula_units_Z 16
_cell_length_a 12.274184
_cell_length_b 9.047403
_cell_length_c 12.367115
_cell_angle_alpha 90.000000
_cell_angle_beta 36.130125
_cell_angle_gamma 90.000000
_cell_volume 809.763099
_symmetry_space_group_name_H-M "P M"
_symmetry_group_IT_number 6
_symmetry_cell_setting 'monoclinic'
loop_
_space_group_symop_operation_xyz
x,y,z
x,-y,z
loop_
_atom_site_type_symbol
_atom_site_label
_atom_site_fract_x
_atom_site_fract_y
_atom_site_fract_z
Si Si1 0.276950 0.174371 0.599370
Si Si2 0.039745 0.173903 0.334464
Si Si3 0.906945 0.330318 0.843983
Si Si4 0.370077 0.673628 0.977335
Si Si5 0.780976 0.329977 0.705734
Si Si6 0.776513 0.167468 0.353909
Si Si7 0.653349 0.325922 0.246436
Si Si8 0.371587 0.833347 0.761439
O O1 0.454253 0.248114 0.400965
O O2 0.270603 0.214697 0.731802
O O3 0.090906 0.232139 0.694154
O O4 0.296674 0.000000 0.567136
O O5 0.932770 0.232756 0.524184
O O6 0.937582 0.218513 0.305076
O O7 0.059662 0.000000 0.330920
O O8 0.240862 0.248363 0.169795
O O9 0.966313 0.500000 0.813720
O O10 0.800314 0.307064 0.817809
O O11 0.767084 0.278727 0.049445
O O12 0.345269 0.500000 0.008363
O O13 0.578157 0.724896 0.834563
O O14 0.309427 0.724119 0.906026
O O15 0.809906 0.500000 0.648960
O O16 0.772477 0.274523 0.254266
O O17 0.589965 0.178521 0.571640
O O18 0.806187 0.000000 0.288467
O O19 0.620942 0.500000 0.278904
O O20 0.314379 0.000000 0.840058
#
# Coordination Sequence:
#
# PCOD8052494 Si02
#       8
#     2   2   2   2   2   2   2   2
#     4  10  22  39  60  89 123 159 199 245 301 356
#     4  11  23  39  61  89 121 158 200 246 302 359
#     4  10  23  42  63  87 118 160 205 250 298 350
#     4  11  23  37  59  90 120 157 201 245 299 361
#     4  10  23  44  63  84 120 160 203 253 299 348
#     4   9  19  36  58  85 122 160 193 243 303 354
#     4  10  21  37  60  90 121 157 200 245 298 358
#     4   9  18  36  58  84 121 159 193 241 300 354
#
# _framework density 19.758865
#
# number of rings (size 3 to 8) (size 9 to 14) (size 15 to 20)
#    0.000    2.000    1.250    2.250    1.750    6.500 
#    0.000    2.500    0.000    0.000    0.000    0.000 
#    0.000    0.000    0.000    0.000    0.000    0.000 
#
# Total GULP energy -198464.940094 kJ/mol
# GULP energy per Si atom -12404.058756 kJ/mol
# Density = 1.971389 g / cm^3
# Si number density = 19.758865 Si / 1000 Ang^3
#
#
#
# Elastic Constant Matrix: (Units=GPa)
#
#
# Indices 1 2 3 4 5 6 
#
# 1 63.2481 29.8489 35.3047 0.0000 4.2282 0.0000
# 2 29.8489 74.1487 49.6028 0.0000 5.8168 0.0000
# 3 35.3047 49.6028 119.9332 0.0000 9.6692 0.0000
# 4 0.0000 0.0000 0.0000 17.5930 0.0000 -1.9631
# 5 4.2282 5.8168 9.6692 0.0000 22.6474 0.0000
# 6 0.0000 0.0000 0.0000 -1.9631 0.0000 29.9513
#
#
#
# Elastic Compliance Matrix: (Units=1/GPa)
#
#
# Indices 1 2 3 4 5 6 
#
# 1 0.020624 -0.005835 -0.003592 0.000000 -0.000818 0.000000
# 2 -0.005835 0.020349 -0.006592 0.000000 -0.001323 0.000000
# 3 -0.003592 -0.006592 0.012356 0.000000 -0.002912 0.000000
# 4 0.000000 0.000000 0.000000 0.057260 0.000000 0.003753
# 5 -0.000818 -0.001323 -0.002912 0.000000 0.045891 0.000000
# 6 0.000000 0.000000 0.000000 0.003753 0.000000 0.033634
#
#
# Mechanical properties :
#
#
# Convention : Reuss Voigt Hill
#
# Bulk Modulus (GPa) = 46.96652 54.09364 50.53008
# Shear Modulus (GPa) = 21.81043 23.54325 22.67684
#
# Velocity S-wave (km/s) = 3.32600 3.45560 3.39142
# Velocity P-wave (km/s) = 6.21057 6.58467 6.40035
#
# Compressibility (1/GPa) = 0.02129176
#
# Stress axis : x y z
#
# Youngs Moduli (GPa) = 48.48656 49.14294 80.93091
#
# Poissons Ratio (x) = 0.28677 0.29068
# Poissons Ratio (y) = 0.28294 0.53346
# Poissons Ratio (z) = 0.17415 0.32393
#
# Static dielectric constant tensor:
#      x y z
#    x 3.552340 0.000000 -0.056740 
#    y 0.000000 3.565850 0.000000 
#    z -0.056740 0.000000 3.565990 
# 
# 
# High freq. dielectric constant tensor:
#      x y z
#    x 1.764580 0.000000 -0.003930 
#    y 0.000000 1.770430 0.000000 
#    z -0.003930 0.000000 1.776450 
# 
# From -- ./inp_files/5042.got.cif
#   From: 2010.03.12/outbox.cif.g09.slc.cpg/sg6_3_cif.got.tgz:5042.got - 2010.03.30 10:24:59.
