data_PCOD8052554
_publ_section_title
;
Structure prediction by ZEFSAII (Michael W. Deem and Ramdas Pophale) SiO2 
 PCOD8052554
Probable space group: P M
;
_chemical_formula_sum "Si O2"
_cell_formula_units_Z 16
_cell_length_a 12.139393
_cell_length_b 8.836256
_cell_length_c 10.012425
_cell_angle_alpha 90.000000
_cell_angle_beta 53.113808
_cell_angle_gamma 90.000000
_cell_volume 859.017210
_symmetry_space_group_name_H-M "P M"
_symmetry_group_IT_number 6
_symmetry_cell_setting 'monoclinic'
loop_
_space_group_symop_operation_xyz
x,y,z
x,-y,z
loop_
_atom_site_type_symbol
_atom_site_label
_atom_site_fract_x
_atom_site_fract_y
_atom_site_fract_z
Si Si1 0.315830 0.676814 0.063190
Si Si2 0.078199 0.824751 0.561010
Si Si3 0.068489 0.823059 0.868597
Si Si4 0.013015 0.322774 0.352073
Si Si5 0.849752 0.322346 0.216333
Si Si6 0.561376 0.178488 0.390235
Si Si7 0.381621 0.177856 0.274181
Si Si8 0.351758 0.321738 0.735726
O O1 0.319436 0.500000 0.085587
O O2 0.159268 0.739463 0.189990
O O3 0.412466 0.752251 0.105852
O O4 0.372777 0.718604 0.876026
O O5 0.021538 0.792925 0.750218
O O6 0.980579 0.745874 0.521690
O O7 0.234233 0.761935 0.434792
O O8 0.077496 0.000000 0.528333
O O9 0.226673 0.774669 0.767218
O O10 0.053339 0.000000 0.916456
O O11 0.976018 0.717972 0.028374
O O12 0.021693 0.500000 0.361460
O O13 0.892892 0.278781 0.335992
O O14 0.816887 0.500000 0.226766
O O15 0.720829 0.221379 0.269309
O O16 0.496930 0.229744 0.295774
O O17 0.490460 0.271222 0.561009
O O18 0.542394 0.000000 0.428200
O O19 0.382683 0.000000 0.258115
O O20 0.323643 0.500000 0.736545
#
# Coordination Sequence:
#
# PCOD8052554 Si02
#       8
#     2   2   2   2   2   2   2   2
#     4   9  18  33  54  83 113 141 182 232 278 328
#     4   9  18  33  54  83 113 141 182 232 278 328
#     4  11  21  36  58  86 116 148 188 236 281 330
#     4   9  18  34  54  80 113 145 182 230 278 329
#     4  11  23  40  58  83 116 151 191 232 282 340
#     4  11  23  40  58  83 116 151 191 232 282 340
#     4   9  18  34  54  80 113 145 182 230 278 329
#     4  11  21  36  58  86 116 148 188 236 281 330
#
# _framework density 18.625934999999998
#
# number of rings (size 3 to 8) (size 9 to 14) (size 15 to 20)
#    0.000    2.000    2.500    1.500    0.000    4.000 
#    0.000    1.250    0.000    0.000    0.000    0.000 
#    0.000    0.000    0.000    0.000    0.000    0.000 
#
# Total GULP energy -198414.930291 kJ/mol
# GULP energy per Si atom -12400.933143 kJ/mol
# Density = 1.858354 g / cm^3
# Si number density = 18.625935 Si / 1000 Ang^3
#
#
#
# Elastic Constant Matrix: (Units=GPa)
#
#
# Indices 1 2 3 4 5 6 
#
# 1 95.5460 34.0529 33.6880 0.0000 23.9435 0.0000
# 2 34.0529 44.5574 27.1931 0.0000 17.8567 0.0000
# 3 33.6880 27.1931 69.2082 0.0000 23.1024 0.0000
# 4 0.0000 0.0000 0.0000 31.5658 0.0000 2.7910
# 5 23.9435 17.8567 23.1024 0.0000 34.3981 0.0000
# 6 0.0000 0.0000 0.0000 2.7910 0.0000 30.7599
#
#
#
# Elastic Compliance Matrix: (Units=1/GPa)
#
#
# Indices 1 2 3 4 5 6 
#
# 1 0.015583 -0.008368 -0.002741 0.000000 -0.004662 0.000000
# 2 -0.008368 0.036768 -0.007665 0.000000 -0.008114 0.000000
# 3 -0.002741 -0.007665 0.021693 0.000000 -0.008683 0.000000
# 4 0.000000 0.000000 0.000000 0.031936 0.000000 -0.002898
# 5 -0.004662 -0.008114 -0.008683 0.000000 0.042360 0.000000
# 6 0.000000 0.000000 0.000000 -0.002898 0.000000 0.032773
#
#
# Mechanical properties :
#
#
# Convention : Reuss Voigt Hill
#
# Bulk Modulus (GPa) = 27.40002 44.35328 35.87665
# Shear Modulus (GPa) = 21.66115 26.96993 24.31554
#
# Velocity S-wave (km/s) = 3.41391 3.80936 3.61704
# Velocity P-wave (km/s) = 5.50294 6.57363 6.06197
#
# Compressibility (1/GPa) = 0.03649632
#
# Stress axis : x y z
#
# Youngs Moduli (GPa) = 64.17066 27.19748 46.09690
#
# Poissons Ratio (x) = 0.22760 0.12636
# Poissons Ratio (y) = 0.53701 0.35332
# Poissons Ratio (z) = 0.17590 0.20846
#
# Static dielectric constant tensor:
#      x y z
#    x 3.407010 0.000000 0.277790 
#    y 0.000000 3.361670 0.000000 
#    z 0.277790 0.000000 3.381000 
# 
# 
# High freq. dielectric constant tensor:
#      x y z
#    x 1.711700 0.000000 0.025830 
#    y 0.000000 1.724050 0.000000 
#    z 0.025830 0.000000 1.715700 
# 
# From -- ./inp_files/3465.got.cif
#   From: 2010.03.12/outbox.cif.g09.slc.cpg/sg6_2_cif.got.tgz:3465.got - 2010.03.30 10:24:59.
