data_PCOD8052988
_publ_section_title
;
Structure prediction by ZEFSAII (Michael W. Deem and Ramdas Pophale) SiO2 
 PCOD8052988
Probable space group: C M
;
_chemical_formula_sum "Si O2"
_cell_formula_units_Z 28
_cell_length_a 17.011091
_cell_length_b 13.080905
_cell_length_c 18.449974
_cell_angle_alpha 90.000000
_cell_angle_beta 22.859017
_cell_angle_gamma 90.000000
_cell_volume 1594.841558
_symmetry_space_group_name_H-M "C M"
_symmetry_group_IT_number 8
_symmetry_cell_setting 'monoclinic'
loop_
_space_group_symop_operation_xyz
x,y,z
x,-y,z
1/2+x,1/2+y,z
1/2+x,1/2-y,z
loop_
_atom_site_type_symbol
_atom_site_label
_atom_site_fract_x
_atom_site_fract_y
_atom_site_fract_z
Si Si1 0.393660 0.694097 0.807970
Si Si2 0.397070 0.717682 0.092664
Si Si3 0.718583 0.883317 0.811661
Si Si4 0.958214 0.717811 0.530233
Si Si5 0.731170 0.116054 0.092381
Si Si6 0.790376 0.616648 0.810560
Si Si7 0.799401 0.616033 0.523194
O O1 0.312566 0.623321 0.811966
O O2 0.372404 0.813635 0.806402
O O3 0.626965 0.669818 0.623217
O O4 0.262926 0.672377 0.989931
O O5 0.352418 0.674906 0.051268
O O6 0.196301 0.725784 0.311775
O O7 0.499014 0.829021 0.997509
O O8 0.553994 0.641130 0.998033
O O9 0.870492 0.828860 0.625895
O O10 0.690804 0.000000 0.811508
O O11 0.922336 0.639584 0.626711
O O12 0.833618 0.677348 0.567809
O O13 0.494139 0.118302 0.307454
O O14 0.812697 0.000000 0.019923
O O15 0.817300 0.500000 0.811031
O O16 0.738844 0.500000 0.594555
#
# Coordination Sequence:
#
# PCOD8052988 Si02
#       7
#     4   4   4   4   4   4   4
#     4  10  20  33  49  73 104 131 162 204 247 302
#     4   9  19  35  55  78 100 127 171 218 253 293
#     4  10  21  34  51  76 105 139 169 199 249 306
#     4   9  19  35  55  78 100 127 171 218 253 293
#     4  10  19  32  53  77  99 127 165 211 258 296
#     4  10  21  35  52  75 103 136 169 205 252 302
#     4  10  19  32  53  77  99 127 165 211 258 296
#
# _framework density 17.556602999999999
#
# number of rings (size 3 to 8) (size 9 to 14) (size 15 to 20)
#    0.000    2.571    0.000    3.857    0.000    6.857 
#    0.000    2.857    0.000    1.714    0.000    0.000 
#    0.000    0.000    0.000    0.000    0.000    0.000 
#
# Total GULP energy -173598.724912 kJ/mol
# GULP energy per Si atom -12399.908922 kJ/mol
# Density = 1.751664 g / cm^3
# Si number density = 17.556603 Si / 1000 Ang^3
#
#
#
# Elastic Constant Matrix: (Units=GPa)
#
#
# Indices 1 2 3 4 5 6 
#
# 1 112.3706 57.7612 54.6672 -0.0617 -9.2720 0.0282
# 2 57.7612 158.8126 49.9486 0.0268 -9.0705 -0.0062
# 3 54.6672 49.9486 118.4506 0.0473 -16.5121 -0.0220
# 4 -0.0617 0.0268 0.0473 9.9346 -0.1074 0.9756
# 5 -9.2720 -9.0705 -16.5121 -0.1074 11.5510 0.0495
# 6 0.0282 -0.0062 -0.0220 0.9756 0.0495 16.3613
#
#
#
# Elastic Compliance Matrix: (Units=1/GPa)
#
#
# Indices 1 2 3 4 5 6 
#
# 1 0.012778 -0.003196 -0.004333 0.000129 0.001555 -0.000041
# 2 -0.003196 0.008084 -0.001757 -0.000020 0.001271 0.000004
# 3 -0.004333 -0.001757 0.013120 0.000068 0.013898 -0.000022
# 4 0.000129 -0.000020 0.000068 0.101265 0.001153 -0.006042
# 5 0.001555 0.001271 0.013898 0.001153 0.108699 -0.000381
# 6 -0.000041 0.000004 -0.000022 -0.006042 -0.000381 0.061481
#
#
# Mechanical properties :
#
#
# Convention : Reuss Voigt Hill
#
# Bulk Modulus (GPa) = 64.88739 79.37643 72.13191
# Shear Modulus (GPa) = 15.19127 22.71984 18.95556
#
# Velocity S-wave (km/s) = 2.94475 3.60125 3.28942
# Velocity P-wave (km/s) = 6.97146 7.91213 7.45665
#
# Compressibility (1/GPa) = 0.01541131
#
# Stress axis : x y z
#
# Youngs Moduli (GPa) = 78.25778 123.69708 76.21755
#
# Poissons Ratio (x) = 0.39533 0.33025
# Poissons Ratio (y) = 0.25011 0.13390
# Poissons Ratio (z) = 0.33910 0.21731
#
# Static dielectric constant tensor:
#      x y z
#    x 3.207180 -0.000020 -0.089650 
#    y -0.000020 3.218810 0.000080 
#    z -0.089650 0.000080 3.595910 
# 
# 
# High freq. dielectric constant tensor:
#      x y z
#    x 1.675990 0.000000 -0.002640 
#    y 0.000000 1.672120 0.000000 
#    z -0.002640 0.000000 1.691020 
# 
# From -- ./inp_files/26912.got.cif
#   From: 2010.03.12/outbox.cif.g09.slc.cpg/sg8_14_cif.got.tgz:26912.got - 2010.03.31 10:45:26.
