data_PCOD8052245
_publ_section_title
;
Structure prediction by ZEFSAII (Michael W. Deem and Ramdas Pophale) SiO2 
 PCOD8052245
Probable space group: P M
;
_chemical_formula_sum "Si O2"
_cell_formula_units_Z 14
_cell_length_a 14.249561
_cell_length_b 10.398954
_cell_length_c 14.980325
_cell_angle_alpha 90.000000
_cell_angle_beta 159.445942
_cell_angle_gamma 90.000000
_cell_volume 779.349089
_symmetry_space_group_name_H-M "P M"
_symmetry_group_IT_number 6
_symmetry_cell_setting 'monoclinic'
loop_
_space_group_symop_operation_xyz
x,y,z
x,-y,z
loop_
_atom_site_type_symbol
_atom_site_label
_atom_site_fract_x
_atom_site_fract_y
_atom_site_fract_z
Si Si1 0.321690 0.153509 0.005310
Si Si2 0.300173 0.253861 0.464300
Si Si3 0.731479 0.848704 0.515986
Si Si4 0.686075 0.854253 0.677797
Si Si5 0.108000 0.849668 0.477681
Si Si6 0.852325 0.643058 0.946396
Si Si7 0.519319 0.153525 0.989224
O O1 0.517598 0.210086 0.256186
O O2 0.424263 0.202538 0.001077
O O3 0.319129 0.000000 0.006687
O O4 0.025190 0.209102 0.758285
O O5 0.404815 0.155019 0.480732
O O6 0.203241 0.174241 0.462409
O O7 0.547615 0.346390 0.712101
O O8 0.054938 0.336165 0.208175
O O9 0.638848 0.814288 0.533446
O O10 0.743728 0.000000 0.512171
O O11 0.895452 0.752035 0.907912
O O12 0.800553 0.000000 0.786846
O O13 0.814388 0.789854 0.232573
O O14 0.091411 0.000000 0.479857
O O15 0.317131 0.789999 0.734717
O O16 0.897228 0.500000 0.946787
O O17 0.523114 0.000000 0.988797
#
# Coordination Sequence:
#
# PCOD8052245 Si02
#       7
#     2   2   2   2   2   2   2
#     4   9  16  27  41  62  95 138 170 202 249 306
#     4  10  21  34  53  73 105 138 171 217 257 307
#     4   9  17  27  43  66  97 131 171 205 249 307
#     4   9  21  34  53  80 109 141 174 215 261 311
#     4  10  18  29  45  71 101 135 172 208 255 310
#     4  10  22  38  55  73 105 145 179 217 254 305
#     4   9  17  27  42  63  98 138 173 206 251 308
#
# _framework density 17.963709000000001
#
# number of rings (size 3 to 8) (size 9 to 14) (size 15 to 20)
#    0.857    1.714    0.000    2.571    2.000    4.571 
#    0.000    0.000    0.000    0.000    0.000    0.000 
#    0.000   22.857    0.000    0.000    0.000    0.000 
#
# Total GULP energy -173492.630756 kJ/mol
# GULP energy per Si atom -12392.330768 kJ/mol
# Density = 1.792282 g / cm^3
# Si number density = 17.963709 Si / 1000 Ang^3
#
#
#
# Elastic Constant Matrix: (Units=GPa)
#
#
# Indices 1 2 3 4 5 6 
#
# 1 153.7428 9.2432 67.5780 0.0000 -3.3820 0.0000
# 2 9.2432 42.9378 19.7863 0.0000 -5.3387 0.0000
# 3 67.5780 19.7863 167.8129 0.0000 -4.5407 0.0000
# 4 0.0000 0.0000 0.0000 8.0245 0.0000 -0.4564
# 5 -3.3820 -5.3387 -4.5407 0.0000 25.4722 0.0000
# 6 0.0000 0.0000 0.0000 -0.4564 0.0000 2.0729
#
#
#
# Elastic Compliance Matrix: (Units=1/GPa)
#
#
# Indices 1 2 3 4 5 6 
#
# 1 0.007911 -0.000195 -0.003150 0.000000 0.000448 0.000000
# 2 -0.000195 0.025197 -0.002763 0.000000 0.004762 0.000000
# 3 -0.003150 -0.002763 0.007563 0.000000 0.000351 0.000000
# 4 0.000000 0.000000 0.000000 0.126199 0.000000 0.027785
# 5 0.000448 0.004762 0.000351 0.000000 0.040379 0.000000
# 6 0.000000 0.000000 0.000000 0.027785 0.000000 0.488527
#
#
# Mechanical properties :
#
#
# Convention : Reuss Voigt Hill
#
# Bulk Modulus (GPa) = 35.14656 61.96761 48.55708
# Shear Modulus (GPa) = 6.96885 24.97299 15.97092
#
# Velocity S-wave (km/s) = 1.97176 3.73257 2.98496
# Velocity P-wave (km/s) = 4.97911 7.29020 6.24254
#
# Compressibility (1/GPa) = 0.02845229
#
# Stress axis : x y z
#
# Youngs Moduli (GPa) = 126.40978 39.68708 132.22227
#
# Poissons Ratio (x) = 0.00776 0.41657
# Poissons Ratio (y) = 0.02471 0.36537
# Poissons Ratio (z) = 0.39825 0.10967
#
# Static dielectric constant tensor:
#      x y z
#    x 3.281460 0.000000 -0.001910 
#    y 0.000000 2.671100 0.000000 
#    z -0.001910 0.000000 3.598230 
# 
# 
# High freq. dielectric constant tensor:
#      x y z
#    x 1.697760 0.000000 -0.002170 
#    y 0.000000 1.618680 0.000000 
#    z -0.002170 0.000000 1.712520 
# 
# From -- ./inp_files/1588.got.cif
#   From: 2010.03.12/outbox.cif.g09.slc.cpg/sg6_1_cif.got.tgz:1588.got - 2010.03.30 10:24:59.
