data_PCOD8052965
_publ_section_title
;
Structure prediction by ZEFSAII (Michael W. Deem and Ramdas Pophale) SiO2 
 PCOD8052965
Probable space group: C M
;
_chemical_formula_sum "Si O2"
_cell_formula_units_Z 32
_cell_length_a 12.655704
_cell_length_b 23.167729
_cell_length_c 6.738095
_cell_angle_alpha 90.000000
_cell_angle_beta 87.922662
_cell_angle_gamma 90.000000
_cell_volume 1974.337501
_symmetry_space_group_name_H-M "C M"
_symmetry_group_IT_number 8
_symmetry_cell_setting 'monoclinic'
loop_
_space_group_symop_operation_xyz
x,y,z
x,-y,z
1/2+x,1/2+y,z
1/2+x,1/2-y,z
loop_
_atom_site_type_symbol
_atom_site_label
_atom_site_fract_x
_atom_site_fract_y
_atom_site_fract_z
Si Si1 0.535540 0.883895 0.228530
Si Si2 0.647418 0.221752 0.423923
Si Si3 0.193746 0.772450 0.018811
Si Si4 0.470476 0.064576 0.629919
Si Si5 0.789105 0.826127 0.748732
Si Si6 0.386164 0.155018 0.899529
Si Si7 0.172323 0.433634 0.886451
Si Si8 0.505099 0.268978 0.766337
O O1 0.573051 0.824754 0.324367
O O2 0.489752 0.926735 0.396368
O O3 0.438325 0.871086 0.091274
O O4 0.631422 0.915400 0.107228
O O5 0.697333 0.263613 0.254868
O O6 0.741070 0.189973 0.537274
O O7 0.578533 0.263280 0.568571
O O8 0.232702 0.713043 0.917478
O O9 0.267682 0.825995 0.956915
O O10 0.076029 0.787559 0.950322
O O11 0.381807 0.107339 0.724921
O O12 0.579746 0.076815 0.735400
O O13 0.430049 0.000000 0.669969
O O14 0.768472 0.892756 0.808938
O O15 0.915179 0.816882 0.735971
O O16 0.454172 0.207540 0.812674
O O17 0.211115 0.500000 0.887368
#
# Coordination Sequence:
#
# PCOD8052965 Si02
#       8
#     4   4   4   4   4   4   4   4
#     4  11  17  30  48  74 102 127 158 191 243 291
#     4  11  18  30  49  72 101 129 157 195 244 288
#     4  10  20  33  49  72 101 131 162 199 243 289
#     4  10  19  32  50  72 102 131 159 198 243 290
#     4  10  20  32  49  73  99 131 163 199 239 296
#     4  10  20  31  50  72 100 132 162 198 238 292
#     4  10  19  32  48  73 101 129 161 198 241 292
#     4  10  20  32  48  72 101 130 165 196 241 292
#
# _framework density 16.207968999999999
#
# number of rings (size 3 to 8) (size 9 to 14) (size 15 to 20)
#    0.000    1.750    5.000    1.875    1.750    1.500 
#    0.000    0.000    0.000    0.750    0.000    0.875 
#    0.000    0.000    0.000    0.000    0.000    0.000 
#
# Total GULP energy -198430.048815 kJ/mol
# GULP energy per Si atom -12401.878051 kJ/mol
# Density = 1.617108 g / cm^3
# Si number density = 16.207969 Si / 1000 Ang^3
#
#
#
# Elastic Constant Matrix: (Units=GPa)
#
#
# Indices 1 2 3 4 5 6 
#
# 1 77.3947 46.1514 29.6489 0.0000 -2.3278 0.0000
# 2 46.1514 102.0962 37.2249 0.0000 -8.8729 0.0000
# 3 29.6489 37.2249 106.3946 0.0000 -6.7407 0.0000
# 4 0.0000 0.0000 0.0000 18.0995 0.0000 -2.9964
# 5 -2.3278 -8.8729 -6.7407 0.0000 16.5448 0.0000
# 6 0.0000 0.0000 0.0000 -2.9964 0.0000 23.6559
#
#
#
# Elastic Compliance Matrix: (Units=1/GPa)
#
#
# Indices 1 2 3 4 5 6 
#
# 1 0.018362 -0.007562 -0.002632 0.000000 -0.002544 0.000000
# 2 -0.007562 0.014683 -0.002667 0.000000 0.005724 0.000000
# 3 -0.002632 -0.002667 0.011242 0.000000 0.002779 0.000000
# 4 0.000000 0.000000 0.000000 0.056434 0.000000 0.007148
# 5 -0.002544 0.005724 0.002779 0.000000 0.064286 0.000000
# 6 0.000000 0.000000 0.000000 0.007148 0.000000 0.043178
#
#
# Mechanical properties :
#
#
# Convention : Reuss Voigt Hill
#
# Bulk Modulus (GPa) = 53.86851 56.88177 55.37514
# Shear Modulus (GPa) = 20.82514 23.18407 22.00460
#
# Velocity S-wave (km/s) = 3.58840 3.78618 3.68862
# Velocity P-wave (km/s) = 7.10470 7.36781 7.23745
#
# Compressibility (1/GPa) = 0.01856372
#
# Stress axis : x y z
#
# Youngs Moduli (GPa) = 54.46103 68.10719 88.95315
#
# Poissons Ratio (x) = 0.51499 0.23416
# Poissons Ratio (y) = 0.41181 0.23727
# Poissons Ratio (z) = 0.14337 0.18167
#
# Static dielectric constant tensor:
#      x y z
#    x 2.950210 0.000000 -0.006000 
#    y 0.000000 2.978430 0.000000 
#    z -0.006000 0.000000 3.301420 
# 
# 
# High freq. dielectric constant tensor:
#      x y z
#    x 1.594870 0.000000 -0.000960 
#    y 0.000000 1.605440 0.000000 
#    z -0.000960 0.000000 1.640260 
# 
# From -- ./inp_files/3114.got.cif
#   From: 2010.03.12/outbox.cif.g09.slc.cpg/sg8_2_cif.got.tgz:3114.got - 2010.03.31 10:45:26.
