data_PCOD8052526
_publ_section_title
;
Structure prediction by ZEFSAII (Michael W. Deem and Ramdas Pophale) SiO2 
 PCOD8052526
Probable space group: P M
;
_chemical_formula_sum "Si O2"
_cell_formula_units_Z 16
_cell_length_a 7.323753
_cell_length_b 9.027783
_cell_length_c 18.854189
_cell_angle_alpha 90.000000
_cell_angle_beta 140.259758
_cell_angle_gamma 90.000000
_cell_volume 796.953222
_symmetry_space_group_name_H-M "P M"
_symmetry_group_IT_number 6
_symmetry_cell_setting 'monoclinic'
loop_
_space_group_symop_operation_xyz
x,y,z
x,-y,z
loop_
_atom_site_type_symbol
_atom_site_label
_atom_site_fract_x
_atom_site_fract_y
_atom_site_fract_z
Si Si1 0.772860 0.325984 0.602110
Si Si2 0.421719 0.673805 0.763778
Si Si3 0.425161 0.176214 0.620042
Si Si4 0.454819 0.173764 0.181953
Si Si5 0.277729 0.337001 0.360352
Si Si6 0.802449 0.828807 0.151224
Si Si7 0.925722 0.666334 0.399470
Si Si8 0.793014 0.827942 0.990165
O O1 0.725667 0.500000 0.604626
O O2 0.660527 0.231913 0.634745
O O3 0.595934 0.282704 0.477518
O O4 0.099076 0.284245 0.687352
O O5 0.455628 0.500000 0.758723
O O6 0.523109 0.766283 0.726094
O O7 0.620093 0.720196 0.887986
O O8 0.109498 0.240720 0.510788
O O9 0.414631 0.000000 0.615343
O O10 0.577644 0.229418 0.142459
O O11 0.617453 0.258157 0.294485
O O12 0.506034 0.000000 0.208207
O O13 0.124455 0.214678 0.084041
O O14 0.292446 0.500000 0.331478
O O15 0.121634 0.236205 0.255961
O O16 0.095494 0.335901 0.377405
O O17 0.852524 0.000000 0.176265
O O18 0.685276 0.793582 0.037848
O O19 0.880497 0.500000 0.415769
O O20 0.743158 0.000000 0.955147
#
# Coordination Sequence:
#
# PCOD8052526 Si02
#       8
#     2   2   2   2   2   2   2   2
#     4   9  20  39  60  84 115 149 185 232 286 337
#     4  11  24  41  59  81 112 150 195 242 284 335
#     4  11  22  37  60  87 116 150 187 232 286 342
#     4   9  18  34  55  79 109 144 180 224 280 334
#     4   8  15  30  53  80 108 136 171 217 271 330
#     4   9  18  33  53  76 105 139 173 217 273 327
#     4   9  17  32  55  83 114 145 181 226 276 334
#     4  10  22  38  53  76 109 143 188 238 278 327
#
# _framework density 20.076460999999998
#
# number of rings (size 3 to 8) (size 9 to 14) (size 15 to 20)
#    0.000    2.500    0.000    2.625    0.000    7.000 
#    0.000    3.750    0.000    0.000    0.000    0.000 
#    0.000    0.000    0.000    0.000    0.000    0.000 
#
# Total GULP energy -198387.205178 kJ/mol
# GULP energy per Si atom -12399.200324 kJ/mol
# Density = 2.003077 g / cm^3
# Si number density = 20.076461 Si / 1000 Ang^3
#
#
#
# Elastic Constant Matrix: (Units=GPa)
#
#
# Indices 1 2 3 4 5 6 
#
# 1 32.2405 19.6189 2.3905 0.0000 2.7808 0.0000
# 2 19.6189 85.0951 31.3521 0.0000 -3.1847 0.0000
# 3 2.3905 31.3521 78.5971 0.0000 1.1886 0.0000
# 4 0.0000 0.0000 0.0000 40.6225 0.0000 -2.4520
# 5 2.7808 -3.1847 1.1886 0.0000 27.5724 0.0000
# 6 0.0000 0.0000 0.0000 -2.4520 0.0000 18.1518
#
#
#
# Elastic Compliance Matrix: (Units=1/GPa)
#
#
# Indices 1 2 3 4 5 6 
#
# 1 0.037213 -0.009822 0.002862 0.000000 -0.005011 0.000000
# 2 -0.009822 0.016461 -0.006315 0.000000 0.003164 0.000000
# 3 0.002862 -0.006315 0.015181 0.000000 -0.001672 0.000000
# 4 0.000000 0.000000 0.000000 0.024819 0.000000 0.003353
# 5 -0.005011 0.003164 -0.001672 0.000000 0.037211 0.000000
# 6 0.000000 0.000000 0.000000 0.003353 0.000000 0.055544
#
#
# Mechanical properties :
#
#
# Convention : Reuss Voigt Hill
#
# Bulk Modulus (GPa) = 23.63803 33.62841 28.63322
# Shear Modulus (GPa) = 22.01853 26.77409 24.39631
#
# Velocity S-wave (km/s) = 3.31529 3.65582 3.48971
# Velocity P-wave (km/s) = 5.14339 5.88273 5.52544
#
# Compressibility (1/GPa) = 0.04230471
#
# Stress axis : x y z
#
# Youngs Moduli (GPa) = 26.87201 60.74897 65.87364
#
# Poissons Ratio (x) = 0.59665 -0.18851
# Poissons Ratio (y) = 0.26392 0.41602
# Poissons Ratio (z) = -0.07690 0.38366
#
# Static dielectric constant tensor:
#      x y z
#    x 3.755750 0.000000 0.001360 
#    y 0.000000 3.634880 0.000000 
#    z 0.001360 0.000000 3.706080 
# 
# 
# High freq. dielectric constant tensor:
#      x y z
#    x 1.782040 0.000000 -0.001820 
#    y 0.000000 1.776830 0.000000 
#    z -0.001820 0.000000 1.782220 
# 
# From -- ./inp_files/5666.got.cif
#   From: 2010.03.12/outbox.cif.g09.slc.cpg/sg6_3_cif.got.tgz:5666.got - 2010.03.30 10:24:59.
