data_PCOD8052266
_publ_section_title
;
Structure prediction by ZEFSAII (Michael W. Deem and Ramdas Pophale) SiO2 
 PCOD8052266
Probable space group: P M
;
_chemical_formula_sum "Si O2"
_cell_formula_units_Z 16
_cell_length_a 14.187640
_cell_length_b 8.931086
_cell_length_c 19.064545
_cell_angle_alpha 90.000000
_cell_angle_beta 19.221497
_cell_angle_gamma 90.000000
_cell_volume 795.295155
_symmetry_space_group_name_H-M "P M"
_symmetry_group_IT_number 6
_symmetry_cell_setting 'monoclinic'
loop_
_space_group_symop_operation_xyz
x,y,z
x,-y,z
loop_
_atom_site_type_symbol
_atom_site_label
_atom_site_fract_x
_atom_site_fract_y
_atom_site_fract_z
Si Si1 0.188910 0.674270 0.391860
Si Si2 0.184783 0.674975 0.761289
Si Si3 0.189478 0.830095 0.536570
Si Si4 0.585633 0.175180 0.581126
Si Si5 0.078910 0.830541 0.124316
Si Si6 0.631031 0.325625 0.696829
Si Si7 0.587370 0.830729 0.374941
Si Si8 0.759377 0.174450 0.964481
O O1 0.255864 0.500000 0.339574
O O2 0.159438 0.717798 0.493777
O O3 0.896711 0.717510 0.558747
O O4 0.442475 0.762286 0.174724
O O5 0.137712 0.500000 0.805174
O O6 0.297558 0.745625 0.754876
O O7 0.420442 0.706894 0.536453
O O8 0.887560 0.748029 0.944274
O O9 0.504389 0.808866 0.351578
O O10 0.946988 0.790294 0.764043
O O11 0.153618 0.000000 0.534560
O O12 0.659641 0.232971 0.605810
O O13 0.855630 0.213551 0.341852
O O14 0.525086 0.000000 0.626341
O O15 0.923942 0.814678 0.156447
O O16 0.189457 0.000000 0.057017
O O17 0.345747 0.719162 0.939856
O O18 0.622001 0.500000 0.685100
O O19 0.485891 0.000000 0.469492
O O20 0.740854 0.000000 0.993076
#
# Coordination Sequence:
#
# PCOD8052266 Si02
#       8
#     2   2   2   2   2   2   2   2
#     4  11  25  41  56  80 115 153 195 242 289 339
#     4  10  18  31  56  89 121 149 181 226 284 347
#     4   9  19  37  61  86 113 147 186 231 285 342
#     4  10  21  39  62  86 115 151 191 236 283 336
#     4   9  19  37  61  86 113 147 186 231 285 342
#     4  11  25  41  56  80 115 153 195 242 289 339
#     4   8  16  33  56  85 117 147 183 228 280 339
#     4  10  21  39  62  86 115 151 191 236 283 336
#
# _framework density 20.118317000000001
#
# number of rings (size 3 to 8) (size 9 to 14) (size 15 to 20)
#    0.000    2.250    0.000    4.125    0.000    9.000 
#    0.000    8.750    0.000    0.000    0.000    0.000 
#    0.000    0.000    0.000    0.000    0.000    0.000 
#
# Total GULP energy -198381.482640 kJ/mol
# GULP energy per Si atom -12398.842665 kJ/mol
# Density = 2.007253 g / cm^3
# Si number density = 20.118317 Si / 1000 Ang^3
#
#
#
# Elastic Constant Matrix: (Units=GPa)
#
#
# Indices 1 2 3 4 5 6 
#
# 1 59.1844 14.2329 -9.9827 0.0000 -5.9896 0.0000
# 2 14.2329 83.1378 10.7979 0.0000 -8.7758 0.0000
# 3 -9.9827 10.7979 45.9479 0.0000 -12.7537 0.0000
# 4 0.0000 0.0000 0.0000 32.8200 0.0000 -3.3764
# 5 -5.9896 -8.7758 -12.7537 0.0000 29.8309 0.0000
# 6 0.0000 0.0000 0.0000 -3.3764 0.0000 32.8243
#
#
#
# Elastic Compliance Matrix: (Units=1/GPa)
#
#
# Indices 1 2 3 4 5 6 
#
# 1 0.019459 -0.003594 0.006653 0.000000 0.005694 0.000000
# 2 -0.003594 0.013269 -0.003422 0.000000 0.001719 0.000000
# 3 0.006653 -0.003422 0.027350 0.000000 0.012022 0.000000
# 4 0.000000 0.000000 0.000000 0.030795 0.000000 0.003168
# 5 0.005694 0.001719 0.012022 0.000000 0.040311 0.000000
# 6 0.000000 0.000000 0.000000 0.003168 0.000000 0.030791
#
#
# Mechanical properties :
#
#
# Convention : Reuss Voigt Hill
#
# Bulk Modulus (GPa) = 16.84871 24.26294 20.55582
# Shear Modulus (GPa) = 27.39912 30.64317 29.02114
#
# Velocity S-wave (km/s) = 3.69440 3.90699 3.80218
# Velocity P-wave (km/s) = 5.15665 5.69553 5.43278
#
# Compressibility (1/GPa) = 0.05935172
#
# Stress axis : x y z
#
# Youngs Moduli (GPa) = 51.38974 75.36098 36.56251
#
# Poissons Ratio (x) = 0.27087 -0.24325
# Poissons Ratio (y) = 0.18471 0.12512
# Poissons Ratio (z) = -0.34189 0.25790
#
# Static dielectric constant tensor:
#      x y z
#    x 3.658720 0.000000 -0.223250 
#    y 0.000000 3.559420 0.000000 
#    z -0.223250 0.000000 3.577950 
# 
# 
# High freq. dielectric constant tensor:
#      x y z
#    x 1.782560 0.000000 -0.010790 
#    y 0.000000 1.785820 0.000000 
#    z -0.010790 0.000000 1.777940 
# 
# From -- ./inp_files/5939.got.cif
#   From: 2010.03.12/outbox.cif.g09.slc.cpg/sg6_3_cif.got.tgz:5939.got - 2010.03.30 10:24:59.
