data_PCOD8052074
_publ_section_title
;
Structure prediction by ZEFSAII (Michael W. Deem and Ramdas Pophale) SiO2 
 PCOD8052074
Probable space group: C 2
;
_chemical_formula_sum "Si O2"
_cell_formula_units_Z 24
_cell_length_a 14.409406
_cell_length_b 5.587527
_cell_length_c 14.460873
_cell_angle_alpha 90.000000
_cell_angle_beta 127.034326
_cell_angle_gamma 90.000000
_cell_volume 929.421372
_symmetry_space_group_name_H-M "C 2"
_symmetry_group_IT_number 5
_symmetry_cell_setting 'monoclinic'
loop_
_space_group_symop_operation_xyz
x,y,z
-x,y,-z
1/2+x,1/2+y,z
1/2-x,1/2+y,-z
loop_
_atom_site_type_symbol
_atom_site_label
_atom_site_fract_x
_atom_site_fract_y
_atom_site_fract_z
Si Si1 0.500000 0.360940 0.500000
Si Si2 0.500000 0.482301 0.000000
Si Si3 0.500142 0.978193 0.348743
Si Si4 0.698629 0.840461 0.088141
Si Si5 0.198921 0.182512 0.705949
Si Si6 0.283816 0.756934 0.476619
Si Si7 0.427134 0.160937 0.124772
O O1 0.539431 0.194129 0.438344
O O2 0.612224 0.502693 0.601276
O O3 0.621300 0.627370 0.085272
O O4 0.488985 0.332195 0.087868
O O5 0.520990 0.064973 0.255525
O O6 0.365706 0.894678 0.277073
O O7 0.575140 0.744951 0.424818
O O8 0.825868 0.783299 0.125391
O O9 0.711653 0.047609 0.173133
O O10 0.623628 0.932752 0.957708
O O11 0.262392 0.302470 0.655884
O O12 0.238441 0.502737 0.482200
#
# Coordination Sequence:
#
# PCOD8052074 Si02
#       7
#     2   2   4   4   4   4   4
#     4  12  20  48  80 112 156 214 274 332 414 518
#     4  12  30  56  80 120 168 212 294 352 436 506
#     4  12  26  49  82 111 159 217 277 336 423 512
#     4  12  27  53  84 117 159 218 281 355 431 506
#     4  12  26  49  82 111 159 217 277 336 423 512
#     4  12  28  50  77 125 176 214 276 348 422 506
#     4  12  27  53  84 117 159 218 281 355 431 506
#
# _framework density 25.822517999999999
#
# number of rings (size 3 to 8) (size 9 to 14) (size 15 to 20)
#    0.000    0.000    6.667    2.500    0.000    2.667 
#   12.000    0.000    0.000    0.000    0.000    0.000 
#    0.000    0.000    0.000    0.000    0.000    0.000 
#
# Total GULP energy -148749.527543 kJ/mol
# GULP energy per Si atom -12395.793962 kJ/mol
# Density = 2.576374 g / cm^3
# Si number density = 25.822518 Si / 1000 Ang^3
#
#
#
# Elastic Constant Matrix: (Units=GPa)
#
#
# Indices 1 2 3 4 5 6 
#
# 1 102.0787 21.7333 25.9316 0.0000 -29.7013 0.0000
# 2 21.7333 86.5174 25.0825 0.0000 -23.0799 0.0000
# 3 25.9316 25.0825 142.2825 0.0000 -42.3034 0.0000
# 4 0.0000 0.0000 0.0000 42.2247 0.0000 7.6852
# 5 -29.7013 -23.0799 -42.3034 0.0000 40.9319 0.0000
# 6 0.0000 0.0000 0.0000 7.6852 0.0000 47.7396
#
#
#
# Elastic Compliance Matrix: (Units=1/GPa)
#
#
# Indices 1 2 3 4 5 6 
#
# 1 0.012508 -0.000859 0.000615 0.000000 0.009228 0.000000
# 2 -0.000859 0.013667 -0.000212 0.000000 0.006864 0.000000
# 3 0.000615 -0.000212 0.010178 0.000000 0.010846 0.000000
# 4 0.000000 0.000000 0.000000 0.024398 0.000000 -0.003928
# 5 0.009228 0.006864 0.010846 0.000000 0.046207 0.000000
# 6 0.000000 0.000000 0.000000 -0.003928 0.000000 0.021579
#
#
# Mechanical properties :
#
#
# Convention : Reuss Voigt Hill
#
# Bulk Modulus (GPa) = 28.21499 52.93038 40.57269
# Shear Modulus (GPa) = 35.39543 43.38798 39.39170
#
# Velocity S-wave (km/s) = 3.70634 4.10352 3.90998
# Velocity P-wave (km/s) = 5.40982 6.55699 6.01083
#
# Compressibility (1/GPa) = 0.03544215
#
# Stress axis : x y z
#
# Youngs Moduli (GPa) = 79.94994 73.17118 98.24797
#
# Poissons Ratio (x) = 0.06283 -0.06046
# Poissons Ratio (y) = 0.06865 0.02082
# Poissons Ratio (z) = -0.04920 0.01551
#
# Static dielectric constant tensor:
#      x y z
#    x 5.441850 0.000000 -0.306950 
#    y 0.000000 4.682540 0.000000 
#    z -0.306950 0.000000 4.796410 
# 
# 
# High freq. dielectric constant tensor:
#      x y z
#    x 2.044970 0.000000 -0.008650 
#    y 0.000000 2.036390 0.000000 
#    z -0.008650 0.000000 2.047240 
# 
# From -- ./inp_files/53920.got.cif
#   From: 2010.03.12/outbox.cif.g09.slc.cpg/sg5_27_cif.got.tgz:53920.got - 2010.03.31 09:47:26.
