data_PCOD8052966
_publ_section_title
;
Structure prediction by ZEFSAII (Michael W. Deem and Ramdas Pophale) SiO2 
 PCOD8052966
Probable space group: C M
;
_chemical_formula_sum "Si O2"
_cell_formula_units_Z 32
_cell_length_a 23.203965
_cell_length_b 8.887038
_cell_length_c 9.613131
_cell_angle_alpha 90.000000
_cell_angle_beta 109.419747
_cell_angle_gamma 90.000000
_cell_volume 1869.586592
_symmetry_space_group_name_H-M "C M"
_symmetry_group_IT_number 8
_symmetry_cell_setting 'monoclinic'
loop_
_space_group_symop_operation_xyz
x,y,z
x,-y,z
1/2+x,1/2+y,z
1/2+x,1/2-y,z
loop_
_atom_site_type_symbol
_atom_site_label
_atom_site_fract_x
_atom_site_fract_y
_atom_site_fract_z
Si Si1 0.355420 0.328783 0.484450
Si Si2 0.074170 0.668048 0.404573
Si Si3 0.228427 0.177315 0.883005
Si Si4 0.482523 0.824149 0.547165
Si Si5 0.255287 0.324694 0.617943
Si Si6 0.755492 0.820805 0.186021
Si Si7 0.170720 0.176085 0.327009
Si Si8 0.609376 0.167618 0.733964
O O1 0.368268 0.500000 0.460426
O O2 0.420872 0.252862 0.541717
O O3 0.323212 0.306847 0.607775
O O4 0.312035 0.265438 0.326832
O O5 0.069773 0.500000 0.338099
O O6 0.100433 0.778667 0.306885
O O7 0.120515 0.665824 0.575340
O O8 0.007529 0.721067 0.411428
O O9 0.257545 0.263920 0.776086
O O10 0.156141 0.215119 0.840690
O O11 0.237808 0.000000 0.875391
O O12 0.263847 0.239300 0.045594
O O13 0.537877 0.786175 0.701408
O O14 0.470559 0.000000 0.538642
O O15 0.235456 0.500000 0.595784
O O16 0.210623 0.222502 0.491260
O O17 0.692768 0.765385 0.208195
O O18 0.753087 0.000000 0.167423
O O19 0.175123 0.000000 0.301369
O O20 0.622530 0.000000 0.804462
#
# Coordination Sequence:
#
# PCOD8052966 Si02
#       8
#     4   4   4   4   4   4   4   4
#     4   9  19  33  51  74  97 129 171 205 242 291
#     4   8  15  28  47  71  98 130 160 190 241 300
#     4  12  22  32  50  79 103 127 166 213 254 289
#     4   8  16  29  49  74  99 128 164 204 244 286
#     4  10  19  32  49  69  98 136 168 198 246 305
#     4  10  22  37  51  68 102 144 166 193 250 315
#     4  11  19  29  48  77 102 124 164 215 249 279
#     4   8  16  30  49  72  99 132 161 192 242 303
#
# _framework density 17.116081999999999
#
# number of rings (size 3 to 8) (size 9 to 14) (size 15 to 20)
#    0.750    1.750    1.250    3.750    0.000    4.000 
#    0.000    0.000    0.000    1.500    0.000    7.000 
#    0.000    0.000    0.000    0.000    0.000    0.000 
#
# Total GULP energy -198216.989312 kJ/mol
# GULP energy per Si atom -12388.561832 kJ/mol
# Density = 1.707713 g / cm^3
# Si number density = 17.116082 Si / 1000 Ang^3
#
#
#
# Elastic Constant Matrix: (Units=GPa)
#
#
# Indices 1 2 3 4 5 6 
#
# 1 93.7680 37.0038 27.4342 0.0000 -7.1224 0.0000
# 2 37.0038 72.7554 18.4776 0.0000 -2.1813 0.0000
# 3 27.4342 18.4776 72.0912 0.0000 -7.1639 0.0000
# 4 0.0000 0.0000 0.0000 24.3117 0.0000 -2.2495
# 5 -7.1224 -2.1813 -7.1639 0.0000 15.6110 0.0000
# 6 0.0000 0.0000 0.0000 -2.2495 0.0000 31.4914
#
#
#
# Elastic Compliance Matrix: (Units=1/GPa)
#
#
# Indices 1 2 3 4 5 6 
#
# 1 0.014511 -0.006373 -0.003478 0.000000 0.004134 0.000000
# 2 -0.006373 0.017503 -0.002207 0.000000 -0.001475 0.000000
# 3 -0.003478 -0.002207 0.016316 0.000000 0.005592 0.000000
# 4 0.000000 0.000000 0.000000 0.041406 0.000000 0.002958
# 5 0.004134 -0.001475 0.005592 0.000000 0.068304 0.000000
# 6 0.000000 0.000000 0.000000 0.002958 0.000000 0.031966
#
#
# Mechanical properties :
#
#
# Convention : Reuss Voigt Hill
#
# Bulk Modulus (GPa) = 41.29986 44.93842 43.11914
# Shear Modulus (GPa) = 22.50286 24.66276 23.58281
#
# Velocity S-wave (km/s) = 3.62984 3.80005 3.71592
# Velocity P-wave (km/s) = 6.46137 6.75026 6.60739
#
# Compressibility (1/GPa) = 0.02421316
#
# Stress axis : x y z
#
# Youngs Moduli (GPa) = 68.91187 57.13455 61.28842
#
# Poissons Ratio (x) = 0.36414 0.21315
# Poissons Ratio (y) = 0.43920 0.13528
# Poissons Ratio (z) = 0.23967 0.12611
#
# Static dielectric constant tensor:
#      x y z
#    x 3.246060 0.000000 -0.149580 
#    y 0.000000 3.087860 0.000000 
#    z -0.149580 0.000000 2.974000 
# 
# 
# High freq. dielectric constant tensor:
#      x y z
#    x 1.649640 0.000000 -0.019140 
#    y 0.000000 1.661260 0.000000 
#    z -0.019140 0.000000 1.626160 
# 
# From -- ./inp_files/16786.got.cif
#   From: 2010.03.12/outbox.cif.g09.slc.cpg/sg8_9_cif.got.tgz:16786.got - 2010.03.31 10:45:26.
