data_PCOD8052063
_publ_section_title
;
Structure prediction by ZEFSAII (Michael W. Deem and Ramdas Pophale) SiO2 
 PCOD8052063
Probable space group: C 2
;
_chemical_formula_sum "Si O2"
_cell_formula_units_Z 22
_cell_length_a 5.808930
_cell_length_b 13.166246
_cell_length_c 12.068261
_cell_angle_alpha 90.000000
_cell_angle_beta 89.040716
_cell_angle_gamma 90.000000
_cell_volume 922.872977
_symmetry_space_group_name_H-M "C 2"
_symmetry_group_IT_number 5
_symmetry_cell_setting 'monoclinic'
loop_
_space_group_symop_operation_xyz
x,y,z
-x,y,-z
1/2+x,1/2+y,z
1/2-x,1/2+y,-z
loop_
_atom_site_type_symbol
_atom_site_label
_atom_site_fract_x
_atom_site_fract_y
_atom_site_fract_z
Si Si1 0.337971 0.681360 0.606997
Si Si2 0.513196 0.552544 0.800724
Si Si3 0.757011 0.698924 0.941400
Si Si4 0.857698 0.415540 0.114007
Si Si5 0.500000 0.033765 0.500000
Si Si6 0.797211 0.399700 0.685865
O O1 0.500000 0.697343 0.500000
O O2 0.465928 0.639093 0.712250
O O3 0.233170 0.787788 0.646516
O O4 0.136342 0.604365 0.582755
O O5 0.733647 0.601295 0.861138
O O6 0.300501 0.518358 0.880976
O O7 0.570640 0.445945 0.742505
O O8 0.789901 0.810839 0.888434
O O9 0.500000 0.701555 0.000000
O O10 0.000000 0.678024 0.000000
O O11 0.000617 0.406131 0.226087
O O12 0.000000 0.427146 0.000000
O O13 0.339361 0.963830 0.575044
#
# Coordination Sequence:
#
# PCOD8052063 Si02
#       6
#     4   4   4   4   2   4
#     4  12  26  49  74 113 154 202 265 336 404 478
#     4  12  28  47  80 111 155 213 268 330 410 482
#     4  11  29  51  78 116 163 214 273 336 399 480
#     4  11  28  51  77 117 164 213 270 333 409 486
#     4  12  26  46  78 112 152 208 266 336 412 468
#     4  12  27  46  78 113 154 204 271 330 402 483
#
# _framework density 23.838602999999999
#
# number of rings (size 3 to 8) (size 9 to 14) (size 15 to 20)
#    0.000    0.364    6.364    0.000   10.182    4.364 
#    0.000    0.000    0.000    0.000    0.000    0.000 
#    0.000    0.000    0.000    0.000    0.000    0.000 
#
# Total GULP energy -136317.382471 kJ/mol
# GULP energy per Si atom -12392.489316 kJ/mol
# Density = 2.378435 g / cm^3
# Si number density = 23.838603 Si / 1000 Ang^3
#
#
#
# Elastic Constant Matrix: (Units=GPa)
#
#
# Indices 1 2 3 4 5 6 
#
# 1 88.3462 44.2433 37.4805 0.0000 2.3823 0.0000
# 2 44.2433 169.4362 69.5228 0.0000 0.5763 0.0000
# 3 37.4805 69.5228 110.5330 0.0000 -1.8503 0.0000
# 4 0.0000 0.0000 0.0000 63.8384 0.0000 -20.2005
# 5 2.3823 0.5763 -1.8503 0.0000 36.5495 0.0000
# 6 0.0000 0.0000 0.0000 -20.2005 0.0000 74.4489
#
#
#
# Elastic Compliance Matrix: (Units=1/GPa)
#
#
# Indices 1 2 3 4 5 6 
#
# 1 0.013882 -0.002268 -0.003298 0.000000 -0.001036 0.000000
# 2 -0.002268 0.008331 -0.004474 0.000000 -0.000210 0.000000
# 3 -0.003298 -0.004474 0.012995 0.000000 0.000943 0.000000
# 4 0.000000 0.000000 0.000000 0.017136 0.000000 0.004650
# 5 -0.001036 -0.000210 0.000943 0.000000 0.027479 0.000000
# 6 0.000000 0.000000 0.000000 0.004650 0.000000 0.014694
#
#
# Mechanical properties :
#
#
# Convention : Reuss Voigt Hill
#
# Bulk Modulus (GPa) = 66.10515 74.53429 70.31972
# Shear Modulus (GPa) = 41.79213 49.43861 45.61537
#
# Velocity S-wave (km/s) = 4.19158 4.55894 4.37911
# Velocity P-wave (km/s) = 7.15656 7.68414 7.42503
#
# Compressibility (1/GPa) = 0.01512742
#
# Stress axis : x y z
#
# Youngs Moduli (GPa) = 72.03537 120.03678 76.95033
#
# Poissons Ratio (x) = 0.27226 0.25378
# Poissons Ratio (y) = 0.16339 0.34430
# Poissons Ratio (z) = 0.23757 0.53708
#
# Static dielectric constant tensor:
#      x y z
#    x 4.134530 0.000000 0.132980 
#    y 0.000000 4.785570 0.000000 
#    z 0.132980 0.000000 4.642240 
# 
# 
# High freq. dielectric constant tensor:
#      x y z
#    x 1.934070 0.000000 0.002730 
#    y 0.000000 1.977860 0.000000 
#    z 0.002730 0.000000 1.956570 
# 
# From -- ./inp_files/33259.got.cif
#   From: 2010.03.12/outbox.cif.g09.slc.cpg/sg5_17_cif.got.tgz:33259.got - 2010.03.31 09:47:26.
