data_PCOD8052026
_publ_section_title
;
Structure prediction by ZEFSAII (Michael W. Deem and Ramdas Pophale) SiO2 
 PCOD8052026
Probable space group: C 2
;
_chemical_formula_sum "Si O2"
_cell_formula_units_Z 32
_cell_length_a 14.840759
_cell_length_b 11.434173
_cell_length_c 15.060374
_cell_angle_alpha 90.000000
_cell_angle_beta 143.924936
_cell_angle_gamma 90.000000
_cell_volume 1504.864383
_symmetry_space_group_name_H-M "C 2"
_symmetry_group_IT_number 5
_symmetry_cell_setting 'monoclinic'
loop_
_space_group_symop_operation_xyz
x,y,z
-x,y,-z
1/2+x,1/2+y,z
1/2-x,1/2+y,-z
loop_
_atom_site_type_symbol
_atom_site_label
_atom_site_fract_x
_atom_site_fract_y
_atom_site_fract_z
Si Si1 0.390611 0.895720 0.696595
Si Si2 0.110122 0.642154 0.663662
Si Si3 0.718101 0.182914 0.120000
Si Si4 0.580385 0.698098 0.157163
Si Si5 0.105694 0.640146 0.218259
Si Si6 0.910972 0.805506 0.632699
Si Si7 0.305247 0.936845 0.150628
Si Si8 0.424625 0.531867 0.168866
O O1 0.471364 0.819333 0.838425
O O2 0.246941 0.824459 0.544440
O O3 0.515423 0.912438 0.719447
O O4 0.340008 0.021454 0.691830
O O5 0.238919 0.715492 0.714826
O O6 0.203715 0.536246 0.782090
O O7 0.000000 0.591884 0.500000
O O8 0.023872 0.721792 0.667033
O O9 0.717649 0.155909 0.223998
O O10 0.715483 0.322686 0.110418
O O11 0.869768 0.128426 0.196618
O O12 0.569542 0.131478 0.952744
O O13 0.539597 0.589780 0.189294
O O14 0.500000 0.679763 0.000000
O O15 0.126011 0.746855 0.302458
O O16 0.989604 0.930205 0.710128
O O17 0.226602 0.982056 0.998393
#
# Coordination Sequence:
#
# PCOD8052026 Si02
#       8
#     4   4   4   4   4   4   4   4
#     4  12  27  45  73 104 146 191 233 291 365 426
#     4  12  27  48  71 105 148 191 238 299 363 426
#     4  11  25  46  72 106 136 183 241 295 349 421
#     4  12  28  45  74 107 140 190 252 294 357 435
#     4  11  26  46  72 103 144 185 231 292 361 417
#     4  12  28  47  72 102 150 187 235 296 360 427
#     4  12  25  46  74 103 143 188 238 293 358 424
#     4  12  26  45  72 105 142 184 241 299 350 426
#
# _framework density 21.264374
#
# number of rings (size 3 to 8) (size 9 to 14) (size 15 to 20)
#    0.000    0.250    7.500    0.000   10.500    0.000 
#    0.000    1.250    0.000    0.000    0.000    0.000 
#    0.000    0.000    0.000    0.000    0.000    0.000 
#
# Total GULP energy -198478.076185 kJ/mol
# GULP energy per Si atom -12404.879762 kJ/mol
# Density = 2.121598 g / cm^3
# Si number density = 21.264374 Si / 1000 Ang^3
#
#
#
# Elastic Constant Matrix: (Units=GPa)
#
#
# Indices 1 2 3 4 5 6 
#
# 1 110.1106 19.3989 33.7900 0.0000 -8.6764 0.0000
# 2 19.3989 92.0574 16.6855 0.0000 -7.7523 0.0000
# 3 33.7900 16.6855 75.8916 0.0000 -2.6791 0.0000
# 4 0.0000 0.0000 0.0000 32.3813 0.0000 2.8539
# 5 -8.6764 -7.7523 -2.6791 0.0000 29.5629 0.0000
# 6 0.0000 0.0000 0.0000 2.8539 0.0000 21.9299
#
#
#
# Elastic Compliance Matrix: (Units=1/GPa)
#
#
# Indices 1 2 3 4 5 6 
#
# 1 0.010872 -0.001274 -0.004474 0.000000 0.002451 0.000000
# 2 -0.001274 0.011690 -0.001914 0.000000 0.002518 0.000000
# 3 -0.004474 -0.001914 0.015575 0.000000 -0.000404 0.000000
# 4 0.000000 0.000000 0.000000 0.031240 0.000000 -0.004066
# 5 0.002451 0.002518 -0.000404 0.000000 0.035169 0.000000
# 6 0.000000 0.000000 0.000000 -0.004066 0.000000 0.046129
#
#
# Mechanical properties :
#
#
# Convention : Reuss Voigt Hill
#
# Bulk Modulus (GPa) = 43.83330 46.42314 45.12822
# Shear Modulus (GPa) = 28.80093 30.65385 29.72739
#
# Velocity S-wave (km/s) = 3.68424 3.80091 3.74303
# Velocity P-wave (km/s) = 6.22546 6.41415 6.32051
#
# Compressibility (1/GPa) = 0.02281371
#
# Stress axis : x y z
#
# Youngs Moduli (GPa) = 91.97631 85.54170 64.20381
#
# Poissons Ratio (x) = 0.10895 0.28726
# Poissons Ratio (y) = 0.11715 0.12290
# Poissons Ratio (z) = 0.41152 0.16374
#
# Static dielectric constant tensor:
#      x y z
#    x 4.150420 0.000000 0.173330 
#    y 0.000000 3.910240 0.000000 
#    z 0.173330 0.000000 3.949710 
# 
# 
# High freq. dielectric constant tensor:
#      x y z
#    x 1.846730 0.000000 -0.003990 
#    y 0.000000 1.844120 0.000000 
#    z -0.003990 0.000000 1.828980 
# 
# From -- ./inp_files/54606.got.cif
#   From: 2010.03.12/outbox.cif.g09.slc.cpg/sg5_28_cif.got.tgz:54606.got - 2010.03.31 09:47:26.
