data_PCOD8052163
_publ_section_title
;
Structure prediction by ZEFSAII (Michael W. Deem and Ramdas Pophale) SiO2 
 PCOD8052163
Probable space group: C 2
;
_chemical_formula_sum "Si O2"
_cell_formula_units_Z 20
_cell_length_a 27.395911
_cell_length_b 7.666990
_cell_length_c 21.788143
_cell_angle_alpha 90.000000
_cell_angle_beta 11.474225
_cell_angle_gamma 90.000000
_cell_volume 910.384349
_symmetry_space_group_name_H-M "C 2"
_symmetry_group_IT_number 5
_symmetry_cell_setting 'monoclinic'
loop_
_space_group_symop_operation_xyz
x,y,z
-x,y,-z
1/2+x,1/2+y,z
1/2-x,1/2+y,-z
loop_
_atom_site_type_symbol
_atom_site_label
_atom_site_fract_x
_atom_site_fract_y
_atom_site_fract_z
Si Si1 0.035684 0.138950 0.622478
Si Si2 0.770455 0.264174 0.742532
Si Si3 0.440538 0.593118 0.142328
Si Si4 0.043023 0.454197 0.827394
Si Si5 0.527091 0.967783 0.224804
O O1 0.169051 0.249081 0.404264
O O2 0.953500 0.268689 0.777449
O O3 0.215445 0.995156 0.430054
O O4 0.798095 0.046438 0.887615
O O5 0.000000 0.323098 0.500000
O O6 0.565670 0.410763 0.006863
O O7 0.677790 0.078313 0.880108
O O8 0.541378 0.755065 0.057855
O O9 0.148486 0.575648 0.513072
O O10 0.500000 0.643466 0.000000
O O11 0.097120 0.478806 0.688961
#
# Coordination Sequence:
#
# PCOD8052163 Si02
#       5
#     4   4   4   4   4
#     4  12  25  48  75 108 156 190 241 313 366 433
#     4  12  25  49  76 105 153 200 240 304 373 436
#     4  12  25  47  73 104 147 195 243 298 369 435
#     4  12  26  47  75 107 149 192 247 304 364 437
#     4  12  26  46  75 110 146 195 245 301 372 433
#
# _framework density 21.968741999999999
#
# number of rings (size 3 to 8) (size 9 to 14) (size 15 to 20)
#    0.000    0.000    6.000    4.200    0.000    4.000 
#    3.600    0.000    0.000    0.000    0.000    0.000 
#    0.000    0.000    0.000    0.000    0.000    0.000 
#
# Total GULP energy -124072.322487 kJ/mol
# GULP energy per Si atom -12407.232249 kJ/mol
# Density = 2.191874 g / cm^3
# Si number density = 21.968742 Si / 1000 Ang^3
#
#
#
# Elastic Constant Matrix: (Units=GPa)
#
#
# Indices 1 2 3 4 5 6 
#
# 1 137.2517 26.0533 39.7580 0.0176 2.1891 -0.0149
# 2 26.0533 116.9293 32.1672 -0.2099 1.6617 0.0194
# 3 39.7580 32.1672 104.2054 -0.0055 1.9599 -0.0287
# 4 0.0176 -0.2099 -0.0055 29.5078 -0.0696 4.8368
# 5 2.1891 1.6617 1.9599 -0.0696 35.1166 0.0296
# 6 -0.0149 0.0194 -0.0287 4.8368 0.0296 30.6898
#
#
#
# Elastic Compliance Matrix: (Units=1/GPa)
#
#
# Indices 1 2 3 4 5 6 
#
# 1 0.008315 -0.001068 -0.002837 -0.000015 -0.000310 0.000005
# 2 -0.001068 0.009486 -0.002516 0.000070 -0.000242 -0.000020
# 3 -0.002837 -0.002516 0.011462 -0.000017 -0.000344 0.000014
# 4 -0.000015 0.000070 -0.000017 0.034789 0.000072 -0.005483
# 5 -0.000310 -0.000242 -0.000344 0.000072 0.028527 -0.000039
# 6 0.000005 -0.000020 0.000014 -0.005483 -0.000039 0.033448
#
#
# Mechanical properties :
#
#
# Convention : Reuss Voigt Hill
#
# Bulk Modulus (GPa) = 60.89816 61.59372 61.24594
# Shear Modulus (GPa) = 34.63964 36.42336 35.53150
#
# Velocity S-wave (km/s) = 3.97516 4.07623 4.02601
# Velocity P-wave (km/s) = 6.98926 7.08887 7.03924
#
# Compressibility (1/GPa) = 0.01642086
#
# Stress axis : x y z
#
# Youngs Moduli (GPa) = 120.25918 105.41973 87.24412
#
# Poissons Ratio (x) = 0.11258 0.24752
# Poissons Ratio (y) = 0.12843 0.21952
# Poissons Ratio (z) = 0.34119 0.26526
#
# Static dielectric constant tensor:
#      x y z
#    x 3.976500 -0.000080 0.044750 
#    y -0.000080 3.988890 0.000170 
#    z 0.044750 0.000170 3.884700 
# 
# 
# High freq. dielectric constant tensor:
#      x y z
#    x 1.871490 0.000000 0.006680 
#    y 0.000000 1.873780 0.000010 
#    z 0.006680 0.000010 1.866900 
# 
# From -- ./inp_files/55540.got.cif
#   From: 2010.03.12/outbox.cif.g09.slc.cpg/sg5_28_cif.got.tgz:55540.got - 2010.03.31 09:47:26.
