data_PCOD8052441
_publ_section_title
;
Structure prediction by ZEFSAII (Michael W. Deem and Ramdas Pophale) SiO2 
 PCOD8052441
Probable space group: P M
;
_chemical_formula_sum "Si O2"
_cell_formula_units_Z 16
_cell_length_a 22.364446
_cell_length_b 8.834558
_cell_length_c 10.114123
_cell_angle_alpha 90.000000
_cell_angle_beta 25.739974
_cell_angle_gamma 90.000000
_cell_volume 867.858001
_symmetry_space_group_name_H-M "P M"
_symmetry_group_IT_number 6
_symmetry_cell_setting 'monoclinic'
loop_
_space_group_symop_operation_xyz
x,y,z
x,-y,z
loop_
_atom_site_type_symbol
_atom_site_label
_atom_site_fract_x
_atom_site_fract_y
_atom_site_fract_z
Si Si1 0.220020 0.824248 0.433490
Si Si2 0.716038 0.322604 0.195051
Si Si3 0.742192 0.178927 0.864757
Si Si4 0.241082 0.322737 0.659612
Si Si5 0.534549 0.821148 0.781661
Si Si6 0.031033 0.323720 0.299476
Si Si7 0.553399 0.679624 0.018644
Si Si8 0.031658 0.672332 0.598863
O O1 0.174039 0.746567 0.661476
O O2 0.116840 0.781576 0.522712
O O3 0.210713 0.000000 0.477747
O O4 0.374473 0.776219 0.086480
O O5 0.690120 0.500000 0.226000
O O6 0.610270 0.255785 0.509383
O O7 0.688985 0.240034 0.110714
O O8 0.870570 0.291509 0.937243
O O9 0.899873 0.223068 0.524873
O O10 0.724617 0.000000 0.894502
O O11 0.652700 0.255493 0.930466
O O12 0.233040 0.500000 0.657968
O O13 0.398309 0.269582 0.364857
O O14 0.155414 0.270381 0.958174
O O15 0.558969 0.000000 0.731088
O O16 0.595799 0.752563 0.794433
O O17 0.991598 0.500000 0.358390
O O18 0.077977 0.295324 0.356330
O O19 0.568858 0.500000 0.978326
O O20 0.063923 0.500000 0.574268
#
# Coordination Sequence:
#
# PCOD8052441 Si02
#       8
#     2   2   2   2   2   2   2   2
#     4  10  21  35  53  79 111 142 174 214 264 318
#     4  10  21  38  58  80 106 141 182 224 267 317
#     4  11  22  36  55  81 111 143 177 220 270 320
#     4   9  19  36  58  80 104 137 179 222 264 311
#     4  10  21  37  55  80 111 142 178 223 270 318
#     4   9  19  37  57  79 106 137 177 224 266 314
#     4  10  20  36  57  81 108 143 183 222 265 317
#     4   9  19  35  55  78 105 137 176 219 264 313
#
# _framework density 18.436195999999999
#
# number of rings (size 3 to 8) (size 9 to 14) (size 15 to 20)
#    0.000    2.250    0.000    3.375    0.000    7.000 
#    0.000    2.500    0.000    0.000    0.000    0.000 
#    0.000    0.000    0.000    0.000    0.000    0.000 
#
# Total GULP energy -198451.287571 kJ/mol
# GULP energy per Si atom -12403.205473 kJ/mol
# Density = 1.839423 g / cm^3
# Si number density = 18.436196 Si / 1000 Ang^3
#
#
#
# Elastic Constant Matrix: (Units=GPa)
#
#
# Indices 1 2 3 4 5 6 
#
# 1 -22.0803 -57.1494 -100.4887 0.0000 -17.8903 0.0000
# 2 -57.1494 16.9577 -68.9937 0.0000 -9.1758 0.0000
# 3 -100.4887 -68.9937 -39.8266 0.0000 1.4158 0.0000
# 4 0.0000 0.0000 0.0000 22.8141 0.0000 -0.3732
# 5 -17.8903 -9.1758 1.4158 0.0000 17.3059 0.0000
# 6 0.0000 0.0000 0.0000 -0.3732 0.0000 22.8109
#
#
#
# Elastic Compliance Matrix: (Units=1/GPa)
#
#
# Indices 1 2 3 4 5 6 
#
# 1 0.008117 -0.006468 -0.009072 0.000000 0.005703 0.000000
# 2 -0.006468 0.012925 -0.006047 0.000000 0.000661 0.000000
# 3 -0.009072 -0.006047 0.007786 0.000000 -0.013221 0.000000
# 4 0.000000 0.000000 0.000000 0.043844 0.000000 0.000717
# 5 0.005703 0.000661 -0.013221 0.000000 0.065112 0.000000
# 6 0.000000 0.000000 0.000000 0.000717 0.000000 0.043850
#
#
# Mechanical properties :
#
#
# Convention : Reuss Voigt Hill
#
# Bulk Modulus (GPa) = -69.70573 -55.35696 -62.53135
# Shear Modulus (GPa) = 22.72440 24.69835 23.71137
#
# Velocity S-wave (km/s) = 3.51465 3.66412 3.59016
# Velocity P-wave (km/s) = 4.62828 3.49148 4.09947
#
# Compressibility (1/GPa) = -0.01434602
#
# Stress axis : x y z
#
# Youngs Moduli (GPa) = 123.20247 77.36742 128.43014
#
# Poissons Ratio (x) = 0.50043 1.16507
# Poissons Ratio (y) = 0.79691 0.77665
# Poissons Ratio (z) = 1.11765 0.46786
#
# Static dielectric constant tensor:
#      x y z
#    x 3.374410 0.000000 0.072640 
#    y 0.000000 3.571780 0.000000 
#    z 0.072640 0.000000 3.550250 
# 
# 
# High freq. dielectric constant tensor:
#      x y z
#    x 1.718280 0.000000 0.006880 
#    y 0.000000 1.721550 0.000000 
#    z 0.006880 0.000000 1.716590 
# 
# From -- ./inp_files/2699.got.cif
#   From: 2010.03.12/outbox.cif.g09.slc.cpg/sg6_2_cif.got.tgz:2699.got - 2010.03.30 10:24:59.
