data_PCOD8052913
_publ_section_title
;
Structure prediction by ZEFSAII (Michael W. Deem and Ramdas Pophale) SiO2 
 PCOD8052913
Probable space group: C M
;
_chemical_formula_sum "Si O2"
_cell_formula_units_Z 28
_cell_length_a 5.137573
_cell_length_b 24.457159
_cell_length_c 14.178314
_cell_angle_alpha 90.000000
_cell_angle_beta 54.140594
_cell_angle_gamma 90.000000
_cell_volume 1443.838164
_symmetry_space_group_name_H-M "C M"
_symmetry_group_IT_number 8
_symmetry_cell_setting 'monoclinic'
loop_
_space_group_symop_operation_xyz
x,y,z
x,-y,z
1/2+x,1/2+y,z
1/2+x,1/2-y,z
loop_
_atom_site_type_symbol
_atom_site_label
_atom_site_fract_x
_atom_site_fract_y
_atom_site_fract_z
Si Si1 0.025610 0.717390 0.214810
Si Si2 0.930247 0.838987 0.991397
Si Si3 0.044012 0.000000 0.132589
Si Si4 0.344671 0.216558 0.758245
Si Si5 0.242047 0.712984 0.494133
Si Si6 0.625729 0.620081 0.322076
Si Si7 0.793972 0.609517 0.077361
Si Si8 0.283158 0.000000 0.292111
O O1 0.187283 0.754092 0.260623
O O2 0.225481 0.712810 0.074300
O O3 0.950786 0.656276 0.270592
O O4 0.673782 0.886736 0.020398
O O5 0.180113 0.847639 0.023764
O O6 0.124696 0.828905 0.854427
O O7 0.199906 0.947853 0.048666
O O8 0.172310 0.000000 0.210242
O O9 0.663553 0.000000 0.213655
O O10 0.611207 0.234124 0.777530
O O11 0.513953 0.193773 0.628563
O O12 0.554997 0.745758 0.464378
O O13 0.330953 0.654561 0.428174
O O14 0.584776 0.616546 0.217368
O O15 0.655391 0.558524 0.362699
#
# Coordination Sequence:
#
# PCOD8052913 Si02
#       8
#     4   4   2   4   4   4   4   2
#     4  11  20  29  47  74 106 135 159 206 262 310
#     4  11  20  33  50  78 107 140 175 212 261 320
#     4  10  18  36  50  76 106 138 180 214 263 326
#     4  10  20  36  54  75 105 142 181 213 255 320
#     4  10  22  37  57  80 107 144 179 223 270 316
#     4  10  21  37  53  80 109 138 181 219 268 323
#     4  10  21  32  54  77 106 139 172 220 269 313
#     4  10  22  34  56  74 106 148 178 220 261 314
#
# _framework density 19.392757
#
# number of rings (size 3 to 8) (size 9 to 14) (size 15 to 20)
#    0.000    1.714    0.000    6.857    0.000    5.714 
#    0.000    0.000    0.000    1.714    0.000    0.000 
#    0.000    0.000    0.000    0.000    0.000    0.000 
#
# Total GULP energy -173448.813903 kJ/mol
# GULP energy per Si atom -12389.200993 kJ/mol
# Density = 1.934862 g / cm^3
# Si number density = 19.392757 Si / 1000 Ang^3
#
#
#
# Elastic Constant Matrix: (Units=GPa)
#
#
# Indices 1 2 3 4 5 6 
#
# 1 111.4291 29.8234 25.5650 0.0000 -5.9364 0.0000
# 2 29.8234 133.6852 51.8930 0.0000 -5.3074 0.0000
# 3 25.5650 51.8930 103.0221 0.0000 -7.3223 0.0000
# 4 0.0000 0.0000 0.0000 16.0665 0.0000 -4.1003
# 5 -5.9364 -5.3074 -7.3223 0.0000 24.0546 0.0000
# 6 0.0000 0.0000 0.0000 -4.1003 0.0000 23.5416
#
#
#
# Elastic Compliance Matrix: (Units=1/GPa)
#
#
# Indices 1 2 3 4 5 6 
#
# 1 0.009825 -0.001524 -0.001556 0.000000 0.001615 0.000000
# 2 -0.001524 0.009544 -0.004402 0.000000 0.000390 0.000000
# 3 -0.001556 -0.004402 0.012484 0.000000 0.002445 0.000000
# 4 0.000000 0.000000 0.000000 0.065137 0.000000 0.011345
# 5 0.001615 0.000390 0.002445 0.000000 0.042801 0.000000
# 6 0.000000 0.000000 0.000000 0.011345 0.000000 0.044454
#
#
# Mechanical properties :
#
#
# Convention : Reuss Voigt Hill
#
# Bulk Modulus (GPa) = 59.20480 62.52212 60.86346
# Shear Modulus (GPa) = 24.40964 28.78955 26.59959
#
# Velocity S-wave (km/s) = 3.55166 3.85717 3.70756
# Velocity P-wave (km/s) = 6.88583 7.22128 7.05555
#
# Compressibility (1/GPa) = 0.01689052
#
# Stress axis : x y z
#
# Youngs Moduli (GPa) = 101.77977 104.77462 80.10482
#
# Poissons Ratio (x) = 0.15966 0.12462
# Poissons Ratio (y) = 0.15510 0.35260
# Poissons Ratio (z) = 0.15835 0.46118
#
# Static dielectric constant tensor:
#      x y z
#    x 3.602080 0.000000 -0.062790 
#    y 0.000000 4.274810 0.000000 
#    z -0.062790 0.000000 3.492750 
# 
# 
# High freq. dielectric constant tensor:
#      x y z
#    x 1.773440 0.000000 -0.005890 
#    y 0.000000 1.738930 0.000000 
#    z -0.005890 0.000000 1.728000 
# 
# From -- ./inp_files/25016.got.cif
#   From: 2010.03.12/outbox.cif.g09.slc.cpg/sg8_13_cif.got.tgz:25016.got - 2010.03.31 10:45:26.
