data_PCOD8052844
_publ_section_title
;
Structure prediction by ZEFSAII (Michael W. Deem and Ramdas Pophale) SiO2 
 PCOD8052844
Probable space group: C M
;
_chemical_formula_sum "Si O2"
_cell_formula_units_Z 32
_cell_length_a 30.626070
_cell_length_b 8.946664
_cell_length_c 13.307775
_cell_angle_alpha 90.000000
_cell_angle_beta 149.778798
_cell_angle_gamma 90.000000
_cell_volume 1835.350699
_symmetry_space_group_name_H-M "C M"
_symmetry_group_IT_number 8
_symmetry_cell_setting 'monoclinic'
loop_
_space_group_symop_operation_xyz
x,y,z
x,-y,z
1/2+x,1/2+y,z
1/2+x,1/2-y,z
loop_
_atom_site_type_symbol
_atom_site_label
_atom_site_fract_x
_atom_site_fract_y
_atom_site_fract_z
Si Si1 0.181450 0.668325 0.595600
Si Si2 0.577014 0.169863 0.008495
Si Si3 0.932496 0.323952 0.395348
Si Si4 0.266356 0.669505 0.408779
Si Si5 0.658094 0.676442 0.343264
Si Si6 0.612669 0.831391 0.664855
Si Si7 0.425663 0.322712 0.591889
Si Si8 0.274413 0.825485 0.942996
O O1 0.202554 0.500000 0.601193
O O2 0.151372 0.768767 0.443502
O O3 0.104173 0.668777 0.525498
O O4 0.266602 0.739331 0.820114
O O5 0.516036 0.257248 0.810725
O O6 0.543759 0.000000 0.954210
O O7 0.676621 0.173557 0.164524
O O8 0.578424 0.250400 0.121051
O O9 0.932084 0.500000 0.417089
O O10 0.906689 0.236258 0.443521
O O11 0.025806 0.267645 0.542179
O O12 0.864382 0.282179 0.173536
O O13 0.285859 0.500000 0.482200
O O14 0.249992 0.770140 0.476246
O O15 0.346562 0.733721 0.504742
O O16 0.650001 0.500000 0.323228
O O17 0.695013 0.727642 0.858310
O O18 0.630214 0.000000 0.737934
O O19 0.431048 0.500000 0.600966
O O20 0.266537 0.000000 0.906787
#
# Coordination Sequence:
#
# PCOD8052844 Si02
#       8
#     4   4   4   4   4   4   4   4
#     4   9  17  33  56  77 105 143 174 210 268 322
#     4   9  19  37  56  77 108 144 176 216 267 317
#     4  10  21  37  54  76 107 144 179 216 266 318
#     4   8  19  37  54  75 109 144 175 217 266 317
#     4  10  18  32  57  83 106 137 177 220 265 315
#     4   8  18  35  54  74 105 143 176 211 260 322
#     4  11  22  36  55  81 108 140 182 224 264 312
#     4   9  18  33  54  79 106 135 177 226 260 305
#
# _framework density 17.435359999999999
#
# number of rings (size 3 to 8) (size 9 to 14) (size 15 to 20)
#    1.500    1.250    0.000    1.875    0.000    3.500 
#    0.000    5.000    0.000    4.500    0.000    0.000 
#    0.000    0.000    0.000    0.000    0.000    0.000 
#
# Total GULP energy -198220.459938 kJ/mol
# GULP energy per Si atom -12388.778746 kJ/mol
# Density = 1.739568 g / cm^3
# Si number density = 17.435360 Si / 1000 Ang^3
#
#
#
# Elastic Constant Matrix: (Units=GPa)
#
#
# Indices 1 2 3 4 5 6 
#
# 1 53.1377 24.6022 6.3660 0.0000 -0.5646 0.0000
# 2 24.6022 85.0179 26.3026 0.0000 -7.9615 0.0000
# 3 6.3660 26.3026 59.0632 0.0000 -2.2547 0.0000
# 4 0.0000 0.0000 0.0000 28.4705 0.0000 -4.9910
# 5 -0.5646 -7.9615 -2.2547 0.0000 29.8086 0.0000
# 6 0.0000 0.0000 0.0000 -4.9910 0.0000 29.8710
#
#
#
# Elastic Compliance Matrix: (Units=1/GPa)
#
#
# Indices 1 2 3 4 5 6 
#
# 1 0.021794 -0.006596 0.000538 0.000000 -0.001308 0.000000
# 2 -0.006596 0.015948 -0.006251 0.000000 0.003662 0.000000
# 3 0.000538 -0.006251 0.019650 0.000000 -0.000173 0.000000
# 4 0.000000 0.000000 0.000000 0.036184 0.000000 0.006046
# 5 -0.001308 0.003662 -0.000173 0.000000 0.034487 0.000000
# 6 0.000000 0.000000 0.000000 0.006046 0.000000 0.034487
#
#
# Mechanical properties :
#
#
# Convention : Reuss Voigt Hill
#
# Bulk Modulus (GPa) = 30.51124 34.64005 32.57564
# Shear Modulus (GPa) = 25.24054 26.95990 26.10022
#
# Velocity S-wave (km/s) = 3.80895 3.93654 3.87327
# Velocity P-wave (km/s) = 6.07303 6.36966 6.22312
#
# Compressibility (1/GPa) = 0.03277481
#
# Stress axis : x y z
#
# Youngs Moduli (GPa) = 45.88329 62.70447 50.88984
#
# Poissons Ratio (x) = 0.41359 -0.02739
# Poissons Ratio (y) = 0.30264 0.31813
# Poissons Ratio (z) = -0.02470 0.39199
#
# Static dielectric constant tensor:
#      x y z
#    x 3.053910 0.000000 0.045240 
#    y 0.000000 3.231210 0.000000 
#    z 0.045240 0.000000 3.065770 
# 
# 
# High freq. dielectric constant tensor:
#      x y z
#    x 1.654960 0.000000 -0.003280 
#    y 0.000000 1.682470 0.000000 
#    z -0.003280 0.000000 1.655820 
# 
# From -- ./inp_files/28383.got.cif
#   From: 2010.03.12/outbox.cif.g09.slc.cpg/sg8_15_cif.got.tgz:28383.got - 2010.03.31 10:45:26.
