data_PCOD8052407
_publ_section_title
;
Structure prediction by ZEFSAII (Michael W. Deem and Ramdas Pophale) SiO2 
 PCOD8052407
Probable space group: P M
;
_chemical_formula_sum "Si O2"
_cell_formula_units_Z 12
_cell_length_a 9.367854
_cell_length_b 8.806800
_cell_length_c 11.954258
_cell_angle_alpha 90.000000
_cell_angle_beta 140.470975
_cell_angle_gamma 90.000000
_cell_volume 627.708700
_symmetry_space_group_name_H-M "P M"
_symmetry_group_IT_number 6
_symmetry_cell_setting 'monoclinic'
loop_
_space_group_symop_operation_xyz
x,y,z
x,-y,z
loop_
_atom_site_type_symbol
_atom_site_label
_atom_site_fract_x
_atom_site_fract_y
_atom_site_fract_z
Si Si1 0.305930 0.821587 0.535870
Si Si2 0.832962 0.319782 0.230544
Si Si3 0.160370 0.674975 0.882429
Si Si4 0.438141 0.178328 0.863531
Si Si5 0.560558 0.677225 0.275768
Si Si6 0.646739 0.677865 0.574013
O O1 0.367779 0.768289 0.697717
O O2 0.505539 0.773114 0.575950
O O3 0.080081 0.741396 0.358210
O O4 0.269078 0.000000 0.507137
O O5 0.834182 0.500000 0.227202
O O6 0.739371 0.258355 0.293580
O O7 0.669394 0.261597 0.034115
O O8 0.197385 0.500000 0.869585
O O9 0.235931 0.776179 0.823578
O O10 0.905340 0.708092 0.759935
O O11 0.309441 0.714311 0.081563
O O12 0.479483 0.000000 0.894910
O O13 0.604446 0.500000 0.313251
O O14 0.597419 0.747033 0.420743
O O15 0.585117 0.500000 0.545050
#
# Coordination Sequence:
#
# PCOD8052407 Si02
#       6
#     2   2   2   2   2   2
#     4  11  24  38  52  78 117 152 181 219 271 329
#     4  10  20  37  62  85 106 138 184 233 274 318
#     4   9  18  34  56  80 105 136 180 228 268 315
#     4  10  21  37  57  82 113 146 180 222 273 327
#     4   8  16  32  54  80 104 129 171 226 273 311
#     4  10  20  34  53  77 107 143 182 222 265 318
#
# _framework density 19.117149000000001
#
# number of rings (size 3 to 8) (size 9 to 14) (size 15 to 20)
#    0.000    2.333    0.000    3.500    0.000    6.000 
#    0.000    5.833    0.000    0.000    0.000    0.000 
#    0.000    0.000    0.000    0.000    0.000    0.000 
#
# Total GULP energy -148817.713260 kJ/mol
# GULP energy per Si atom -12401.476105 kJ/mol
# Density = 1.907364 g / cm^3
# Si number density = 19.117149 Si / 1000 Ang^3
#
#
#
# Elastic Constant Matrix: (Units=GPa)
#
#
# Indices 1 2 3 4 5 6 
#
# 1 77.7810 21.7181 44.1796 0.0000 16.7146 0.0000
# 2 21.7181 53.1298 31.1872 0.0000 5.1808 0.0000
# 3 44.1796 31.1872 102.6998 0.0000 19.0626 0.0000
# 4 0.0000 0.0000 0.0000 23.9944 0.0000 0.0644
# 5 16.7146 5.1808 19.0626 0.0000 27.2228 0.0000
# 6 0.0000 0.0000 0.0000 0.0644 0.0000 24.2893
#
#
#
# Elastic Compliance Matrix: (Units=1/GPa)
#
#
# Indices 1 2 3 4 5 6 
#
# 1 0.018501 -0.003612 -0.005610 0.000000 -0.006744 0.000000
# 2 -0.003612 0.023618 -0.005972 0.000000 0.001905 0.000000
# 3 -0.005610 -0.005972 0.015073 0.000000 -0.005973 0.000000
# 4 0.000000 0.000000 0.000000 0.041677 0.000000 -0.000110
# 5 -0.006744 0.001905 -0.005973 0.000000 0.044695 0.000000
# 6 0.000000 0.000000 0.000000 -0.000110 0.000000 0.041171
#
#
# Mechanical properties :
#
#
# Convention : Reuss Voigt Hill
#
# Bulk Modulus (GPa) = 37.30838 47.53117 42.41978
# Shear Modulus (GPa) = 22.31578 24.20300 23.25939
#
# Velocity S-wave (km/s) = 3.42031 3.56200 3.49187
# Velocity P-wave (km/s) = 5.92925 6.46794 6.20444
#
# Compressibility (1/GPa) = 0.02680363
#
# Stress axis : x y z
#
# Youngs Moduli (GPa) = 54.05156 42.34038 66.34463
#
# Poissons Ratio (x) = 0.15293 0.37221
# Poissons Ratio (y) = 0.19523 0.39621
# Poissons Ratio (z) = 0.30324 0.25285
#
# Static dielectric constant tensor:
#      x y z
#    x 3.486450 0.000000 -0.074600 
#    y 0.000000 3.302290 0.000000 
#    z -0.074600 0.000000 3.722140 
# 
# 
# High freq. dielectric constant tensor:
#      x y z
#    x 1.737040 0.000000 0.002730 
#    y 0.000000 1.726570 0.000000 
#    z 0.002730 0.000000 1.758580 
# 
# From -- ./inp_files/2485.got.cif
#   From: 2010.03.12/outbox.cif.g09.slc.cpg/sg6_2_cif.got.tgz:2485.got - 2010.03.30 10:24:59.
