data_PCOD8052210
_publ_section_title
;
Structure prediction by ZEFSAII (Michael W. Deem and Ramdas Pophale) SiO2 
 PCOD8052210
Probable space group: C 2
;
_chemical_formula_sum "Si O2"
_cell_formula_units_Z 26
_cell_length_a 19.281070
_cell_length_b 8.262344
_cell_length_c 7.841679
_cell_angle_alpha 90.000000
_cell_angle_beta 90.000061
_cell_angle_gamma 90.000000
_cell_volume 1249.233047
_symmetry_space_group_name_H-M "C 2"
_symmetry_group_IT_number 5
_symmetry_cell_setting 'monoclinic'
loop_
_space_group_symop_operation_xyz
x,y,z
-x,y,-z
1/2+x,1/2+y,z
1/2-x,1/2+y,-z
loop_
_atom_site_type_symbol
_atom_site_label
_atom_site_fract_x
_atom_site_fract_y
_atom_site_fract_z
Si Si1 0.921779 0.223150 0.506828
Si Si2 0.674652 0.722396 0.190051
Si Si3 0.325348 0.335700 0.190051
Si Si4 0.921779 0.834946 0.493172
Si Si5 0.626253 0.369346 0.161755
Si Si6 0.000000 0.029048 0.000000
Si Si7 0.873746 0.188750 0.161756
O O1 0.882581 0.287426 0.675350
O O2 0.878659 0.287309 0.339542
O O3 0.000000 0.292079 0.500000
O O4 0.921523 0.029048 0.500000
O O5 0.750000 0.779048 0.249160
O O6 0.674032 0.527892 0.185168
O O7 0.656260 0.790625 0.999187
O O8 0.382581 0.270670 0.324650
O O9 0.325968 0.530204 0.185168
O O10 0.343740 0.267471 0.999188
O O11 0.878659 0.770787 0.660459
O O12 0.000000 0.766017 0.500000
O O13 0.547020 0.420850 0.122996
O O14 0.952980 0.137247 0.122996
#
# Coordination Sequence:
#
# PCOD8052210 Si02
#       7
#     4   4   4   4   4   2   4
#     4   9  15  25  42  61  82 106 129 161 206 245
#     4   9  17  26  37  58  87 110 134 160 191 243
#     4   9  17  26  37  58  87 110 134 160 191 243
#     4   9  15  25  42  61  82 106 129 161 206 245
#     4   9  16  26  41  59  85 108 128 161 203 238
#     4   8  12  24  42  60  80 104 124 158 206 252
#     4   9  16  26  41  59  85 108 128 161 203 238
#
# _framework density 20.81277
#
# number of rings (size 3 to 8) (size 9 to 14) (size 15 to 20)
#    0.000    3.385    0.000    5.538    0.000    1.231 
#    0.000    0.000    0.000    0.000    0.000    0.000 
#    0.000  375.385    0.000    0.000    0.000    0.000 
#
# Total GULP energy -161050.964043 kJ/mol
# GULP energy per Si atom -12388.535696 kJ/mol
# Density = 2.076540 g / cm^3
# Si number density = 20.812770 Si / 1000 Ang^3
#
#
#
# Elastic Constant Matrix: (Units=GPa)
#
#
# Indices 1 2 3 4 5 6 
#
# 1 158.9065 20.1745 64.4495 0.0000 3.6128 0.0000
# 2 20.1745 8.9364 7.7059 0.0000 1.2154 0.0000
# 3 64.4495 7.7059 202.5775 0.0000 -7.8696 0.0000
# 4 0.0000 0.0000 0.0000 3.2915 0.0000 0.5204
# 5 3.6128 1.2154 -7.8696 0.0000 29.8157 0.0000
# 6 0.0000 0.0000 0.0000 0.5204 0.0000 8.6301
#
#
#
# Elastic Compliance Matrix: (Units=1/GPa)
#
#
# Indices 1 2 3 4 5 6 
#
# 1 0.009828 -0.019975 -0.002406 0.000000 -0.001012 0.000000
# 2 -0.019975 0.157345 0.000217 0.000000 -0.003937 0.000000
# 3 -0.002406 0.000217 0.005764 0.000000 0.001804 0.000000
# 4 0.000000 0.000000 0.000000 0.306738 0.000000 -0.018496
# 5 -0.001012 -0.003937 0.001804 0.000000 0.034299 0.000000
# 6 0.000000 0.000000 0.000000 -0.018496 0.000000 0.116989
#
#
# Mechanical properties :
#
#
# Convention : Reuss Voigt Hill
#
# Bulk Modulus (GPa) = 7.77553 61.67558 34.72556
# Shear Modulus (GPa) = 6.96223 26.88683 16.92453
#
# Velocity S-wave (km/s) = 1.83097 3.59812 2.85473
# Velocity P-wave (km/s) = 2.86600 6.85272 5.25232
#
# Compressibility (1/GPa) = 0.12860865
#
# Stress axis : x y z
#
# Youngs Moduli (GPa) = 101.75148 6.35544 173.49830
#
# Poissons Ratio (x) = 0.12695 0.41747
# Poissons Ratio (y) = 2.03245 -0.03759
# Poissons Ratio (z) = 0.24483 -0.00138
#
# Static dielectric constant tensor:
#      x y z
#    x 3.636640 0.000000 -0.104320 
#    y 0.000000 2.756800 0.000000 
#    z -0.104320 0.000000 4.706860 
# 
# 
# High freq. dielectric constant tensor:
#      x y z
#    x 1.813660 0.000000 -0.003700 
#    y 0.000000 1.702330 0.000000 
#    z -0.003700 0.000000 1.851630 
# 
# From -- ./inp_files/27079.got.cif
#   From: 2010.03.12/outbox.cif.g09.slc.cpg/sg5_14_cif.got.tgz:27079.got - 2010.03.31 09:47:26.
