data_PCOD8052535
_publ_section_title
;
Structure prediction by ZEFSAII (Michael W. Deem and Ramdas Pophale) SiO2 
 PCOD8052535
Probable space group: P M
;
_chemical_formula_sum "Si O2"
_cell_formula_units_Z 16
_cell_length_a 9.548261
_cell_length_b 8.990352
_cell_length_c 19.210366
_cell_angle_alpha 90.000000
_cell_angle_beta 151.136779
_cell_angle_gamma 90.000000
_cell_volume 796.035047
_symmetry_space_group_name_H-M "P M"
_symmetry_group_IT_number 6
_symmetry_cell_setting 'monoclinic'
loop_
_space_group_symop_operation_xyz
x,y,z
x,-y,z
loop_
_atom_site_type_symbol
_atom_site_label
_atom_site_fract_x
_atom_site_fract_y
_atom_site_fract_z
Si Si1 0.575300 0.328421 0.183040
Si Si2 0.858345 0.832955 0.669094
Si Si3 0.480483 0.671946 0.401109
Si Si4 0.467229 0.167044 0.872058
Si Si5 0.419098 0.671963 0.713993
Si Si6 0.963410 0.330168 0.854365
Si Si7 0.813981 0.823782 0.421757
Si Si8 0.812941 0.330175 0.137539
O O1 0.615551 0.500000 0.223297
O O2 0.683255 0.222569 0.291013
O O3 0.768675 0.292191 0.199353
O O4 0.237479 0.292197 0.022277
O O5 0.607044 0.728353 0.529596
O O6 0.971853 0.775632 0.791975
O O7 0.120507 0.830795 0.728298
O O8 0.738298 0.000000 0.625836
O O9 0.561281 0.500000 0.426555
O O10 0.607000 0.763344 0.392065
O O11 0.139239 0.698074 0.255836
O O12 0.551366 0.271657 0.844386
O O13 0.577560 0.000000 0.905591
O O14 0.608880 0.224346 0.004325
O O15 0.333946 0.500000 0.684109
O O16 0.665773 0.698171 0.764708
O O17 0.138859 0.763322 0.569365
O O18 0.988073 0.500000 0.839362
O O19 0.824290 0.000000 0.432045
O O20 0.718444 0.500000 0.082827
#
# Coordination Sequence:
#
# PCOD8052535 Si02
#       8
#     2   2   2   2   2   2   2   2
#     4  10  22  43  66  91 124 163 205 257 307 370
#     4  11  23  40  64  94 127 161 205 260 316 371
#     4  11  24  42  66  94 123 165 214 260 306 368
#     4  11  23  40  64  94 127 161 205 260 316 371
#     4  11  24  42  66  94 123 165 214 260 306 368
#     4  10  23  42  67  94 122 162 212 256 308 370
#     4  12  26  43  62  91 128 169 207 255 319 376
#     4  10  23  42  67  94 122 162 212 256 308 370
#
# _framework density 20.099616999999999
#
# number of rings (size 3 to 8) (size 9 to 14) (size 15 to 20)
#    0.000    1.250    2.500    2.625    3.500    4.000 
#    0.000    0.000    0.000    0.000    0.000    0.000 
#    0.000    0.000    0.000    0.000    0.000    0.000 
#
# Total GULP energy -198494.108693 kJ/mol
# GULP energy per Si atom -12405.881793 kJ/mol
# Density = 2.005387 g / cm^3
# Si number density = 20.099617 Si / 1000 Ang^3
#
#
#
# Elastic Constant Matrix: (Units=GPa)
#
#
# Indices 1 2 3 4 5 6 
#
# 1 91.9591 59.6610 46.6522 0.0000 2.2509 0.0000
# 2 59.6610 142.7764 60.8407 0.0000 -2.2237 0.0000
# 3 46.6522 60.8407 93.1313 0.0000 -4.5289 0.0000
# 4 0.0000 0.0000 0.0000 21.3346 0.0000 -1.4915
# 5 2.2509 -2.2237 -4.5289 0.0000 34.2060 0.0000
# 6 0.0000 0.0000 0.0000 -1.4915 0.0000 20.4878
#
#
#
# Elastic Compliance Matrix: (Units=1/GPa)
#
#
# Indices 1 2 3 4 5 6 
#
# 1 0.016729 -0.004724 -0.005398 0.000000 -0.002123 0.000000
# 2 -0.004724 0.011041 -0.004828 0.000000 0.000389 0.000000
# 3 -0.005398 -0.004828 0.016705 0.000000 0.002253 0.000000
# 4 0.000000 0.000000 0.000000 0.047112 0.000000 0.003430
# 5 -0.002123 0.000389 0.002253 0.000000 0.029698 0.000000
# 6 0.000000 0.000000 0.000000 0.003430 0.000000 0.049059
#
#
# Mechanical properties :
#
#
# Convention : Reuss Voigt Hill
#
# Bulk Modulus (GPa) = 68.60015 73.57494 71.08755
# Shear Modulus (GPa) = 24.37825 25.91988 25.14906
#
# Velocity S-wave (km/s) = 3.48641 3.59496 3.54110
# Velocity P-wave (km/s) = 7.10006 7.34277 7.22243
#
# Compressibility (1/GPa) = 0.01457723
#
# Stress axis : x y z
#
# Youngs Moduli (GPa) = 59.77605 90.57106 59.86307
#
# Poissons Ratio (x) = 0.42781 0.32311
# Poissons Ratio (y) = 0.28235 0.28901
# Poissons Ratio (z) = 0.32264 0.43726
#
# Static dielectric constant tensor:
#      x y z
#    x 3.659180 0.000000 0.049920 
#    y 0.000000 3.824920 0.000000 
#    z 0.049920 0.000000 3.631070 
# 
# 
# High freq. dielectric constant tensor:
#      x y z
#    x 1.791380 0.000000 -0.000990 
#    y 0.000000 1.790070 0.000000 
#    z -0.000990 0.000000 1.791910 
# 
# From -- ./inp_files/3771.got.cif
#   From: 2010.03.12/outbox.cif.g09.slc.cpg/sg6_2_cif.got.tgz:3771.got - 2010.03.30 10:24:59.
