data_PCOD8052621
_publ_section_title
;
Structure prediction by ZEFSAII (Michael W. Deem and Ramdas Pophale) SiO2 
 PCOD8052621
Probable space group: P C
;
_chemical_formula_sum "Si O2"
_cell_formula_units_Z 16
_cell_length_a 12.168376
_cell_length_b 12.055260
_cell_length_c 5.336491
_cell_angle_alpha 90.000000
_cell_angle_beta 58.471353
_cell_angle_gamma 90.000000
_cell_volume 667.263903
_symmetry_space_group_name_H-M "P C"
_symmetry_group_IT_number 7
_symmetry_cell_setting 'monoclinic'
loop_
_space_group_symop_operation_xyz
x,y,z
x,-y,1/2+z
loop_
_atom_site_type_symbol
_atom_site_label
_atom_site_fract_x
_atom_site_fract_y
_atom_site_fract_z
Si Si1 0.776920 0.241344 0.978210
Si Si2 0.596643 0.930972 0.845538
Si Si3 0.851596 0.537879 0.523773
Si Si4 0.249012 0.931777 0.707046
Si Si5 0.348066 0.538491 0.218798
Si Si6 0.600134 0.398059 0.868556
Si Si7 0.950608 0.931715 0.047182
Si Si8 0.422529 0.760185 0.266264
O O1 0.663370 0.314334 0.992083
O O2 0.869743 0.182483 0.663826
O O3 0.720904 0.146898 0.227322
O O4 0.851159 0.329490 0.065763
O O5 0.598904 0.978060 0.560714
O O6 0.470365 0.856414 0.024534
O O7 0.925270 0.516767 0.170688
O O8 0.712560 0.476935 0.613952
O O9 0.332384 0.818877 0.582632
O O10 0.283579 0.012210 0.431360
O O11 0.099873 0.898751 0.875836
O O12 0.274444 0.514790 0.570420
O O13 0.347190 0.671305 0.183750
O O14 0.487775 0.477457 0.121936
O O15 0.537589 0.312336 0.746782
O O16 0.915127 0.010038 0.327022
#
# Coordination Sequence:
#
# PCOD8052621 Si02
#       8
#     2   2   2   2   2   2   2   2
#     4  11  21  37  60  84 118 157 193 234 295 352
#     4  12  24  34  48  80 116 142 178 232 288 340
#     4  10  20  34  53  80 113 149 188 225 275 346
#     4  10  23  43  63  84 113 154 204 248 286 338
#     4  10  20  34  53  80 113 149 188 225 275 346
#     4  10  20  36  56  86 120 154 188 230 288 356
#     4  10  23  43  63  84 113 154 204 248 286 338
#     4  11  21  37  60  84 118 157 193 234 295 352
#
# _framework density 23.978518999999999
#
# number of rings (size 3 to 8) (size 9 to 14) (size 15 to 20)
#    0.000    1.500    0.000    7.500    0.000    8.000 
#    0.000    0.000    0.000    6.000    0.000    0.000 
#    0.000    0.000    0.000    0.000    0.000    0.000 
#
# Total GULP energy -198228.875205 kJ/mol
# GULP energy per Si atom -12389.304700 kJ/mol
# Density = 2.392394 g / cm^3
# Si number density = 23.978519 Si / 1000 Ang^3
#
#
#
# Elastic Constant Matrix: (Units=GPa)
#
#
# Indices 1 2 3 4 5 6 
#
# 1 24.7343 15.0923 24.4567 0.0000 9.1574 0.0000
# 2 15.0923 145.7840 59.4238 0.0000 -4.8810 0.0000
# 3 24.4567 59.4238 117.5737 0.0000 19.7677 0.0000
# 4 0.0000 0.0000 0.0000 30.4273 0.0000 -5.2076
# 5 9.1574 -4.8810 19.7677 0.0000 31.2963 0.0000
# 6 0.0000 0.0000 0.0000 -5.2076 0.0000 16.8843
#
#
#
# Elastic Compliance Matrix: (Units=1/GPa)
#
#
# Indices 1 2 3 4 5 6 
#
# 1 0.054156 -0.002719 -0.008006 0.000000 -0.011214 0.000000
# 2 -0.002719 0.009409 -0.005114 0.000000 0.005493 0.000000
# 3 -0.008006 -0.005114 0.013980 0.000000 -0.007285 0.000000
# 4 0.000000 0.000000 0.000000 0.034697 0.000000 0.010701
# 5 -0.011214 0.005493 -0.007285 0.000000 0.040692 0.000000
# 6 0.000000 0.000000 0.000000 0.010701 0.000000 0.062527
#
#
# Mechanical properties :
#
#
# Convention : Reuss Voigt Hill
#
# Bulk Modulus (GPa) = 21.80112 54.00419 37.90265
# Shear Modulus (GPa) = 19.05293 28.32951 23.69122
#
# Velocity S-wave (km/s) = 2.82189 3.44096 3.14669
# Velocity P-wave (km/s) = 4.44175 6.19336 5.38919
#
# Compressibility (1/GPa) = 0.04586921
#
# Stress axis : x y z
#
# Youngs Moduli (GPa) = 18.46518 106.27911 71.53122
#
# Poissons Ratio (x) = 0.28894 0.57265
# Poissons Ratio (y) = 0.05020 0.36578
# Poissons Ratio (z) = 0.14783 0.54346
#
# Static dielectric constant tensor:
#      x y z
#    x 3.784470 0.000000 0.106490 
#    y 0.000000 4.690780 0.000000 
#    z 0.106490 0.000000 4.606560 
# 
# 
# High freq. dielectric constant tensor:
#      x y z
#    x 1.901010 0.000000 0.025960 
#    y 0.000000 1.971040 0.000000 
#    z 0.025960 0.000000 1.959220 
# 
# From -- ./inp_files/1305.got.cif
#   From: 2010.03.12/outbox.cif.g09.slc.cpg/sg7_cif.got.tgz:1305.got - 2010.03.30 08:40:41.
