data_PCOD8052373
_publ_section_title
;
Structure prediction by ZEFSAII (Michael W. Deem and Ramdas Pophale) SiO2 
 PCOD8052373
Probable space group: P M
;
_chemical_formula_sum "Si O2"
_cell_formula_units_Z 16
_cell_length_a 19.682243
_cell_length_b 8.542420
_cell_length_c 14.318712
_cell_angle_alpha 90.000000
_cell_angle_beta 160.778869
_cell_angle_gamma 90.000000
_cell_volume 792.572441
_symmetry_space_group_name_H-M "P M"
_symmetry_group_IT_number 6
_symmetry_cell_setting 'monoclinic'
loop_
_space_group_symop_operation_xyz
x,y,z
x,-y,z
loop_
_atom_site_type_symbol
_atom_site_label
_atom_site_fract_x
_atom_site_fract_y
_atom_site_fract_z
Si Si1 0.036770 0.813604 0.817390
Si Si2 0.969913 0.816902 0.356477
Si Si3 0.245387 0.814036 0.416285
Si Si4 0.778023 0.184137 0.304638
Si Si5 0.498142 0.185342 0.430983
Si Si6 0.877092 0.813904 0.806636
Si Si7 0.614707 0.317174 0.780099
Si Si8 0.324930 0.315973 0.715634
O O1 0.913931 0.754905 0.567697
O O2 0.921262 0.749135 0.760065
O O3 0.045887 0.000000 0.832001
O O4 0.269855 0.745108 0.116674
O O5 0.903096 0.771738 0.374156
O O6 0.207778 0.764973 0.651086
O O7 0.940731 0.000000 0.300422
O O8 0.840295 0.720832 0.111929
O O9 0.456484 0.745431 0.651225
O O10 0.215098 0.750167 0.480620
O O11 0.261542 0.000000 0.438664
O O12 0.055848 0.753266 0.107682
O O13 0.733109 0.000000 0.252636
O O14 0.564281 0.274552 0.029616
O O15 0.655924 0.248895 0.556420
O O16 0.581884 0.230859 0.640355
O O17 0.488813 0.000000 0.414786
O O18 0.879515 0.000000 0.809231
O O19 0.585828 0.500000 0.727210
O O20 0.297273 0.500000 0.684631
#
# Coordination Sequence:
#
# PCOD8052373 Si02
#       8
#     2   2   2   2   2   2   2   2
#     4   9  18  35  59  89 116 147 200 256 297 343
#     4  11  23  40  63  90 121 160 205 250 299 361
#     4  11  20  36  61  89 121 158 198 241 298 365
#     4  10  22  40  64  89 117 158 208 255 301 356
#     4  10  19  35  60  87 118 155 194 244 301 356
#     4   9  18  32  58  91 117 145 188 244 299 348
#     4  12  23  36  58  89 123 159 196 244 306 363
#     4  12  25  40  61  90 125 160 197 250 311 366
#
# _framework density 20.187429000000002
#
# number of rings (size 3 to 8) (size 9 to 14) (size 15 to 20)
#    0.000    1.500    2.500    3.750    0.000    2.500 
#    0.000    5.000    0.000    1.500    0.000    0.000 
#    0.000    0.000    0.000    0.000    0.000    0.000 
#
# Total GULP energy -198443.474140 kJ/mol
# GULP energy per Si atom -12402.717134 kJ/mol
# Density = 2.014148 g / cm^3
# Si number density = 20.187429 Si / 1000 Ang^3
#
#
#
# Elastic Constant Matrix: (Units=GPa)
#
#
# Indices 1 2 3 4 5 6 
#
# 1 156.8178 26.9097 90.2629 0.0000 11.9486 0.0000
# 2 26.9097 33.5610 13.3020 0.0000 4.7746 0.0000
# 3 90.2629 13.3020 96.1548 0.0000 -6.9776 0.0000
# 4 0.0000 0.0000 0.0000 7.0263 0.0000 5.4030
# 5 11.9486 4.7746 -6.9776 0.0000 43.6432 0.0000
# 6 0.0000 0.0000 0.0000 5.4030 0.0000 11.8101
#
#
#
# Elastic Compliance Matrix: (Units=1/GPa)
#
#
# Indices 1 2 3 4 5 6 
#
# 1 0.016798 -0.006490 -0.015331 0.000000 -0.006340 0.000000
# 2 -0.006490 0.034811 0.001143 0.000000 -0.001849 0.000000
# 3 -0.015331 0.001143 0.025221 0.000000 0.008105 0.000000
# 4 0.000000 0.000000 0.000000 0.219563 0.000000 -0.100447
# 5 -0.006340 -0.001849 0.008105 0.000000 0.026147 0.000000
# 6 0.000000 0.000000 0.000000 -0.100447 0.000000 0.130626
#
#
# Mechanical properties :
#
#
# Convention : Reuss Voigt Hill
#
# Bulk Modulus (GPa) = 28.19030 60.83143 44.51087
# Shear Modulus (GPa) = 9.87466 22.89986 16.38726
#
# Velocity S-wave (km/s) = 2.21407 3.37168 2.85222
# Velocity P-wave (km/s) = 4.53109 6.73472 5.73965
#
# Compressibility (1/GPa) = 0.03547319
#
# Stress axis : x y z
#
# Youngs Moduli (GPa) = 59.53117 28.72688 39.64901
#
# Poissons Ratio (x) = 0.18645 0.60785
# Poissons Ratio (y) = 0.38639 -0.04532
# Poissons Ratio (z) = 0.91266 -0.03283
#
# Static dielectric constant tensor:
#      x y z
#    x 3.975140 0.000000 0.120140 
#    y 0.000000 3.325850 0.000000 
#    z 0.120140 0.000000 3.824690 
# 
# 
# High freq. dielectric constant tensor:
#      x y z
#    x 1.802570 0.000000 0.011890 
#    y 0.000000 1.758740 0.000000 
#    z 0.011890 0.000000 1.791690 
# 
# From -- ./inp_files/5673.got.cif
#   From: 2010.03.12/outbox.cif.g09.slc.cpg/sg6_3_cif.got.tgz:5673.got - 2010.03.30 10:24:59.
