data_PCOD8052948
_publ_section_title
;
Structure prediction by ZEFSAII (Michael W. Deem and Ramdas Pophale) SiO2 
 PCOD8052948
Probable space group: C M
;
_chemical_formula_sum "Si O2"
_cell_formula_units_Z 32
_cell_length_a 26.579929
_cell_length_b 9.432488
_cell_length_c 20.347092
_cell_angle_alpha 90.000000
_cell_angle_beta 159.958868
_cell_angle_gamma 90.000000
_cell_volume 1748.194506
_symmetry_space_group_name_H-M "C M"
_symmetry_group_IT_number 8
_symmetry_cell_setting 'monoclinic'
loop_
_space_group_symop_operation_xyz
x,y,z
x,-y,z
1/2+x,1/2+y,z
1/2+x,1/2-y,z
loop_
_atom_site_type_symbol
_atom_site_label
_atom_site_fract_x
_atom_site_fract_y
_atom_site_fract_z
Si Si1 0.881090 0.831711 0.061550
Si Si2 0.455576 0.664488 0.775966
Si Si3 0.796967 0.836466 0.712056
Si Si4 0.323329 0.666410 0.472497
Si Si5 0.079003 0.341707 0.739191
Si Si6 0.530726 0.335334 0.112473
Si Si7 0.710507 0.156355 0.045208
Si Si8 0.510878 0.332218 0.356787
O O1 0.956731 0.776016 0.088242
O O2 0.970974 0.774469 0.234824
O O3 0.879616 0.000000 0.062738
O O4 0.709895 0.782875 0.852981
O O5 0.490705 0.500000 0.826146
O O6 0.359314 0.718888 0.718899
O O7 0.365772 0.699476 0.599858
O O8 0.614457 0.739679 0.972379
O O9 0.656135 0.745756 0.559791
O O10 0.749858 0.000000 0.649458
O O11 0.919358 0.812852 0.916774
O O12 0.311518 0.500000 0.444194
O O13 0.443995 0.732358 0.571188
O O14 0.171341 0.741285 0.269472
O O15 0.026464 0.500000 0.653505
O O16 0.145132 0.350053 0.892601
O O17 0.576259 0.500000 0.175887
O O18 0.879705 0.207151 0.246617
O O19 0.703841 0.000000 0.069013
O O20 0.537631 0.500000 0.388637
#
# Coordination Sequence:
#
# PCOD8052948 Si02
#       8
#     4   4   4   4   4   4   4   4
#     4   8  15  30  53  76  93 117 158 199 232 274
#     4   9  18  32  49  71  98 125 155 193 235 278
#     4  10  21  34  47  68  98 129 160 193 231 278
#     4  10  19  31  49  73  98 123 155 195 237 280
#     4   8  14  28  50  73  96 120 151 194 237 277
#     4  10  20  34  50  68  94 128 163 195 229 276
#     4   8  15  28  48  74  97 119 153 194 234 278
#     4   9  17  31  52  75  96 119 153 197 239 279
#
# _framework density 18.304600000000001
#
# number of rings (size 3 to 8) (size 9 to 14) (size 15 to 20)
#    0.000    3.000    0.000    2.625    0.000    2.000 
#    0.000    3.750    0.000    6.000    0.000    0.000 
#    0.000    0.000    0.000    0.000    0.000    0.000 
#
# Total GULP energy -198357.588888 kJ/mol
# GULP energy per Si atom -12397.349306 kJ/mol
# Density = 1.826294 g / cm^3
# Si number density = 18.304600 Si / 1000 Ang^3
#
#
#
# Elastic Constant Matrix: (Units=GPa)
#
#
# Indices 1 2 3 4 5 6 
#
# 1 27.9594 24.1284 40.0212 0.0000 15.5603 0.0000
# 2 24.1284 70.6869 61.4300 0.0000 17.6877 0.0000
# 3 40.0212 61.4300 114.9609 0.0000 32.6014 0.0000
# 4 0.0000 0.0000 0.0000 29.5478 0.0000 6.8515
# 5 15.5603 17.6877 32.6014 0.0000 29.3739 0.0000
# 6 0.0000 0.0000 0.0000 6.8515 0.0000 19.2113
#
#
#
# Elastic Compliance Matrix: (Units=1/GPa)
#
#
# Indices 1 2 3 4 5 6 
#
# 1 0.077189 -0.005478 -0.019386 0.000000 -0.016075 0.000000
# 2 -0.005478 0.026803 -0.012640 0.000000 0.000791 0.000000
# 3 -0.019386 -0.012640 0.024999 0.000000 -0.009866 0.000000
# 4 0.000000 0.000000 0.000000 0.036895 0.000000 -0.013158
# 5 -0.016075 0.000791 -0.009866 0.000000 0.053033 0.000000
# 6 0.000000 0.000000 0.000000 -0.013158 0.000000 0.056745
#
#
# Mechanical properties :
#
#
# Convention : Reuss Voigt Hill
#
# Bulk Modulus (GPa) = 18.52400 51.64070 35.08235
# Shear Modulus (GPa) = 13.56243 21.49511 17.52877
#
# Velocity S-wave (km/s) = 2.72496 3.43052 3.09789
# Velocity P-wave (km/s) = 4.47687 6.63057 5.65715
#
# Compressibility (1/GPa) = 0.05398403
#
# Stress axis : x y z
#
# Youngs Moduli (GPa) = 12.95529 37.30878 40.00152
#
# Poissons Ratio (x) = 0.20439 0.77545
# Poissons Ratio (y) = 0.07097 0.50560
# Poissons Ratio (z) = 0.25114 0.47156
#
# Static dielectric constant tensor:
#      x y z
#    x 3.487250 0.000000 0.319160 
#    y 0.000000 3.259960 0.000000 
#    z 0.319160 0.000000 3.299290 
# 
# 
# High freq. dielectric constant tensor:
#      x y z
#    x 1.697300 0.000000 0.024750 
#    y 0.000000 1.691620 0.000000 
#    z 0.024750 0.000000 1.702910 
# 
# From -- ./inp_files/31061.got.cif
#   From: 2010.03.12/outbox.cif.g09.slc.cpg/sg8_16_cif.got.tgz:31061.got - 2010.03.31 10:45:26.
