data_PCOD8052547
_publ_section_title
;
Structure prediction by ZEFSAII (Michael W. Deem and Ramdas Pophale) SiO2 
 PCOD8052547
Probable space group: P M
;
_chemical_formula_sum "Si O2"
_cell_formula_units_Z 16
_cell_length_a 19.344665
_cell_length_b 8.431926
_cell_length_c 9.604470
_cell_angle_alpha 90.000000
_cell_angle_beta 28.959739
_cell_angle_gamma 90.000000
_cell_volume 758.545489
_symmetry_space_group_name_H-M "P M"
_symmetry_group_IT_number 6
_symmetry_cell_setting 'monoclinic'
loop_
_space_group_symop_operation_xyz
x,y,z
x,-y,z
loop_
_atom_site_type_symbol
_atom_site_label
_atom_site_fract_x
_atom_site_fract_y
_atom_site_fract_z
Si Si1 0.833610 0.817265 0.251860
Si Si2 0.387926 0.817665 0.714588
Si Si3 0.144205 0.683735 0.324496
Si Si4 0.855248 0.184173 0.727688
Si Si5 0.675344 0.315771 0.273435
Si Si6 0.706546 0.683850 0.742580
Si Si7 0.397946 0.313531 0.391185
Si Si8 0.135519 0.686173 0.658669
O O1 0.771228 0.783249 0.210201
O O2 0.739881 0.712585 0.522469
O O3 0.814346 0.000000 0.324112
O O4 0.000300 0.774760 0.962760
O O5 0.506762 0.713664 0.585841
O O6 0.368933 0.772452 0.587396
O O7 0.432317 0.000000 0.646292
O O8 0.241301 0.789977 0.053952
O O9 0.184812 0.500000 0.235405
O O10 0.161844 0.739066 0.453076
O O11 0.983270 0.710336 0.559519
O O12 0.824861 0.215795 0.618928
O O13 0.885426 0.000000 0.702138
O O14 0.713238 0.248518 0.054213
O O15 0.711247 0.500000 0.226984
O O16 0.724135 0.500000 0.748066
O O17 0.546490 0.741761 0.059930
O O18 0.398088 0.500000 0.419925
O O19 0.273596 0.264504 0.503632
O O20 0.104098 0.500000 0.721141
#
# Coordination Sequence:
#
# PCOD8052547 Si02
#       8
#     2   2   2   2   2   2   2   2
#     4  12  26  43  66  99 135 172 218 275 333 387
#     4  12  26  43  66  99 135 172 218 275 333 387
#     4  11  24  43  69  97 130 176 222 267 326 396
#     4  12  24  42  68  99 132 167 218 280 336 386
#     4  12  24  44  70  95 128 173 224 272 330 402
#     4  11  24  43  69  97 130 176 222 267 326 396
#     4  10  23  44  68  95 129 173 223 268 322 394
#     4  10  23  44  68  95 129 173 223 268 322 394
#
# _framework density 21.093003
#
# number of rings (size 3 to 8) (size 9 to 14) (size 15 to 20)
#    0.000    0.750    2.500    5.250    3.500    1.500 
#    0.000    0.000    0.000    0.000    0.000    0.000 
#    0.000    0.000    0.000    0.000    0.000    0.000 
#
# Total GULP energy -198527.073897 kJ/mol
# GULP energy per Si atom -12407.942119 kJ/mol
# Density = 2.104499 g / cm^3
# Si number density = 21.093003 Si / 1000 Ang^3
#
#
#
# Elastic Constant Matrix: (Units=GPa)
#
#
# Indices 1 2 3 4 5 6 
#
# 1 110.0398 34.3499 47.1988 0.0000 -12.6862 0.0000
# 2 34.3499 71.3902 35.3432 0.0000 -0.9369 0.0000
# 3 47.1988 35.3432 114.4081 0.0000 8.3287 0.0000
# 4 0.0000 0.0000 0.0000 21.3640 0.0000 -1.1749
# 5 -12.6862 -0.9369 8.3287 0.0000 34.0563 0.0000
# 6 0.0000 0.0000 0.0000 -1.1749 0.0000 26.8203
#
#
#
# Elastic Compliance Matrix: (Units=1/GPa)
#
#
# Indices 1 2 3 4 5 6 
#
# 1 0.012927 -0.003888 -0.004556 0.000000 0.005822 0.000000
# 2 -0.003888 0.017807 -0.003897 0.000000 -0.000005 0.000000
# 3 -0.004556 -0.003897 0.012172 0.000000 -0.004781 0.000000
# 4 0.000000 0.000000 0.000000 0.046921 0.000000 0.002055
# 5 0.005822 -0.000005 -0.004781 0.000000 0.032701 0.000000
# 6 0.000000 0.000000 0.000000 0.002055 0.000000 0.037375
#
#
# Mechanical properties :
#
#
# Convention : Reuss Voigt Hill
#
# Bulk Modulus (GPa) = 54.86908 58.84688 56.85798
# Shear Modulus (GPa) = 26.22493 28.37788 27.30141
#
# Velocity S-wave (km/s) = 3.52987 3.67191 3.60159
# Velocity P-wave (km/s) = 6.53320 6.77765 6.65655
#
# Compressibility (1/GPa) = 0.01822520
#
# Stress axis : x y z
#
# Youngs Moduli (GPa) = 77.36027 56.15670 82.15668
#
# Poissons Ratio (x) = 0.21833 0.37427
# Poissons Ratio (y) = 0.30077 0.32014
# Poissons Ratio (z) = 0.35242 0.21883
#
# Static dielectric constant tensor:
#      x y z
#    x 3.789590 0.000000 -0.001220 
#    y 0.000000 3.662900 0.000000 
#    z -0.001220 0.000000 3.803220 
# 
# 
# High freq. dielectric constant tensor:
#      x y z
#    x 1.836690 0.000000 -0.001570 
#    y 0.000000 1.827160 0.000000 
#    z -0.001570 0.000000 1.833780 
# 
# From -- ./inp_files/2727.got.cif
#   From: 2010.03.12/outbox.cif.g09.slc.cpg/sg6_2_cif.got.tgz:2727.got - 2010.03.30 10:24:59.
