data_PCOD8052367
_publ_section_title
;
Structure prediction by ZEFSAII (Michael W. Deem and Ramdas Pophale) SiO2 
 PCOD8052367
Probable space group: P M
;
_chemical_formula_sum "Si O2"
_cell_formula_units_Z 16
_cell_length_a 12.622290
_cell_length_b 8.544042
_cell_length_c 12.550319
_cell_angle_alpha 90.000000
_cell_angle_beta 35.911930
_cell_angle_gamma 90.000000
_cell_volume 793.879660
_symmetry_space_group_name_H-M "P M"
_symmetry_group_IT_number 6
_symmetry_cell_setting 'monoclinic'
loop_
_space_group_symop_operation_xyz
x,y,z
x,-y,z
loop_
_atom_site_type_symbol
_atom_site_label
_atom_site_fract_x
_atom_site_fract_y
_atom_site_fract_z
Si Si1 0.879050 0.317552 0.075450
Si Si2 0.398069 0.814029 0.945289
Si Si3 0.289345 0.682298 0.445538
Si Si4 0.776600 0.817350 0.714468
Si Si5 0.164249 0.813912 0.332496
Si Si6 0.258148 0.814399 0.831879
Si Si7 0.526980 0.182952 0.427427
Si Si8 0.924196 0.181527 0.817060
O O1 0.880193 0.500000 0.051441
O O2 0.718089 0.270951 0.287090
O O3 0.835795 0.226456 0.000857
O O4 0.066691 0.267212 0.974169
O O5 0.594358 0.740479 0.815189
O O6 0.341110 0.754833 0.875590
O O7 0.409667 0.000000 0.938900
O O8 0.247916 0.757755 0.152595
O O9 0.334689 0.500000 0.412996
O O10 0.284442 0.740399 0.328197
O O11 0.446433 0.775548 0.377864
O O12 0.101840 0.714665 0.658015
O O13 0.784666 0.783622 0.834749
O O14 0.957526 0.751012 0.509672
O O15 0.768498 0.000000 0.698128
O O16 0.169424 0.000000 0.342643
O O17 0.392385 0.758765 0.629569
O O18 0.229389 0.000000 0.853207
O O19 0.562605 0.000000 0.408500
O O20 0.982987 0.000000 0.768412
#
# Coordination Sequence:
#
# PCOD8052367 Si02
#       8
#     2   2   2   2   2   2   2   2
#     4  12  25  39  59  88 123 160 202 252 312 367
#     4   9  18  34  59  88 113 148 199 252 298 347
#     4  11  21  35  57  87 125 160 196 245 305 362
#     4   8  16  30  51  84 116 144 185 238 290 346
#     4   9  18  33  56  84 117 154 192 241 299 356
#     4  10  22  41  64  89 120 158 206 256 302 359
#     4  11  23  39  61  87 119 161 208 252 302 362
#     4  10  19  35  59  87 121 159 200 244 302 363
#
# _framework density 20.154188000000001
#
# number of rings (size 3 to 8) (size 9 to 14) (size 15 to 20)
#    0.000    2.000    1.250    3.750    1.750    1.500 
#    0.000    4.375    0.000    3.750    0.000    0.000 
#    0.000    0.000    0.000    0.000    0.000    0.000 
#
# Total GULP energy -198413.021437 kJ/mol
# GULP energy per Si atom -12400.813840 kJ/mol
# Density = 2.010832 g / cm^3
# Si number density = 20.154188 Si / 1000 Ang^3
#
#
#
# Elastic Constant Matrix: (Units=GPa)
#
#
# Indices 1 2 3 4 5 6 
#
# 1 153.0967 24.8442 81.0660 0.0000 -4.5450 0.0000
# 2 24.8442 41.6409 16.0121 0.0000 -0.6630 0.0000
# 3 81.0660 16.0121 117.9968 0.0000 -9.7610 0.0000
# 4 0.0000 0.0000 0.0000 17.3317 0.0000 1.9486
# 5 -4.5450 -0.6630 -9.7610 0.0000 30.8993 0.0000
# 6 0.0000 0.0000 0.0000 1.9486 0.0000 2.7749
#
#
#
# Elastic Compliance Matrix: (Units=1/GPa)
#
#
# Indices 1 2 3 4 5 6 
#
# 1 0.010820 -0.003783 -0.006977 0.000000 -0.000694 0.000000
# 2 -0.003783 0.026669 -0.001046 0.000000 -0.000315 0.000000
# 3 -0.006977 -0.001046 0.013681 0.000000 0.003273 0.000000
# 4 0.000000 0.000000 0.000000 0.062643 0.000000 -0.043989
# 5 -0.000694 -0.000315 0.003273 0.000000 0.033288 0.000000
# 6 0.000000 0.000000 0.000000 -0.043989 0.000000 0.391264
#
#
# Mechanical properties :
#
#
# Convention : Reuss Voigt Hill
#
# Bulk Modulus (GPa) = 36.28843 61.84211 49.06527
# Shear Modulus (GPa) = 8.75405 22.92200 15.83803
#
# Velocity S-wave (km/s) = 2.08638 3.37609 2.80633
# Velocity P-wave (km/s) = 4.88349 6.77853 5.90749
#
# Compressibility (1/GPa) = 0.02755699
#
# Stress axis : x y z
#
# Youngs Moduli (GPa) = 92.42337 37.49638 73.09376
#
# Poissons Ratio (x) = 0.14187 0.51000
# Poissons Ratio (y) = 0.34968 0.07644
# Poissons Ratio (z) = 0.64487 0.03921
#
# Static dielectric constant tensor:
#      x y z
#    x 3.788490 0.000000 -0.050700 
#    y 0.000000 3.293330 0.000000 
#    z -0.050700 0.000000 3.838790 
# 
# 
# High freq. dielectric constant tensor:
#      x y z
#    x 1.785910 0.000000 -0.005430 
#    y 0.000000 1.755630 0.000000 
#    z -0.005430 0.000000 1.793230 
# 
# From -- ./inp_files/5024.got.cif
#   From: 2010.03.12/outbox.cif.g09.slc.cpg/sg6_3_cif.got.tgz:5024.got - 2010.03.30 10:24:59.
