data_PCOD8052240
_publ_section_title
;
Structure prediction by ZEFSAII (Michael W. Deem and Ramdas Pophale) SiO2 
 PCOD8052240
Probable space group: P M
;
_chemical_formula_sum "Si O2"
_cell_formula_units_Z 16
_cell_length_a 12.308388
_cell_length_b 8.836822
_cell_length_c 10.365291
_cell_angle_alpha 90.000000
_cell_angle_beta 127.542215
_cell_angle_gamma 90.000000
_cell_volume 893.922193
_symmetry_space_group_name_H-M "P M"
_symmetry_group_IT_number 6
_symmetry_cell_setting 'monoclinic'
loop_
_space_group_symop_operation_xyz
x,y,z
x,-y,z
loop_
_atom_site_type_symbol
_atom_site_label
_atom_site_fract_x
_atom_site_fract_y
_atom_site_fract_z
Si Si1 0.115580 0.679443 0.082970
Si Si2 0.280958 0.678533 0.951375
Si Si3 0.560674 0.678618 0.262787
Si Si4 0.134146 0.821701 0.603068
Si Si5 0.863233 0.321803 0.486229
Si Si6 0.843195 0.679248 0.767187
Si Si7 0.544659 0.680082 0.537979
Si Si8 0.262566 0.319848 0.445041
O O1 0.114881 0.500000 0.088183
O O2 0.172263 0.741328 0.259464
O O3 0.212317 0.730399 0.035540
O O4 0.961579 0.744096 0.946966
O O5 0.261117 0.500000 0.912722
O O6 0.212509 0.767840 0.786495
O O7 0.442013 0.725350 0.076068
O O8 0.560642 0.500000 0.279638
O O9 0.712398 0.728039 0.324646
O O10 0.528213 0.746290 0.381196
O O11 0.211962 0.757198 0.536926
O O12 0.977618 0.764720 0.487068
O O13 0.135406 0.000000 0.598055
O O14 0.887575 0.500000 0.486967
O O15 0.876140 0.271983 0.644606
O O16 0.845709 0.500000 0.774585
O O17 0.691924 0.737087 0.700796
O O18 0.542767 0.500000 0.529681
O O19 0.419537 0.734662 0.536503
O O20 0.252225 0.500000 0.451279
#
# Coordination Sequence:
#
# PCOD8052240 Si02
#       8
#     2   2   2   2   2   2   2   2
#     4   9  15  26  51  83 104 123 161 213 264 310
#     4  10  17  32  57  84 107 130 168 219 268 311
#     4   8  14  26  53  88 109 122 158 219 273 313
#     4  12  25  37  48  70 108 151 186 213 249 305
#     4   9  16  31  55  80 105 134 168 213 267 313
#     4   8  13  23  47  82 107 121 151 209 267 310
#     4   8  13  24  46  78 107 126 154 203 264 315
#     4  10  19  33  53  75 101 135 172 213 264 315
#
# _framework density 17.898651000000001
#
# number of rings (size 3 to 8) (size 9 to 14) (size 15 to 20)
#    0.000    2.750    2.500    2.625    0.000    0.000 
#    0.000    2.500    0.000    7.500    0.000    0.000 
#    0.000    0.000    0.000    0.000    0.000    0.000 
#
# Total GULP energy -198264.379757 kJ/mol
# GULP energy per Si atom -12391.523735 kJ/mol
# Density = 1.785791 g / cm^3
# Si number density = 17.898651 Si / 1000 Ang^3
#
#
#
# Elastic Constant Matrix: (Units=GPa)
#
#
# Indices 1 2 3 4 5 6 
#
# 1 140.2810 29.4661 44.6981 0.0000 19.9784 0.0000
# 2 29.4661 35.0309 12.4160 0.0000 0.7742 0.0000
# 3 44.6981 12.4160 57.2777 0.0000 16.7318 0.0000
# 4 0.0000 0.0000 0.0000 1.8011 0.0000 5.3106
# 5 19.9784 0.7742 16.7318 0.0000 35.1220 0.0000
# 6 0.0000 0.0000 0.0000 5.3106 0.0000 -4.7489
#
#
#
# Elastic Compliance Matrix: (Units=1/GPa)
#
#
# Indices 1 2 3 4 5 6 
#
# 1 0.011013 -0.007016 -0.006144 0.000000 -0.003183 0.000000
# 2 -0.007016 0.035651 -0.003705 0.000000 0.004970 0.000000
# 3 -0.006144 -0.003705 0.025570 0.000000 -0.008605 0.000000
# 4 0.000000 0.000000 0.000000 0.129201 0.000000 0.144483
# 5 -0.003183 0.004970 -0.008605 0.000000 0.034273 0.000000
# 6 0.000000 0.000000 0.000000 0.144483 0.000000 -0.049002
#
#
# Mechanical properties :
#
#
# Convention : Reuss Voigt Hill
#
# Bulk Modulus (GPa) = 25.97052 45.08333 35.52692
# Shear Modulus (GPa) = 21.43449 16.16880 18.80164
#
# Velocity S-wave (km/s) = 3.46431 3.00884 3.24458
# Velocity P-wave (km/s) = 5.52659 6.10849 5.82481
#
# Compressibility (1/GPa) = 0.03850520
#
# Stress axis : x y z
#
# Youngs Moduli (GPa) = 90.80054 28.04993 39.10843
#
# Poissons Ratio (x) = 0.19679 0.24027
# Poissons Ratio (y) = 0.63704 0.14489
# Poissons Ratio (z) = 0.55786 0.10392
#
# Static dielectric constant tensor:
#      x y z
#    x 3.657690 0.000000 0.469100 
#    y 0.000000 2.737870 0.000000 
#    z 0.469100 0.000000 3.590850 
# 
# 
# High freq. dielectric constant tensor:
#      x y z
#    x 1.699140 0.000000 0.026910 
#    y 0.000000 1.630040 0.000000 
#    z 0.026910 0.000000 1.686720 
# 
# From -- ./inp_files/3744.got.cif
#   From: 2010.03.12/outbox.cif.g09.slc.cpg/sg6_2_cif.got.tgz:3744.got - 2010.03.30 10:24:59.
