data_PCOD8052048
_publ_section_title
;
Structure prediction by ZEFSAII (Michael W. Deem and Ramdas Pophale) SiO2 
 PCOD8052048
Probable space group: C 2
;
_chemical_formula_sum "Si O2"
_cell_formula_units_Z 24
_cell_length_a 15.288068
_cell_length_b 8.242245
_cell_length_c 8.666778
_cell_angle_alpha 90.000000
_cell_angle_beta 73.106108
_cell_angle_gamma 90.000000
_cell_volume 1044.954051
_symmetry_space_group_name_H-M "C 2"
_symmetry_group_IT_number 5
_symmetry_cell_setting 'monoclinic'
loop_
_space_group_symop_operation_xyz
x,y,z
-x,y,-z
1/2+x,1/2+y,z
1/2-x,1/2+y,-z
loop_
_atom_site_type_symbol
_atom_site_label
_atom_site_fract_x
_atom_site_fract_y
_atom_site_fract_z
Si Si1 0.843115 0.021310 0.855627
Si Si2 0.998139 0.260178 0.274846
Si Si3 0.654114 0.181156 0.972920
Si Si4 0.848985 0.711890 0.386452
Si Si5 0.000000 0.459139 0.000000
Si Si6 0.840250 0.058073 0.500454
Si Si7 0.000000 0.522023 0.500000
O O1 0.752670 0.109298 0.967614
O O2 0.836382 0.991170 0.676691
O O3 0.928832 0.138490 0.837533
O O4 0.859072 0.854636 0.939426
O O5 0.948702 0.345389 0.153316
O O6 0.924966 0.176199 0.425242
O O7 0.047126 0.402206 0.349947
O O8 0.637164 0.175857 0.798944
O O9 0.572256 0.062474 0.066293
O O10 0.751514 0.651474 0.498059
O O11 0.925062 0.634107 0.456989
O O12 0.853294 0.904833 0.385918
#
# Coordination Sequence:
#
# PCOD8052048 Si02
#       7
#     4   4   4   4   2   4   2
#     4  11  26  47  73 104 147 189 240 296 358 433
#     4  12  26  47  74 107 145 192 241 295 362 428
#     4  11  27  48  70 108 145 191 240 293 367 424
#     4  11  27  45  75 105 144 190 242 300 356 425
#     4  12  28  46  72 104 150 192 240 298 358 426
#     4  11  26  46  73 107 142 190 242 296 360 423
#     4  12  24  48  72 106 144 188 244 292 354 430
#
# _framework density 22.967518999999999
#
# number of rings (size 3 to 8) (size 9 to 14) (size 15 to 20)
#    0.000    0.667    3.333    2.000   14.000    1.333 
#    0.000    0.000    0.000    0.000    0.000    0.000 
#    0.000    0.000    0.000    0.000    0.000    0.000 
#
# Total GULP energy -148763.453069 kJ/mol
# GULP energy per Si atom -12396.954422 kJ/mol
# Density = 2.291524 g / cm^3
# Si number density = 22.967519 Si / 1000 Ang^3
#
#
#
# Elastic Constant Matrix: (Units=GPa)
#
#
# Indices 1 2 3 4 5 6 
#
# 1 149.1443 54.9762 36.7007 0.0000 -5.5314 0.0000
# 2 54.9762 110.2627 41.9180 0.0000 2.2952 0.0000
# 3 36.7007 41.9180 80.2819 0.0000 0.3586 0.0000
# 4 0.0000 0.0000 0.0000 47.8819 0.0000 1.7745
# 5 -5.5314 2.2952 0.3586 0.0000 35.6050 0.0000
# 6 0.0000 0.0000 0.0000 1.7745 0.0000 41.4132
#
#
#
# Elastic Compliance Matrix: (Units=1/GPa)
#
#
# Indices 1 2 3 4 5 6 
#
# 1 0.008573 -0.003512 -0.002093 0.000000 0.001579 0.000000
# 2 -0.003512 0.012770 -0.005056 0.000000 -0.001318 0.000000
# 3 -0.002093 -0.005056 0.016054 0.000000 -0.000161 0.000000
# 4 0.000000 0.000000 0.000000 0.020918 0.000000 -0.000896
# 5 0.001579 -0.001318 -0.000161 0.000000 0.028418 0.000000
# 6 0.000000 0.000000 0.000000 -0.000896 0.000000 0.024185
#
#
# Mechanical properties :
#
#
# Convention : Reuss Voigt Hill
#
# Bulk Modulus (GPa) = 62.20815 67.43096 64.81956
# Shear Modulus (GPa) = 36.33804 38.71960 37.52882
#
# Velocity S-wave (km/s) = 3.98194 4.11035 4.04666
# Velocity P-wave (km/s) = 6.94875 7.20761 7.07937
#
# Compressibility (1/GPa) = 0.01607506
#
# Stress axis : x y z
#
# Youngs Moduli (GPa) = 116.64706 78.30947 62.29170
#
# Poissons Ratio (x) = 0.27500 0.13035
# Poissons Ratio (y) = 0.40963 0.31497
# Poissons Ratio (z) = 0.24409 0.39596
#
# Static dielectric constant tensor:
#      x y z
#    x 4.074660 0.000000 -0.024960 
#    y 0.000000 4.232570 0.000000 
#    z -0.024960 0.000000 4.215780 
# 
# 
# High freq. dielectric constant tensor:
#      x y z
#    x 1.901310 0.000000 0.001490 
#    y 0.000000 1.924720 0.000000 
#    z 0.001490 0.000000 1.917770 
# 
# From -- ./inp_files/22829.got.cif
#   From: 2010.03.12/outbox.cif.g09.slc.cpg/sg5_12_cif.got.tgz:22829.got - 2010.03.31 09:47:26.
