data_PCOD8052697
_publ_section_title
;
Structure prediction by ZEFSAII (Michael W. Deem and Ramdas Pophale) SiO2 
 PCOD8052697
Probable space group: C M
;
_chemical_formula_sum "Si O2"
_cell_formula_units_Z 32
_cell_length_a 23.217056
_cell_length_b 8.979433
_cell_length_c 9.729898
_cell_angle_alpha 90.000000
_cell_angle_beta 114.780418
_cell_angle_gamma 90.000000
_cell_volume 1841.672095
_symmetry_space_group_name_H-M "C M"
_symmetry_group_IT_number 8
_symmetry_cell_setting 'monoclinic'
loop_
_space_group_symop_operation_xyz
x,y,z
x,-y,z
1/2+x,1/2+y,z
1/2+x,1/2-y,z
loop_
_atom_site_type_symbol
_atom_site_label
_atom_site_fract_x
_atom_site_fract_y
_atom_site_fract_z
Si Si1 0.058600 0.668943 0.579920
Si Si2 0.321430 0.327939 0.156146
Si Si3 0.926675 0.174877 0.764855
Si Si4 0.931343 0.177588 0.457430
Si Si5 0.684084 0.324345 0.714518
Si Si6 0.811727 0.177565 0.834742
Si Si7 0.049623 0.664646 0.898122
Si Si8 0.683743 0.172813 0.999871
O O1 0.057975 0.500000 0.524787
O O2 0.121054 0.751974 0.583483
O O3 0.059132 0.675338 0.744655
O O4 0.996137 0.753445 0.462700
O O5 0.338662 0.500000 0.168825
O O6 0.373798 0.254970 0.308367
O O7 0.325137 0.266800 0.003977
O O8 0.250220 0.302474 0.147451
O O9 0.918948 0.232419 0.601142
O O10 0.869286 0.237628 0.798771
O O11 0.994463 0.226564 0.895197
O O12 0.926284 0.000000 0.771703
O O13 0.936681 0.000000 0.458245
O O14 0.683146 0.500000 0.688708
O O15 0.747537 0.252647 0.712005
O O16 0.684472 0.287634 0.875776
O O17 0.803698 0.000000 0.819896
O O18 0.028808 0.500000 0.922709
O O19 0.120443 0.703560 0.029275
O O20 0.681500 0.000000 0.943083
#
# Coordination Sequence:
#
# PCOD8052697 Si02
#       8
#     4   4   4   4   4   4   4   4
#     4   9  16  27  42  61  86 115 140 170 214 261
#     4   8  14  26  45  63  83 112 145 173 206 253
#     4   9  17  27  42  63  86 110 141 176 210 246
#     4   9  16  27  44  67  87 108 142 182 210 239
#     4  10  17  25  41  65  86 107 140 184 216 241
#     4   9  17  30  44  60  85 119 145 166 208 264
#     4   8  14  24  40  60  82 108 140 173 208 247
#     4   8  14  26  42  61  85 115 143 170 210 259
#
# _framework density 17.375513999999999
#
# number of rings (size 3 to 8) (size 9 to 14) (size 15 to 20)
#    0.000    3.250    0.000    3.000    0.000    3.500 
#    0.000    2.500    0.000    1.500    0.000    1.750 
#    0.000    0.000    0.000    0.000    0.000    0.000 
#
# Total GULP energy -198221.442356 kJ/mol
# GULP energy per Si atom -12388.840147 kJ/mol
# Density = 1.733597 g / cm^3
# Si number density = 17.375514 Si / 1000 Ang^3
#
#
#
# Elastic Constant Matrix: (Units=GPa)
#
#
# Indices 1 2 3 4 5 6 
#
# 1 153.4171 38.2098 57.5112 0.0000 41.0561 0.0000
# 2 38.2098 48.1498 20.4314 0.0000 10.7800 0.0000
# 3 57.5112 20.4314 75.4388 0.0000 33.4554 0.0000
# 4 0.0000 0.0000 0.0000 13.3890 0.0000 9.6156
# 5 41.0561 10.7800 33.4554 0.0000 31.8773 0.0000
# 6 0.0000 0.0000 0.0000 9.6156 0.0000 26.2814
#
#
#
# Elastic Compliance Matrix: (Units=1/GPa)
#
#
# Indices 1 2 3 4 5 6 
#
# 1 0.011775 -0.005844 -0.002890 0.000000 -0.010156 0.000000
# 2 -0.005844 0.026462 -0.003893 0.000000 0.002664 0.000000
# 3 -0.002890 -0.003893 0.026711 0.000000 -0.022995 0.000000
# 4 0.000000 0.000000 0.000000 0.101308 0.000000 -0.037066
# 5 -0.010156 0.002664 -0.022995 0.000000 0.067683 0.000000
# 6 0.000000 0.000000 0.000000 -0.037066 0.000000 0.051611
#
#
# Mechanical properties :
#
#
# Convention : Reuss Voigt Hill
#
# Bulk Modulus (GPa) = 25.19272 56.59004 40.89138
# Shear Modulus (GPa) = 15.43048 25.03310 20.23179
#
# Velocity S-wave (km/s) = 2.98327 3.79979 3.41601
# Velocity P-wave (km/s) = 5.13780 7.20352 6.25650
#
# Compressibility (1/GPa) = 0.03969401
#
# Stress axis : x y z
#
# Youngs Moduli (GPa) = 84.92642 37.79067 37.43800
#
# Poissons Ratio (x) = 0.22085 0.10819
# Poissons Ratio (y) = 0.49631 0.14574
# Poissons Ratio (z) = 0.24543 0.14711
#
# Static dielectric constant tensor:
#      x y z
#    x 3.543440 0.000000 0.484710 
#    y 0.000000 3.031750 0.000000 
#    z 0.484710 0.000000 3.143910 
# 
# 
# High freq. dielectric constant tensor:
#      x y z
#    x 1.672080 0.000000 0.046790 
#    y 0.000000 1.652520 0.000000 
#    z 0.046790 0.000000 1.626320 
# 
# From -- ./inp_files/16727.got.cif
#   From: 2010.03.12/outbox.cif.g09.slc.cpg/sg8_9_cif.got.tgz:16727.got - 2010.03.31 10:45:26.
