data_PCOD8052549
_publ_section_title
;
Structure prediction by ZEFSAII (Michael W. Deem and Ramdas Pophale) SiO2 
 PCOD8052549
Probable space group: P M
;
_chemical_formula_sum "Si O2"
_cell_formula_units_Z 16
_cell_length_a 9.637360
_cell_length_b 8.406796
_cell_length_c 19.480080
_cell_angle_alpha 90.000000
_cell_angle_beta 29.356615
_cell_angle_gamma 90.000000
_cell_volume 773.733755
_symmetry_space_group_name_H-M "P M"
_symmetry_group_IT_number 6
_symmetry_cell_setting 'monoclinic'
loop_
_space_group_symop_operation_xyz
x,y,z
x,-y,z
loop_
_atom_site_type_symbol
_atom_site_label
_atom_site_fract_x
_atom_site_fract_y
_atom_site_fract_z
Si Si1 0.723660 0.682101 0.738120
Si Si2 0.159925 0.315313 0.303886
Si Si3 0.805442 0.314533 0.050692
Si Si4 0.736202 0.819820 0.588366
Si Si5 0.226772 0.182460 0.602550
Si Si6 0.864735 0.187526 0.297601
Si Si7 0.204768 0.318607 0.756874
Si Si8 0.131096 0.814605 0.038012
O O1 0.712549 0.500000 0.719224
O O2 0.790678 0.794381 0.645002
O O3 0.984039 0.705942 0.677029
O O4 0.426396 0.723140 0.902196
O O5 0.105123 0.500000 0.342374
O O6 0.486658 0.271070 0.169930
O O7 0.017996 0.208845 0.423563
O O8 0.046737 0.275125 0.277108
O O9 0.852793 0.500000 0.045370
O O10 0.913952 0.219716 0.070084
O O11 0.974810 0.259899 0.910543
O O12 0.507235 0.692457 0.662685
O O13 0.631627 0.000000 0.621579
O O14 0.536159 0.240434 0.443877
O O15 0.202626 0.198899 0.694498
O O16 0.174664 0.000000 0.604094
O O17 0.985398 0.240350 0.171808
O O18 0.889708 0.000000 0.299166
O O19 0.151974 0.500000 0.755872
O O20 0.200708 0.000000 0.009753
#
# Coordination Sequence:
#
# PCOD8052549 Si02
#       8
#     2   2   2   2   2   2   2   2
#     4  12  26  44  66  95 129 170 216 268 322 385
#     4  11  24  42  66  97 129 169 216 263 319 382
#     4  10  24  43  64  95 131 167 213 264 317 380
#     4  12  24  42  67  95 127 167 214 269 323 382
#     4  11  24  43  66  96 130 168 213 266 319 382
#     4  10  24  44  64  93 131 168 212 263 319 381
#     4  11  22  41  67  96 128 165 211 267 321 381
#     4  11  24  43  66  95 129 170 215 264 322 383
#
# _framework density 20.678947000000001
#
# number of rings (size 3 to 8) (size 9 to 14) (size 15 to 20)
#    0.000    1.000    2.500    3.750    3.500    3.000 
#    0.000    0.000    0.000    0.000    0.000    0.000 
#    0.000    0.000    0.000    0.000    0.000    0.000 
#
# Total GULP energy -198486.726109 kJ/mol
# GULP energy per Si atom -12405.420382 kJ/mol
# Density = 2.063188 g / cm^3
# Si number density = 20.678947 Si / 1000 Ang^3
#
#
#
# Elastic Constant Matrix: (Units=GPa)
#
#
# Indices 1 2 3 4 5 6 
#
# 1 118.9394 23.3861 72.7126 0.0000 -3.2062 0.0000
# 2 23.3861 70.5002 39.8006 0.0000 -1.1947 0.0000
# 3 72.7126 39.8006 167.3093 0.0000 5.5897 0.0000
# 4 0.0000 0.0000 0.0000 30.0378 0.0000 4.2934
# 5 -3.2062 -1.1947 5.5897 0.0000 44.7704 0.0000
# 6 0.0000 0.0000 0.0000 4.2934 0.0000 32.5947
#
#
#
# Elastic Compliance Matrix: (Units=1/GPa)
#
#
# Indices 1 2 3 4 5 6 
#
# 1 0.011617 -0.001101 -0.004834 0.000000 0.001406 0.000000
# 2 -0.001101 0.016528 -0.003480 0.000000 0.000797 0.000000
# 3 -0.004834 -0.003480 0.008958 0.000000 -0.001557 0.000000
# 4 0.000000 0.000000 0.000000 0.033930 0.000000 -0.004469
# 5 0.001406 0.000797 -0.001557 0.000000 0.022653 0.000000
# 6 0.000000 0.000000 0.000000 -0.004469 0.000000 0.031269
#
#
# Mechanical properties :
#
#
# Convention : Reuss Voigt Hill
#
# Bulk Modulus (GPa) = 54.72523 69.83863 62.28193
# Shear Modulus (GPa) = 33.36134 36.20387 34.78260
#
# Velocity S-wave (km/s) = 4.02095 4.18875 4.10570
# Velocity P-wave (km/s) = 6.93391 7.56573 7.25670
#
# Compressibility (1/GPa) = 0.01827311
#
# Stress axis : x y z
#
# Youngs Moduli (GPa) = 86.07943 60.50498 111.63668
#
# Poissons Ratio (x) = 0.06660 0.53964
# Poissons Ratio (y) = 0.09476 0.38848
# Poissons Ratio (z) = 0.41610 0.21055
#
# Static dielectric constant tensor:
#      x y z
#    x 3.652070 0.000000 0.017060 
#    y 0.000000 3.625260 0.000000 
#    z 0.017060 0.000000 3.901500 
# 
# 
# High freq. dielectric constant tensor:
#      x y z
#    x 1.814960 0.000000 0.002210 
#    y 0.000000 1.811080 0.000000 
#    z 0.002210 0.000000 1.822890 
# 
# From -- ./inp_files/2701.got.cif
#   From: 2010.03.12/outbox.cif.g09.slc.cpg/sg6_2_cif.got.tgz:2701.got - 2010.03.30 10:24:59.
