data_PCOD8052896
_publ_section_title
;
Structure prediction by ZEFSAII (Michael W. Deem and Ramdas Pophale) SiO2 
 PCOD8052896
Probable space group: C M
;
_chemical_formula_sum "Si O2"
_cell_formula_units_Z 32
_cell_length_a 9.992169
_cell_length_b 17.739257
_cell_length_c 11.816657
_cell_angle_alpha 90.000000
_cell_angle_beta 126.302063
_cell_angle_gamma 90.000000
_cell_volume 1688.008913
_symmetry_space_group_name_H-M "C M"
_symmetry_group_IT_number 8
_symmetry_cell_setting 'monoclinic'
loop_
_space_group_symop_operation_xyz
x,y,z
x,-y,z
1/2+x,1/2+y,z
1/2+x,1/2-y,z
loop_
_atom_site_type_symbol
_atom_site_label
_atom_site_fract_x
_atom_site_fract_y
_atom_site_fract_z
Si Si1 0.059680 0.175494 0.855310
Si Si2 0.679504 0.910465 0.270379
Si Si3 0.312811 0.089284 0.126706
Si Si4 0.840890 0.914041 0.580302
Si Si5 0.771676 0.816240 0.886431
Si Si6 0.248572 0.912366 0.341697
Si Si7 0.059226 0.414788 0.623739
Si Si8 0.376669 0.588026 0.151887
O O1 0.185839 0.241455 0.888360
O O2 0.982869 0.139538 0.703064
O O3 0.913998 0.203669 0.866370
O O4 0.168226 0.111274 0.968590
O O5 0.492497 0.878138 0.180119
O O6 0.789897 0.881605 0.431460
O O7 0.756596 0.882878 0.190819
O O8 0.676992 0.000000 0.276003
O O9 0.271163 0.124029 0.228913
O O10 0.316364 0.000000 0.131672
O O11 0.677282 0.911871 0.574464
O O12 0.908288 0.000000 0.606398
O O13 0.626989 0.866256 0.760426
O O14 0.851213 0.862819 0.028223
O O15 0.380982 0.879266 0.497811
O O16 0.062556 0.898855 0.291963
O O17 0.292934 0.000000 0.352644
O O18 0.041699 0.500000 0.660233
O O19 0.348693 0.500000 0.107740
#
# Coordination Sequence:
#
# PCOD8052896 Si02
#       8
#     4   4   4   4   4   4   4   4
#     4  11  24  39  56  79 113 151 188 229 271 326
#     4   9  18  33  58  90 116 137 174 233 286 325
#     4  10  18  34  61  87 108 139 186 231 273 326
#     4   9  17  35  61  85 107 141 186 228 274 326
#     4  11  24  40  55  78 114 152 188 227 273 327
#     4   9  16  31  58  89 109 130 181 237 276 320
#     4   9  17  34  62  86 105 139 187 233 272 323
#     4  10  20  36  59  86 114 143 180 230 281 325
#
# _framework density 18.957246000000001
#
# number of rings (size 3 to 8) (size 9 to 14) (size 15 to 20)
#    0.000    2.250    2.500    0.750    1.750    1.000 
#    2.250    2.500    0.000    0.000    0.000    0.000 
#    0.000    0.000    0.000    0.000    0.000    0.000 
#
# Total GULP energy -198375.786729 kJ/mol
# GULP energy per Si atom -12398.486671 kJ/mol
# Density = 1.891410 g / cm^3
# Si number density = 18.957246 Si / 1000 Ang^3
#
#
#
# Elastic Constant Matrix: (Units=GPa)
#
#
# Indices 1 2 3 4 5 6 
#
# 1 90.3800 18.5984 25.5370 0.0000 10.8650 0.0000
# 2 18.5984 40.3686 19.0816 0.0000 5.6829 0.0000
# 3 25.5370 19.0816 111.4957 0.0000 14.8772 0.0000
# 4 0.0000 0.0000 0.0000 -0.2329 0.0000 -5.1019
# 5 10.8650 5.6829 14.8772 0.0000 29.7284 0.0000
# 6 0.0000 0.0000 0.0000 -5.1019 0.0000 15.6852
#
#
#
# Elastic Compliance Matrix: (Units=1/GPa)
#
#
# Indices 1 2 3 4 5 6 
#
# 1 0.012878 -0.004691 -0.001756 0.000000 -0.002931 0.000000
# 2 -0.004691 0.028921 -0.003607 0.000000 -0.002009 0.000000
# 3 -0.001756 -0.003607 0.010513 0.000000 -0.003930 0.000000
# 4 0.000000 0.000000 0.000000 -0.528423 0.000000 -0.171880
# 5 -0.002931 -0.002009 -0.003930 0.000000 0.037060 0.000000
# 6 0.000000 0.000000 0.000000 -0.171880 0.000000 0.007847
#
#
# Mechanical properties :
#
#
# Convention : Reuss Voigt Hill
#
# Bulk Modulus (GPa) = 31.05139 40.96427 36.00783
# Shear Modulus (GPa) = -12.48867 20.97127 4.24130
#
# Velocity S-wave (km/s) = -2.56946 3.32963 1.49738
# Velocity P-wave (km/s) = 2.75907 6.03635 4.69308
#
# Compressibility (1/GPa) = 0.03220467
#
# Stress axis : x y z
#
# Youngs Moduli (GPa) = 77.65123 34.57738 95.12238
#
# Poissons Ratio (x) = 0.16219 0.16701
# Poissons Ratio (y) = 0.36423 0.34312
# Poissons Ratio (z) = 0.13633 0.12472
#
# Static dielectric constant tensor:
#      x y z
#    x 3.509580 0.000000 0.060640 
#    y 0.000000 3.134340 0.000000 
#    z 0.060640 0.000000 3.649720 
# 
# 
# High freq. dielectric constant tensor:
#      x y z
#    x 1.733010 0.000000 0.008010 
#    y 0.000000 1.698940 0.000000 
#    z 0.008010 0.000000 1.752830 
# 
# From -- ./inp_files/15335.got.cif
#   From: 2010.03.12/outbox.cif.g09.slc.cpg/sg8_8_cif.got.tgz:15335.got - 2010.03.31 10:45:26.
