data_PCOD8052420
_publ_section_title
;
Structure prediction by ZEFSAII (Michael W. Deem and Ramdas Pophale) SiO2 
 PCOD8052420
Probable space group: P M
;
_chemical_formula_sum "Si O2"
_cell_formula_units_Z 16
_cell_length_a 14.333855
_cell_length_b 8.660663
_cell_length_c 19.685106
_cell_angle_alpha 90.000000
_cell_angle_beta 160.604383
_cell_angle_gamma 90.000000
_cell_volume 811.533335
_symmetry_space_group_name_H-M "P M"
_symmetry_group_IT_number 6
_symmetry_cell_setting 'monoclinic'
loop_
_space_group_symop_operation_xyz
x,y,z
x,-y,z
loop_
_atom_site_type_symbol
_atom_site_label
_atom_site_fract_x
_atom_site_fract_y
_atom_site_fract_z
Si Si1 0.539070 0.180130 0.996210
Si Si2 0.208888 0.183823 0.139738
Si Si3 0.561626 0.817031 0.256627
Si Si4 0.603310 0.816875 0.681420
Si Si5 0.119487 0.319944 0.439666
Si Si6 0.586620 0.816191 0.517578
Si Si7 0.152180 0.819878 0.609232
Si Si8 0.177549 0.817010 0.872660
O O1 0.431408 0.212061 0.845636
O O2 0.291261 0.233225 0.877075
O O3 0.609548 0.000000 0.055333
O O4 0.816293 0.276288 0.202081
O O5 0.425202 0.249766 0.231812
O O6 0.318671 0.238417 0.289096
O O7 0.203590 0.000000 0.131779
O O8 0.896697 0.249521 0.912581
O O9 0.885074 0.766584 0.470750
O O10 0.539450 0.000000 0.243148
O O11 0.389651 0.750251 0.074674
O O12 0.351110 0.767034 0.555375
O O13 0.558368 0.750476 0.574429
O O14 0.614587 0.000000 0.687104
O O15 0.164959 0.500000 0.462373
O O16 0.160889 0.276236 0.546430
O O17 0.867473 0.750219 0.674212
O O18 0.602674 0.000000 0.530939
O O19 0.127158 0.000000 0.572854
O O20 0.164897 0.000000 0.868771
#
# Coordination Sequence:
#
# PCOD8052420 Si02
#       8
#     2   2   2   2   2   2   2   2
#     4  10  20  36  61  89 115 145 184 231 279 332
#     4   9  16  27  48  81 114 139 168 216 278 332
#     4   9  14  25  50  84 118 142 165 213 280 339
#     4  10  20  35  54  76 104 141 187 236 273 318
#     4  12  26  41  56  76 110 155 195 238 283 330
#     4   9  16  27  48  81 114 139 168 216 278 332
#     4  10  20  36  61  89 115 145 184 231 279 332
#     4   9  14  25  50  84 118 142 165 213 280 339
#
# _framework density 19.715765000000001
#
# number of rings (size 3 to 8) (size 9 to 14) (size 15 to 20)
#    0.000    2.250    2.500    1.875    0.000    4.500 
#    0.000    2.500    0.000    3.000    0.000    0.000 
#    0.000    0.000    0.000    0.000    0.000    0.000 
#
# Total GULP energy -198345.896616 kJ/mol
# GULP energy per Si atom -12396.618539 kJ/mol
# Density = 1.967089 g / cm^3
# Si number density = 19.715765 Si / 1000 Ang^3
#
#
#
# Elastic Constant Matrix: (Units=GPa)
#
#
# Indices 1 2 3 4 5 6 
#
# 1 100.4080 1.8037 79.8739 0.0000 2.2104 0.0000
# 2 1.8037 8.6000 6.6030 0.0000 -5.8670 0.0000
# 3 79.8739 6.6030 114.0361 0.0000 -20.4591 0.0000
# 4 0.0000 0.0000 0.0000 5.7482 0.0000 -6.4999
# 5 2.2104 -5.8670 -20.4591 0.0000 37.6939 0.0000
# 6 0.0000 0.0000 0.0000 -6.4999 0.0000 0.5417
#
#
#
# Elastic Compliance Matrix: (Units=1/GPa)
#
#
# Indices 1 2 3 4 5 6 
#
# 1 0.027486 0.001978 -0.021715 0.000000 -0.013090 0.000000
# 2 0.001978 0.132186 -0.005948 0.000000 0.017230 0.000000
# 3 -0.021715 -0.005948 0.027017 0.000000 0.015011 0.000000
# 4 0.000000 0.000000 0.000000 -0.013841 0.000000 -0.166088
# 5 -0.013090 0.017230 0.015011 0.000000 0.038127 0.000000
# 6 0.000000 0.000000 0.000000 -0.166088 0.000000 -0.146880
#
#
# Mechanical properties :
#
#
# Convention : Reuss Voigt Hill
#
# Bulk Modulus (GPa) = 7.39000 44.40059 25.89529
# Shear Modulus (GPa) = 31.13870 17.78099 24.45985
#
# Velocity S-wave (km/s) = 3.97845 3.00637 3.52607
# Velocity P-wave (km/s) = 4.98603 5.88390 5.45347
#
# Compressibility (1/GPa) = 0.13531809
#
# Stress axis : x y z
#
# Youngs Moduli (GPa) = 36.38180 7.56509 37.01429
#
# Poissons Ratio (x) = -0.01496 0.80377
# Poissons Ratio (y) = -0.07196 0.22016
# Poissons Ratio (z) = 0.79004 0.04500
#
# Static dielectric constant tensor:
#      x y z
#    x 3.736160 0.000000 -0.101780 
#    y 0.000000 2.907750 0.000000 
#    z -0.101780 0.000000 3.815400 
# 
# 
# High freq. dielectric constant tensor:
#      x y z
#    x 1.776780 0.000000 -0.007360 
#    y 0.000000 1.695010 0.000000 
#    z -0.007360 0.000000 1.782520 
# 
# From -- ./inp_files/5946.got.cif
#   From: 2010.03.12/outbox.cif.g09.slc.cpg/sg6_3_cif.got.tgz:5946.got - 2010.03.30 10:24:59.
