data_PCOD8052643
_publ_section_title
;
Structure prediction by ZEFSAII (Michael W. Deem and Ramdas Pophale) SiO2 
 PCOD8052643
Probable space group: P C
;
_chemical_formula_sum "Si O2"
_cell_formula_units_Z 16
_cell_length_a 7.459382
_cell_length_b 20.457601
_cell_length_c 5.028424
_cell_angle_alpha 90.000000
_cell_angle_beta 63.896231
_cell_angle_gamma 90.000000
_cell_volume 689.072818
_symmetry_space_group_name_H-M "P C"
_symmetry_group_IT_number 7
_symmetry_cell_setting 'monoclinic'
loop_
_space_group_symop_operation_xyz
x,y,z
x,-y,1/2+z
loop_
_atom_site_type_symbol
_atom_site_label
_atom_site_fract_x
_atom_site_fract_y
_atom_site_fract_z
Si Si1 0.339170 0.763257 0.337710
Si Si2 0.968120 0.386775 0.455318
Si Si3 0.969789 0.691257 0.469406
Si Si4 0.116581 0.960831 0.118726
Si Si5 0.338029 0.459211 0.348490
Si Si6 0.390616 0.154446 0.314346
Si Si7 0.646560 0.960516 0.459941
Si Si8 0.587199 0.351229 0.466689
O O1 0.350682 0.788099 0.630463
O O2 0.445153 0.692415 0.244703
O O3 0.103033 0.756402 0.418339
O O4 0.443350 0.813243 0.063642
O O5 0.065004 0.363461 0.110461
O O6 0.730026 0.399606 0.554763
O O7 0.096530 0.446742 0.491646
O O8 0.984764 0.327789 0.653379
O O9 0.735887 0.698088 0.705657
O O10 0.881391 0.954962 0.285968
O O11 0.193855 0.986464 0.351595
O O12 0.196606 0.890059 0.986563
O O13 0.396360 0.515420 0.518988
O O14 0.456047 0.606944 0.843820
O O15 0.571291 0.111379 0.083228
O O16 0.567121 0.012035 0.732171
#
# Coordination Sequence:
#
# PCOD8052643 Si02
#       8
#     2   2   2   2   2   2   2   2
#     4  12  26  42  68  98 137 179 225 284 335 402
#     4  10  23  45  72  94 133 178 223 269 332 414
#     4  10  23  44  72  92 129 185 226 262 333 417
#     4  10  21  40  65  89 130 182 219 274 343 400
#     4  12  27  44  73 108 138 168 226 290 336 410
#     4  12  25  38  64 102 133 168 232 285 333 393
#     4  10  21  40  65  90 132 178 222 275 338 401
#     4  10  28  45  75  93 140 184 227 263 360 403
#
# _framework density 23.219608000000001
#
# number of rings (size 3 to 8) (size 9 to 14) (size 15 to 20)
#    0.750    0.500    1.250    3.750    3.500    3.000 
#    0.000    0.000    0.000    0.000    0.000    0.000 
#    0.000    0.000    0.000    0.000    0.000    0.000 
#
# Total GULP energy -198266.250149 kJ/mol
# GULP energy per Si atom -12391.640634 kJ/mol
# Density = 2.316676 g / cm^3
# Si number density = 23.219608 Si / 1000 Ang^3
#
#
#
# Elastic Constant Matrix: (Units=GPa)
#
#
# Indices 1 2 3 4 5 6 
#
# 1 102.5657 33.8012 38.6066 0.0000 0.1992 0.0000
# 2 33.8012 71.1120 22.8192 0.0000 -10.3155 0.0000
# 3 38.6066 22.8192 102.9750 0.0000 3.4682 0.0000
# 4 0.0000 0.0000 0.0000 96.5078 0.0000 -73.7156
# 5 0.1992 -10.3155 3.4682 0.0000 30.9257 0.0000
# 6 0.0000 0.0000 0.0000 -73.7156 0.0000 145.1686
#
#
#
# Elastic Compliance Matrix: (Units=1/GPa)
#
#
# Indices 1 2 3 4 5 6 
#
# 1 0.012804 -0.005126 -0.003618 0.000000 -0.001387 0.000000
# 2 -0.005126 0.018164 -0.002317 0.000000 0.006352 0.000000
# 3 -0.003618 -0.002317 0.011650 0.000000 -0.002056 0.000000
# 4 0.000000 0.000000 0.000000 0.016927 0.000000 0.008596
# 5 -0.001387 0.006352 -0.002056 0.000000 0.034694 0.000000
# 6 0.000000 0.000000 0.000000 0.008596 0.000000 0.011253
#
#
# Mechanical properties :
#
#
# Convention : Reuss Voigt Hill
#
# Bulk Modulus (GPa) = 48.79060 51.90075 50.34568
# Shear Modulus (GPa) = 37.18976 66.61549 51.90262
#
# Velocity S-wave (km/s) = 4.00641 5.36205 4.73302
# Velocity P-wave (km/s) = 6.51614 7.79334 7.18318
#
# Compressibility (1/GPa) = 0.02049575
#
# Stress axis : x y z
#
# Youngs Moduli (GPa) = 78.10320 55.05454 85.83627
#
# Poissons Ratio (x) = 0.28222 0.31052
# Poissons Ratio (y) = 0.40037 0.19890
# Poissons Ratio (z) = 0.28254 0.12757
#
# Static dielectric constant tensor:
#      x y z
#    x 4.377200 0.000000 0.050480 
#    y 0.000000 3.557260 0.000000 
#    z 0.050480 0.000000 4.326950 
# 
# 
# High freq. dielectric constant tensor:
#      x y z
#    x 1.926570 0.000000 0.003050 
#    y 0.000000 1.887560 0.000000 
#    z 0.003050 0.000000 1.933610 
# 
# From -- ./inp_files/917.got.cif
#   From: 2010.03.12/outbox.cif.g09.slc.cpg/sg7_cif.got.tgz:917.got - 2010.03.30 08:40:41.
