data_PCOD8052415
_publ_section_title
;
Structure prediction by ZEFSAII (Michael W. Deem and Ramdas Pophale) SiO2 
 PCOD8052415
Probable space group: P M
;
_chemical_formula_sum "Si O2"
_cell_formula_units_Z 16
_cell_length_a 10.292700
_cell_length_b 8.676461
_cell_length_c 12.127880
_cell_angle_alpha 90.000000
_cell_angle_beta 51.613776
_cell_angle_gamma 90.000000
_cell_volume 848.957184
_symmetry_space_group_name_H-M "P M"
_symmetry_group_IT_number 6
_symmetry_cell_setting 'monoclinic'
loop_
_space_group_symop_operation_xyz
x,y,z
x,-y,z
loop_
_atom_site_type_symbol
_atom_site_label
_atom_site_fract_x
_atom_site_fract_y
_atom_site_fract_z
Si Si1 0.342800 0.320962 0.384130
Si Si2 0.009673 0.179702 0.971523
Si Si3 0.520188 0.322305 0.664016
Si Si4 0.719607 0.320870 0.237501
Si Si5 0.252344 0.180057 0.652359
Si Si6 0.278699 0.322217 0.981127
Si Si7 0.826205 0.819442 0.409574
Si Si8 0.202360 0.819591 0.240443
O O1 0.317077 0.500000 0.371840
O O2 0.534189 0.278154 0.300912
O O3 0.237690 0.275311 0.547461
O O4 0.277280 0.220697 0.318340
O O5 0.093983 0.223972 0.810864
O O6 0.131842 0.220894 0.007347
O O7 0.969206 0.000000 0.999713
O O8 0.839797 0.275493 0.072627
O O9 0.506057 0.500000 0.635992
O O10 0.419861 0.223794 0.627495
O O11 0.449103 0.295172 0.824124
O O12 0.709927 0.266964 0.559955
O O13 0.736311 0.500000 0.257866
O O14 0.772639 0.221847 0.314503
O O15 0.257059 0.000000 0.622737
O O16 0.224695 0.500000 0.004453
O O17 0.307764 0.268603 0.090945
O O18 0.012392 0.763318 0.334594
O O19 0.808214 0.000000 0.437880
O O20 0.217266 0.000000 0.210889
#
# Coordination Sequence:
#
# PCOD8052415 Si02
#       8
#     2   2   2   2   2   2   2   2
#     4  11  24  40  59  84 116 153 194 236 287 348
#     4  10  20  34  56  87 117 148 190 237 286 338
#     4  10  20  34  56  87 117 148 190 237 286 338
#     4  11  22  36  58  87 116 149 192 239 285 340
#     4  10  20  35  57  84 116 152 190 235 286 339
#     4  10  20  35  57  84 116 152 190 235 286 339
#     4  11  22  36  58  87 116 149 192 239 285 340
#     4  11  24  40  59  84 116 153 194 236 287 348
#
# _framework density 18.846653
#
# number of rings (size 3 to 8) (size 9 to 14) (size 15 to 20)
#    0.000    1.500    2.500    3.000    0.000    6.000 
#    0.000    1.250    0.000    0.000    0.000    0.000 
#    0.000    0.000    0.000    0.000    0.000    0.000 
#
# Total GULP energy -198476.869884 kJ/mol
# GULP energy per Si atom -12404.804368 kJ/mol
# Density = 1.880376 g / cm^3
# Si number density = 18.846653 Si / 1000 Ang^3
#
#
#
# Elastic Constant Matrix: (Units=GPa)
#
#
# Indices 1 2 3 4 5 6 
#
# 1 76.5369 22.0043 48.6436 0.0000 0.9343 0.0000
# 2 22.0043 48.2014 33.7821 0.0000 -7.4213 0.0000
# 3 48.6436 33.7821 136.8715 0.0000 -2.2153 0.0000
# 4 0.0000 0.0000 0.0000 36.3792 0.0000 0.6299
# 5 0.9343 -7.4213 -2.2153 0.0000 27.4112 0.0000
# 6 0.0000 0.0000 0.0000 0.6299 0.0000 27.1218
#
#
#
# Elastic Compliance Matrix: (Units=1/GPa)
#
#
# Indices 1 2 3 4 5 6 
#
# 1 0.017766 -0.004859 -0.005152 0.000000 -0.002337 0.000000
# 2 -0.004859 0.027550 -0.004956 0.000000 0.007224 0.000000
# 3 -0.005152 -0.004956 0.010355 0.000000 -0.000329 0.000000
# 4 0.000000 0.000000 0.000000 0.027499 0.000000 -0.000639
# 5 -0.002337 0.007224 -0.000329 0.000000 0.038490 0.000000
# 6 0.000000 0.000000 0.000000 -0.000639 0.000000 0.036886
#
#
# Mechanical properties :
#
#
# Convention : Reuss Voigt Hill
#
# Bulk Modulus (GPa) = 38.85584 52.27443 45.56513
# Shear Modulus (GPa) = 25.37301 28.66109 27.01705
#
# Velocity S-wave (km/s) = 3.67316 3.90391 3.79029
# Velocity P-wave (km/s) = 6.21700 6.93669 6.58668
#
# Compressibility (1/GPa) = 0.02573616
#
# Stress axis : x y z
#
# Youngs Moduli (GPa) = 56.28810 36.29747 96.57006
#
# Poissons Ratio (x) = 0.17637 0.49757
# Poissons Ratio (y) = 0.27350 0.47860
# Poissons Ratio (z) = 0.29002 0.17989
#
# Static dielectric constant tensor:
#      x y z
#    x 3.174710 0.000000 -0.184160 
#    y 0.000000 3.494620 0.000000 
#    z -0.184160 0.000000 3.787730 
# 
# 
# High freq. dielectric constant tensor:
#      x y z
#    x 1.695840 0.000000 -0.008560 
#    y 0.000000 1.746700 0.000000 
#    z -0.008560 0.000000 1.750310 
# 
# From -- ./inp_files/4597.got.cif
#   From: 2010.03.12/outbox.cif.g09.slc.cpg/sg6_3_cif.got.tgz:4597.got - 2010.03.30 10:24:59.
