data_PCOD8052604
_publ_section_title
;
Structure prediction by ZEFSAII (Michael W. Deem and Ramdas Pophale) SiO2 
 PCOD8052604
Probable space group: P C
;
_chemical_formula_sum "Si O2"
_cell_formula_units_Z 16
_cell_length_a 8.370179
_cell_length_b 13.907666
_cell_length_c 5.423182
_cell_angle_alpha 90.000000
_cell_angle_beta 82.758816
_cell_angle_gamma 90.000000
_cell_volume 626.275630
_symmetry_space_group_name_H-M "P C"
_symmetry_group_IT_number 7
_symmetry_cell_setting 'monoclinic'
loop_
_space_group_symop_operation_xyz
x,y,z
x,-y,1/2+z
loop_
_atom_site_type_symbol
_atom_site_label
_atom_site_fract_x
_atom_site_fract_y
_atom_site_fract_z
Si Si1 0.260240 0.025762 0.113900
Si Si2 0.013966 0.277761 0.989464
Si Si3 0.180392 0.557719 0.226236
Si Si4 0.638633 0.968833 0.798891
Si Si5 0.312632 0.236798 0.190063
Si Si6 0.755088 0.770389 0.883615
Si Si7 0.456548 0.695720 0.172467
Si Si8 0.950377 0.904424 0.203452
O O1 0.238440 0.132269 0.212594
O O2 0.351422 0.975264 0.330608
O O3 0.089440 0.974196 0.072390
O O4 0.050077 0.353681 0.762811
O O5 0.021901 0.165523 0.901760
O O6 0.158627 0.302822 0.153611
O O7 0.842958 0.294176 0.158672
O O8 0.148556 0.490210 0.468428
O O9 0.368792 0.592262 0.205817
O O10 0.646967 0.853132 0.771952
O O11 0.545264 0.007360 0.574178
O O12 0.807071 0.025486 0.828724
O O13 0.373865 0.254073 0.452715
O O14 0.440756 0.250760 0.940187
O O15 0.647400 0.697688 0.071280
O O16 0.884877 0.829095 0.015858
#
# Coordination Sequence:
#
# PCOD8052604 Si02
#       8
#     2   2   2   2   2   2   2   2
#     4  12  22  36  62  98 141 189 256 297 337 398
#     4  11  23  42  77 106 136 180 246 303 368 438
#     4  11  26  51  79 107 140 182 238 315 393 458
#     4  10  19  35  55  91 138 190 231 262 323 396
#     4  11  24  44  69 104 142 202 250 302 341 437
#     4  11  25  42  71 107 149 198 243 295 357 432
#     4  11  27  49  74 103 150 195 247 295 386 449
#     4  11  22  37  67 104 144 196 235 301 345 420
#
# _framework density 25.547858000000002
#
# number of rings (size 3 to 8) (size 9 to 14) (size 15 to 20)
#    0.000    1.000    2.500    5.250    8.750    0.000 
#    0.000    8.750    0.000    0.000    0.000    0.000 
#    0.000    0.000    0.000    0.000    0.000    0.000 
#
# Total GULP energy -198216.285840 kJ/mol
# GULP energy per Si atom -12388.517865 kJ/mol
# Density = 2.548971 g / cm^3
# Si number density = 25.547858 Si / 1000 Ang^3
#
#
#
# Elastic Constant Matrix: (Units=GPa)
#
#
# Indices 1 2 3 4 5 6 
#
# 1 86.9678 20.9115 42.6305 0.0000 -22.7226 0.0000
# 2 20.9115 76.8553 24.9955 0.0000 -27.7674 0.0000
# 3 42.6305 24.9955 131.7062 0.0000 -17.0124 0.0000
# 4 0.0000 0.0000 0.0000 47.4139 0.0000 -10.8141
# 5 -22.7226 -27.7674 -17.0124 0.0000 59.6249 0.0000
# 6 0.0000 0.0000 0.0000 -10.8141 0.0000 52.5978
#
#
#
# Elastic Compliance Matrix: (Units=1/GPa)
#
#
# Indices 1 2 3 4 5 6 
#
# 1 0.014810 -0.001313 -0.004043 0.000000 0.003879 0.000000
# 2 -0.001313 0.016343 -0.001825 0.000000 0.006590 0.000000
# 3 -0.004043 -0.001825 0.009281 0.000000 0.000257 0.000000
# 4 0.000000 0.000000 0.000000 0.022129 0.000000 0.004550
# 5 0.003879 0.006590 0.000257 0.000000 0.021392 0.000000
# 6 0.000000 0.000000 0.000000 0.004550 0.000000 0.019948
#
#
# Mechanical properties :
#
#
# Convention : Reuss Voigt Hill
#
# Bulk Modulus (GPa) = 38.35817 52.51158 45.43488
# Shear Modulus (GPa) = 39.38372 45.72676 42.55524
#
# Velocity S-wave (km/s) = 3.93054 4.23525 4.08573
# Velocity P-wave (km/s) = 5.97040 6.67198 6.33091
#
# Compressibility (1/GPa) = 0.02607006
#
# Stress axis : x y z
#
# Youngs Moduli (GPa) = 67.52354 61.18707 107.74652
#
# Poissons Ratio (x) = 0.08035 0.43566
# Poissons Ratio (y) = 0.08867 0.19668
# Poissons Ratio (z) = 0.27302 0.11169
#
# Static dielectric constant tensor:
#      x y z
#    x 4.722190 0.000000 -0.153520 
#    y 0.000000 4.340350 0.000000 
#    z -0.153520 0.000000 5.384970 
# 
# 
# High freq. dielectric constant tensor:
#      x y z
#    x 2.028080 0.000000 -0.007380 
#    y 0.000000 1.977230 0.000000 
#    z -0.007380 0.000000 2.064590 
# 
# From -- ./inp_files/708.got.cif
#   From: 2010.03.12/outbox.cif.g09.slc.cpg/sg7_cif.got.tgz:708.got - 2010.03.30 08:40:41.
