data_PCOD8052626
_publ_section_title
;
Structure prediction by ZEFSAII (Michael W. Deem and Ramdas Pophale) SiO2 
 PCOD8052626
Probable space group: P C
;
_chemical_formula_sum "Si O2"
_cell_formula_units_Z 16
_cell_length_a 9.582675
_cell_length_b 15.618708
_cell_length_c 5.265718
_cell_angle_alpha 90.000000
_cell_angle_beta 102.256811
_cell_angle_gamma 90.000000
_cell_volume 770.150377
_symmetry_space_group_name_H-M "P C"
_symmetry_group_IT_number 7
_symmetry_cell_setting 'monoclinic'
loop_
_space_group_symop_operation_xyz
x,y,z
x,-y,1/2+z
loop_
_atom_site_type_symbol
_atom_site_label
_atom_site_fract_x
_atom_site_fract_y
_atom_site_fract_z
Si Si1 0.680690 0.553330 0.686250
Si Si2 0.007410 0.405332 0.296765
Si Si3 0.489217 0.837394 0.308481
Si Si4 0.339035 0.162390 0.241528
Si Si5 0.130326 0.596583 0.342307
Si Si6 0.751881 0.946579 0.464168
Si Si7 0.076504 0.053451 0.078918
Si Si8 0.423953 0.673055 0.537215
O O1 0.658655 0.517169 0.395313
O O2 0.563464 0.625605 0.694763
O O3 0.838185 0.592201 0.766937
O O4 0.080814 0.498563 0.301094
O O5 0.072845 0.356105 0.565518
O O6 0.053561 0.358062 0.054279
O O7 0.415578 0.881452 0.526693
O O8 0.654981 0.863372 0.376224
O O9 0.472484 0.733821 0.320445
O O10 0.412659 0.871862 0.025993
O O11 0.173431 0.136582 0.167350
O O12 0.357128 0.265665 0.230600
O O13 0.302167 0.604525 0.413536
O O14 0.914171 0.913871 0.521866
O O15 0.719870 0.985645 0.728635
O O16 0.108436 0.985502 0.314207
#
# Coordination Sequence:
#
# PCOD8052626 Si02
#       8
#     2   2   2   2   2   2   2   2
#     4  12  24  42  64  89 117 155 207 258 306 360
#     4  10  20  40  60  90 105 147 201 258 295 354
#     4  10  23  42  58  89 128 163 200 239 307 365
#     4  10  23  42  58  90 127 163 200 241 307 363
#     4  10  20  38  61  82 118 143 199 244 302 353
#     4  10  21  39  65  94 122 160 206 250 292 348
#     4  10  21  39  66  94 121 158 206 252 292 346
#     4  10  28  40  60  90 128 161 199 248 313 361
#
# _framework density 20.775162999999999
#
# number of rings (size 3 to 8) (size 9 to 14) (size 15 to 20)
#    0.750    1.000    2.500    1.500    7.000    3.000 
#    2.250    0.000    0.000    0.000    0.000    0.000 
#    0.000    0.000    0.000    0.000    0.000    0.000 
#
# Total GULP energy -198279.686805 kJ/mol
# GULP energy per Si atom -12392.480425 kJ/mol
# Density = 2.072788 g / cm^3
# Si number density = 20.775163 Si / 1000 Ang^3
#
#
#
# Elastic Constant Matrix: (Units=GPa)
#
#
# Indices 1 2 3 4 5 6 
#
# 1 136.1641 53.4443 50.0609 0.0000 33.4346 0.0000
# 2 53.4443 38.3780 17.1143 0.0000 18.0566 0.0000
# 3 50.0609 17.1143 162.9799 0.0000 -1.9333 0.0000
# 4 0.0000 0.0000 0.0000 9.8714 0.0000 3.7463
# 5 33.4346 18.0566 -1.9333 0.0000 43.8881 0.0000
# 6 0.0000 0.0000 0.0000 3.7463 0.0000 26.2632
#
#
#
# Elastic Compliance Matrix: (Units=1/GPa)
#
#
# Indices 1 2 3 4 5 6 
#
# 1 0.018366 -0.021562 -0.003440 0.000000 -0.005272 0.000000
# 2 -0.021562 0.059821 0.000244 0.000000 -0.008175 0.000000
# 3 -0.003440 0.000244 0.007200 0.000000 0.002837 0.000000
# 4 0.000000 0.000000 0.000000 0.107101 0.000000 -0.015277
# 5 -0.005272 -0.008175 0.002837 0.000000 0.030290 0.000000
# 6 0.000000 0.000000 0.000000 -0.015277 0.000000 0.040255
#
#
# Mechanical properties :
#
#
# Convention : Reuss Voigt Hill
#
# Bulk Modulus (GPa) = 27.87672 64.30677 46.09174
# Shear Modulus (GPa) = 15.40804 30.46470 22.93637
#
# Velocity S-wave (km/s) = 2.72629 3.83351 3.32630
# Velocity P-wave (km/s) = 4.83297 7.11444 6.08165
#
# Compressibility (1/GPa) = 0.03587223
#
# Stress axis : x y z
#
# Youngs Moduli (GPa) = 54.44730 16.71664 138.88372
#
# Poissons Ratio (x) = 0.36045 0.47772
# Poissons Ratio (y) = 1.17400 -0.03394
# Poissons Ratio (z) = 0.18728 -0.00409
#
# Static dielectric constant tensor:
#      x y z
#    x 3.882520 0.000000 -0.281120 
#    y 0.000000 3.174960 0.000000 
#    z -0.281120 0.000000 4.701040 
# 
# 
# High freq. dielectric constant tensor:
#      x y z
#    x 1.822330 0.000000 -0.000390 
#    y 0.000000 1.760480 0.000000 
#    z -0.000390 0.000000 1.837240 
# 
# From -- ./inp_files/635.got.cif
#   From: 2010.03.12/outbox.cif.g09.slc.cpg/sg7_cif.got.tgz:635.got - 2010.03.30 08:40:41.
