data_PCOD8052653
_publ_section_title
;
Structure prediction by ZEFSAII (Michael W. Deem and Ramdas Pophale) SiO2 
 PCOD8052653
Probable space group: P C
;
_chemical_formula_sum "Si O2"
_cell_formula_units_Z 16
_cell_length_a 11.251113
_cell_length_b 11.370758
_cell_length_c 4.984749
_cell_angle_alpha 90.000000
_cell_angle_beta 90.006225
_cell_angle_gamma 90.000000
_cell_volume 637.717295
_symmetry_space_group_name_H-M "P C"
_symmetry_group_IT_number 7
_symmetry_cell_setting 'monoclinic'
loop_
_space_group_symop_operation_xyz
x,y,z
x,-y,1/2+z
loop_
_atom_site_type_symbol
_atom_site_label
_atom_site_fract_x
_atom_site_fract_y
_atom_site_fract_z
Si Si1 0.962860 0.920934 0.204810
Si Si2 0.962761 0.579065 0.977467
Si Si3 0.762895 0.750065 0.091149
Si Si4 0.598901 0.422812 0.875444
Si Si5 0.326721 0.922811 0.806871
Si Si6 0.326892 0.577182 0.375400
Si Si7 0.598731 0.077181 0.306894
Si Si8 0.162728 0.250069 0.591134
O O1 0.845186 0.843241 0.248741
O O2 0.080332 0.842956 0.248861
O O3 0.962965 0.030780 0.402348
O O4 0.962651 0.469217 0.779933
O O5 0.080440 0.656752 0.933541
O O6 0.845291 0.657045 0.933404
O O7 0.681369 0.688582 0.315587
O O8 0.681197 0.811424 0.866808
O O9 0.626178 0.530485 0.672639
O O10 0.462896 0.380908 0.845289
O O11 0.462728 0.880910 0.837006
O O12 0.299437 0.969529 0.509696
O O13 0.244260 0.811408 0.866701
O O14 0.299634 0.530502 0.672608
O O15 0.244424 0.688575 0.315486
O O16 0.625990 0.969496 0.509684
#
# Coordination Sequence:
#
# PCOD8052653 Si02
#       8
#     2   2   2   2   2   2   2   2
#     4  11  26  43  60  88 120 153 200 251 292 342
#     4  11  26  43  60  88 120 153 200 251 292 342
#     4  11  23  40  66  86 117 161 198 238 298 353
#     4  10  22  39  60  90 123 153 193 242 290 349
#     4  10  22  39  60  90 123 153 193 242 290 349
#     4  10  22  39  60  90 123 153 193 242 290 349
#     4  10  22  39  60  90 123 153 193 242 290 349
#     4  11  23  40  66  86 117 161 198 238 298 353
#
# _framework density 25.089487999999999
#
# number of rings (size 3 to 8) (size 9 to 14) (size 15 to 20)
#    0.000    1.500    0.000    3.750    0.000   10.000 
#    0.000    7.500    0.000    0.000    0.000    0.000 
#    0.000    0.000    0.000    0.000    0.000    0.000 
#
# Total GULP energy -198549.496059 kJ/mol
# GULP energy per Si atom -12409.343504 kJ/mol
# Density = 2.503238 g / cm^3
# Si number density = 25.089488 Si / 1000 Ang^3
#
#
#
# Elastic Constant Matrix: (Units=GPa)
#
#
# Indices 1 2 3 4 5 6 
#
# 1 135.0564 55.5479 5.2922 0.0000 -0.3069 0.0000
# 2 55.5479 102.4065 0.1215 0.0000 -0.2076 0.0000
# 3 5.2922 0.1215 55.7604 0.0000 0.0115 0.0000
# 4 0.0000 0.0000 0.0000 7.1074 0.0000 0.0424
# 5 -0.3069 -0.2076 0.0115 0.0000 8.5457 0.0000
# 6 0.0000 0.0000 0.0000 0.0424 0.0000 67.8725
#
#
#
# Elastic Compliance Matrix: (Units=1/GPa)
#
#
# Indices 1 2 3 4 5 6 
#
# 1 0.009576 -0.005193 -0.000898 0.000000 0.000219 0.000000
# 2 -0.005193 0.012581 0.000465 0.000000 0.000119 0.000000
# 3 -0.000898 0.000465 0.018018 0.000000 -0.000045 0.000000
# 4 0.000000 0.000000 0.000000 0.140699 0.000000 -0.000088
# 5 0.000219 0.000119 -0.000045 0.000000 0.117029 0.000000
# 6 0.000000 0.000000 0.000000 -0.000088 0.000000 0.014734
#
#
# Mechanical properties :
#
#
# Convention : Reuss Voigt Hill
#
# Bulk Modulus (GPa) = 34.57154 46.12737 40.34946
# Shear Modulus (GPa) = 14.99123 32.18922 23.59022
#
# Velocity S-wave (km/s) = 2.44705 3.58575 3.06967
# Velocity P-wave (km/s) = 4.66833 5.96394 5.35546
#
# Compressibility (1/GPa) = 0.02892553
#
# Stress axis : x y z
#
# Youngs Moduli (GPa) = 104.43145 79.48313 55.49987
#
# Poissons Ratio (x) = 0.41272 0.04981
# Poissons Ratio (y) = 0.54227 -0.02583
# Poissons Ratio (z) = 0.09373 -0.03699
#
# Static dielectric constant tensor:
#      x y z
#    x 4.852140 0.000000 0.000420 
#    y 0.000000 4.373030 0.000000 
#    z 0.000420 0.000000 4.132890 
# 
# 
# High freq. dielectric constant tensor:
#      x y z
#    x 2.022850 0.000000 0.000000 
#    y 0.000000 2.001050 0.000000 
#    z 0.000000 0.000000 1.987410 
# 
# From -- ./inp_files/1056.got.cif
#   From: 2010.03.12/outbox.cif.g09.slc.cpg/sg7_cif.got.tgz:1056.got - 2010.03.30 08:40:41.
