data_PCOD8052633
_publ_section_title
;
Structure prediction by ZEFSAII (Michael W. Deem and Ramdas Pophale) SiO2 
 PCOD8052633
Probable space group: P C
;
_chemical_formula_sum "Si O2"
_cell_formula_units_Z 14
_cell_length_a 8.847123
_cell_length_b 13.678101
_cell_length_c 5.210108
_cell_angle_alpha 90.000000
_cell_angle_beta 75.974424
_cell_angle_gamma 90.000000
_cell_volume 611.688527
_symmetry_space_group_name_H-M "P C"
_symmetry_group_IT_number 7
_symmetry_cell_setting 'monoclinic'
loop_
_space_group_symop_operation_xyz
x,y,z
x,-y,1/2+z
loop_
_atom_site_type_symbol
_atom_site_label
_atom_site_fract_x
_atom_site_fract_y
_atom_site_fract_z
Si Si1 0.520560 0.551445 0.289030
Si Si2 0.155152 0.451682 0.990184
Si Si3 0.074587 0.125697 0.661583
Si Si4 0.400603 0.056337 0.530508
Si Si5 0.731716 0.057568 0.738813
Si Si6 0.162555 0.767674 0.624979
Si Si7 0.501772 0.777849 0.295909
O O1 0.595505 0.509048 0.520709
O O2 0.338315 0.530653 0.382489
O O3 0.555042 0.666515 0.233493
O O4 0.082459 0.520883 0.243321
O O5 0.116998 0.342610 0.085332
O O6 0.213916 0.046591 0.585250
O O7 0.100135 0.207816 0.432701
O O8 0.916106 0.069435 0.679635
O O9 0.073793 0.170502 0.945915
O O10 0.448602 0.170942 0.546182
O O11 0.468963 0.000425 0.256151
O O12 0.647501 0.160428 0.846137
O O13 0.687033 0.026946 0.463359
O O14 0.350076 0.785485 0.543834
#
# Coordination Sequence:
#
# PCOD8052633 Si02
#       7
#     2   2   2   2   2   2   2
#     4   9  19  34  56  84 116 152 192 238 297 355
#     4   9  16  29  52  85 117 144 186 247 296 341
#     4  11  22  39  59  82 119 163 198 236 290 364
#     4  11  21  35  56  85 116 151 190 235 285 342
#     4  12  26  43  61  88 122 162 201 245 301 358
#     4  10  21  37  61  88 115 157 203 241 295 352
#     4  10  23  39  63  92 121 153 200 256 296 342
#
# _framework density 22.887466
#
# number of rings (size 3 to 8) (size 9 to 14) (size 15 to 20)
#    0.000    1.714    0.000    5.143    0.000   11.429 
#    0.000    0.000    0.000    5.143    0.000    0.000 
#    0.000    0.000    0.000    0.000    0.000    0.000 
#
# Total GULP energy -173571.077663 kJ/mol
# GULP energy per Si atom -12397.934119 kJ/mol
# Density = 2.283537 g / cm^3
# Si number density = 22.887466 Si / 1000 Ang^3
#
#
#
# Elastic Constant Matrix: (Units=GPa)
#
#
# Indices 1 2 3 4 5 6 
#
# 1 77.9806 30.8821 37.8112 0.0000 8.8742 0.0000
# 2 30.8821 143.2714 65.0988 0.0000 5.6825 0.0000
# 3 37.8112 65.0988 99.4155 0.0000 19.5476 0.0000
# 4 0.0000 0.0000 0.0000 33.0445 0.0000 4.0107
# 5 8.8742 5.6825 19.5476 0.0000 35.1083 0.0000
# 6 0.0000 0.0000 0.0000 4.0107 0.0000 19.6387
#
#
#
# Elastic Compliance Matrix: (Units=1/GPa)
#
#
# Indices 1 2 3 4 5 6 
#
# 1 0.015845 -0.001032 -0.005161 0.000000 -0.000965 0.000000
# 2 -0.001032 0.010166 -0.006729 0.000000 0.002362 0.000000
# 3 -0.005161 -0.006729 0.017919 0.000000 -0.007583 0.000000
# 4 0.000000 0.000000 0.000000 0.031031 0.000000 -0.006337
# 5 -0.000965 0.002362 -0.007583 0.000000 0.032567 0.000000
# 6 0.000000 0.000000 0.000000 -0.006337 0.000000 0.052214
#
#
# Mechanical properties :
#
#
# Convention : Reuss Voigt Hill
#
# Bulk Modulus (GPa) = 55.29102 65.36131 60.32616
# Shear Modulus (GPa) = 26.09424 30.01667 28.05546
#
# Velocity S-wave (km/s) = 3.38022 3.62538 3.50494
# Velocity P-wave (km/s) = 6.28050 6.79295 6.54175
#
# Compressibility (1/GPa) = 0.01808612
#
# Stress axis : x y z
#
# Youngs Moduli (GPa) = 63.11321 98.36841 55.80776
#
# Poissons Ratio (x) = 0.10153 0.28801
# Poissons Ratio (y) = 0.06514 0.37551
# Poissons Ratio (z) = 0.32571 0.66188
#
# Static dielectric constant tensor:
#      x y z
#    x 4.024880 0.000000 0.199550 
#    y 0.000000 4.010540 0.000000 
#    z 0.199550 0.000000 4.337840 
# 
# 
# High freq. dielectric constant tensor:
#      x y z
#    x 1.887160 0.000000 0.015200 
#    y 0.000000 1.898030 0.000000 
#    z 0.015200 0.000000 1.911520 
# 
# From -- ./inp_files/752.got.cif
#   From: 2010.03.12/outbox.cif.g09.slc.cpg/sg7_cif.got.tgz:752.got - 2010.03.30 08:40:41.
