data_PCOD8052359
_publ_section_title
;
Structure prediction by ZEFSAII (Michael W. Deem and Ramdas Pophale) SiO2 
 PCOD8052359
Probable space group: P M
;
_chemical_formula_sum "Si O2"
_cell_formula_units_Z 16
_cell_length_a 10.330308
_cell_length_b 8.631227
_cell_length_c 12.176821
_cell_angle_alpha 90.000000
_cell_angle_beta 51.920346
_cell_angle_gamma 90.000000
_cell_volume 854.632658
_symmetry_space_group_name_H-M "P M"
_symmetry_group_IT_number 6
_symmetry_cell_setting 'monoclinic'
loop_
_space_group_symop_operation_xyz
x,y,z
x,-y,z
loop_
_atom_site_type_symbol
_atom_site_label
_atom_site_fract_x
_atom_site_fract_y
_atom_site_fract_z
Si Si1 0.690830 0.318033 0.782400
Si Si2 0.493875 0.320496 0.237627
Si Si3 0.789294 0.181436 0.961815
Si Si4 0.271482 0.180030 0.526836
Si Si5 0.203885 0.680451 0.224490
Si Si6 0.326619 0.683444 0.928845
Si Si7 0.144616 0.317493 0.807265
Si Si8 0.980929 0.179426 0.512164
O O1 0.688285 0.500000 0.810518
O O2 0.744384 0.227604 0.862357
O O3 0.513650 0.255729 0.835962
O O4 0.818867 0.280768 0.618424
O O5 0.495291 0.500000 0.267709
O O6 0.435810 0.227085 0.375503
O O7 0.374340 0.285333 0.197912
O O8 0.675757 0.267595 0.109839
O O9 0.976042 0.225074 0.887728
O O10 0.764507 0.000000 0.988922
O O11 0.260480 0.279590 0.643258
O O12 0.113780 0.221075 0.535547
O O13 0.277925 0.000000 0.553424
O O14 0.159321 0.500000 0.254093
O O15 0.054093 0.775947 0.355410
O O16 0.226009 0.739990 0.088506
O O17 0.331962 0.500000 0.925454
O O18 0.237821 0.745144 0.866510
O O19 0.109283 0.500000 0.830878
O O20 0.933669 0.000000 0.538382
#
# Coordination Sequence:
#
# PCOD8052359 Si02
#       8
#     2   2   2   2   2   2   2   2
#     4  11  20  36  60  85 111 145 191 237 281 331
#     4  10  19  34  59  86 111 144 191 236 281 335
#     4  12  23  36  55  85 119 148 187 237 286 332
#     4  10  20  35  54  82 120 150 183 233 286 333
#     4   9  17  34  57  82 111 144 184 231 281 331
#     4   9  20  38  59  85 113 144 189 238 279 331
#     4  11  22  38  60  83 113 154 195 231 278 338
#     4  10  20  33  52  84 118 145 182 231 282 333
#
# _framework density 18.721492999999999
#
# number of rings (size 3 to 8) (size 9 to 14) (size 15 to 20)
#    0.000    1.750    2.500    3.000    0.000    1.500 
#    0.000    5.000    0.000    3.000    0.000    0.000 
#    0.000    0.000    0.000    0.000    0.000    0.000 
#
# Total GULP energy -198462.464330 kJ/mol
# GULP energy per Si atom -12403.904021 kJ/mol
# Density = 1.867888 g / cm^3
# Si number density = 18.721493 Si / 1000 Ang^3
#
#
#
# Elastic Constant Matrix: (Units=GPa)
#
#
# Indices 1 2 3 4 5 6 
#
# 1 99.9505 19.0604 51.9895 0.0000 6.0118 0.0000
# 2 19.0604 46.5009 14.1453 0.0000 2.2474 0.0000
# 3 51.9895 14.1453 131.3034 0.0000 5.0416 0.0000
# 4 0.0000 0.0000 0.0000 31.5334 0.0000 -3.1341
# 5 6.0118 2.2474 5.0416 0.0000 27.7954 0.0000
# 6 0.0000 0.0000 0.0000 -3.1341 0.0000 5.8721
#
#
#
# Elastic Compliance Matrix: (Units=1/GPa)
#
#
# Indices 1 2 3 4 5 6 
#
# 1 0.013353 -0.003931 -0.004798 0.000000 -0.001700 0.000000
# 2 -0.003931 0.023443 -0.000935 0.000000 -0.000876 0.000000
# 3 -0.004798 -0.000935 0.009641 0.000000 -0.000635 0.000000
# 4 0.000000 0.000000 0.000000 0.033489 0.000000 0.017874
# 5 -0.001700 -0.000876 -0.000635 0.000000 0.036531 0.000000
# 6 0.000000 0.000000 0.000000 0.017874 0.000000 0.179835
#
#
# Mechanical properties :
#
#
# Convention : Reuss Voigt Hill
#
# Bulk Modulus (GPa) = 36.89074 49.79391 43.34232
# Shear Modulus (GPa) = 15.40086 25.87748 20.63917
#
# Velocity S-wave (km/s) = 2.87126 3.72187 3.32389
# Velocity P-wave (km/s) = 5.54437 6.71749 6.15893
#
# Compressibility (1/GPa) = 0.02710708
#
# Stress axis : x y z
#
# Youngs Moduli (GPa) = 74.89115 42.65623 103.72426
#
# Poissons Ratio (x) = 0.16770 0.49769
# Poissons Ratio (y) = 0.29443 0.09701
# Poissons Ratio (z) = 0.35934 0.03990
#
# Static dielectric constant tensor:
#      x y z
#    x 3.384590 0.000000 -0.003550 
#    y 0.000000 3.336600 0.000000 
#    z -0.003550 0.000000 3.650730 
# 
# 
# High freq. dielectric constant tensor:
#      x y z
#    x 1.695280 0.000000 -0.003150 
#    y 0.000000 1.724680 0.000000 
#    z -0.003150 0.000000 1.744990 
# 
# From -- ./inp_files/2712.got.cif
#   From: 2010.03.12/outbox.cif.g09.slc.cpg/sg6_2_cif.got.tgz:2712.got - 2010.03.30 10:24:59.
