data_PCOD8052378
_publ_section_title
;
Structure prediction by ZEFSAII (Michael W. Deem and Ramdas Pophale) SiO2 
 PCOD8052378
Probable space group: P M
;
_chemical_formula_sum "Si O2"
_cell_formula_units_Z 16
_cell_length_a 20.486677
_cell_length_b 8.411494
_cell_length_c 5.105197
_cell_angle_alpha 90.000000
_cell_angle_beta 60.105271
_cell_angle_gamma 90.000000
_cell_volume 762.689050
_symmetry_space_group_name_H-M "P M"
_symmetry_group_IT_number 6
_symmetry_cell_setting 'monoclinic'
loop_
_space_group_symop_operation_xyz
x,y,z
x,-y,z
loop_
_atom_site_type_symbol
_atom_site_label
_atom_site_fract_x
_atom_site_fract_y
_atom_site_fract_z
Si Si1 0.010350 0.816760 0.292360
Si Si2 0.339917 0.812374 0.678393
Si Si3 0.756659 0.312384 0.344829
Si Si4 0.587629 0.686830 0.734315
Si Si5 0.847634 0.311587 0.657824
Si Si6 0.248947 0.811581 0.355332
Si Si7 0.508951 0.186831 0.391677
Si Si8 0.086227 0.316758 0.640613
O O1 0.065249 0.782941 0.425528
O O2 0.926350 0.774350 0.547525
O O3 0.017770 0.000000 0.202085
O O4 0.031317 0.717053 0.993382
O O5 0.304739 0.759306 0.474906
O O6 0.424331 0.745095 0.531833
O O7 0.343749 0.000000 0.701385
O O8 0.286845 0.746053 0.014992
O O9 0.752819 0.500000 0.383355
O O10 0.672247 0.245090 0.535977
O O11 0.809752 0.246033 0.469020
O O12 0.791808 0.259398 0.000594
O O13 0.584057 0.500000 0.682780
O O14 0.535396 0.778991 0.633453
O O15 0.561180 0.721005 0.081882
O O16 0.861247 0.500000 0.628503
O O17 0.170221 0.725667 0.559806
O O18 0.235352 0.000000 0.380496
O O19 0.512528 0.000000 0.325850
O O20 0.078817 0.500000 0.580009
#
# Coordination Sequence:
#
# PCOD8052378 Si02
#       8
#     2   2   2   2   2   2   2   2
#     4  12  25  42  63  91 123 158 197 244 296 354
#     4   9  19  35  58  83 114 155 198 237 290 358
#     4   9  19  35  58  83 114 155 198 237 290 358
#     4  11  22  39  61  89 121 159 202 247 296 354
#     4  10  19  36  60  85 112 152 199 244 290 348
#     4  10  19  36  60  85 112 152 199 244 290 348
#     4  11  22  39  61  89 121 159 202 247 296 354
#     4  12  25  42  63  91 123 158 197 244 296 354
#
# _framework density 20.978406
#
# number of rings (size 3 to 8) (size 9 to 14) (size 15 to 20)
#    0.000    1.500    0.000    6.000    0.000    6.000 
#    0.000    7.500    0.000    0.000    0.000    0.000 
#    0.000    0.000    0.000    0.000    0.000    0.000 
#
# Total GULP energy -198498.212151 kJ/mol
# GULP energy per Si atom -12406.138259 kJ/mol
# Density = 2.093066 g / cm^3
# Si number density = 20.978406 Si / 1000 Ang^3
#
#
#
# Elastic Constant Matrix: (Units=GPa)
#
#
# Indices 1 2 3 4 5 6 
#
# 1 101.7828 23.7442 15.9522 0.0000 -3.8976 0.0000
# 2 23.7442 51.7004 20.1592 0.0000 -6.8668 0.0000
# 3 15.9522 20.1592 98.8869 0.0000 -1.5748 0.0000
# 4 0.0000 0.0000 0.0000 16.2769 0.0000 -6.2130
# 5 -3.8976 -6.8668 -1.5748 0.0000 46.3485 0.0000
# 6 0.0000 0.0000 0.0000 -6.2130 0.0000 19.5157
#
#
#
# Elastic Compliance Matrix: (Units=1/GPa)
#
#
# Indices 1 2 3 4 5 6 
#
# 1 0.011066 -0.004737 -0.000816 0.000000 0.000201 0.000000
# 2 -0.004737 0.023457 -0.003971 0.000000 0.002942 0.000000
# 3 -0.000816 -0.003971 0.011049 0.000000 -0.000282 0.000000
# 4 0.000000 0.000000 0.000000 0.069935 0.000000 0.022265
# 5 0.000201 0.002942 -0.000282 0.000000 0.022019 0.000000
# 6 0.000000 0.000000 0.000000 0.022265 0.000000 0.058329
#
#
# Mechanical properties :
#
#
# Convention : Reuss Voigt Hill
#
# Bulk Modulus (GPa) = 37.70263 41.34237 39.52250
# Shear Modulus (GPa) = 22.34694 29.26252 25.80473
#
# Velocity S-wave (km/s) = 3.26734 3.73887 3.51103
# Velocity P-wave (km/s) = 5.67848 6.19587 5.94281
#
# Compressibility (1/GPa) = 0.02652335
#
# Stress axis : x y z
#
# Youngs Moduli (GPa) = 90.37073 42.63144 90.50383
#
# Poissons Ratio (x) = 0.20195 0.07387
# Poissons Ratio (y) = 0.42809 0.35938
# Poissons Ratio (z) = 0.07376 0.16929
#
# Static dielectric constant tensor:
#      x y z
#    x 3.912360 0.000000 -0.042540 
#    y 0.000000 3.685250 0.000000 
#    z -0.042540 0.000000 3.889680 
# 
# 
# High freq. dielectric constant tensor:
#      x y z
#    x 1.838170 0.000000 -0.000720 
#    y 0.000000 1.793020 0.000000 
#    z -0.000720 0.000000 1.837790 
# 
# From -- ./inp_files/1977.got.cif
#   From: 2010.03.12/outbox.cif.g09.slc.cpg/sg6_1_cif.got.tgz:1977.got - 2010.03.30 10:24:59.
