data_PCOD8052431
_publ_section_title
;
Structure prediction by ZEFSAII (Michael W. Deem and Ramdas Pophale) SiO2 
 PCOD8052431
Probable space group: P M
;
_chemical_formula_sum "Si O2"
_cell_formula_units_Z 16
_cell_length_a 17.567187
_cell_length_b 9.014982
_cell_length_c 7.209151
_cell_angle_alpha 90.000000
_cell_angle_beta 128.352593
_cell_angle_gamma 90.000000
_cell_volume 895.327652
_symmetry_space_group_name_H-M "P M"
_symmetry_group_IT_number 6
_symmetry_cell_setting 'monoclinic'
loop_
_space_group_symop_operation_xyz
x,y,z
x,-y,z
loop_
_atom_site_type_symbol
_atom_site_label
_atom_site_fract_x
_atom_site_fract_y
_atom_site_fract_z
Si Si1 0.774100 0.828281 0.989270
Si Si2 0.628261 0.826192 0.092535
Si Si3 0.428799 0.666988 0.815815
Si Si4 0.913800 0.826795 0.527126
Si Si5 0.237347 0.664934 0.348649
Si Si6 0.136669 0.166051 0.884849
Si Si7 0.771849 0.322927 0.587545
Si Si8 0.266015 0.834201 0.724658
O O1 0.772420 0.729219 0.802318
O O2 0.776990 0.000000 0.933136
O O3 0.680224 0.793970 0.974800
O O4 0.867188 0.786542 0.257126
O O5 0.519205 0.769881 0.907004
O O6 0.678249 0.741452 0.339559
O O7 0.630545 0.000000 0.142236
O O8 0.462511 0.500000 0.915847
O O9 0.356255 0.668928 0.526685
O O10 0.364368 0.733688 0.890401
O O11 0.867730 0.733983 0.626273
O O12 0.894891 0.000000 0.540619
O O13 0.026357 0.784986 0.686238
O O14 0.200346 0.500000 0.336534
O O15 0.191995 0.715299 0.089885
O O16 0.200447 0.774843 0.454392
O O17 0.140797 0.000000 0.975618
O O18 0.194085 0.173651 0.783574
O O19 0.768573 0.500000 0.578745
O O20 0.302092 0.000000 0.740133
#
# Coordination Sequence:
#
# PCOD8052431 Si02
#       8
#     2   2   2   2   2   2   2   2
#     4   9  19  37  58  81 109 141 179 224 273 323
#     4  10  20  37  61  83 107 142 184 227 269 318
#     4   9  19  36  55  80 114 148 177 221 278 322
#     4   9  20  38  58  80 109 144 184 229 271 316
#     4   9  20  35  52  77 111 146 178 221 273 321
#     4  10  20  35  58  83 106 143 189 229 270 317
#     4  11  22  36  56  84 114 143 176 220 275 333
#     4   9  18  34  54  78 108 143 185 227 265 314
#
# _framework density 17.870553999999998
#
# number of rings (size 3 to 8) (size 9 to 14) (size 15 to 20)
#    0.750    1.750    0.000    3.000    0.000    5.000 
#    2.250    2.500    0.000    0.000    0.000    0.000 
#    0.000    0.000    0.000    0.000    0.000    0.000 
#
# Total GULP energy -198257.172415 kJ/mol
# GULP energy per Si atom -12391.073276 kJ/mol
# Density = 1.782988 g / cm^3
# Si number density = 17.870554 Si / 1000 Ang^3
#
#
#
# Elastic Constant Matrix: (Units=GPa)
#
#
# Indices 1 2 3 4 5 6 
#
# 1 105.7268 62.7324 51.7530 0.0000 12.3441 0.0000
# 2 62.7324 120.8329 63.5254 0.0000 -6.0741 0.0000
# 3 51.7530 63.5254 99.4185 0.0000 -3.1380 0.0000
# 4 0.0000 0.0000 0.0000 29.2053 0.0000 7.3108
# 5 12.3441 -6.0741 -3.1380 0.0000 27.7424 0.0000
# 6 0.0000 0.0000 0.0000 7.3108 0.0000 25.1231
#
#
#
# Elastic Compliance Matrix: (Units=1/GPa)
#
#
# Indices 1 2 3 4 5 6 
#
# 1 0.016925 -0.006741 -0.004805 0.000000 -0.009550 0.000000
# 2 -0.006741 0.015241 -0.006051 0.000000 0.005652 0.000000
# 3 -0.004805 -0.006051 0.016511 0.000000 0.002681 0.000000
# 4 0.000000 0.000000 0.000000 0.036931 0.000000 -0.010747
# 5 -0.009550 0.005652 0.002681 0.000000 0.041836 0.000000
# 6 0.000000 0.000000 0.000000 -0.010747 0.000000 0.042931
#
#
# Mechanical properties :
#
#
# Convention : Reuss Voigt Hill
#
# Bulk Modulus (GPa) = 74.16599 75.77777 74.97188
# Shear Modulus (GPa) = 23.80250 26.27863 25.04057
#
# Velocity S-wave (km/s) = 3.65353 3.83887 3.74735
# Velocity P-wave (km/s) = 7.70647 7.88321 7.79534
#
# Compressibility (1/GPa) = 0.01348327
#
# Stress axis : x y z
#
# Youngs Moduli (GPa) = 59.08431 65.61277 60.56744
#
# Poissons Ratio (x) = 0.44230 0.29100
# Poissons Ratio (y) = 0.39829 0.36649
# Poissons Ratio (z) = 0.28387 0.39702
#
# Static dielectric constant tensor:
#      x y z
#    x 3.185400 0.000000 0.093350 
#    y 0.000000 3.437580 0.000000 
#    z 0.093350 0.000000 3.149750 
# 
# 
# High freq. dielectric constant tensor:
#      x y z
#    x 1.684420 0.000000 0.006090 
#    y 0.000000 1.702130 0.000000 
#    z 0.006090 0.000000 1.679250 
# 
# From -- ./inp_files/1961.got.cif
#   From: 2010.03.12/outbox.cif.g09.slc.cpg/sg6_1_cif.got.tgz:1961.got - 2010.03.30 10:24:59.
