data_PCOD8052640
_publ_section_title
;
Structure prediction by ZEFSAII (Michael W. Deem and Ramdas Pophale) SiO2 
 PCOD8052640
Probable space group: P C
;
_chemical_formula_sum "Si O2"
_cell_formula_units_Z 14
_cell_length_a 7.321131
_cell_length_b 14.329540
_cell_length_c 5.478137
_cell_angle_alpha 90.000000
_cell_angle_beta 67.883422
_cell_angle_gamma 90.000000
_cell_volume 532.416020
_symmetry_space_group_name_H-M "P C"
_symmetry_group_IT_number 7
_symmetry_cell_setting 'monoclinic'
loop_
_space_group_symop_operation_xyz
x,y,z
x,-y,1/2+z
loop_
_atom_site_type_symbol
_atom_site_label
_atom_site_fract_x
_atom_site_fract_y
_atom_site_fract_z
Si Si1 0.078920 0.741869 0.698980
Si Si2 0.504046 0.897105 0.863284
Si Si3 0.508141 0.698052 0.567581
Si Si4 0.660218 0.899366 0.282061
Si Si5 0.078377 0.852613 0.196247
Si Si6 0.660950 0.690209 0.993232
Si Si7 0.426701 0.498614 0.645475
O O1 0.283857 0.687007 0.582265
O O2 0.071210 0.810002 0.470488
O O3 0.884314 0.677400 0.786422
O O4 0.074569 0.783239 0.971805
O O5 0.526278 0.850043 0.572154
O O6 0.578172 0.999372 0.752277
O O7 0.639278 0.851410 0.017660
O O8 0.280217 0.910267 0.067486
O O9 0.534611 0.742247 0.833445
O O10 0.570209 0.589787 0.579031
O O11 0.646247 0.740803 0.274889
O O12 0.882885 0.915272 0.263831
O O13 0.567810 0.590292 0.093310
O O14 0.296514 0.496355 0.461288
#
# Coordination Sequence:
#
# PCOD8052640 Si02
#       7
#     2   2   2   2   2   2   2
#     4  12  26  40  63  95 130 170 204 252 322 384
#     4  10  23  42  67  94 124 166 208 258 312 365
#     4  10  21  40  62  89 127 166 210 261 309 370
#     4  10  23  42  67  94 124 166 208 258 312 365
#     4  12  26  42  63  97 130 162 210 256 310 386
#     4  10  21  40  62  89 127 166 210 261 309 370
#     4   8  16  34  58  84 116 158 204 258 302 344
#
# _framework density 26.295224999999999
#
# number of rings (size 3 to 8) (size 9 to 14) (size 15 to 20)
#    0.000    1.714    0.000    3.429    0.000   11.429 
#    0.000   12.857    0.000    0.000    0.000    0.000 
#    0.000    0.000    0.000    0.000    0.000    0.000 
#
# Total GULP energy -173454.928226 kJ/mol
# GULP energy per Si atom -12389.637730 kJ/mol
# Density = 2.623538 g / cm^3
# Si number density = 26.295225 Si / 1000 Ang^3
#
#
#
# Elastic Constant Matrix: (Units=GPa)
#
#
# Indices 1 2 3 4 5 6 
#
# 1 173.4531 22.2532 74.1237 0.0000 -4.2890 0.0000
# 2 22.2532 72.6183 56.1058 0.0000 19.0149 0.0000
# 3 74.1237 56.1058 224.0357 0.0000 38.1047 0.0000
# 4 0.0000 0.0000 0.0000 33.9184 0.0000 3.6761
# 5 -4.2890 19.0149 38.1047 0.0000 71.7716 0.0000
# 6 0.0000 0.0000 0.0000 3.6761 0.0000 19.2967
#
#
#
# Elastic Compliance Matrix: (Units=1/GPa)
#
#
# Indices 1 2 3 4 5 6 
#
# 1 0.006949 -0.000746 -0.002437 0.000000 0.001907 0.000000
# 2 -0.000746 0.017565 -0.003686 0.000000 -0.002741 0.000000
# 3 -0.002437 -0.003686 0.006652 0.000000 -0.002701 0.000000
# 4 0.000000 0.000000 0.000000 0.030104 0.000000 -0.005735
# 5 0.001907 -0.002741 -0.002701 0.000000 0.016207 0.000000
# 6 0.000000 0.000000 0.000000 -0.005735 0.000000 0.052915
#
#
# Mechanical properties :
#
#
# Convention : Reuss Voigt Hill
#
# Bulk Modulus (GPa) = 57.37496 86.11916 71.74706
# Shear Modulus (GPa) = 33.34682 46.17229 39.75956
#
# Velocity S-wave (km/s) = 3.56500 4.19491 3.89272
# Velocity P-wave (km/s) = 6.22997 7.50234 6.89556
#
# Compressibility (1/GPa) = 0.01742921
#
# Stress axis : x y z
#
# Youngs Moduli (GPa) = 143.89678 56.93243 150.32767
#
# Poissons Ratio (x) = 0.04249 0.36630
# Poissons Ratio (y) = 0.10738 0.55405
# Poissons Ratio (z) = 0.35063 0.20983
#
# Static dielectric constant tensor:
#      x y z
#    x 5.300510 0.000000 0.396520 
#    y 0.000000 5.307080 0.000000 
#    z 0.396520 0.000000 6.184300 
# 
# 
# High freq. dielectric constant tensor:
#      x y z
#    x 2.024850 0.000000 0.050060 
#    y 0.000000 2.097610 0.000000 
#    z 0.050060 0.000000 2.115430 
# 
# From -- ./inp_files/202.got.cif
#   From: 2010.03.12/outbox.cif.g09.slc.cpg/sg7_cif.got.tgz:202.got - 2010.03.30 08:40:41.
