data_PCOD8052794
_publ_section_title
;
Structure prediction by ZEFSAII (Michael W. Deem and Ramdas Pophale) SiO2 
 PCOD8052794
Probable space group: C M
;
_chemical_formula_sum "Si O2"
_cell_formula_units_Z 32
_cell_length_a 24.730364
_cell_length_b 8.412964
_cell_length_c 14.439140
_cell_angle_alpha 90.000000
_cell_angle_beta 149.207081
_cell_angle_gamma 90.000000
_cell_volume 1537.932006
_symmetry_space_group_name_H-M "C M"
_symmetry_group_IT_number 8
_symmetry_cell_setting 'monoclinic'
loop_
_space_group_symop_operation_xyz
x,y,z
x,-y,z
1/2+x,1/2+y,z
1/2+x,1/2-y,z
loop_
_atom_site_type_symbol
_atom_site_label
_atom_site_fract_x
_atom_site_fract_y
_atom_site_fract_z
Si Si1 0.818100 0.311780 0.267380
Si Si2 0.779354 0.310552 0.768826
Si Si3 0.387400 0.684662 0.189076
Si Si4 0.714445 0.689356 0.473443
Si Si5 0.993420 0.312815 0.180105
Si Si6 0.872236 0.312879 0.550322
Si Si7 0.681418 0.317146 0.803222
Si Si8 0.093303 0.811389 0.856742
O O1 0.832838 0.500000 0.283534
O O2 0.901178 0.228897 0.318098
O O3 0.843007 0.244570 0.406180
O O4 0.697806 0.260018 0.066649
O O5 0.774356 0.500000 0.761186
O O6 0.754731 0.241981 0.631435
O O7 0.691166 0.243517 0.713698
O O8 0.895872 0.255873 0.972310
O O9 0.358099 0.500000 0.135772
O O10 0.489047 0.726229 0.274940
O O11 0.296694 0.801268 0.018442
O O12 0.712808 0.500000 0.471290
O O13 0.598426 0.756073 0.282167
O O14 0.792047 0.757357 0.508547
O O15 0.994340 0.500000 0.196199
O O16 0.861704 0.500000 0.534559
O O17 0.990935 0.264536 0.753614
O O18 0.652371 0.500000 0.749760
O O19 0.600337 0.243764 0.759843
O O20 0.082873 0.000000 0.841514
#
# Coordination Sequence:
#
# PCOD8052794 Si02
#       8
#     4   4   4   4   4   4   4   4
#     4   9  19  37  55  75 108 147 175 209 267 324
#     4   8  16  33  56  77 104 138 169 206 263 320
#     4  10  18  30  53  84 109 133 171 220 263 311
#     4  10  21  37  54  77 106 140 183 226 260 302
#     4  10  20  36  56  79 108 143 174 210 264 323
#     4  10  22  37  53  75 107 142 181 225 265 304
#     4   8  15  31  53  77 106 139 169 207 264 327
#     4   9  18  33  54  76 102 136 176 217 264 319
#
# _framework density 20.807162000000002
#
# number of rings (size 3 to 8) (size 9 to 14) (size 15 to 20)
#    0.000    2.750    0.000    3.000    0.000    5.000 
#    0.000    4.375    0.000    0.000    0.000    0.000 
#    0.000    0.000    0.000    0.000    0.000    0.000 
#
# Total GULP energy -198263.690891 kJ/mol
# GULP energy per Si atom -12391.480681 kJ/mol
# Density = 2.075980 g / cm^3
# Si number density = 20.807162 Si / 1000 Ang^3
#
#
#
# Elastic Constant Matrix: (Units=GPa)
#
#
# Indices 1 2 3 4 5 6 
#
# 1 113.7554 15.1823 18.6494 0.0000 6.8973 0.0000
# 2 15.1823 21.5044 7.6262 0.0000 0.0470 0.0000
# 3 18.6494 7.6262 45.8066 0.0000 2.9713 0.0000
# 4 0.0000 0.0000 0.0000 21.7200 0.0000 7.5059
# 5 6.8973 0.0470 2.9713 0.0000 38.5402 0.0000
# 6 0.0000 0.0000 0.0000 7.5059 0.0000 20.3200
#
#
#
# Elastic Compliance Matrix: (Units=1/GPa)
#
#
# Indices 1 2 3 4 5 6 
#
# 1 0.010201 -0.006124 -0.003031 0.000000 -0.001584 0.000000
# 2 -0.006124 0.053109 -0.006448 0.000000 0.001528 0.000000
# 3 -0.003031 -0.006448 0.024224 0.000000 -0.001317 0.000000
# 4 0.000000 0.000000 0.000000 0.052778 0.000000 -0.019495
# 5 -0.001584 0.001528 -0.001317 0.000000 0.026330 0.000000
# 6 0.000000 0.000000 0.000000 -0.019495 0.000000 0.056414
#
#
# Mechanical properties :
#
#
# Convention : Reuss Voigt Hill
#
# Bulk Modulus (GPa) = 17.75294 29.33137 23.54215
# Shear Modulus (GPa) = 18.31258 25.42328 21.86793
#
# Velocity S-wave (km/s) = 2.96988 3.49929 3.24540
# Velocity P-wave (km/s) = 4.50676 5.51852 5.03811
#
# Compressibility (1/GPa) = 0.05632869
#
# Stress axis : x y z
#
# Youngs Moduli (GPa) = 98.02912 18.82930 41.28172
#
# Poissons Ratio (x) = 0.11531 0.12512
# Poissons Ratio (y) = 0.60030 0.26618
# Poissons Ratio (z) = 0.29712 0.12141
#
# Static dielectric constant tensor:
#      x y z
#    x 4.351530 0.000000 -0.061810 
#    y 0.000000 3.297970 0.000000 
#    z -0.061810 0.000000 3.654110 
# 
# 
# High freq. dielectric constant tensor:
#      x y z
#    x 1.825720 0.000000 0.002570 
#    y 0.000000 1.781040 0.000000 
#    z 0.002570 0.000000 1.798490 
# 
# From -- ./inp_files/26551.got.cif
#   From: 2010.03.12/outbox.cif.g09.slc.cpg/sg8_14_cif.got.tgz:26551.got - 2010.03.31 10:45:26.
