data_PCOD8052842
_publ_section_title
;
Structure prediction by ZEFSAII (Michael W. Deem and Ramdas Pophale) SiO2 
 PCOD8052842
Probable space group: C M
;
_chemical_formula_sum "Si O2"
_cell_formula_units_Z 32
_cell_length_a 13.086197
_cell_length_b 18.812820
_cell_length_c 9.643268
_cell_angle_alpha 90.000000
_cell_angle_beta 47.244268
_cell_angle_gamma 90.000000
_cell_volume 1743.164067
_symmetry_space_group_name_H-M "C M"
_symmetry_group_IT_number 8
_symmetry_cell_setting 'monoclinic'
loop_
_space_group_symop_operation_xyz
x,y,z
x,-y,z
1/2+x,1/2+y,z
1/2+x,1/2-y,z
loop_
_atom_site_type_symbol
_atom_site_label
_atom_site_fract_x
_atom_site_fract_y
_atom_site_fract_z
Si Si1 0.578120 0.714227 0.911560
Si Si2 0.267532 0.303421 0.236236
Si Si3 0.345530 0.419032 0.370881
Si Si4 0.181562 0.419696 0.787263
Si Si5 0.139974 0.079716 0.999730
Si Si6 0.759293 0.194426 0.928707
Si Si7 0.049124 0.269236 0.645426
Si Si8 0.444429 0.919095 0.809470
O O1 0.615072 0.629902 0.887118
O O2 0.666302 0.742466 0.958068
O O3 0.622687 0.751353 0.725993
O O4 0.417936 0.734083 0.089261
O O5 0.281330 0.378718 0.299223
O O6 0.159169 0.253450 0.420872
O O7 0.217118 0.316550 0.126798
O O8 0.299639 0.500000 0.393700
O O9 0.276233 0.388772 0.574557
O O10 0.512284 0.409430 0.224509
O O11 0.223598 0.500000 0.780977
O O12 0.217354 0.377934 0.892335
O O13 0.017541 0.413402 0.894188
O O14 0.278644 0.093476 0.963583
O O15 0.141021 0.000000 0.937567
O O16 0.920346 0.214718 0.754447
O O17 0.006568 0.352599 0.665278
O O18 0.477395 0.000000 0.720562
#
# Coordination Sequence:
#
# PCOD8052842 Si02
#       8
#     4   4   4   4   4   4   4   4
#     4  10  20  36  54  78 110 140 180 225 266 324
#     4  10  22  34  52  80 107 142 180 223 269 313
#     4   9  17  33  56  79 106 141 183 219 262 321
#     4  10  20  36  57  80 108 143 178 222 268 319
#     4   9  18  32  54  84 108 140 182 224 265 312
#     4  11  22  36  54  80 111 141 181 222 271 319
#     4  11  21  37  54  80 108 143 180 222 271 321
#     4  10  18  32  56  81 106 140 180 221 262 315
#
# _framework density 18.357423000000001
#
# number of rings (size 3 to 8) (size 9 to 14) (size 15 to 20)
#    0.000    2.000    3.750    0.000    0.000    3.500 
#    0.000    1.875    0.000    0.000    0.000    4.375 
#    0.000    0.000    0.000    0.000    0.000    0.000 
#
# Total GULP energy -198233.282482 kJ/mol
# GULP energy per Si atom -12389.580155 kJ/mol
# Density = 1.831564 g / cm^3
# Si number density = 18.357423 Si / 1000 Ang^3
#
#
#
# Elastic Constant Matrix: (Units=GPa)
#
#
# Indices 1 2 3 4 5 6 
#
# 1 112.2262 35.5628 65.3503 0.0000 1.0261 0.0000
# 2 35.5628 81.0078 39.7630 0.0000 3.9560 0.0000
# 3 65.3503 39.7630 123.3911 0.0000 8.5149 0.0000
# 4 0.0000 0.0000 0.0000 22.6949 0.0000 4.3967
# 5 1.0261 3.9560 8.5149 0.0000 28.4667 0.0000
# 6 0.0000 0.0000 0.0000 4.3967 0.0000 29.6443
#
#
#
# Elastic Compliance Matrix: (Units=1/GPa)
#
#
# Indices 1 2 3 4 5 6 
#
# 1 0.013508 -0.002905 -0.006343 0.000000 0.001814 0.000000
# 2 -0.002905 0.015300 -0.003321 0.000000 -0.001028 0.000000
# 3 -0.006343 -0.003321 0.012750 0.000000 -0.003123 0.000000
# 4 0.000000 0.000000 0.000000 0.045366 0.000000 -0.006728
# 5 0.001814 -0.001028 -0.003123 0.000000 0.036141 0.000000
# 6 0.000000 0.000000 0.000000 -0.006728 0.000000 0.034731
#
#
# Mechanical properties :
#
#
# Convention : Reuss Voigt Hill
#
# Bulk Modulus (GPa) = 60.90389 66.44191 63.67290
# Shear Modulus (GPa) = 26.53817 27.89112 27.21465
#
# Velocity S-wave (km/s) = 3.80628 3.90210 3.85449
# Velocity P-wave (km/s) = 7.25022 7.52156 7.38714
#
# Compressibility (1/GPa) = 0.01641931
#
# Stress axis : x y z
#
# Youngs Moduli (GPa) = 74.02835 65.35873 78.43426
#
# Poissons Ratio (x) = 0.18988 0.49753
# Poissons Ratio (y) = 0.21507 0.26047
# Poissons Ratio (z) = 0.46958 0.21705
#
# Static dielectric constant tensor:
#      x y z
#    x 3.503800 0.000000 -0.235530 
#    y 0.000000 3.527510 0.000000 
#    z -0.235530 0.000000 3.367950 
# 
# 
# High freq. dielectric constant tensor:
#      x y z
#    x 1.713910 0.000000 -0.022650 
#    y 0.000000 1.718190 0.000000 
#    z -0.022650 0.000000 1.686070 
# 
# From -- ./inp_files/11340.got.cif
#   From: 2010.03.12/outbox.cif.g09.slc.cpg/sg8_6_cif.got.tgz:11340.got - 2010.03.31 10:45:26.
