data_PCOD8052362
_publ_section_title
;
Structure prediction by ZEFSAII (Michael W. Deem and Ramdas Pophale) SiO2 
 PCOD8052362
Probable space group: P M
;
_chemical_formula_sum "Si O2"
_cell_formula_units_Z 16
_cell_length_a 12.482048
_cell_length_b 8.980185
_cell_length_c 12.637696
_cell_angle_alpha 90.000000
_cell_angle_beta 35.494495
_cell_angle_gamma 90.000000
_cell_volume 822.497464
_symmetry_space_group_name_H-M "P M"
_symmetry_group_IT_number 6
_symmetry_cell_setting 'monoclinic'
loop_
_space_group_symop_operation_xyz
x,y,z
x,-y,z
loop_
_atom_site_type_symbol
_atom_site_label
_atom_site_fract_x
_atom_site_fract_y
_atom_site_fract_z
Si Si1 0.330930 0.823728 0.355300
Si Si2 0.095053 0.325021 0.061676
Si Si3 0.997159 0.172576 0.932376
Si Si4 0.997793 0.324338 0.714164
Si Si5 0.586441 0.323971 0.979808
Si Si6 0.487505 0.675577 0.827964
Si Si7 0.696645 0.324294 0.456127
Si Si8 0.589579 0.829135 0.336902
O O1 0.432936 0.776817 0.381780
O O2 0.128721 0.750163 0.520584
O O3 0.316808 0.000000 0.354880
O O4 0.437310 0.759858 0.169703
O O5 0.089378 0.500000 0.040841
O O6 0.911019 0.275237 0.273236
O O7 0.272721 0.280120 0.987789
O O8 0.111845 0.237694 0.938034
O O9 0.056146 0.260115 0.780575
O O10 0.047503 0.000000 0.876985
O O11 0.781733 0.199302 0.123723
O O12 0.025923 0.500000 0.690035
O O13 0.789598 0.278844 0.854087
O O14 0.552475 0.500000 0.016019
O O15 0.560591 0.264237 0.881012
O O16 0.509803 0.500000 0.807369
O O17 0.612770 0.742636 0.632193
O O18 0.677272 0.500000 0.470068
O O19 0.576253 0.264887 0.454846
O O20 0.566174 0.000000 0.387949
#
# Coordination Sequence:
#
# PCOD8052362 Si02
#       8
#     2   2   2   2   2   2   2   2
#     4  11  23  39  59  85 118 156 196 239 295 351
#     4   9  18  33  54  82 113 147 186 233 286 342
#     4  10  19  35  57  82 118 155 188 235 293 348
#     4  11  23  37  58  88 117 152 198 243 290 347
#     4  10  22  41  62  85 117 155 199 246 289 342
#     4   9  19  36  58  83 110 146 191 238 286 338
#     4   9  18  32  53  81 111 144 181 228 282 337
#     4   9  19  35  55  80 114 151 185 230 285 343
#
# _framework density 19.452947999999999
#
# number of rings (size 3 to 8) (size 9 to 14) (size 15 to 20)
#    0.000    2.250    1.250    1.125    1.750    3.000 
#    0.000    5.000    0.000    3.000    0.000    0.000 
#    0.000    0.000    0.000    0.000    0.000    0.000 
#
# Total GULP energy -198429.203107 kJ/mol
# GULP energy per Si atom -12401.825194 kJ/mol
# Density = 1.940867 g / cm^3
# Si number density = 19.452948 Si / 1000 Ang^3
#
#
#
# Elastic Constant Matrix: (Units=GPa)
#
#
# Indices 1 2 3 4 5 6 
#
# 1 94.1022 28.9517 54.1808 0.0000 21.0813 0.0000
# 2 28.9517 46.0152 36.5447 0.0000 8.2891 0.0000
# 3 54.1808 36.5447 135.7122 0.0000 20.9743 0.0000
# 4 0.0000 0.0000 0.0000 17.8581 0.0000 -6.4531
# 5 21.0813 8.2891 20.9743 0.0000 26.3621 0.0000
# 6 0.0000 0.0000 0.0000 -6.4531 0.0000 14.4290
#
#
#
# Elastic Compliance Matrix: (Units=1/GPa)
#
#
# Indices 1 2 3 4 5 6 
#
# 1 0.016436 -0.005915 -0.003677 0.000000 -0.008358 0.000000
# 2 -0.005915 0.030005 -0.005691 0.000000 -0.000176 0.000000
# 3 -0.003677 -0.005691 0.010989 0.000000 -0.004013 0.000000
# 4 0.000000 0.000000 0.000000 0.066791 0.000000 0.029871
# 5 -0.008358 -0.000176 -0.004013 0.000000 0.047865 0.000000
# 6 0.000000 0.000000 0.000000 0.029871 0.000000 0.082664
#
#
# Mechanical properties :
#
#
# Convention : Reuss Voigt Hill
#
# Bulk Modulus (GPa) = 37.22488 57.24268 47.23378
# Shear Modulus (GPa) = 16.99103 22.14001 19.56552
#
# Velocity S-wave (km/s) = 2.95861 3.37728 3.17486
# Velocity P-wave (km/s) = 5.55415 6.68567 6.14600
#
# Compressibility (1/GPa) = 0.02686375
#
# Stress axis : x y z
#
# Youngs Moduli (GPa) = 60.84072 33.32753 90.99705
#
# Poissons Ratio (x) = 0.19714 0.33463
# Poissons Ratio (y) = 0.35989 0.51786
# Poissons Ratio (z) = 0.22373 0.18967
#
# Static dielectric constant tensor:
#      x y z
#    x 3.634090 0.000000 0.015140 
#    y 0.000000 3.368790 0.000000 
#    z 0.015140 0.000000 3.766420 
# 
# 
# High freq. dielectric constant tensor:
#      x y z
#    x 1.752350 0.000000 -0.002750 
#    y 0.000000 1.739790 0.000000 
#    z -0.002750 0.000000 1.768810 
# 
# From -- ./inp_files/5020.got.cif
#   From: 2010.03.12/outbox.cif.g09.slc.cpg/sg6_3_cif.got.tgz:5020.got - 2010.03.30 10:24:59.
