data_PCOD8052377
_publ_section_title
;
Structure prediction by ZEFSAII (Michael W. Deem and Ramdas Pophale) SiO2 
 PCOD8052377
Probable space group: P M
;
_chemical_formula_sum "Si O2"
_cell_formula_units_Z 16
_cell_length_a 12.138260
_cell_length_b 8.609216
_cell_length_c 10.302063
_cell_angle_alpha 90.000000
_cell_angle_beta 127.352179
_cell_angle_gamma 90.000000
_cell_volume 855.792280
_symmetry_space_group_name_H-M "P M"
_symmetry_group_IT_number 6
_symmetry_cell_setting 'monoclinic'
loop_
_space_group_symop_operation_xyz
x,y,z
x,-y,z
loop_
_atom_site_type_symbol
_atom_site_label
_atom_site_fract_x
_atom_site_fract_y
_atom_site_fract_z
Si Si1 0.529600 0.182829 0.646840
Si Si2 0.687497 0.681148 0.003158
Si Si3 0.560615 0.182113 0.163909
Si Si4 0.973643 0.818117 0.846353
Si Si5 0.704366 0.815647 0.524719
Si Si6 0.968819 0.816609 0.135765
Si Si7 0.276748 0.180316 0.090337
Si Si8 0.259253 0.681693 0.357028
O O1 0.604784 0.266560 0.818189
O O2 0.601017 0.238632 0.564329
O O3 0.369217 0.231812 0.528059
O O4 0.544490 0.000000 0.679080
O O5 0.716030 0.500000 0.016499
O O6 0.596921 0.721208 0.063582
O O7 0.835188 0.767185 0.122477
O O8 0.652370 0.247705 0.349207
O O9 0.399357 0.216016 0.078506
O O10 0.586264 0.000000 0.157624
O O11 0.858859 0.747951 0.665789
O O12 0.947087 0.000000 0.830444
O O13 0.130757 0.778498 0.914655
O O14 0.947782 0.755551 0.973359
O O15 0.701798 0.000000 0.515305
O O16 0.107041 0.738178 0.291898
O O17 0.989326 0.000000 0.156408
O O18 0.291787 0.279991 0.230693
O O19 0.278266 0.000000 0.135353
O O20 0.272732 0.500000 0.389813
#
# Coordination Sequence:
#
# PCOD8052377 Si02
#       8
#     2   2   2   2   2   2   2   2
#     4  11  20  37  61  86 112 150 201 244 280 340
#     4  12  25  39  55  83 120 156 191 241 302 350
#     4  10  20  36  56  79 111 155 198 235 279 342
#     4   8  14  27  53  86 109 131 175 239 286 319
#     4   9  16  30  56  86 109 136 188 246 280 320
#     4  10  19  36  60  83 111 152 196 237 283 344
#     4   9  17  32  55  81 111 149 195 236 278 337
#     4  11  21  33  54  88 123 149 182 240 300 342
#
# _framework density 18.696127000000001
#
# number of rings (size 3 to 8) (size 9 to 14) (size 15 to 20)
#    0.000    2.000    2.500    3.750    0.000    0.500 
#    0.000    1.250    0.000    3.000    0.000    0.000 
#    0.000    0.000    0.000    0.000    0.000    0.000 
#
# Total GULP energy -198379.976465 kJ/mol
# GULP energy per Si atom -12398.748529 kJ/mol
# Density = 1.865357 g / cm^3
# Si number density = 18.696127 Si / 1000 Ang^3
#
#
#
# Elastic Constant Matrix: (Units=GPa)
#
#
# Indices 1 2 3 4 5 6 
#
# 1 103.8630 13.2762 35.3975 0.0000 16.6347 0.0000
# 2 13.2762 34.6170 11.4009 0.0000 -2.7171 0.0000
# 3 35.3975 11.4009 65.8095 0.0000 14.9533 0.0000
# 4 0.0000 0.0000 0.0000 20.1210 0.0000 1.9947
# 5 16.6347 -2.7171 14.9533 0.0000 36.0948 0.0000
# 6 0.0000 0.0000 0.0000 1.9947 0.0000 17.7075
#
#
#
# Elastic Compliance Matrix: (Units=1/GPa)
#
#
# Indices 1 2 3 4 5 6 
#
# 1 0.012458 -0.003347 -0.005254 0.000000 -0.003817 0.000000
# 2 -0.003347 0.032365 -0.005200 0.000000 0.006133 0.000000
# 3 -0.005254 -0.005200 0.020379 0.000000 -0.006413 0.000000
# 4 0.000000 0.000000 0.000000 0.050261 0.000000 -0.005662
# 5 -0.003817 0.006133 -0.006413 0.000000 0.032582 0.000000
# 6 0.000000 0.000000 0.000000 -0.005662 0.000000 0.057111
#
#
# Mechanical properties :
#
#
# Convention : Reuss Voigt Hill
#
# Bulk Modulus (GPa) = 26.59556 36.04876 31.32216
# Shear Modulus (GPa) = 20.38393 24.39899 22.39146
#
# Velocity S-wave (km/s) = 3.30551 3.61644 3.46447
# Velocity P-wave (km/s) = 5.36886 6.06312 5.72652
#
# Compressibility (1/GPa) = 0.03760026
#
# Stress axis : x y z
#
# Youngs Moduli (GPa) = 80.27168 30.89729 49.06957
#
# Poissons Ratio (x) = 0.10342 0.25779
# Poissons Ratio (y) = 0.26867 0.25518
# Poissons Ratio (z) = 0.42172 0.16067
#
# Static dielectric constant tensor:
#      x y z
#    x 3.537020 0.000000 0.348330 
#    y 0.000000 3.167530 0.000000 
#    z 0.348330 0.000000 3.601380 
# 
# 
# High freq. dielectric constant tensor:
#      x y z
#    x 1.724890 0.000000 0.028490 
#    y 0.000000 1.702910 0.000000 
#    z 0.028490 0.000000 1.717110 
# 
# From -- ./inp_files/3648.got.cif
#   From: 2010.03.12/outbox.cif.g09.slc.cpg/sg6_2_cif.got.tgz:3648.got - 2010.03.30 10:24:59.
