data_PCOD8052666
_publ_section_title
;
Structure prediction by ZEFSAII (Michael W. Deem and Ramdas Pophale) SiO2 
 PCOD8052666
Probable space group: P C
;
_chemical_formula_sum "Si O2"
_cell_formula_units_Z 16
_cell_length_a 8.576215
_cell_length_b 17.415704
_cell_length_c 5.362710
_cell_angle_alpha 90.000000
_cell_angle_beta 55.210752
_cell_angle_gamma 90.000000
_cell_volume 657.808858
_symmetry_space_group_name_H-M "P C"
_symmetry_group_IT_number 7
_symmetry_cell_setting 'monoclinic'
loop_
_space_group_symop_operation_xyz
x,y,z
x,-y,1/2+z
loop_
_atom_site_type_symbol
_atom_site_label
_atom_site_fract_x
_atom_site_fract_y
_atom_site_fract_z
Si Si1 0.830870 0.964274 0.649840
Si Si2 0.454580 0.312318 0.211331
Si Si3 0.625122 0.813416 0.909380
Si Si4 0.295405 0.817125 0.541723
Si Si5 0.258506 0.972974 0.794439
Si Si6 0.052365 0.647231 0.213541
Si Si7 0.725972 0.454333 0.930830
Si Si8 0.952856 0.729977 0.800928
O O1 0.769461 0.876030 0.662842
O O2 0.741379 0.008114 0.493409
O O3 0.056826 0.981309 0.462205
O O4 0.553324 0.243676 0.265958
O O5 0.281814 0.355785 0.515545
O O6 0.366952 0.268034 0.054888
O O7 0.608727 0.375891 0.000967
O O8 0.740195 0.762387 0.004663
O O9 0.444469 0.852376 0.209073
O O10 0.254111 0.879936 0.795957
O O11 0.093819 0.800019 0.595781
O O12 0.368007 0.001887 0.445370
O O13 0.971313 0.667256 0.562823
O O14 0.951339 0.566357 0.233446
O O15 0.993835 0.705023 0.046011
O O16 0.672524 0.505060 0.739607
#
# Coordination Sequence:
#
# PCOD8052666 Si02
#       8
#     2   2   2   2   2   2   2   2
#     4  10  24  43  64  98 140 192 244 297 364 431
#     4  11  27  47  76 116 148 187 256 304 369 442
#     4  12  25  43  76 103 146 192 250 312 369 430
#     4  11  26  44  73 108 147 197 250 315 369 433
#     4  10  23  44  66  95 145 192 247 301 367 432
#     4  11  24  46  72 106 149 184 236 294 360 449
#     4  12  28  49  79 110 152 196 237 302 377 451
#     4  11  23  42  72 102 143 188 240 301 359 432
#
# _framework density 24.323177000000001
#
# number of rings (size 3 to 8) (size 9 to 14) (size 15 to 20)
#    0.000    1.000    2.500    3.000    5.250    6.000 
#    0.000    0.000    0.000    0.000    0.000    0.000 
#    0.000    0.000    0.000    0.000    0.000    0.000 
#
# Total GULP energy -198244.082457 kJ/mol
# GULP energy per Si atom -12390.255154 kJ/mol
# Density = 2.426782 g / cm^3
# Si number density = 24.323177 Si / 1000 Ang^3
#
#
#
# Elastic Constant Matrix: (Units=GPa)
#
#
# Indices 1 2 3 4 5 6 
#
# 1 46.5548 3.6729 21.9822 0.0000 22.4987 0.0000
# 2 3.6729 85.6813 16.8241 0.0000 5.0088 0.0000
# 3 21.9822 16.8241 73.6929 0.0000 15.4236 0.0000
# 4 0.0000 0.0000 0.0000 40.4702 0.0000 -1.6989
# 5 22.4987 5.0088 15.4236 0.0000 52.4805 0.0000
# 6 0.0000 0.0000 0.0000 -1.6989 0.0000 43.0957
#
#
#
# Elastic Compliance Matrix: (Units=1/GPa)
#
#
# Indices 1 2 3 4 5 6 
#
# 1 0.029895 0.000689 -0.006797 0.000000 -0.010885 0.000000
# 2 0.000689 0.012242 -0.002871 0.000000 -0.000620 0.000000
# 3 -0.006797 -0.002871 0.016607 0.000000 -0.001693 0.000000
# 4 0.000000 0.000000 0.000000 0.024750 0.000000 0.000976
# 5 -0.010885 -0.000620 -0.001693 0.000000 0.024278 0.000000
# 6 0.000000 0.000000 0.000000 0.000976 0.000000 0.023243
#
#
# Mechanical properties :
#
#
# Convention : Reuss Voigt Hill
#
# Bulk Modulus (GPa) = 24.51725 32.32079 28.41902
# Shear Modulus (GPa) = 30.75666 38.10596 34.43131
#
# Velocity S-wave (km/s) = 3.55984 3.96239 3.76650
# Velocity P-wave (km/s) = 5.19599 5.85243 5.53395
#
# Compressibility (1/GPa) = 0.04078761
#
# Stress axis : x y z
#
# Youngs Moduli (GPa) = 33.45014 81.68925 60.21576
#
# Poissons Ratio (x) = -0.05632 0.40928
# Poissons Ratio (y) = -0.02306 0.17285
# Poissons Ratio (z) = 0.22736 0.23449
#
# Static dielectric constant tensor:
#      x y z
#    x 4.824310 0.000000 -0.007030 
#    y 0.000000 4.314160 0.000000 
#    z -0.007030 0.000000 4.799710 
# 
# 
# High freq. dielectric constant tensor:
#      x y z
#    x 1.979200 0.000000 -0.003400 
#    y 0.000000 1.953440 0.000000 
#    z -0.003400 0.000000 1.968490 
# 
# From -- ./inp_files/800.got.cif
#   From: 2010.03.12/outbox.cif.g09.slc.cpg/sg7_cif.got.tgz:800.got - 2010.03.30 08:40:41.
