data_PCOD8052312
_publ_section_title
;
Structure prediction by ZEFSAII (Michael W. Deem and Ramdas Pophale) SiO2 
 PCOD8052312
Probable space group: P M
;
_chemical_formula_sum "Si O2"
_cell_formula_units_Z 16
_cell_length_a 10.391528
_cell_length_b 9.005857
_cell_length_c 12.113805
_cell_angle_alpha 90.000000
_cell_angle_beta 52.305642
_cell_angle_gamma 90.000000
_cell_volume 897.051306
_symmetry_space_group_name_H-M "P M"
_symmetry_group_IT_number 6
_symmetry_cell_setting 'monoclinic'
loop_
_space_group_symop_operation_xyz
x,y,z
x,-y,z
loop_
_atom_site_type_symbol
_atom_site_label
_atom_site_fract_x
_atom_site_fract_y
_atom_site_fract_z
Si Si1 0.778570 0.672506 0.542110
Si Si2 0.455717 0.326744 0.133886
Si Si3 0.136054 0.675612 0.406008
Si Si4 0.962743 0.174161 0.835051
Si Si5 0.711280 0.169894 0.145049
Si Si6 0.255429 0.676392 0.581960
Si Si7 0.598334 0.172406 0.439803
Si Si8 0.702048 0.329017 0.826467
O O1 0.778903 0.500000 0.506032
O O2 0.691669 0.770930 0.497357
O O3 0.680557 0.694966 0.707694
O O4 0.960679 0.737502 0.462492
O O5 0.457232 0.500000 0.154433
O O6 0.269374 0.271165 0.244996
O O7 0.561991 0.262044 0.176488
O O8 0.530510 0.285968 0.974982
O O9 0.120082 0.500000 0.422003
O O10 0.191001 0.734329 0.497240
O O11 0.844790 0.226638 0.798342
O O12 0.133427 0.260223 0.739036
O O13 0.994592 0.000000 0.805637
O O14 0.880548 0.214754 0.996555
O O15 0.718834 0.198067 0.272210
O O16 0.672654 0.000000 0.137094
O O17 0.260763 0.500000 0.587206
O O18 0.433669 0.737439 0.510891
O O19 0.555146 0.000000 0.476799
O O20 0.749651 0.500000 0.827132
#
# Coordination Sequence:
#
# PCOD8052312 Si02
#       8
#     2   2   2   2   2   2   2   2
#     4  10  20  36  53  74 108 147 180 219 267 317
#     4   9  16  29  53  81 105 133 173 222 268 312
#     4   9  17  31  53  80 106 132 172 222 265 308
#     4  10  19  32  53  81 110 141 176 222 271 317
#     4   9  19  34  51  75 110 143 176 218 266 317
#     4  11  20  35  57  83 109 139 180 226 270 317
#     4  11  23  38  54  78 110 147 184 221 267 322
#     4   9  17  31  52  78 108 140 177 220 266 316
#
# _framework density 17.836213999999998
#
# number of rings (size 3 to 8) (size 9 to 14) (size 15 to 20)
#    0.000    2.250    2.500    1.125    0.000    1.500 
#    0.000    1.875    0.000    1.500    0.000    0.000 
#    0.000    0.000    0.000    0.000    0.000    0.000 
#
# Total GULP energy -198354.322946 kJ/mol
# GULP energy per Si atom -12397.145184 kJ/mol
# Density = 1.779562 g / cm^3
# Si number density = 17.836214 Si / 1000 Ang^3
#
#
#
# Elastic Constant Matrix: (Units=GPa)
#
#
# Indices 1 2 3 4 5 6 
#
# 1 101.8684 34.9724 62.5757 0.0000 -4.6517 0.0000
# 2 34.9724 59.7428 43.0106 0.0000 -1.3381 0.0000
# 3 62.5757 43.0106 138.1459 0.0000 -9.4150 0.0000
# 4 0.0000 0.0000 0.0000 23.9728 0.0000 0.3815
# 5 -4.6517 -1.3381 -9.4150 0.0000 26.9880 0.0000
# 6 0.0000 0.0000 0.0000 0.3815 0.0000 15.0785
#
#
#
# Elastic Compliance Matrix: (Units=1/GPa)
#
#
# Indices 1 2 3 4 5 6 
#
# 1 0.014638 -0.004909 -0.005067 0.000000 0.000512 0.000000
# 2 -0.004909 0.023266 -0.005121 0.000000 -0.001479 0.000000
# 3 -0.005067 -0.005121 0.011321 0.000000 0.002822 0.000000
# 4 0.000000 0.000000 0.000000 0.041731 0.000000 -0.001056
# 5 0.000512 -0.001479 0.002822 0.000000 0.038053 0.000000
# 6 0.000000 0.000000 0.000000 -0.001056 0.000000 0.066346
#
#
# Mechanical properties :
#
#
# Convention : Reuss Voigt Hill
#
# Bulk Modulus (GPa) = 52.54868 64.54161 58.54514
# Shear Modulus (GPa) = 21.56177 23.82108 22.69142
#
# Velocity S-wave (km/s) = 3.48066 3.65848 3.57068
# Velocity P-wave (km/s) = 6.75863 7.35596 7.06361
#
# Compressibility (1/GPa) = 0.01902997
#
# Stress axis : x y z
#
# Youngs Moduli (GPa) = 68.31505 42.98190 88.33470
#
# Poissons Ratio (x) = 0.21101 0.44761
# Poissons Ratio (y) = 0.33538 0.45232
# Poissons Ratio (z) = 0.34617 0.22009
#
# Static dielectric constant tensor:
#      x y z
#    x 3.123410 0.000000 -0.206720 
#    y 0.000000 3.234410 0.000000 
#    z -0.206720 0.000000 3.785850 
# 
# 
# High freq. dielectric constant tensor:
#      x y z
#    x 1.656970 0.000000 -0.012160 
#    y 0.000000 1.681860 0.000000 
#    z -0.012160 0.000000 1.710310 
# 
# From -- ./inp_files/3462.got.cif
#   From: 2010.03.12/outbox.cif.g09.slc.cpg/sg6_2_cif.got.tgz:3462.got - 2010.03.30 10:24:59.
