data_PCOD8052157
_publ_section_title
;
Structure prediction by ZEFSAII (Michael W. Deem and Ramdas Pophale) SiO2 
 PCOD8052157
Probable space group: C 2
;
_chemical_formula_sum "Si O2"
_cell_formula_units_Z 20
_cell_length_a 7.912328
_cell_length_b 22.000830
_cell_length_c 8.974366
_cell_angle_alpha 90.000000
_cell_angle_beta 32.514227
_cell_angle_gamma 90.000000
_cell_volume 839.716865
_symmetry_space_group_name_H-M "C 2"
_symmetry_group_IT_number 5
_symmetry_cell_setting 'monoclinic'
loop_
_space_group_symop_operation_xyz
x,y,z
-x,y,-z
1/2+x,1/2+y,z
1/2-x,1/2+y,-z
loop_
_atom_site_type_symbol
_atom_site_label
_atom_site_fract_x
_atom_site_fract_y
_atom_site_fract_z
Si Si1 0.151608 0.539840 0.047274
Si Si2 0.717538 0.241874 0.602302
Si Si3 0.066046 0.307786 0.119059
Si Si4 0.832409 0.422260 0.779706
Si Si5 0.263663 0.113831 0.540617
O O1 0.265293 0.477204 0.036277
O O2 0.869885 0.556503 0.366690
O O3 0.415518 0.593596 0.854496
O O4 0.000000 0.528085 0.000000
O O5 0.398013 0.272994 0.896801
O O6 0.715881 0.168944 0.593194
O O7 0.000000 0.264035 0.500000
O O8 0.799069 0.261690 0.373282
O O9 0.985001 0.369420 0.269779
O O10 0.000000 0.324269 0.000000
O O11 0.000000 0.441978 0.500000
O O12 0.500000 0.390138 0.000000
O O13 0.500000 0.127665 0.500000
#
# Coordination Sequence:
#
# PCOD8052157 Si02
#       5
#     4   4   4   4   4
#     4  12  25  44  68  99 134 174 221 275 331 392
#     4  12  25  44  68  98 134 176 221 272 330 395
#     4  12  25  44  68  99 134 174 221 275 331 392
#     4  12  25  44  69  98 133 176 223 274 331 394
#     4  12  25  44  68  98 134 176 221 272 330 395
#
# _framework density 23.817550000000001
#
# number of rings (size 3 to 8) (size 9 to 14) (size 15 to 20)
#    0.000    0.000    0.000   12.600    0.000    0.000 
#    0.000    6.000    0.000    0.000    0.000    0.000 
#    0.000    0.000    0.000    0.000    0.000    0.000 
#
# Total GULP energy -123946.702800 kJ/mol
# GULP energy per Si atom -12394.670280 kJ/mol
# Density = 2.376334 g / cm^3
# Si number density = 23.817550 Si / 1000 Ang^3
#
#
#
# Elastic Constant Matrix: (Units=GPa)
#
#
# Indices 1 2 3 4 5 6 
#
# 1 98.4494 17.9655 14.6887 0.0000 12.3486 0.0000
# 2 17.9655 105.9415 21.8690 0.0000 2.2695 0.0000
# 3 14.6887 21.8690 104.6976 0.0000 3.7296 0.0000
# 4 0.0000 0.0000 0.0000 44.0514 0.0000 7.4298
# 5 12.3486 2.2695 3.7296 0.0000 37.4047 0.0000
# 6 0.0000 0.0000 0.0000 7.4298 0.0000 27.3997
#
#
#
# Elastic Compliance Matrix: (Units=1/GPa)
#
#
# Indices 1 2 3 4 5 6 
#
# 1 0.011040 -0.001572 -0.001098 0.000000 -0.003440 0.000000
# 2 -0.001572 0.010094 -0.001891 0.000000 0.000095 0.000000
# 3 -0.001098 -0.001891 0.010119 0.000000 -0.000532 0.000000
# 4 0.000000 0.000000 0.000000 0.023789 0.000000 -0.006451
# 5 -0.003440 0.000095 -0.000532 0.000000 0.027917 0.000000
# 6 0.000000 0.000000 0.000000 -0.006451 0.000000 0.038246
#
#
# Mechanical properties :
#
#
# Convention : Reuss Voigt Hill
#
# Bulk Modulus (GPa) = 45.18559 46.45945 45.82252
# Shear Modulus (GPa) = 36.30971 38.74218 37.52594
#
# Velocity S-wave (km/s) = 3.90871 4.03752 3.97364
# Velocity P-wave (km/s) = 6.27562 6.42527 6.35089
#
# Compressibility (1/GPa) = 0.02213095
#
# Stress axis : x y z
#
# Youngs Moduli (GPa) = 90.58310 99.06787 98.82056
#
# Poissons Ratio (x) = 0.15571 0.10850
# Poissons Ratio (y) = 0.14237 0.18690
# Poissons Ratio (z) = 0.09946 0.18737
#
# Static dielectric constant tensor:
#      x y z
#    x 4.307470 0.000000 0.089790 
#    y 0.000000 4.091360 0.000000 
#    z 0.089790 0.000000 4.380050 
# 
# 
# High freq. dielectric constant tensor:
#      x y z
#    x 1.949500 0.000000 0.007410 
#    y 0.000000 1.952130 0.000000 
#    z 0.007410 0.000000 1.957170 
# 
# From -- ./inp_files/17278.got.cif
#   From: 2010.03.12/outbox.cif.g09.slc.cpg/sg5_9_cif.got.tgz:17278.got - 2010.03.31 09:47:26.
