data_PCOD8052650
_publ_section_title
;
Structure prediction by ZEFSAII (Michael W. Deem and Ramdas Pophale) SiO2 
 PCOD8052650
Probable space group: P C
;
_chemical_formula_sum "Si O2"
_cell_formula_units_Z 16
_cell_length_a 7.025287
_cell_length_b 21.600247
_cell_length_c 4.931899
_cell_angle_alpha 90.000000
_cell_angle_beta 105.934157
_cell_angle_gamma 90.000000
_cell_volume 719.650114
_symmetry_space_group_name_H-M "P C"
_symmetry_group_IT_number 7
_symmetry_cell_setting 'monoclinic'
loop_
_space_group_symop_operation_xyz
x,y,z
x,-y,1/2+z
loop_
_atom_site_type_symbol
_atom_site_label
_atom_site_fract_x
_atom_site_fract_y
_atom_site_fract_z
Si Si1 0.358290 0.378022 0.017310
Si Si2 0.738114 0.458993 0.111889
Si Si3 0.135396 0.232542 0.362326
Si Si4 0.902352 0.121486 0.520882
Si Si5 0.647012 0.127681 0.950311
Si Si6 0.283106 0.041253 0.777670
Si Si7 0.396753 0.239052 0.965049
Si Si8 0.092621 0.629056 0.903027
O O1 0.520850 0.429930 0.036196
O O2 0.270675 0.391362 0.277884
O O3 0.458094 0.309745 0.050941
O O4 0.174497 0.382594 0.736913
O O5 0.764567 0.518519 0.314933
O O6 0.897327 0.409024 0.264941
O O7 0.325807 0.233504 0.629249
O O8 0.032112 0.299647 0.328666
O O9 0.978323 0.182673 0.398370
O O10 0.218268 0.216821 0.094205
O O11 0.788908 0.138911 0.750573
O O12 0.073774 0.073641 0.653622
O O13 0.757607 0.090846 0.237754
O O14 0.456162 0.089559 0.779260
O O15 0.584508 0.193745 0.057625
O O16 0.300213 0.981669 0.592051
#
# Coordination Sequence:
#
# PCOD8052650 Si02
#       8
#     2   2   2   2   2   2   2   2
#     4  10  23  43  65  96 130 173 215 272 326 385
#     4  12  26  42  64  96 130 174 224 264 322 398
#     4  10  21  42  69  97 137 170 216 272 337 395
#     4  12  26  43  71 105 132 175 221 273 334 391
#     4  12  26  43  71 105 132 175 221 273 334 391
#     4  12  28  48  70  94 140 180 220 274 320 392
#     4  10  21  42  69  97 137 170 216 272 337 395
#     4  10  23  43  65  96 130 173 215 272 326 385
#
# _framework density 22.233028999999998
#
# number of rings (size 3 to 8) (size 9 to 14) (size 15 to 20)
#    0.000    1.000    1.250    4.500    3.500    6.000 
#    2.250    0.000    0.000    0.000    0.000    0.000 
#    0.000    0.000    0.000    0.000    0.000    0.000 
#
# Total GULP energy -198469.898131 kJ/mol
# GULP energy per Si atom -12404.368633 kJ/mol
# Density = 2.218243 g / cm^3
# Si number density = 22.233029 Si / 1000 Ang^3
#
#
#
# Elastic Constant Matrix: (Units=GPa)
#
#
# Indices 1 2 3 4 5 6 
#
# 1 69.5119 31.1124 18.4053 0.0000 -4.3821 0.0000
# 2 31.1124 69.1021 13.7211 0.0000 -7.0696 0.0000
# 3 18.4053 13.7211 88.3345 0.0000 -7.5220 0.0000
# 4 0.0000 0.0000 0.0000 33.2827 0.0000 -3.8525
# 5 -4.3821 -7.0696 -7.5220 0.0000 33.1846 0.0000
# 6 0.0000 0.0000 0.0000 -3.8525 0.0000 22.4705
#
#
#
# Elastic Compliance Matrix: (Units=1/GPa)
#
#
# Indices 1 2 3 4 5 6 
#
# 1 0.018603 -0.007832 -0.002644 0.000000 0.000189 0.000000
# 2 -0.007832 0.018471 -0.001010 0.000000 0.002672 0.000000
# 3 -0.002644 -0.001010 0.012216 0.000000 0.002205 0.000000
# 4 0.000000 0.000000 0.000000 0.030654 0.000000 0.005256
# 5 0.000189 0.002672 0.002205 0.000000 0.031228 0.000000
# 6 0.000000 0.000000 0.000000 0.005256 0.000000 0.045404
#
#
# Mechanical properties :
#
#
# Convention : Reuss Voigt Hill
#
# Bulk Modulus (GPa) = 37.99323 39.26956 38.63139
# Shear Modulus (GPa) = 26.55052 28.70155 27.62603
#
# Velocity S-wave (km/s) = 3.45946 3.59687 3.52883
# Velocity P-wave (km/s) = 5.75177 5.91194 5.83240
#
# Compressibility (1/GPa) = 0.02632048
#
# Stress axis : x y z
#
# Youngs Moduli (GPa) = 53.75421 54.13804 81.85969
#
# Poissons Ratio (x) = 0.42399 0.21640
# Poissons Ratio (y) = 0.42098 0.08267
# Poissons Ratio (z) = 0.14210 0.05467
#
# Static dielectric constant tensor:
#      x y z
#    x 3.865930 0.000000 -0.029630 
#    y 0.000000 4.016230 0.000000 
#    z -0.029630 0.000000 4.220370 
# 
# 
# High freq. dielectric constant tensor:
#      x y z
#    x 1.873790 0.000000 -0.002670 
#    y 0.000000 1.875030 0.000000 
#    z -0.002670 0.000000 1.894270 
# 
# From -- ./inp_files/348.got.cif
#   From: 2010.03.12/outbox.cif.g09.slc.cpg/sg7_cif.got.tgz:348.got - 2010.03.30 08:40:41.
