data_PCOD8052276
_publ_section_title
;
Structure prediction by ZEFSAII (Michael W. Deem and Ramdas Pophale) SiO2 
 PCOD8052276
Probable space group: P M
;
_chemical_formula_sum "Si O2"
_cell_formula_units_Z 16
_cell_length_a 10.316239
_cell_length_b 8.582239
_cell_length_c 12.123735
_cell_angle_alpha 90.000000
_cell_angle_beta 52.336759
_cell_angle_gamma 90.000000
_cell_volume 849.714122
_symmetry_space_group_name_H-M "P M"
_symmetry_group_IT_number 6
_symmetry_cell_setting 'monoclinic'
loop_
_space_group_symop_operation_xyz
x,y,z
x,-y,z
loop_
_atom_site_type_symbol
_atom_site_label
_atom_site_fract_x
_atom_site_fract_y
_atom_site_fract_z
Si Si1 0.781590 0.682582 0.481550
Si Si2 0.453993 0.318245 0.037072
Si Si3 0.145885 0.684534 0.326627
Si Si4 0.939461 0.319400 0.784497
Si Si5 0.708325 0.180239 0.066478
Si Si6 0.269389 0.682529 0.497530
Si Si7 0.617459 0.180052 0.358068
Si Si8 0.685029 0.181410 0.751639
O O1 0.777830 0.500000 0.507449
O O2 0.706420 0.715256 0.401908
O O3 0.673911 0.768765 0.630202
O O4 0.966752 0.749827 0.390213
O O5 0.459306 0.500000 0.006087
O O6 0.271372 0.263379 0.165192
O O7 0.571568 0.285955 0.079770
O O8 0.512406 0.222917 0.899542
O O9 0.139988 0.500000 0.338181
O O10 0.206926 0.749132 0.412712
O O11 0.909150 0.500000 0.823973
O O12 0.832246 0.273736 0.733670
O O13 0.129330 0.285815 0.661313
O O14 0.884495 0.222646 0.921399
O O15 0.708201 0.217510 0.195901
O O16 0.667587 0.000000 0.064985
O O17 0.312726 0.500000 0.467374
O O18 0.426932 0.778351 0.452108
O O19 0.635265 0.000000 0.380837
O O20 0.719830 0.000000 0.745077
#
# Coordination Sequence:
#
# PCOD8052276 Si02
#       8
#     2   2   2   2   2   2   2   2
#     4  11  22  40  61  82 111 150 191 234 279 333
#     4  10  18  32  57  84 110 142 185 235 280 326
#     4   9  18  34  58  86 111 138 188 241 277 320
#     4  10  19  33  57  85 112 143 190 237 276 325
#     4  10  20  34  52  79 116 149 183 226 281 337
#     4  10  19  36  59  85 112 144 191 238 277 325
#     4  11  24  39  55  83 118 152 187 227 283 344
#     4  11  21  34  53  82 118 150 183 226 283 338
#
# _framework density 18.829861999999999
#
# number of rings (size 3 to 8) (size 9 to 14) (size 15 to 20)
#    0.000    1.750    2.500    4.500    0.000    2.500 
#    0.000    3.750    0.000    4.500    0.000    0.000 
#    0.000    0.000    0.000    0.000    0.000    0.000 
#
# Total GULP energy -198430.711994 kJ/mol
# GULP energy per Si atom -12401.919500 kJ/mol
# Density = 1.878700 g / cm^3
# Si number density = 18.829862 Si / 1000 Ang^3
#
#
#
# Elastic Constant Matrix: (Units=GPa)
#
#
# Indices 1 2 3 4 5 6 
#
# 1 88.9843 11.7112 53.8254 0.0000 -1.9052 0.0000
# 2 11.7112 46.1645 36.5922 0.0000 -3.9229 0.0000
# 3 53.8254 36.5922 141.1906 0.0000 -1.1929 0.0000
# 4 0.0000 0.0000 0.0000 29.4981 0.0000 4.4387
# 5 -1.9052 -3.9229 -1.1929 0.0000 25.1744 0.0000
# 6 0.0000 0.0000 0.0000 4.4387 0.0000 15.5508
#
#
#
# Elastic Compliance Matrix: (Units=1/GPa)
#
#
# Indices 1 2 3 4 5 6 
#
# 1 0.014659 0.000992 -0.005837 0.000000 0.000987 0.000000
# 2 0.000992 0.027721 -0.007528 0.000000 0.004038 0.000000
# 3 -0.005837 -0.007528 0.011250 0.000000 -0.001082 0.000000
# 4 0.000000 0.000000 0.000000 0.035422 0.000000 -0.010110
# 5 0.000987 0.004038 -0.001082 0.000000 0.040376 0.000000
# 6 0.000000 0.000000 0.000000 -0.010110 0.000000 0.067191
#
#
# Mechanical properties :
#
#
# Convention : Reuss Voigt Hill
#
# Bulk Modulus (GPa) = 34.62302 53.39967 44.01134
# Shear Modulus (GPa) = 21.64565 25.65870 23.65217
#
# Velocity S-wave (km/s) = 3.39416 3.69543 3.54799
# Velocity P-wave (km/s) = 5.81272 6.82853 6.34100
#
# Compressibility (1/GPa) = 0.02888252
#
# Stress axis : x y z
#
# Youngs Moduli (GPa) = 68.21551 36.07438 88.88956
#
# Poissons Ratio (x) = -0.03578 0.51887
# Poissons Ratio (y) = -0.06767 0.66919
# Poissons Ratio (z) = 0.39819 0.27158
#
# Static dielectric constant tensor:
#      x y z
#    x 3.181330 0.000000 -0.153500 
#    y 0.000000 3.349860 0.000000 
#    z -0.153500 0.000000 3.776020 
# 
# 
# High freq. dielectric constant tensor:
#      x y z
#    x 1.696020 0.000000 -0.008670 
#    y 0.000000 1.729510 0.000000 
#    z -0.008670 0.000000 1.750210 
# 
# From -- ./inp_files/4547.got.cif
#   From: 2010.03.12/outbox.cif.g09.slc.cpg/sg6_3_cif.got.tgz:4547.got - 2010.03.30 10:24:59.
