data_PCOD8052674
_publ_section_title
;
Structure prediction by ZEFSAII (Michael W. Deem and Ramdas Pophale) SiO2 
 PCOD8052674
Probable space group: P C
;
_chemical_formula_sum "Si O2"
_cell_formula_units_Z 10
_cell_length_a 5.226376
_cell_length_b 15.775292
_cell_length_c 5.004890
_cell_angle_alpha 90.000000
_cell_angle_beta 100.782871
_cell_angle_gamma 90.000000
_cell_volume 405.355294
_symmetry_space_group_name_H-M "P C"
_symmetry_group_IT_number 7
_symmetry_cell_setting 'monoclinic'
loop_
_space_group_symop_operation_xyz
x,y,z
x,-y,1/2+z
loop_
_atom_site_type_symbol
_atom_site_label
_atom_site_fract_x
_atom_site_fract_y
_atom_site_fract_z
Si Si1 0.442010 0.837772 0.908990
Si Si2 0.093137 0.696624 0.783780
Si Si3 0.476750 0.443900 0.420608
Si Si4 0.778884 0.710135 0.207644
Si Si5 0.931318 0.943919 0.916276
O O1 0.311914 0.761645 0.706114
O O2 0.683321 0.883210 0.804497
O O3 0.217205 0.903467 0.942709
O O4 0.563889 0.785099 0.185728
O O5 0.198434 0.603344 0.877107
O O6 0.868105 0.687683 0.521012
O O7 0.000557 0.741824 0.042489
O O8 0.500782 0.523488 0.622609
O O9 0.693264 0.375763 0.540345
O O10 0.908489 0.023658 0.714329
#
# Coordination Sequence:
#
# PCOD8052674 Si02
#       5
#     2   2   2   2   2
#     4  11  26  50  74 107 148 190 244 295 354 444
#     4  11  25  44  72 101 141 196 238 292 359 421
#     4  11  24  42  66 105 146 186 240 299 354 420
#     4  11  25  44  72 101 141 196 238 292 359 421
#     4  12  28  48  76 108 146 188 236 300 368 424
#
# _framework density 24.669716000000001
#
# number of rings (size 3 to 8) (size 9 to 14) (size 15 to 20)
#    0.000    0.800    2.000    3.600    2.800   12.800 
#    0.000    0.000    0.000    0.000    0.000    0.000 
#    0.000    0.000    0.000    0.000    0.000    0.000 
#
# Total GULP energy -123916.973700 kJ/mol
# GULP energy per Si atom -12391.697370 kJ/mol
# Density = 2.461357 g / cm^3
# Si number density = 24.669716 Si / 1000 Ang^3
#
#
#
# Elastic Constant Matrix: (Units=GPa)
#
#
# Indices 1 2 3 4 5 6 
#
# 1 109.7425 28.7704 9.6198 0.0000 12.9306 0.0000
# 2 28.7704 99.9911 7.5980 0.0000 14.2061 0.0000
# 3 9.6198 7.5980 97.7776 0.0000 11.7337 0.0000
# 4 0.0000 0.0000 0.0000 23.4603 0.0000 1.9202
# 5 12.9306 14.2061 11.7337 0.0000 34.4741 0.0000
# 6 0.0000 0.0000 0.0000 1.9202 0.0000 51.1736
#
#
#
# Elastic Compliance Matrix: (Units=1/GPa)
#
#
# Indices 1 2 3 4 5 6 
#
# 1 0.010118 -0.002505 -0.000489 0.000000 -0.002596 0.000000
# 2 -0.002505 0.011252 -0.000192 0.000000 -0.003632 0.000000
# 3 -0.000489 -0.000192 0.010696 0.000000 -0.003378 0.000000
# 4 0.000000 0.000000 0.000000 0.042757 0.000000 -0.001604
# 5 -0.002596 -0.003632 -0.003378 0.000000 0.032627 0.000000
# 6 0.000000 0.000000 0.000000 -0.001604 0.000000 0.019602
#
#
# Mechanical properties :
#
#
# Convention : Reuss Voigt Hill
#
# Bulk Modulus (GPa) = 38.92137 44.38750 41.65443
# Shear Modulus (GPa) = 35.21416 39.25646 37.23531
#
# Velocity S-wave (km/s) = 3.78223 3.99341 3.88925
# Velocity P-wave (km/s) = 5.90634 6.26857 6.09015
#
# Compressibility (1/GPa) = 0.02569283
#
# Stress axis : x y z
#
# Youngs Moduli (GPa) = 98.83588 88.87089 93.49564
#
# Poissons Ratio (x) = 0.22264 0.04574
# Poissons Ratio (y) = 0.24760 0.01796
# Poissons Ratio (z) = 0.04835 0.01707
#
# Static dielectric constant tensor:
#      x y z
#    x 4.672600 0.000000 0.324860 
#    y 0.000000 4.602030 0.000000 
#    z 0.324860 0.000000 4.093270 
# 
# 
# High freq. dielectric constant tensor:
#      x y z
#    x 1.991470 0.000000 0.020430 
#    y 0.000000 1.998640 0.000000 
#    z 0.020430 0.000000 1.962970 
# 
# From -- ./inp_files/109.got.cif
#   From: 2010.03.12/outbox.cif.g09.slc.cpg/sg7_cif.got.tgz:109.got - 2010.03.30 08:40:41.
