data_PCOD8052744
_publ_section_title
;
Structure prediction by ZEFSAII (Michael W. Deem and Ramdas Pophale) SiO2 
 PCOD8052744
Probable space group: C M
;
_chemical_formula_sum "Si O2"
_cell_formula_units_Z 32
_cell_length_a 28.558180
_cell_length_b 9.236971
_cell_length_c 11.988840
_cell_angle_alpha 90.000000
_cell_angle_beta 147.096613
_cell_angle_gamma 90.000000
_cell_volume 1717.972810
_symmetry_space_group_name_H-M "C M"
_symmetry_group_IT_number 8
_symmetry_cell_setting 'monoclinic'
loop_
_space_group_symop_operation_xyz
x,y,z
x,-y,z
1/2+x,1/2+y,z
1/2+x,1/2-y,z
loop_
_atom_site_type_symbol
_atom_site_label
_atom_site_fract_x
_atom_site_fract_y
_atom_site_fract_z
Si Si1 0.920100 0.827979 0.991220
Si Si2 0.014457 0.171665 0.552663
Si Si3 0.661782 0.166704 0.233594
Si Si4 0.661744 0.833310 0.715451
Si Si5 0.093568 0.662653 0.338124
Si Si6 0.352871 0.328156 0.089704
Si Si7 0.514494 0.671668 0.807240
Si Si8 0.852912 0.828157 0.623887
O O1 0.873174 0.765691 0.787524
O O2 0.920461 0.000000 0.991950
O O3 0.873171 0.765674 0.007203
O O4 0.018345 0.778536 0.187707
O O5 0.094786 0.237155 0.648444
O O6 0.016623 0.224375 0.684245
O O7 0.925042 0.228761 0.320262
O O8 0.020971 0.000000 0.556060
O O9 0.652527 0.186766 0.347758
O O10 0.758043 0.221726 0.394717
O O11 0.648090 0.000000 0.171400
O O12 0.594856 0.262853 0.032777
O O13 0.652519 0.813316 0.564317
O O14 0.648055 0.000000 0.722934
O O15 0.757997 0.778256 0.939366
O O16 0.054773 0.500000 0.260494
O O17 0.354878 0.500000 0.087764
O O18 0.520993 0.500000 0.829867
O O19 0.425101 0.728793 0.682075
O O20 0.854941 0.000000 0.633874
#
# Coordination Sequence:
#
# PCOD8052744 Si02
#       8
#     4   4   4   4   4   4   4   4
#     4  10  17  31  57  80 102 138 179 211 255 322
#     4  10  21  37  55  77 106 139 180 226 263 302
#     4  10  20  35  56  81 109 139 174 216 264 317
#     4  10  20  35  56  81 109 139 174 216 264 317
#     4  10  19  31  51  82 114 136 163 215 271 312
#     4   9  18  33  55  80 104 136 176 216 259 313
#     4  10  21  37  55  77 106 139 180 226 263 302
#     4   9  18  33  55  80 104 136 176 216 259 313
#
# _framework density 18.626604
#
# number of rings (size 3 to 8) (size 9 to 14) (size 15 to 20)
#    0.000    2.250    2.500    0.750    0.000    4.500 
#    0.000    5.000    0.000    1.500    0.000    0.000 
#    0.000    0.000    0.000    0.000    0.000    0.000 
#
# Total GULP energy -198381.264497 kJ/mol
# GULP energy per Si atom -12398.829031 kJ/mol
# Density = 1.858421 g / cm^3
# Si number density = 18.626604 Si / 1000 Ang^3
#
#
#
# Elastic Constant Matrix: (Units=GPa)
#
#
# Indices 1 2 3 4 5 6 
#
# 1 122.6353 24.8170 94.4893 0.0000 -6.4538 0.0000
# 2 24.8170 17.6941 23.0398 0.0000 -2.1654 0.0000
# 3 94.4893 23.0398 129.7183 0.0000 14.5996 0.0000
# 4 0.0000 0.0000 0.0000 22.6472 0.0000 7.3246
# 5 -6.4538 -2.1654 14.5996 0.0000 36.7987 0.0000
# 6 0.0000 0.0000 0.0000 7.3246 0.0000 16.5399
#
#
#
# Elastic Compliance Matrix: (Units=1/GPa)
#
#
# Indices 1 2 3 4 5 6 
#
# 1 0.023269 -0.010274 -0.016241 0.000000 0.009920 0.000000
# 2 -0.010274 0.081710 -0.007712 0.000000 0.006066 0.000000
# 3 -0.016241 -0.007712 0.022276 0.000000 -0.012140 0.000000
# 4 0.000000 0.000000 0.000000 0.051537 0.000000 -0.022823
# 5 0.009920 0.006066 -0.012140 0.000000 0.034088 0.000000
# 6 0.000000 0.000000 0.000000 -0.022823 0.000000 0.070567
#
#
# Mechanical properties :
#
#
# Convention : Reuss Voigt Hill
#
# Bulk Modulus (GPa) = 17.00668 61.63778 39.32223
# Shear Modulus (GPa) = 13.45887 23.71059 18.58473
#
# Velocity S-wave (km/s) = 2.69097 3.57170 3.16215
# Velocity P-wave (km/s) = 4.33650 7.08326 5.87272
#
# Compressibility (1/GPa) = 0.05880043
#
# Stress axis : x y z
#
# Youngs Moduli (GPa) = 42.97494 12.23837 44.89208
#
# Poissons Ratio (x) = 0.12574 0.72911
# Poissons Ratio (y) = 0.44154 0.34619
# Poissons Ratio (z) = 0.69798 0.09438
#
# Static dielectric constant tensor:
#      x y z
#    x 3.626190 0.000000 -0.025150 
#    y 0.000000 3.100130 0.000000 
#    z -0.025150 0.000000 3.605530 
# 
# 
# High freq. dielectric constant tensor:
#      x y z
#    x 1.730110 0.000000 0.002980 
#    y 0.000000 1.684160 0.000000 
#    z 0.002980 0.000000 1.732590 
# 
# From -- ./inp_files/20124.got.cif
#   From: 2010.03.12/outbox.cif.g09.slc.cpg/sg8_11_cif.got.tgz:20124.got - 2010.03.31 10:45:26.
