data_PCOD8052011
_publ_section_title
;
Structure prediction by ZEFSAII (Michael W. Deem and Ramdas Pophale) SiO2 
 PCOD8052011
Probable space group: C 2
;
_chemical_formula_sum "Si O2"
_cell_formula_units_Z 24
_cell_length_a 8.550841
_cell_length_b 17.411913
_cell_length_c 14.689877
_cell_angle_alpha 90.000000
_cell_angle_beta 32.736344
_cell_angle_gamma 90.000000
_cell_volume 1182.739994
_symmetry_space_group_name_H-M "C 2"
_symmetry_group_IT_number 5
_symmetry_cell_setting 'monoclinic'
loop_
_space_group_symop_operation_xyz
x,y,z
-x,y,-z
1/2+x,1/2+y,z
1/2-x,1/2+y,-z
loop_
_atom_site_type_symbol
_atom_site_label
_atom_site_fract_x
_atom_site_fract_y
_atom_site_fract_z
Si Si1 0.500000 0.765350 0.000000
Si Si2 0.176248 0.522929 0.005887
Si Si3 0.366128 0.038614 0.660796
Si Si4 0.305570 0.883033 0.456991
Si Si5 0.013252 0.646733 0.227326
Si Si6 0.500000 0.754670 0.500000
Si Si7 0.350136 0.881610 0.228807
O O1 0.242002 0.711827 0.100874
O O2 0.425611 0.812905 0.125634
O O3 0.519327 0.531767 0.824600
O O4 0.043394 0.590088 0.129407
O O5 0.000000 0.521398 0.000000
O O6 0.100189 0.444754 0.095547
O O7 0.500000 0.068061 0.500000
O O8 0.460689 0.100257 0.690454
O O9 0.486777 0.953932 0.622149
O O10 0.371740 0.808633 0.484570
O O11 0.356296 0.853814 0.329729
O O12 0.974981 0.911426 0.635417
O O13 0.725451 0.693807 0.352035
#
# Coordination Sequence:
#
# PCOD8052011 Si02
#       7
#     2   4   4   4   4   2   4
#     4  12  24  50  68 104 142 186 226 300 348 406
#     4  12  26  45  72 106 137 189 237 284 349 421
#     4  12  26  45  73 102 142 186 238 285 347 422
#     4  11  25  46  71 107 138 188 236 283 349 421
#     4  12  28  48  72 102 149 183 229 296 355 408
#     4  12  28  46  72 108 146 180 234 294 356 406
#     4  11  25  44  76 101 142 187 236 283 347 423
#
# _framework density 20.291865999999999
#
# number of rings (size 3 to 8) (size 9 to 14) (size 15 to 20)
#    0.000    0.333    6.667    1.000    7.000    2.667 
#    0.000    0.000    0.000    0.000    0.000    0.000 
#    0.000    0.000    0.000    0.000    0.000    0.000 
#
# Total GULP energy -148767.448125 kJ/mol
# GULP energy per Si atom -12397.287344 kJ/mol
# Density = 2.024568 g / cm^3
# Si number density = 20.291866 Si / 1000 Ang^3
#
#
#
# Elastic Constant Matrix: (Units=GPa)
#
#
# Indices 1 2 3 4 5 6 
#
# 1 59.8707 -12.4534 6.9478 -0.0674 9.1664 0.0728
# 2 -12.4534 82.2820 25.4542 -0.0469 -0.8096 0.0527
# 3 6.9478 25.4542 115.2936 -0.2426 -5.3175 0.1473
# 4 -0.0674 -0.0469 -0.2426 51.8057 0.0579 2.4950
# 5 9.1664 -0.8096 -5.3175 0.0579 44.1919 -0.0512
# 6 0.0728 0.0527 0.1473 2.4950 -0.0512 44.7502
#
#
#
# Elastic Compliance Matrix: (Units=1/GPa)
#
#
# Indices 1 2 3 4 5 6 
#
# 1 0.018241 0.003347 -0.002021 0.000023 -0.003965 -0.000033
# 2 0.003347 0.013659 -0.003256 0.000003 -0.000836 -0.000012
# 3 -0.002021 -0.003256 0.009584 0.000039 0.001513 -0.000025
# 4 0.000023 0.000003 0.000039 0.019355 -0.000027 -0.001079
# 5 -0.003965 -0.000836 0.001513 -0.000027 0.023618 0.000031
# 6 -0.000033 -0.000012 -0.000025 -0.001079 0.000031 0.022407
#
#
# Mechanical properties :
#
#
# Convention : Reuss Voigt Hill
#
# Bulk Modulus (GPa) = 26.57897 33.03819 29.80858
# Shear Modulus (GPa) = 40.56340 43.98275 42.27308
#
# Velocity S-wave (km/s) = 4.47587 4.66070 4.56922
# Velocity P-wave (km/s) = 6.31173 6.72902 6.52371
#
# Compressibility (1/GPa) = 0.03762373
#
# Stress axis : x y z
#
# Youngs Moduli (GPa) = 54.82295 73.21266 104.34088
#
# Poissons Ratio (x) = -0.24504 0.21087
# Poissons Ratio (y) = -0.18349 0.33971
# Poissons Ratio (z) = 0.11079 0.23836
#
# Static dielectric constant tensor:
#      x y z
#    x 3.808640 -0.000060 0.034920 
#    y -0.000060 3.791920 0.000150 
#    z 0.034920 0.000150 4.064150 
# 
# 
# High freq. dielectric constant tensor:
#      x y z
#    x 1.803470 0.000000 0.000310 
#    y 0.000000 1.800490 0.000000 
#    z 0.000310 0.000000 1.817440 
# 
# From -- ./inp_files/15702.got.cif
#   From: 2010.03.12/outbox.cif.g09.slc.cpg/sg5_8_cif.got.tgz:15702.got - 2010.03.31 09:47:26.
