data_PCOD8052964
_publ_section_title
;
Structure prediction by ZEFSAII (Michael W. Deem and Ramdas Pophale) SiO2 
 PCOD8052964
Probable space group: C M
;
_chemical_formula_sum "Si O2"
_cell_formula_units_Z 32
_cell_length_a 15.414828
_cell_length_b 9.067022
_cell_length_c 22.628817
_cell_angle_alpha 90.000000
_cell_angle_beta 31.641092
_cell_angle_gamma 90.000000
_cell_volume 1659.169259
_symmetry_space_group_name_H-M "C M"
_symmetry_group_IT_number 8
_symmetry_cell_setting 'monoclinic'
loop_
_space_group_symop_operation_xyz
x,y,z
x,-y,z
1/2+x,1/2+y,z
1/2+x,1/2-y,z
loop_
_atom_site_type_symbol
_atom_site_label
_atom_site_fract_x
_atom_site_fract_y
_atom_site_fract_z
Si Si1 0.018240 0.832354 0.379680
Si Si2 0.323833 0.829624 0.394245
Si Si3 0.808242 0.827414 0.158360
Si Si4 0.266162 0.669402 0.625492
Si Si5 0.451149 0.675227 0.759706
Si Si6 0.960518 0.826225 0.621887
Si Si7 0.130999 0.330035 0.140642
Si Si8 0.163300 0.174293 0.999109
O O1 0.192328 0.747874 0.274762
O O2 0.885014 0.768156 0.412364
O O3 0.939199 0.818241 0.490184
O O4 0.054722 0.000000 0.341465
O O5 0.439247 0.805753 0.270038
O O6 0.136187 0.777684 0.491376
O O7 0.333530 0.000000 0.408680
O O8 0.751347 0.781994 0.125093
O O9 0.784761 0.000000 0.180404
O O10 0.995655 0.778152 0.062526
O O11 0.201417 0.500000 0.661420
O O12 0.310727 0.722928 0.666148
O O13 0.129957 0.779474 0.679986
O O14 0.434060 0.500000 0.773152
O O15 0.433480 0.738002 0.703236
O O16 0.312114 0.749069 0.879508
O O17 0.960858 0.000000 0.626819
O O18 0.163785 0.500000 0.104300
O O19 0.166961 0.226405 0.064580
O O20 0.188057 0.000000 0.983734
#
# Coordination Sequence:
#
# PCOD8052964 Si02
#       8
#     4   4   4   4   4   4   4   4
#     4  10  19  31  56  89 122 151 187 238 287 339
#     4   9  17  34  59  83 119 157 188 231 286 345
#     4   9  21  40  59  82 117 158 192 233 289 345
#     4  10  21  37  58  87 119 152 190 237 292 340
#     4  11  23  41  62  83 113 154 200 241 282 344
#     4   9  19  36  59  85 114 152 192 232 286 344
#     4   9  19  36  60  87 116 152 193 233 282 345
#     4  11  24  41  61  84 116 154 194 243 292 340
#
# _framework density 19.286760999999998
#
# number of rings (size 3 to 8) (size 9 to 14) (size 15 to 20)
#    0.000    2.250    1.250    1.875    1.750    4.500 
#    0.000    4.375    0.000    0.000    0.000    0.000 
#    0.000    0.000    0.000    0.000    0.000    0.000 
#
# Total GULP energy -198368.664474 kJ/mol
# GULP energy per Si atom -12398.041530 kJ/mol
# Density = 1.924286 g / cm^3
# Si number density = 19.286761 Si / 1000 Ang^3
#
#
#
# Elastic Constant Matrix: (Units=GPa)
#
#
# Indices 1 2 3 4 5 6 
#
# 1 113.7794 38.2064 48.6245 0.0000 12.5044 0.0001
# 2 38.2064 59.3919 40.7468 -0.0005 3.9778 0.0003
# 3 48.6245 40.7468 99.2041 -0.0006 13.0757 0.0001
# 4 0.0000 -0.0005 -0.0006 29.4147 0.0001 -1.6509
# 5 12.5044 3.9778 13.0757 0.0001 19.7592 -0.0001
# 6 0.0001 0.0003 0.0001 -1.6509 -0.0001 25.0525
#
#
#
# Elastic Compliance Matrix: (Units=1/GPa)
#
#
# Indices 1 2 3 4 5 6 
#
# 1 0.012553 -0.005519 -0.003271 0.000000 -0.004669 0.000000
# 2 -0.005519 0.025929 -0.008455 0.000000 0.003868 0.000000
# 3 -0.003271 -0.008455 0.016060 0.000000 -0.006856 0.000000
# 4 0.000000 0.000000 0.000000 0.034123 0.000000 0.002249
# 5 -0.004669 0.003868 -0.006856 0.000000 0.057322 0.000000
# 6 0.000000 0.000000 0.000000 0.002249 0.000000 0.040064
#
#
# Mechanical properties :
#
#
# Convention : Reuss Voigt Hill
#
# Bulk Modulus (GPa) = 49.86723 58.61455 54.24089
# Shear Modulus (GPa) = 22.00478 24.49846 23.25162
#
# Velocity S-wave (km/s) = 3.38143 3.56788 3.47590
# Velocity P-wave (km/s) = 6.41539 6.88695 6.65535
#
# Compressibility (1/GPa) = 0.02005325
#
# Stress axis : x y z
#
# Youngs Moduli (GPa) = 79.66300 38.56699 62.26770
#
# Poissons Ratio (x) = 0.21283 0.20366
# Poissons Ratio (y) = 0.43963 0.52646
# Poissons Ratio (z) = 0.26055 0.32608
#
# Static dielectric constant tensor:
#      x y z
#    x 3.752410 0.000000 -0.026060 
#    y 0.000000 3.400560 0.000000 
#    z -0.026060 0.000000 3.610770 
# 
# 
# High freq. dielectric constant tensor:
#      x y z
#    x 1.752920 0.000000 -0.001020 
#    y 0.000000 1.737950 0.000000 
#    z -0.001020 0.000000 1.751710 
# 
# From -- ./inp_files/24833.got.cif
#   From: 2010.03.12/outbox.cif.g09.slc.cpg/sg8_13_cif.got.tgz:24833.got - 2010.03.31 10:45:26.
