data_PCOD8052274
_publ_section_title
;
Structure prediction by ZEFSAII (Michael W. Deem and Ramdas Pophale) SiO2 
 PCOD8052274
Probable space group: P M
;
_chemical_formula_sum "Si O2"
_cell_formula_units_Z 16
_cell_length_a 10.166087
_cell_length_b 9.091217
_cell_length_c 12.221526
_cell_angle_alpha 90.000000
_cell_angle_beta 52.244583
_cell_angle_gamma 90.000000
_cell_volume 893.049433
_symmetry_space_group_name_H-M "P M"
_symmetry_group_IT_number 6
_symmetry_cell_setting 'monoclinic'
loop_
_space_group_symop_operation_xyz
x,y,z
x,-y,z
loop_
_atom_site_type_symbol
_atom_site_label
_atom_site_fract_x
_atom_site_fract_y
_atom_site_fract_z
Si Si1 0.254750 0.828461 0.359510
Si Si2 0.492838 0.828142 0.046782
Si Si3 0.099690 0.171481 0.782467
Si Si4 0.990777 0.673447 0.620053
Si Si5 0.474707 0.172110 0.641402
Si Si6 0.775936 0.173924 0.064172
Si Si7 0.610204 0.326735 0.782521
Si Si8 0.551214 0.825474 0.363833
O O1 0.325031 0.797780 0.201727
O O2 0.388625 0.772861 0.380737
O O3 0.085347 0.737849 0.465239
O O4 0.216132 0.000000 0.394413
O O5 0.651415 0.767657 0.033899
O O6 0.510597 0.000000 0.011153
O O7 0.486316 0.740760 0.936282
O O8 0.277767 0.202877 0.744549
O O9 0.076456 0.261119 0.683797
O O10 0.077788 0.000000 0.764329
O O11 0.963283 0.223851 0.941785
O O12 0.010651 0.500000 0.611188
O O13 0.798776 0.721078 0.712490
O O14 0.563125 0.264863 0.688926
O O15 0.549141 0.233220 0.488740
O O16 0.512291 0.000000 0.639213
O O17 0.715600 0.231943 0.214500
O O18 0.757821 0.000000 0.075026
O O19 0.587505 0.500000 0.793130
O O20 0.545959 0.000000 0.370696
#
# Coordination Sequence:
#
# PCOD8052274 Si02
#       8
#     2   2   2   2   2   2   2   2
#     4   9  17  32  56  84 108 131 172 227 273 315
#     4   9  17  32  57  83 105 135 176 221 271 320
#     4  10  18  32  56  82 105 133 174 226 272 312
#     4  11  22  34  51  78 110 145 183 219 259 316
#     4  10  20  34  54  77 105 141 180 220 265 318
#     4   8  14  26  51  82 106 127 159 215 273 312
#     4  11  24  38  51  73 112 153 184 215 258 318
#     4   8  14  28  50  79 107 129 162 213 269 315
#
# _framework density 17.916143000000002
#
# number of rings (size 3 to 8) (size 9 to 14) (size 15 to 20)
#    0.000    2.500    2.500    2.250    0.000    2.500 
#    0.000    1.250    0.000    3.750    0.000    0.000 
#    0.000    0.000    0.000    0.000    0.000    0.000 
#
# Total GULP energy -198342.596324 kJ/mol
# GULP energy per Si atom -12396.412270 kJ/mol
# Density = 1.787536 g / cm^3
# Si number density = 17.916143 Si / 1000 Ang^3
#
#
#
# Elastic Constant Matrix: (Units=GPa)
#
#
# Indices 1 2 3 4 5 6 
#
# 1 49.6965 30.5893 37.5548 0.0000 5.8920 0.0000
# 2 30.5893 51.9900 41.7394 0.0000 -1.0242 0.0000
# 3 37.5548 41.7394 150.7469 0.0000 1.8445 0.0000
# 4 0.0000 0.0000 0.0000 12.2952 0.0000 -3.4476
# 5 5.8920 -1.0242 1.8445 0.0000 28.8067 0.0000
# 6 0.0000 0.0000 0.0000 -3.4476 0.0000 19.9060
#
#
#
# Elastic Compliance Matrix: (Units=1/GPa)
#
#
# Indices 1 2 3 4 5 6 
#
# 1 0.034578 -0.017550 -0.003663 0.000000 -0.007462 0.000000
# 2 -0.017550 0.033690 -0.005019 0.000000 0.005109 0.000000
# 3 -0.003663 -0.005019 0.008936 0.000000 -0.000001 0.000000
# 4 0.000000 0.000000 0.000000 0.085484 0.000000 0.014805
# 5 -0.007462 0.005109 -0.000001 0.000000 0.036422 0.000000
# 6 0.000000 0.000000 0.000000 0.014805 0.000000 0.052800
#
#
# Mechanical properties :
#
#
# Convention : Reuss Voigt Hill
#
# Bulk Modulus (GPa) = 40.42174 52.46673 46.44423
# Shear Modulus (GPa) = 15.99378 21.70492 18.84935
#
# Velocity S-wave (km/s) = 2.99105 3.48440 3.24711
# Velocity P-wave (km/s) = 5.87700 6.74805 6.32753
#
# Compressibility (1/GPa) = 0.02473916
#
# Stress axis : x y z
#
# Youngs Moduli (GPa) = 28.92025 29.68216 111.90837
#
# Poissons Ratio (x) = 0.52093 0.40998
# Poissons Ratio (y) = 0.50756 0.56162
# Poissons Ratio (z) = 0.10595 0.14896
#
# Static dielectric constant tensor:
#      x y z
#    x 3.075880 0.000000 -0.145710 
#    y 0.000000 2.974040 0.000000 
#    z -0.145710 0.000000 3.892080 
# 
# 
# High freq. dielectric constant tensor:
#      x y z
#    x 1.662050 0.000000 -0.006530 
#    y 0.000000 1.661510 0.000000 
#    z -0.006530 0.000000 1.716480 
# 
# From -- ./inp_files/3456.got.cif
#   From: 2010.03.12/outbox.cif.g09.slc.cpg/sg6_2_cif.got.tgz:3456.got - 2010.03.30 10:24:59.
