data_PCOD8052328
_publ_section_title
;
Structure prediction by ZEFSAII (Michael W. Deem and Ramdas Pophale) SiO2 
 PCOD8052328
Probable space group: P M
;
_chemical_formula_sum "Si O2"
_cell_formula_units_Z 16
_cell_length_a 10.285844
_cell_length_b 9.007706
_cell_length_c 12.197433
_cell_angle_alpha 90.000000
_cell_angle_beta 52.199177
_cell_angle_gamma 90.000000
_cell_volume 892.955955
_symmetry_space_group_name_H-M "P M"
_symmetry_group_IT_number 6
_symmetry_cell_setting 'monoclinic'
loop_
_space_group_symop_operation_xyz
x,y,z
x,-y,z
loop_
_atom_site_type_symbol
_atom_site_label
_atom_site_fract_x
_atom_site_fract_y
_atom_site_fract_z
Si Si1 0.440960 0.671680 0.716100
Si Si2 0.965886 0.171266 0.703063
Si Si3 0.298066 0.171549 0.421325
Si Si4 0.069765 0.324302 0.869979
Si Si5 0.515545 0.826623 0.117612
Si Si6 0.600093 0.174248 0.839479
Si Si7 0.796357 0.823927 0.138252
Si Si8 0.570621 0.672930 0.416181
O O1 0.434821 0.500000 0.749213
O O2 0.257867 0.728582 0.783091
O O3 0.510365 0.755640 0.783875
O O4 0.559885 0.702057 0.551547
O O5 0.104994 0.199888 0.538898
O O6 0.997603 0.270871 0.792060
O O7 0.793245 0.215150 0.737613
O O8 0.964505 0.000000 0.742734
O O9 0.346706 0.212107 0.270088
O O10 0.399901 0.272383 0.451899
O O11 0.346755 0.000000 0.418787
O O12 0.051260 0.500000 0.886646
O O13 0.971679 0.249007 0.021083
O O14 0.669323 0.769872 0.110060
O O15 0.539518 0.000000 0.089698
O O16 0.520111 0.757942 0.993115
O O17 0.572434 0.000000 0.845630
O O18 0.727814 0.762502 0.289300
O O19 0.814309 0.000000 0.136794
O O20 0.591142 0.500000 0.378572
#
# Coordination Sequence:
#
# PCOD8052328 Si02
#       8
#     2   2   2   2   2   2   2   2
#     4  10  23  39  53  76 114 151 184 223 269 326
#     4  10  19  33  54  82 110 138 181 234 276 317
#     4   9  17  30  53  80 107 138 175 224 277 321
#     4  11  21  35  55  81 111 145 184 227 274 326
#     4   8  15  30  50  76 107 135 167 218 272 316
#     4  10  20  35  54  76 108 147 185 224 271 326
#     4  10  19  34  56  83 111 137 178 231 278 323
#     4  10  19  34  53  78 112 145 180 223 273 325
#
# _framework density 17.918016000000001
#
# number of rings (size 3 to 8) (size 9 to 14) (size 15 to 20)
#    0.000    2.250    2.500    1.875    0.000    2.500 
#    0.000    1.875    0.000    1.500    0.000    0.000 
#    0.000    0.000    0.000    0.000    0.000    0.000 
#
# Total GULP energy -198368.948842 kJ/mol
# GULP energy per Si atom -12398.059303 kJ/mol
# Density = 1.787723 g / cm^3
# Si number density = 17.918016 Si / 1000 Ang^3
#
#
#
# Elastic Constant Matrix: (Units=GPa)
#
#
# Indices 1 2 3 4 5 6 
#
# 1 69.9886 35.9401 45.9900 0.0000 3.2771 0.0000
# 2 35.9401 63.7824 48.5081 0.0000 -0.6627 0.0000
# 3 45.9900 48.5081 140.1065 0.0000 -6.6967 0.0000
# 4 0.0000 0.0000 0.0000 27.4603 0.0000 -1.0803
# 5 3.2771 -0.6627 -6.6967 0.0000 27.8518 0.0000
# 6 0.0000 0.0000 0.0000 -1.0803 0.0000 21.5932
#
#
#
# Elastic Compliance Matrix: (Units=1/GPa)
#
#
# Indices 1 2 3 4 5 6 
#
# 1 0.021960 -0.009221 -0.004198 0.000000 -0.003813 0.000000
# 2 -0.009221 0.025199 -0.005683 0.000000 0.000318 0.000000
# 3 -0.004198 -0.005683 0.010622 0.000000 0.002913 0.000000
# 4 0.000000 0.000000 0.000000 0.036488 0.000000 0.001825
# 5 -0.003813 0.000318 0.002913 0.000000 0.037061 0.000000
# 6 0.000000 0.000000 0.000000 0.001825 0.000000 0.046402
#
#
# Mechanical properties :
#
#
# Convention : Reuss Voigt Hill
#
# Bulk Modulus (GPa) = 51.07723 59.41709 55.24716
# Shear Modulus (GPa) = 22.47572 24.94368 23.70970
#
# Velocity S-wave (km/s) = 3.54554 3.73513 3.64157
# Velocity P-wave (km/s) = 6.73269 7.19959 6.97005
#
# Compressibility (1/GPa) = 0.01957820
#
# Stress axis : x y z
#
# Youngs Moduli (GPa) = 45.53665 39.68386 94.14315
#
# Poissons Ratio (x) = 0.36592 0.39523
# Poissons Ratio (y) = 0.41989 0.53497
# Poissons Ratio (z) = 0.19117 0.22550
#
# Static dielectric constant tensor:
#      x y z
#    x 3.065820 0.000000 -0.133370 
#    y 0.000000 3.208610 0.000000 
#    z -0.133370 0.000000 3.757750 
# 
# 
# High freq. dielectric constant tensor:
#      x y z
#    x 1.658860 0.000000 -0.009720 
#    y 0.000000 1.683870 0.000000 
#    z -0.009720 0.000000 1.715920 
# 
# From -- ./inp_files/3508.got.cif
#   From: 2010.03.12/outbox.cif.g09.slc.cpg/sg6_2_cif.got.tgz:3508.got - 2010.03.30 10:24:59.
