data_PCOD8052077
_publ_section_title
;
Structure prediction by ZEFSAII (Michael W. Deem and Ramdas Pophale) SiO2 
 PCOD8052077
Probable space group: C 2
;
_chemical_formula_sum "Si O2"
_cell_formula_units_Z 22
_cell_length_a 9.352174
_cell_length_b 11.064250
_cell_length_c 10.173627
_cell_angle_alpha 90.000000
_cell_angle_beta 78.051881
_cell_angle_gamma 90.000000
_cell_volume 1029.907369
_symmetry_space_group_name_H-M "C 2"
_symmetry_group_IT_number 5
_symmetry_cell_setting 'monoclinic'
loop_
_space_group_symop_operation_xyz
x,y,z
-x,y,-z
1/2+x,1/2+y,z
1/2-x,1/2+y,-z
loop_
_atom_site_type_symbol
_atom_site_label
_atom_site_fract_x
_atom_site_fract_y
_atom_site_fract_z
Si Si1 0.903906 0.155730 0.645293
Si Si2 0.864976 0.534519 0.219545
Si Si3 0.913542 0.068992 0.144845
Si Si4 0.354705 0.901094 0.782254
Si Si5 0.000000 0.717320 0.000000
Si Si6 0.772400 0.311659 0.073054
O O1 0.878652 0.298592 0.668816
O O2 0.000000 0.132056 0.500000
O O3 0.977377 0.093953 0.757178
O O4 0.746459 0.091806 0.653385
O O5 0.788487 0.417109 0.174530
O O6 0.017892 0.500775 0.258946
O O7 0.887688 0.634497 0.102444
O O8 0.823770 0.188510 0.128515
O O9 0.802064 0.962949 0.207438
O O10 0.000000 0.024250 0.000000
O O11 0.368283 0.841399 0.924922
O O12 0.900047 0.801176 0.926664
#
# Coordination Sequence:
#
# PCOD8052077 Si02
#       6
#     4   4   4   4   2   4
#     4  12  29  48  67  97 142 186 226 275 341 412
#     4  12  23  42  67 100 139 171 227 286 336 395
#     4  12  23  44  73 106 135 177 229 283 339 400
#     4  12  24  41  71 100 137 174 224 281 340 394
#     4  12  22  36  64 114 136 168 222 288 348 380
#     4  12  21  38  71 107 138 168 220 289 344 389
#
# _framework density 21.361142999999998
#
# number of rings (size 3 to 8) (size 9 to 14) (size 15 to 20)
#    0.000    0.000    9.091    1.091    3.818    1.455 
#    0.000    0.000    0.000    0.000    0.000    0.000 
#    0.000    0.000    0.000    0.000    0.000    0.000 
#
# Total GULP energy -136476.628839 kJ/mol
# GULP energy per Si atom -12406.966258 kJ/mol
# Density = 2.131252 g / cm^3
# Si number density = 21.361143 Si / 1000 Ang^3
#
#
#
# Elastic Constant Matrix: (Units=GPa)
#
#
# Indices 1 2 3 4 5 6 
#
# 1 123.3658 33.7965 32.6937 0.0000 -23.5123 0.0000
# 2 33.7965 65.5504 30.5426 0.0000 -15.2805 0.0000
# 3 32.6937 30.5426 100.1911 0.0000 -32.8075 0.0000
# 4 0.0000 0.0000 0.0000 15.4608 0.0000 -11.5081
# 5 -23.5123 -15.2805 -32.8075 0.0000 32.8417 0.0000
# 6 0.0000 0.0000 0.0000 -11.5081 0.0000 38.4380
#
#
#
# Elastic Compliance Matrix: (Units=1/GPa)
#
#
# Indices 1 2 3 4 5 6 
#
# 1 0.010264 -0.003878 -0.000523 0.000000 0.005022 0.000000
# 2 -0.003878 0.019654 -0.003924 0.000000 0.002448 0.000000
# 3 -0.000523 -0.003924 0.015794 0.000000 0.013577 0.000000
# 4 0.000000 0.000000 0.000000 0.083227 0.000000 0.024917
# 5 0.005022 0.002448 0.013577 0.000000 0.048746 0.000000
# 6 0.000000 0.000000 0.000000 0.024917 0.000000 0.033476
#
#
# Mechanical properties :
#
#
# Convention : Reuss Voigt Hill
#
# Bulk Modulus (GPa) = 34.40954 53.68588 44.04771
# Shear Modulus (GPa) = 21.05288 30.15307 25.60297
#
# Velocity S-wave (km/s) = 3.14278 3.76118 3.46580
# Velocity P-wave (km/s) = 5.41414 6.63695 6.05648
#
# Compressibility (1/GPa) = 0.02906171
#
# Stress axis : x y z
#
# Youngs Moduli (GPa) = 97.42861 50.88049 63.31676
#
# Poissons Ratio (x) = 0.19730 0.03310
# Poissons Ratio (y) = 0.37779 0.24848
# Poissons Ratio (z) = 0.05094 0.19968
#
# Static dielectric constant tensor:
#      x y z
#    x 4.164900 0.000000 -0.186730 
#    y 0.000000 4.113700 0.000000 
#    z -0.186730 0.000000 3.402010 
# 
# 
# High freq. dielectric constant tensor:
#      x y z
#    x 1.857140 0.000000 -0.022270 
#    y 0.000000 1.861960 0.000000 
#    z -0.022270 0.000000 1.783660 
# 
# From -- ./inp_files/35168.got.cif
#   From: 2010.03.12/outbox.cif.g09.slc.cpg/sg5_18_cif.got.tgz:35168.got - 2010.03.31 09:47:26.
