data_PCOD8052001
_publ_section_title
;
Structure prediction by ZEFSAII (Michael W. Deem and Ramdas Pophale) SiO2 
 PCOD8052001
Probable space group: C 2
;
_chemical_formula_sum "Si O2"
_cell_formula_units_Z 16
_cell_length_a 23.544181
_cell_length_b 4.942800
_cell_length_c 10.162351
_cell_angle_alpha 90.000000
_cell_angle_beta 145.591211
_cell_angle_gamma 90.000000
_cell_volume 668.299567
_symmetry_space_group_name_H-M "C 2"
_symmetry_group_IT_number 5
_symmetry_cell_setting 'monoclinic'
loop_
_space_group_symop_operation_xyz
x,y,z
-x,y,-z
1/2+x,1/2+y,z
1/2-x,1/2+y,-z
loop_
_atom_site_type_symbol
_atom_site_label
_atom_site_fract_x
_atom_site_fract_y
_atom_site_fract_z
Si Si1 0.438652 0.852880 0.086513
Si Si2 0.267088 0.930684 0.947001
Si Si3 0.348767 0.657280 0.517579
Si Si4 0.641338 0.345289 0.208779
O O1 0.557801 0.850394 0.340927
O O2 0.380474 0.943273 0.107384
O O3 0.402948 0.553618 0.981042
O O4 0.409516 0.053443 0.911404
O O5 0.187932 0.006138 0.682819
O O6 0.240229 0.630569 0.943460
O O7 0.384322 0.433198 0.691827
O O8 0.261638 0.839287 0.416667
#
# Coordination Sequence:
#
# PCOD8052001 Si02
#       4
#     4   4   4   4
#     4  11  26  46  71 102 136 178 227 279 343 410
#     4  11  25  47  69  98 138 182 236 279 321 399
#     4  11  25  46  72 100 141 182 215 284 348 392
#     4  11  25  43  70 107 137 170 225 281 344 416
#
# _framework density 23.941357
#
# number of rings (size 3 to 8) (size 9 to 14) (size 15 to 20)
#    0.000    1.000    0.000    6.750    0.000   17.000 
#    0.000    7.500    0.000    0.000    0.000    0.000 
#    0.000    0.000    0.000    0.000    0.000    0.000 
#
# Total GULP energy -99267.882508 kJ/mol
# GULP energy per Si atom -12408.485313 kJ/mol
# Density = 2.388687 g / cm^3
# Si number density = 23.941357 Si / 1000 Ang^3
#
#
#
# Elastic Constant Matrix: (Units=GPa)
#
#
# Indices 1 2 3 4 5 6 
#
# 1 138.8608 27.1906 63.7630 0.0000 20.3740 0.0000
# 2 27.1906 81.9129 23.2386 0.0001 19.3730 0.0002
# 3 63.7630 23.2386 84.5243 0.0000 23.2670 0.0000
# 4 0.0000 0.0001 0.0000 36.6928 0.0000 -0.8357
# 5 20.3740 19.3730 23.2670 0.0000 53.4237 0.0000
# 6 0.0000 0.0002 0.0000 -0.8357 0.0000 39.8463
#
#
#
# Elastic Compliance Matrix: (Units=1/GPa)
#
#
# Indices 1 2 3 4 5 6 
#
# 1 0.011174 -0.001379 -0.007970 0.000000 -0.000290 0.000000
# 2 -0.001379 0.014070 -0.001782 0.000000 -0.003800 0.000000
# 3 -0.007970 -0.001782 0.019678 0.000000 -0.004884 0.000000
# 4 0.000000 0.000000 0.000000 0.027266 0.000000 0.000572
# 5 -0.000290 -0.003800 -0.004884 0.000000 0.022334 0.000000
# 6 0.000000 0.000000 0.000000 0.000572 0.000000 0.025108
#
#
# Mechanical properties :
#
#
# Convention : Reuss Voigt Hill
#
# Bulk Modulus (GPa) = 44.13205 59.29806 51.71506
# Shear Modulus (GPa) = 33.45670 38.73294 36.09482
#
# Velocity S-wave (km/s) = 3.74230 4.02658 3.88704
# Velocity P-wave (km/s) = 6.09479 6.81466 6.46475
#
# Compressibility (1/GPa) = 0.02265927
#
# Stress axis : x y z
#
# Youngs Moduli (GPa) = 89.49387 71.07198 50.81848
#
# Poissons Ratio (x) = 0.09804 0.40504
# Poissons Ratio (y) = 0.12345 0.09054
# Poissons Ratio (z) = 0.71329 0.12663
#
# Static dielectric constant tensor:
#      x y z
#    x 4.412310 0.000000 0.207550 
#    y 0.000000 4.247590 0.000000 
#    z 0.207550 0.000000 4.205690 
# 
# 
# High freq. dielectric constant tensor:
#      x y z
#    x 1.956030 0.000000 0.011470 
#    y 0.000000 1.957970 0.000000 
#    z 0.011470 0.000000 1.943080 
# 
# From -- ./inp_files/28234.got.cif
#   From: 2010.03.12/outbox.cif.g09.slc.cpg/sg5_15_cif.got.tgz:28234.got - 2010.03.31 09:47:26.
