data_PCOD8052188
_publ_section_title
;
Structure prediction by ZEFSAII (Michael W. Deem and Ramdas Pophale) SiO2 
 PCOD8052188
Probable space group: C 2
;
_chemical_formula_sum "Si O2"
_cell_formula_units_Z 24
_cell_length_a 17.288755
_cell_length_b 6.585256
_cell_length_c 8.970844
_cell_angle_alpha 90.000000
_cell_angle_beta 121.257353
_cell_angle_gamma 90.000000
_cell_volume 873.086371
_symmetry_space_group_name_H-M "C 2"
_symmetry_group_IT_number 5
_symmetry_cell_setting 'monoclinic'
loop_
_space_group_symop_operation_xyz
x,y,z
-x,y,-z
1/2+x,1/2+y,z
1/2-x,1/2+y,-z
loop_
_atom_site_type_symbol
_atom_site_label
_atom_site_fract_x
_atom_site_fract_y
_atom_site_fract_z
Si Si1 0.188933 0.134930 0.251672
Si Si2 0.311067 0.210977 0.123805
Si Si3 0.937214 0.422953 0.562214
Si Si4 0.188933 0.134930 0.751672
Si Si5 0.188933 0.710977 0.376195
Si Si6 0.937214 0.422953 0.062214
O O1 0.276964 0.082306 0.234570
O O2 0.223036 0.263600 0.430642
O O3 0.149818 0.922953 0.274818
O O4 0.116902 0.249778 0.079267
O O5 0.383098 0.096129 0.595463
O O6 0.383098 0.096129 0.095463
O O7 0.223036 0.263600 0.930642
O O8 0.883098 0.249778 0.420733
O O9 0.000000 0.533699 0.500000
O O10 0.000000 0.312208 0.750000
O O11 0.276964 0.082306 0.734570
O O12 0.149818 0.922953 0.774818
O O13 0.000000 0.533699 0.000000
#
# Coordination Sequence:
#
# PCOD8052188 Si02
#       6
#     4   4   4   4   4   4
#     4  12  26  51  91 125 161 227 292 339 414 514
#     4  12  26  51  91 125 161 227 292 339 414 514
#     4  12  28  54  88 124 178 218 272 364 432 484
#     4  12  26  51  91 125 161 227 292 339 414 514
#     4  12  26  51  91 125 161 227 292 339 414 514
#     4  12  28  54  88 124 178 218 272 364 432 484
#
# _framework density 27.488689999999998
#
# number of rings (size 3 to 8) (size 9 to 14) (size 15 to 20)
#    0.000    0.000    3.333    6.000    0.000    0.000 
#    0.000   10.000   14.667    0.000    0.000    0.000 
#    0.000    0.000    0.000    0.000    0.000    0.000 
#
# Total GULP energy -148719.610477 kJ/mol
# GULP energy per Si atom -12393.300873 kJ/mol
# Density = 2.742612 g / cm^3
# Si number density = 27.488690 Si / 1000 Ang^3
#
#
#
# Elastic Constant Matrix: (Units=GPa)
#
#
# Indices 1 2 3 4 5 6 
#
# 1 160.4531 88.3970 53.6441 0.0000 -45.3218 0.0000
# 2 88.3970 182.8974 98.8179 0.0000 -7.3856 0.0000
# 3 53.6441 98.8179 232.6863 0.0000 -5.8711 0.0000
# 4 0.0000 0.0000 0.0000 54.6660 0.0000 -33.8031
# 5 -45.3218 -7.3856 -5.8711 0.0000 57.4197 0.0000
# 6 0.0000 0.0000 0.0000 -33.8031 0.0000 6.9699
#
#
#
# Elastic Compliance Matrix: (Units=1/GPa)
#
#
# Indices 1 2 3 4 5 6 
#
# 1 0.011481 -0.005055 -0.000289 0.000000 0.008383 0.000000
# 2 -0.005055 0.009342 -0.002880 0.000000 -0.003082 0.000000
# 3 -0.000289 -0.002880 0.005587 0.000000 -0.000027 0.000000
# 4 0.000000 0.000000 0.000000 -0.009151 0.000000 -0.044383
# 5 0.008383 -0.003082 -0.000027 0.000000 0.023633 0.000000
# 6 0.000000 0.000000 0.000000 -0.044383 0.000000 -0.071775
#
#
# Mechanical properties :
#
#
# Convention : Reuss Voigt Hill
#
# Bulk Modulus (GPa) = 100.36764 117.52832 108.94798
# Shear Modulus (GPa) = -449.79256 46.15633 -201.81811
#
# Velocity S-wave (km/s) = -12.80560 4.10213 -8.57776
# Velocity P-wave (km/s) = 13.49270 8.07989 7.64095
#
# Compressibility (1/GPa) = 0.00996337
#
# Stress axis : x y z
#
# Youngs Moduli (GPa) = 87.09785 107.04379 179.00074
#
# Poissons Ratio (x) = 0.54106 0.05170
# Poissons Ratio (y) = 0.44024 0.51550
# Poissons Ratio (z) = 0.02516 0.30827
#
# Static dielectric constant tensor:
#      x y z
#    x 5.758390 0.000000 -0.438740 
#    y 0.000000 4.393870 0.000000 
#    z -0.438740 0.000000 6.377470 
# 
# 
# High freq. dielectric constant tensor:
#      x y z
#    x 2.108630 0.000000 -0.034910 
#    y 0.000000 2.092900 0.000000 
#    z -0.034910 0.000000 2.157890 
# 
# From -- ./inp_files/28780.got.cif
#   From: 2010.03.12/outbox.cif.g09.slc.cpg/sg5_15_cif.got.tgz:28780.got - 2010.03.31 09:47:26.
