data_PCOD8052958
_publ_section_title
;
Structure prediction by ZEFSAII (Michael W. Deem and Ramdas Pophale) SiO2 
 PCOD8052958
Probable space group: C M
;
_chemical_formula_sum "Si O2"
_cell_formula_units_Z 32
_cell_length_a 31.908233
_cell_length_b 8.435546
_cell_length_c 20.183634
_cell_angle_alpha 90.000000
_cell_angle_beta 18.311026
_cell_angle_gamma 90.000000
_cell_volume 1706.817773
_symmetry_space_group_name_H-M "C M"
_symmetry_group_IT_number 8
_symmetry_cell_setting 'monoclinic'
loop_
_space_group_symop_operation_xyz
x,y,z
x,-y,z
1/2+x,1/2+y,z
1/2+x,1/2-y,z
loop_
_atom_site_type_symbol
_atom_site_label
_atom_site_fract_x
_atom_site_fract_y
_atom_site_fract_z
Si Si1 0.741350 0.812463 0.841970
Si Si2 0.229624 0.813015 0.506195
Si Si3 0.947222 0.813428 0.426739
Si Si4 0.956761 0.186650 0.770136
Si Si5 0.441682 0.186332 0.935382
Si Si6 0.945247 0.312483 0.286908
Si Si7 0.234749 0.313274 0.000179
Si Si8 0.243626 0.314098 0.342738
O O1 0.782007 0.763381 0.855652
O O2 0.847320 0.740069 0.631663
O O3 0.740673 0.000000 0.836571
O O4 0.593079 0.745891 0.048481
O O5 0.340775 0.747209 0.389974
O O6 0.278051 0.774515 0.359448
O O7 0.206245 0.000000 0.548470
O O8 0.093114 0.723516 0.728836
O O9 0.902770 0.740423 0.423733
O O10 0.932410 0.000000 0.444110
O O11 0.095994 0.770281 0.225829
O O12 0.845528 0.245158 0.885493
O O13 0.092483 0.277076 0.548007
O O14 0.982931 0.000000 0.725520
O O15 0.906802 0.229334 0.918494
O O16 0.343221 0.252927 0.137916
O O17 0.421741 0.000000 0.957285
O O18 0.947156 0.500000 0.282007
O O19 0.210597 0.500000 0.041154
O O20 0.261541 0.500000 0.326431
#
# Coordination Sequence:
#
# PCOD8052958 Si02
#       8
#     4   4   4   4   4   4   4   4
#     4   8  16  33  52  73 102 137 171 206 254 310
#     4  10  20  36  57  81 107 140 181 225 272 323
#     4  10  19  31  52  79 106 137 179 222 256 304
#     4  10  20  36  57  81 107 140 181 225 272 323
#     4  11  22  37  56  78 108 145 180 221 268 320
#     4   9  19  36  55  74 104 141 174 213 266 320
#     4   9  19  36  55  74 104 141 174 213 266 320
#     4  11  22  37  56  80 110 141 176 223 270 322
#
# _framework density 18.748339000000001
#
# number of rings (size 3 to 8) (size 9 to 14) (size 15 to 20)
#    0.000    2.250    0.000    5.625    0.000    4.000 
#    0.000    7.500    0.000    0.000    0.000    0.000 
#    0.000    0.000    0.000    0.000    0.000    0.000 
#
# Total GULP energy -198409.862685 kJ/mol
# GULP energy per Si atom -12400.616418 kJ/mol
# Density = 1.870567 g / cm^3
# Si number density = 18.748339 Si / 1000 Ang^3
#
#
#
# Elastic Constant Matrix: (Units=GPa)
#
#
# Indices 1 2 3 4 5 6 
#
# 1 156.2583 2.4996 82.1499 -0.0001 -16.8266 0.0001
# 2 2.4996 24.6523 -0.7270 -0.0010 -3.7374 0.0004
# 3 82.1499 -0.7270 136.6021 -0.0004 20.5777 0.0002
# 4 -0.0001 -0.0010 -0.0004 30.1384 0.0001 1.5179
# 5 -16.8266 -3.7374 20.5777 0.0001 30.0771 0.0000
# 6 0.0001 0.0004 0.0002 1.5179 0.0000 26.0447
#
#
#
# Elastic Compliance Matrix: (Units=1/GPa)
#
#
# Indices 1 2 3 4 5 6 
#
# 1 0.013297 0.000545 -0.010173 0.000000 0.014467 0.000000
# 2 0.000545 0.041412 -0.001035 0.000001 0.006159 -0.000001
# 3 -0.010173 -0.001035 0.015954 0.000000 -0.016735 0.000000
# 4 0.000000 0.000001 0.000000 0.033278 0.000000 -0.001939
# 5 0.014467 0.006159 -0.016735 0.000000 0.053556 0.000000
# 6 0.000000 -0.000001 0.000000 -0.001939 0.000000 0.038509
#
#
# Mechanical properties :
#
#
# Convention : Reuss Voigt Hill
#
# Bulk Modulus (GPa) = 20.26890 53.92863 37.09877
# Shear Modulus (GPa) = 21.38792 32.82474 27.10633
#
# Velocity S-wave (km/s) = 3.38122 4.18880 3.80649
# Velocity P-wave (km/s) = 5.10667 7.22646 6.25699
#
# Compressibility (1/GPa) = 0.04933666
#
# Stress axis : x y z
#
# Youngs Moduli (GPa) = 75.20495 24.14757 62.68118
#
# Poissons Ratio (x) = -0.01316 0.63765
# Poissons Ratio (y) = -0.04098 0.06488
# Poissons Ratio (z) = 0.76505 0.02499
#
# Static dielectric constant tensor:
#      x y z
#    x 3.665750 0.000000 0.002490 
#    y 0.000000 3.405490 0.000000 
#    z 0.002490 0.000000 3.605480 
# 
# 
# High freq. dielectric constant tensor:
#      x y z
#    x 1.732720 0.000000 0.000960 
#    y 0.000000 1.723460 0.000000 
#    z 0.000960 0.000000 1.731480 
# 
# From -- ./inp_files/26424.got.cif
#   From: 2010.03.12/outbox.cif.g09.slc.cpg/sg8_14_cif.got.tgz:26424.got - 2010.03.31 10:45:26.
