data_PCOD8052338
_publ_section_title
;
Structure prediction by ZEFSAII (Michael W. Deem and Ramdas Pophale) SiO2 
 PCOD8052338
Probable space group: P M
;
_chemical_formula_sum "Si O2"
_cell_formula_units_Z 16
_cell_length_a 8.225187
_cell_length_b 8.831041
_cell_length_c 10.584297
_cell_angle_alpha 90.000000
_cell_angle_beta 95.523530
_cell_angle_gamma 90.000000
_cell_volume 765.241416
_symmetry_space_group_name_H-M "P M"
_symmetry_group_IT_number 6
_symmetry_cell_setting 'monoclinic'
loop_
_space_group_symop_operation_xyz
x,y,z
x,-y,z
loop_
_atom_site_type_symbol
_atom_site_label
_atom_site_fract_x
_atom_site_fract_y
_atom_site_fract_z
Si Si1 0.315560 0.820776 0.194310
Si Si2 0.144038 0.664339 0.526105
Si Si3 0.958880 0.661891 0.761353
Si Si4 0.648196 0.679112 0.324835
Si Si5 0.379825 0.166530 0.691079
Si Si6 0.262253 0.322804 0.926741
Si Si7 0.975855 0.178664 0.300797
Si Si8 0.711562 0.834930 0.588001
O O1 0.471392 0.746979 0.275820
O O2 0.139147 0.765559 0.237660
O O3 0.331755 0.000000 0.210429
O O4 0.322580 0.772903 0.050074
O O5 0.171488 0.500000 0.460517
O O6 0.308765 0.760524 0.555150
O O7 0.006418 0.764655 0.446288
O O8 0.093839 0.633258 0.665081
O O9 0.867344 0.500000 0.778906
O O10 0.845489 0.792267 0.702093
O O11 0.067062 0.708465 0.891825
O O12 0.644493 0.500000 0.304583
O O13 0.684512 0.714694 0.474545
O O14 0.799676 0.746574 0.250425
O O15 0.366278 0.266923 0.815317
O O16 0.566131 0.149889 0.674007
O O17 0.299994 0.000000 0.707906
O O18 0.296371 0.500000 0.952577
O O19 0.956713 0.000000 0.288466
O O20 0.751650 0.000000 0.530114
#
# Coordination Sequence:
#
# PCOD8052338 Si02
#       8
#     2   2   2   2   2   2   2   2
#     4  11  25  45  67  92 125 168 217 265 316 375
#     4  10  19  33  56  87 119 154 196 248 307 369
#     4   9  19  35  57  85 118 153 193 246 304 363
#     4  12  25  41  65  96 132 170 209 261 318 377
#     4  10  21  36  57  87 121 162 204 250 309 372
#     4  10  22  42  64  87 117 159 209 257 307 368
#     4  11  23  40  64  93 126 168 212 261 317 377
#     4  11  22  36  58  91 126 160 202 252 310 373
#
# _framework density 20.908435000000001
#
# number of rings (size 3 to 8) (size 9 to 14) (size 15 to 20)
#    0.000    1.500    1.250    4.875    0.000    9.500 
#    2.250    0.000    0.000    0.000    0.000    0.000 
#    0.000    0.000    0.000    0.000    0.000    0.000 
#
# Total GULP energy -198212.291390 kJ/mol
# GULP energy per Si atom -12388.268212 kJ/mol
# Density = 2.086085 g / cm^3
# Si number density = 20.908435 Si / 1000 Ang^3
#
#
#
# Elastic Constant Matrix: (Units=GPa)
#
#
# Indices 1 2 3 4 5 6 
#
# 1 120.7316 55.2451 29.0628 0.0000 8.0146 0.0000
# 2 55.2451 127.2758 28.0661 0.0000 7.0807 0.0000
# 3 29.0628 28.0661 61.1262 0.0000 16.4196 0.0000
# 4 0.0000 0.0000 0.0000 -1.1333 0.0000 28.2054
# 5 8.0146 7.0807 16.4196 0.0000 23.1739 0.0000
# 6 0.0000 0.0000 0.0000 28.2054 0.0000 16.4067
#
#
#
# Elastic Compliance Matrix: (Units=1/GPa)
#
#
# Indices 1 2 3 4 5 6 
#
# 1 0.010922 -0.004002 -0.003297 0.000000 -0.000219 0.000000
# 2 -0.004002 0.010209 -0.002864 0.000000 0.000294 0.000000
# 3 -0.003297 -0.002864 0.023097 0.000000 -0.014350 0.000000
# 4 0.000000 0.000000 0.000000 -0.020152 0.000000 0.034644
# 5 -0.000219 0.000294 -0.014350 0.000000 0.053305 0.000000
# 6 0.000000 0.000000 0.000000 0.034644 0.000000 0.001392
#
#
# Mechanical properties :
#
#
# Convention : Reuss Voigt Hill
#
# Bulk Modulus (GPa) = 41.83551 59.32018 50.57785
# Shear Modulus (GPa) = 46.70056 20.80674 33.75365
#
# Velocity S-wave (km/s) = 4.73120 3.15800 4.02226
# Velocity P-wave (km/s) = 7.06385 6.45990 6.76862
#
# Compressibility (1/GPa) = 0.02390314
#
# Stress axis : x y z
#
# Youngs Moduli (GPa) = 91.55766 97.95224 43.29648
#
# Poissons Ratio (x) = 0.39197 0.14274
# Poissons Ratio (y) = 0.36638 0.12399
# Poissons Ratio (z) = 0.30185 0.28051
#
# Static dielectric constant tensor:
#      x y z
#    x 3.999450 0.000000 0.114900 
#    y 0.000000 4.220780 0.000000 
#    z 0.114900 0.000000 3.517840 
# 
# 
# High freq. dielectric constant tensor:
#      x y z
#    x 1.822920 0.000000 0.012290 
#    y 0.000000 1.834090 0.000000 
#    z 0.012290 0.000000 1.792480 
# 
# From -- ./inp_files/4512.got.cif
#   From: 2010.03.12/outbox.cif.g09.slc.cpg/sg6_3_cif.got.tgz:4512.got - 2010.03.30 10:24:59.
