data_PCOD8052919
_publ_section_title
;
Structure prediction by ZEFSAII (Michael W. Deem and Ramdas Pophale) SiO2 
 PCOD8052919
Probable space group: C M
;
_chemical_formula_sum "Si O2"
_cell_formula_units_Z 32
_cell_length_a 23.594111
_cell_length_b 9.001538
_cell_length_c 24.668066
_cell_angle_alpha 90.000000
_cell_angle_beta 18.133307
_cell_angle_gamma 90.000000
_cell_volume 1630.554787
_symmetry_space_group_name_H-M "C M"
_symmetry_group_IT_number 8
_symmetry_cell_setting 'monoclinic'
loop_
_space_group_symop_operation_xyz
x,y,z
x,-y,z
1/2+x,1/2+y,z
1/2+x,1/2-y,z
loop_
_atom_site_type_symbol
_atom_site_label
_atom_site_fract_x
_atom_site_fract_y
_atom_site_fract_z
Si Si1 0.116110 0.828633 0.532000
Si Si2 0.980823 0.674595 0.057790
Si Si3 0.762623 0.826777 0.708225
Si Si4 0.331117 0.830600 0.443616
Si Si5 0.232750 0.676173 0.925111
Si Si6 0.726120 0.825374 0.052569
Si Si7 0.632165 0.824399 0.405782
Si Si8 0.092132 0.326174 0.748961
O O1 0.271410 0.810370 0.435766
O O2 0.173005 0.732055 0.429060
O O3 0.926685 0.765945 0.727398
O O4 0.097231 0.000000 0.530709
O O5 0.939685 0.500000 0.096973
O O6 0.792118 0.762136 0.221797
O O7 0.109028 0.716189 0.891115
O O8 0.075543 0.730562 0.027379
O O9 0.691668 0.781966 0.713735
O O10 0.940936 0.732408 0.557531
O O11 0.812211 0.000000 0.667539
O O12 0.544957 0.790176 0.251966
O O13 0.217258 0.723931 0.585502
O O14 0.295375 0.000000 0.494606
O O15 0.235569 0.500000 0.923724
O O16 0.201866 0.738853 0.013627
O O17 0.763938 0.000000 0.015324
O O18 0.895408 0.749661 0.927997
O O19 0.633029 0.000000 0.403450
O O20 0.060201 0.500000 0.773475
#
# Coordination Sequence:
#
# PCOD8052919 Si02
#       8
#     4   4   4   4   4   4   4   4
#     4  10  18  36  64  89 117 157 203 238 278 348
#     4  10  20  39  65  87 112 152 204 246 284 347
#     4  10  23  44  65  83 109 158 212 248 284 344
#     4  10  21  38  64  91 119 158 200 240 286 349
#     4   9  16  32  63  91 110 146 199 245 279 333
#     4  10  20  37  61  90 118 151 198 244 291 348
#     4  12  25  38  58  92 127 153 185 241 311 358
#     4  11  24  40  60  87 120 155 197 250 301 345
#
# _framework density 19.625222000000001
#
# number of rings (size 3 to 8) (size 9 to 14) (size 15 to 20)
#    0.000    1.750    2.500    2.250    0.000    5.500 
#    0.000    5.625    0.000    0.000    0.000    0.000 
#    0.000    0.000    0.000    0.000    0.000    0.000 
#
# Total GULP energy -198449.834496 kJ/mol
# GULP energy per Si atom -12403.114656 kJ/mol
# Density = 1.958055 g / cm^3
# Si number density = 19.625222 Si / 1000 Ang^3
#
#
#
# Elastic Constant Matrix: (Units=GPa)
#
#
# Indices 1 2 3 4 5 6 
#
# 1 89.1292 42.5226 44.8362 0.0528 -11.5660 -0.0106
# 2 42.5226 75.3164 57.1635 0.0325 -15.7691 -0.0061
# 3 44.8362 57.1635 135.8593 0.0369 -25.3855 -0.0169
# 4 0.0528 0.0325 0.0369 18.3554 -0.0042 -3.0877
# 5 -11.5660 -15.7691 -25.3855 -0.0042 10.6452 -0.0001
# 6 -0.0106 -0.0061 -0.0169 -3.0877 -0.0001 26.2936
#
#
#
# Elastic Compliance Matrix: (Units=1/GPa)
#
#
# Indices 1 2 3 4 5 6 
#
# 1 0.015802 -0.007048 -0.001790 -0.000029 0.002460 0.000000
# 2 -0.007048 0.024475 -0.004741 -0.000010 0.017293 -0.000001
# 3 -0.001790 -0.004741 0.014917 -0.000009 0.026606 0.000007
# 4 -0.000029 -0.000010 -0.000009 0.055578 -0.000046 0.006527
# 5 0.002460 0.017293 0.026606 -0.000046 0.185674 0.000017
# 6 0.000000 -0.000001 0.000007 0.006527 0.000017 0.038798
#
#
# Mechanical properties :
#
#
# Convention : Reuss Voigt Hill
#
# Bulk Modulus (GPa) = 35.66701 65.48327 50.57514
# Shear Modulus (GPa) = 13.44995 21.44433 17.44714
#
# Velocity S-wave (km/s) = 2.62074 3.30918 2.98487
# Velocity P-wave (km/s) = 5.23175 6.93110 6.14050
#
# Compressibility (1/GPa) = 0.02803711
#
# Stress axis : x y z
#
# Youngs Moduli (GPa) = 63.28398 40.85729 67.03637
#
# Poissons Ratio (x) = 0.28796 0.11997
# Poissons Ratio (y) = 0.44602 0.31782
# Poissons Ratio (z) = 0.11326 0.19371
#
# Static dielectric constant tensor:
#      x y z
#    x 3.626960 -0.000010 -0.031080 
#    y -0.000010 3.296290 0.000000 
#    z -0.031080 0.000000 3.692370 
# 
# 
# High freq. dielectric constant tensor:
#      x y z
#    x 1.764210 0.000000 -0.004810 
#    y 0.000000 1.736180 0.000000 
#    z -0.004810 0.000000 1.781930 
# 
# From -- ./inp_files/32347.got.cif
#   From: 2010.03.12/outbox.cif.g09.slc.cpg/sg8_17_cif.got.tgz:32347.got - 2010.03.31 10:45:26.
