data_PCOD8052014
_publ_section_title
;
Structure prediction by ZEFSAII (Michael W. Deem and Ramdas Pophale) SiO2 
 PCOD8052014
Probable space group: C 2
;
_chemical_formula_sum "Si O2"
_cell_formula_units_Z 22
_cell_length_a 28.908655
_cell_length_b 5.418397
_cell_length_c 16.983235
_cell_angle_alpha 90.000000
_cell_angle_beta 159.848820
_cell_angle_gamma 90.000000
_cell_volume 916.444886
_symmetry_space_group_name_H-M "C 2"
_symmetry_group_IT_number 5
_symmetry_cell_setting 'monoclinic'
loop_
_space_group_symop_operation_xyz
x,y,z
-x,y,-z
1/2+x,1/2+y,z
1/2-x,1/2+y,-z
loop_
_atom_site_type_symbol
_atom_site_label
_atom_site_fract_x
_atom_site_fract_y
_atom_site_fract_z
Si Si1 0.535019 0.783560 0.884406
Si Si2 0.257592 0.696767 0.226978
Si Si3 0.000000 0.121869 0.000000
Si Si4 0.272434 0.993283 0.399433
Si Si5 0.214429 0.733332 0.987828
Si Si6 0.041480 0.903484 0.353465
O O1 0.560859 0.533636 0.874194
O O2 0.379740 0.816337 0.610559
O O3 0.540833 0.776905 0.988198
O O4 0.633315 0.004657 0.018212
O O5 0.393580 0.585073 0.479639
O O6 0.223070 0.920856 0.231863
O O7 0.294199 0.780931 0.197307
O O8 0.137492 0.972925 0.237988
O O9 0.337564 0.264570 0.498069
O O10 0.054290 0.720605 0.749946
O O11 0.254018 0.468394 0.016228
#
# Coordination Sequence:
#
# PCOD8052014 Si02
#       6
#     4   4   2   4   4   4
#     4  11  25  45  71 105 148 197 244 308 366 450
#     4  11  25  49  74 100 150 200 237 307 391 440
#     4  12  26  40  70 110 138 196 254 300 356 442
#     4  11  26  43  73 101 147 195 246 302 369 447
#     4  12  28  49  77 112 148 187 255 317 367 462
#     4  11  25  50  71 104 147 199 238 303 391 435
#
# _framework density 24.005807999999998
#
# number of rings (size 3 to 8) (size 9 to 14) (size 15 to 20)
#    0.000    0.727    3.636    2.182    7.636    1.455 
#    0.000    0.000    0.000    0.000    0.000    0.000 
#    0.000    0.000    0.000    0.000    0.000    0.000 
#
# Total GULP energy -136321.872976 kJ/mol
# GULP energy per Si atom -12392.897543 kJ/mol
# Density = 2.395117 g / cm^3
# Si number density = 24.005808 Si / 1000 Ang^3
#
#
#
# Elastic Constant Matrix: (Units=GPa)
#
#
# Indices 1 2 3 4 5 6 
#
# 1 111.0286 27.7386 30.2389 0.0000 -13.5490 0.0000
# 2 27.7386 84.5434 -1.8060 0.0000 -1.7540 0.0000
# 3 30.2389 -1.8060 107.9484 0.0000 -7.0547 0.0000
# 4 0.0000 0.0000 0.0000 31.0350 0.0000 -6.1849
# 5 -13.5490 -1.7540 -7.0547 0.0000 44.0917 0.0000
# 6 0.0000 0.0000 0.0000 -6.1849 0.0000 35.4998
#
#
#
# Elastic Compliance Matrix: (Units=1/GPa)
#
#
# Indices 1 2 3 4 5 6 
#
# 1 0.011066 -0.003637 -0.002979 0.000000 0.002779 0.000000
# 2 -0.003637 0.013039 0.001210 0.000000 -0.000405 0.000000
# 3 -0.002979 0.001210 0.010168 0.000000 0.000760 0.000000
# 4 0.000000 0.000000 0.000000 0.033381 0.000000 0.005816
# 5 0.002779 -0.000405 0.000760 0.000000 0.023639 0.000000
# 6 0.000000 0.000000 0.000000 0.005816 0.000000 0.029182
#
#
# Mechanical properties :
#
#
# Convention : Reuss Voigt Hill
#
# Bulk Modulus (GPa) = 42.62185 46.20706 44.41446
# Shear Modulus (GPa) = 35.94371 38.61521 37.27946
#
# Velocity S-wave (km/s) = 3.87368 4.01506 3.94501
# Velocity P-wave (km/s) = 6.14822 6.38626 6.26837
#
# Compressibility (1/GPa) = 0.02346214
#
# Stress axis : x y z
#
# Youngs Moduli (GPa) = 90.36922 76.69373 98.34718
#
# Poissons Ratio (x) = 0.27891 0.29298
# Poissons Ratio (y) = 0.32864 -0.11904
# Poissons Ratio (z) = 0.26921 -0.09283
#
# Static dielectric constant tensor:
#      x y z
#    x 4.284280 0.000000 -0.102740 
#    y 0.000000 4.216230 0.000000 
#    z -0.102740 0.000000 4.686880 
# 
# 
# High freq. dielectric constant tensor:
#      x y z
#    x 1.946700 0.000000 -0.013000 
#    y 0.000000 1.944440 0.000000 
#    z -0.013000 0.000000 1.983130 
# 
# From -- ./inp_files/63686.got.cif
#   From: 2010.03.12/outbox.cif.g09.slc.cpg/sg5_32_cif.got.tgz:63686.got - 2010.03.31 09:47:26.
