data_PCOD8052894
_publ_section_title
;
Structure prediction by ZEFSAII (Michael W. Deem and Ramdas Pophale) SiO2 
 PCOD8052894
Probable space group: C M
;
_chemical_formula_sum "Si O2"
_cell_formula_units_Z 32
_cell_length_a 20.243855
_cell_length_b 8.825872
_cell_length_c 24.911259
_cell_angle_alpha 90.000000
_cell_angle_beta 22.899934
_cell_angle_gamma 90.000000
_cell_volume 1731.941814
_symmetry_space_group_name_H-M "C M"
_symmetry_group_IT_number 8
_symmetry_cell_setting 'monoclinic'
loop_
_space_group_symop_operation_xyz
x,y,z
x,-y,z
1/2+x,1/2+y,z
1/2+x,1/2-y,z
loop_
_atom_site_type_symbol
_atom_site_label
_atom_site_fract_x
_atom_site_fract_y
_atom_site_fract_z
Si Si1 0.940210 0.821497 0.554630
Si Si2 0.621711 0.321658 0.263541
Si Si3 0.774333 0.179011 0.570410
Si Si4 0.361226 0.825301 0.993225
Si Si5 0.675312 0.825834 0.836304
Si Si6 0.419553 0.321613 0.836643
Si Si7 0.285556 0.820497 0.250851
Si Si8 0.132471 0.177700 0.980536
O O1 0.834747 0.756657 0.582958
O O2 0.853769 0.773441 0.675496
O O3 0.138241 0.772769 0.403790
O O4 0.930569 0.000000 0.554406
O O5 0.646859 0.500000 0.246208
O O6 0.422360 0.280219 0.416492
O O7 0.704524 0.260775 0.146405
O O8 0.725409 0.260974 0.237434
O O9 0.604182 0.263362 0.680681
O O10 0.738460 0.000000 0.598960
O O11 0.333413 0.000000 0.997612
O O12 0.533313 0.806494 0.897483
O O13 0.369403 0.727273 0.933842
O O14 0.635945 0.717939 0.915176
O O15 0.682847 0.000000 0.850570
O O16 0.416433 0.500000 0.835238
O O17 0.288753 0.256387 0.892087
O O18 0.318540 0.000000 0.226500
O O19 0.457742 0.735705 0.138075
O O20 0.146494 0.000000 0.978044
#
# Coordination Sequence:
#
# PCOD8052894 Si02
#       8
#     4   4   4   4   4   4   4   4
#     4   8  15  29  57  88 112 141 179 222 272 329
#     4   8  15  29  57  88 112 141 179 222 272 329
#     4   9  16  33  57  83 112 145 183 222 271 329
#     4  10  18  34  60  87 113 144 183 226 273 329
#     4  10  18  34  60  87 113 144 183 226 273 329
#     4  12  25  39  55  79 112 151 190 231 278 329
#     4   9  16  33  57  83 112 145 183 222 271 329
#     4  12  25  39  55  79 112 151 190 231 278 329
#
# _framework density 18.476369999999999
#
# number of rings (size 3 to 8) (size 9 to 14) (size 15 to 20)
#    0.000    2.250    2.500    3.750    0.000    0.500 
#    0.000    5.000    0.000    0.000    0.000    0.000 
#    0.000    0.000    0.000    0.000    0.000    0.000 
#
# Total GULP energy -198341.039877 kJ/mol
# GULP energy per Si atom -12396.314992 kJ/mol
# Density = 1.843432 g / cm^3
# Si number density = 18.476370 Si / 1000 Ang^3
#
#
#
# Elastic Constant Matrix: (Units=GPa)
#
#
# Indices 1 2 3 4 5 6 
#
# 1 34.2830 18.9150 22.1098 0.0120 -2.0049 0.0003
# 2 18.9150 78.1864 35.9775 0.0061 -3.9241 -0.0002
# 3 22.1098 35.9775 140.3803 0.0022 3.8499 0.0003
# 4 0.0120 0.0061 0.0022 25.5247 -0.0011 -2.6004
# 5 -2.0049 -3.9241 3.8499 -0.0011 28.9728 0.0011
# 6 0.0003 -0.0002 0.0003 -2.6004 0.0011 22.9496
#
#
#
# Elastic Compliance Matrix: (Units=1/GPa)
#
#
# Indices 1 2 3 4 5 6 
#
# 1 0.035514 -0.006674 -0.003940 -0.000015 0.002077 -0.000002
# 2 -0.006674 0.015932 -0.003090 0.000000 0.002107 0.000000
# 3 -0.003940 -0.003090 0.008586 0.000002 -0.001832 0.000000
# 4 -0.000015 0.000000 0.000002 0.039635 0.000000 0.004491
# 5 0.002077 0.002107 -0.001832 0.000000 0.035188 -0.000002
# 6 -0.000002 0.000000 0.000000 0.004491 -0.000002 0.044083
#
#
# Mechanical properties :
#
#
# Convention : Reuss Voigt Hill
#
# Bulk Modulus (GPa) = 30.65215 45.20602 37.92908
# Shear Modulus (GPa) = 23.01813 27.21259 25.11536
#
# Velocity S-wave (km/s) = 3.53344 3.84191 3.69090
# Velocity P-wave (km/s) = 5.76826 6.64834 6.22388
#
# Compressibility (1/GPa) = 0.03262414
#
# Stress axis : x y z
#
# Youngs Moduli (GPa) = 28.15806 62.76631 116.46701
#
# Poissons Ratio (x) = 0.41893 0.45886
# Poissons Ratio (y) = 0.18794 0.35985
# Poissons Ratio (z) = 0.11094 0.19393
#
# Static dielectric constant tensor:
#      x y z
#    x 3.257620 0.000040 0.258350 
#    y 0.000040 3.071820 0.000040 
#    z 0.258350 0.000040 4.022130 
# 
# 
# High freq. dielectric constant tensor:
#      x y z
#    x 1.687190 0.000000 0.008340 
#    y 0.000000 1.682990 0.000000 
#    z 0.008340 0.000000 1.741280 
# 
# From -- ./inp_files/24546.got.cif
#   From: 2010.03.12/outbox.cif.g09.slc.cpg/sg8_13_cif.got.tgz:24546.got - 2010.03.31 10:45:26.
