data_PCOD8052013
_publ_section_title
;
Structure prediction by ZEFSAII (Michael W. Deem and Ramdas Pophale) SiO2 
 PCOD8052013
Probable space group: C 2
;
_chemical_formula_sum "Si O2"
_cell_formula_units_Z 30
_cell_length_a 19.875202
_cell_length_b 11.424622
_cell_length_c 11.339803
_cell_angle_alpha 90.000000
_cell_angle_beta 148.233859
_cell_angle_gamma 90.000000
_cell_volume 1355.560433
_symmetry_space_group_name_H-M "C 2"
_symmetry_group_IT_number 5
_symmetry_cell_setting 'monoclinic'
loop_
_space_group_symop_operation_xyz
x,y,z
-x,y,-z
1/2+x,1/2+y,z
1/2-x,1/2+y,-z
loop_
_atom_site_type_symbol
_atom_site_label
_atom_site_fract_x
_atom_site_fract_y
_atom_site_fract_z
Si Si1 0.595718 0.549900 0.746003
Si Si2 0.819132 0.126158 0.568159
Si Si3 0.476185 0.397816 0.758105
Si Si4 0.896296 0.684599 0.934799
Si Si5 0.433762 0.751925 0.113732
Si Si6 0.193632 0.710066 0.601639
Si Si7 0.371296 0.005901 0.096106
Si Si8 0.000000 0.602471 0.500000
O O1 0.500000 0.578814 0.500000
O O2 0.560266 0.439628 0.773735
O O3 0.607131 0.668616 0.838360
O O4 0.719818 0.506397 0.862267
O O5 0.741160 0.154252 0.329677
O O6 0.722965 0.121354 0.536617
O O7 0.925506 0.228420 0.728598
O O8 0.904722 0.009249 0.706995
O O9 0.356373 0.324743 0.535980
O O10 0.570492 0.322636 0.986316
O O11 0.919884 0.615145 0.091046
O O12 0.000000 0.635188 0.000000
O O13 0.434695 0.886413 0.151275
O O14 0.330390 0.735003 0.859199
O O15 0.089934 0.673952 0.544640
O O16 0.406521 0.022673 0.284906
#
# Coordination Sequence:
#
# PCOD8052013 Si02
#       8
#     4   4   4   4   4   4   4   2
#     4  11  25  45  69 105 146 195 249 301 384 457
#     4  11  26  50  74 115 144 192 258 310 373 452
#     4  11  26  46  78 105 150 201 240 314 376 456
#     4  12  25  50  75 110 147 198 253 306 377 452
#     4  11  26  45  71 107 145 192 245 317 377 441
#     4  12  24  49  73 102 151 188 251 303 374 462
#     4  12  26  44  73 102 148 189 244 310 370 456
#     4  12  26  44  68 110 140 192 240 294 368 458
#
# _framework density 22.131067999999999
#
# number of rings (size 3 to 8) (size 9 to 14) (size 15 to 20)
#    0.000    0.533    4.000    3.600    5.600    6.400 
#    0.000    0.000    0.000    0.000    0.000    0.000 
#    0.000    0.000    0.000    0.000    0.000    0.000 
#
# Total GULP energy -185886.984985 kJ/mol
# GULP energy per Si atom -12392.465666 kJ/mol
# Density = 2.208070 g / cm^3
# Si number density = 22.131068 Si / 1000 Ang^3
#
#
#
# Elastic Constant Matrix: (Units=GPa)
#
#
# Indices 1 2 3 4 5 6 
#
# 1 136.5980 48.2575 28.9379 0.0000 4.8158 0.0000
# 2 48.2575 135.5005 54.6223 0.0000 -7.0972 0.0000
# 3 28.9379 54.6223 144.1969 0.0000 -17.4247 0.0000
# 4 0.0000 0.0000 0.0000 40.8406 0.0000 2.0636
# 5 4.8158 -7.0972 -17.4247 0.0000 47.5635 0.0000
# 6 0.0000 0.0000 0.0000 2.0636 0.0000 25.5375
#
#
#
# Elastic Compliance Matrix: (Units=1/GPa)
#
#
# Indices 1 2 3 4 5 6 
#
# 1 0.008540 -0.002781 -0.000853 0.000000 -0.001592 0.000000
# 2 -0.002781 0.009616 -0.003010 0.000000 0.000614 0.000000
# 3 -0.000853 -0.003010 0.008583 0.000000 0.002781 0.000000
# 4 0.000000 0.000000 0.000000 0.024586 0.000000 -0.001987
# 5 -0.001592 0.000614 0.002781 0.000000 0.022296 0.000000
# 6 0.000000 0.000000 0.000000 -0.001987 0.000000 0.039319
#
#
# Mechanical properties :
#
#
# Convention : Reuss Voigt Hill
#
# Bulk Modulus (GPa) = 74.34767 75.54787 74.94777
# Shear Modulus (GPa) = 38.25223 41.75350 40.00287
#
# Velocity S-wave (km/s) = 4.16196 4.34827 4.25613
# Velocity P-wave (km/s) = 7.53413 7.70847 7.62180
#
# Compressibility (1/GPa) = 0.01345032
#
# Stress axis : x y z
#
# Youngs Moduli (GPa) = 117.09546 103.99139 116.51582
#
# Poissons Ratio (x) = 0.28921 0.09936
# Poissons Ratio (y) = 0.32566 0.35076
# Poissons Ratio (z) = 0.09985 0.31305
#
# Static dielectric constant tensor:
#      x y z
#    x 4.283900 0.000000 -0.057510 
#    y 0.000000 3.902270 0.000000 
#    z -0.057510 0.000000 4.248250 
# 
# 
# High freq. dielectric constant tensor:
#      x y z
#    x 1.884710 0.000000 -0.000380 
#    y 0.000000 1.861200 0.000000 
#    z -0.000380 0.000000 1.892920 
# 
# From -- ./inp_files/46496.got.cif
#   From: 2010.03.12/outbox.cif.g09.slc.cpg/sg5_24_cif.got.tgz:46496.got - 2010.03.31 09:47:26.
