data_PCOD8052108
_publ_section_title
;
Structure prediction by ZEFSAII (Michael W. Deem and Ramdas Pophale) SiO2 
 PCOD8052108
Probable space group: C 2
;
_chemical_formula_sum "Si O2"
_cell_formula_units_Z 22
_cell_length_a 19.831927
_cell_length_b 8.994316
_cell_length_c 13.556407
_cell_angle_alpha 90.000000
_cell_angle_beta 157.419819
_cell_angle_gamma 90.000000
_cell_volume 928.499523
_symmetry_space_group_name_H-M "C 2"
_symmetry_group_IT_number 5
_symmetry_cell_setting 'monoclinic'
loop_
_space_group_symop_operation_xyz
x,y,z
-x,y,-z
1/2+x,1/2+y,z
1/2-x,1/2+y,-z
loop_
_atom_site_type_symbol
_atom_site_label
_atom_site_fract_x
_atom_site_fract_y
_atom_site_fract_z
Si Si1 0.000000 0.375000 0.000000
Si Si2 0.381023 0.259246 0.246658
Si Si3 0.706141 0.163985 0.576937
Si Si4 0.807682 0.849824 0.784191
Si Si5 0.733189 0.589245 0.554963
Si Si6 0.350537 0.474390 0.048366
O O1 0.844181 0.264499 0.828761
O O2 0.906125 0.482934 0.793475
O O3 0.500000 0.305989 0.500000
O O4 0.506747 0.205431 0.328286
O O5 0.290493 0.403204 0.072782
O O6 0.241801 0.134258 0.089683
O O7 0.752986 0.187854 0.525106
O O8 0.716219 0.991668 0.614197
O O9 0.712812 0.698625 0.621547
O O10 0.000000 0.840703 0.000000
O O11 0.793165 0.864402 0.882600
O O12 0.560546 0.488215 0.323936
#
# Coordination Sequence:
#
# PCOD8052108 Si02
#       6
#     2   4   4   4   4   4
#     4  12  24  42  74 110 138 176 234 296 358 408
#     4  12  29  48  69 103 146 194 239 287 362 430
#     4  12  24  47  74 103 145 183 233 298 358 419
#     4  12  23  45  75 106 140 177 237 298 356 416
#     4  12  26  44  77 109 136 183 238 303 357 417
#     4  12  28  49  70 105 144 193 238 294 355 427
#
# _framework density 23.694141999999999
#
# number of rings (size 3 to 8) (size 9 to 14) (size 15 to 20)
#    0.000    0.000    7.273    2.182    2.545    2.909 
#    0.000    0.000    0.000    0.000    0.000    0.000 
#    0.000    0.000    0.000    0.000    0.000    0.000 
#
# Total GULP energy -136369.832358 kJ/mol
# GULP energy per Si atom -12397.257487 kJ/mol
# Density = 2.364021 g / cm^3
# Si number density = 23.694142 Si / 1000 Ang^3
#
#
#
# Elastic Constant Matrix: (Units=GPa)
#
#
# Indices 1 2 3 4 5 6 
#
# 1 96.3325 25.6241 31.1443 0.0000 -27.2303 0.0000
# 2 25.6241 106.5155 34.4218 0.0000 -24.3840 0.0000
# 3 31.1443 34.4218 99.1725 0.0000 -16.1274 0.0000
# 4 0.0000 0.0000 0.0000 29.3549 0.0000 -8.6430
# 5 -27.2303 -24.3840 -16.1274 0.0000 46.6230 0.0000
# 6 0.0000 0.0000 0.0000 -8.6430 0.0000 40.5893
#
#
#
# Elastic Compliance Matrix: (Units=1/GPa)
#
#
# Indices 1 2 3 4 5 6 
#
# 1 0.013324 -0.000824 -0.002864 0.000000 0.006360 0.000000
# 2 -0.000824 0.011605 -0.003031 0.000000 0.004540 0.000000
# 3 -0.002864 -0.003031 0.012191 0.000000 0.000959 0.000000
# 4 0.000000 0.000000 0.000000 0.036345 0.000000 0.007739
# 5 0.006360 0.004540 0.000959 0.000000 0.027870 0.000000
# 6 0.000000 0.000000 0.000000 0.007739 0.000000 0.026285
#
#
# Mechanical properties :
#
#
# Convention : Reuss Voigt Hill
#
# Bulk Modulus (GPa) = 42.22579 53.82234 48.02406
# Shear Modulus (GPa) = 33.56821 37.36878 35.46850
#
# Velocity S-wave (km/s) = 3.76803 3.97562 3.87322
# Velocity P-wave (km/s) = 6.06553 6.62109 6.34939
#
# Compressibility (1/GPa) = 0.02368221
#
# Stress axis : x y z
#
# Youngs Moduli (GPa) = 75.05500 86.16728 82.02857
#
# Poissons Ratio (x) = 0.07097 0.23493
# Poissons Ratio (y) = 0.06182 0.24864
# Poissons Ratio (z) = 0.21496 0.26118
#
# Static dielectric constant tensor:
#      x y z
#    x 4.060790 0.000000 -0.175010 
#    y 0.000000 3.963660 0.000000 
#    z -0.175010 0.000000 4.465930 
# 
# 
# High freq. dielectric constant tensor:
#      x y z
#    x 1.914840 0.000000 -0.010370 
#    y 0.000000 1.952920 0.000000 
#    z -0.010370 0.000000 1.946260 
# 
# From -- ./inp_files/57655.got.cif
#   From: 2010.03.12/outbox.cif.g09.slc.cpg/sg5_29_cif.got.tgz:57655.got - 2010.03.31 09:47:26.
