data_PCOD8052121
_publ_section_title
;
Structure prediction by ZEFSAII (Michael W. Deem and Ramdas Pophale) SiO2 
 PCOD8052121
Probable space group: C 2
;
_chemical_formula_sum "Si O2"
_cell_formula_units_Z 28
_cell_length_a 8.658621
_cell_length_b 5.016646
_cell_length_c 29.047909
_cell_angle_alpha 90.000000
_cell_angle_beta 84.210710
_cell_angle_gamma 90.000000
_cell_volume 1255.325382
_symmetry_space_group_name_H-M "C 2"
_symmetry_group_IT_number 5
_symmetry_cell_setting 'monoclinic'
loop_
_space_group_symop_operation_xyz
x,y,z
-x,y,-z
1/2+x,1/2+y,z
1/2-x,1/2+y,-z
loop_
_atom_site_type_symbol
_atom_site_label
_atom_site_fract_x
_atom_site_fract_y
_atom_site_fract_z
Si Si1 0.672216 0.516620 0.981986
Si Si2 0.559247 0.928630 0.696655
Si Si3 0.446906 0.416420 0.553436
Si Si4 0.663897 0.484104 0.875168
Si Si5 0.880714 0.925353 0.732690
Si Si6 0.342062 0.482753 0.839471
Si Si7 0.400171 0.917624 0.410504
O O1 0.689993 0.444698 0.928264
O O2 0.500000 0.612663 0.000000
O O3 0.710954 0.255357 0.010228
O O4 0.702828 0.986312 0.725982
O O5 0.495345 0.632231 0.704914
O O6 0.616471 0.968116 0.643068
O O7 0.422200 0.132736 0.712985
O O8 0.500000 0.458216 0.500000
O O9 0.540261 0.619505 0.582951
O O10 0.264359 0.471327 0.560870
O O11 0.477192 0.118777 0.570423
O O12 0.484048 0.434858 0.869829
O O13 0.705956 0.779304 0.856904
O O14 0.774227 0.278904 0.845164
O O15 0.904363 0.938718 0.786417
#
# Coordination Sequence:
#
# PCOD8052121 Si02
#       7
#     4   4   4   4   4   4   4
#     4  12  25  43  66  96 130 170 214 264 319 379
#     4  12  24  42  66  96 129 169 212 262 318 379
#     4  12  25  44  67  96 130 170 214 264 318 378
#     4  12  24  43  67  96 130 170 214 264 318 379
#     4  12  25  44  67  96 130 169 213 264 319 380
#     4  12  25  44  67  96 129 169 214 264 319 380
#     4  12  24  42  66  96 130 169 213 262 317 379
#
# _framework density 22.304974999999999
#
# number of rings (size 3 to 8) (size 9 to 14) (size 15 to 20)
#    0.000    0.000    0.000   12.000    0.000    0.000 
#    0.000    0.000    0.000    0.000    0.000    0.000 
#    0.000    0.000    0.000    0.000    0.000    0.000 
#
# Total GULP energy -173790.268675 kJ/mol
# GULP energy per Si atom -12413.590620 kJ/mol
# Density = 2.225421 g / cm^3
# Si number density = 22.304975 Si / 1000 Ang^3
#
#
#
# Elastic Constant Matrix: (Units=GPa)
#
#
# Indices 1 2 3 4 5 6 
#
# 1 86.0577 27.9101 18.7585 0.0000 2.5473 0.0000
# 2 27.9101 86.7266 28.1485 0.0000 2.6960 0.0000
# 3 18.7585 28.1485 79.2617 0.0000 -1.1477 0.0000
# 4 0.0000 0.0000 0.0000 34.6122 0.0000 -1.0066
# 5 2.5473 2.6960 -1.1477 0.0000 34.3282 0.0000
# 6 0.0000 0.0000 0.0000 -1.0066 0.0000 33.1802
#
#
#
# Elastic Compliance Matrix: (Units=1/GPa)
#
#
# Indices 1 2 3 4 5 6 
#
# 1 0.013224 -0.003631 -0.001851 0.000000 -0.000758 0.000000
# 2 -0.003631 0.014078 -0.004154 0.000000 -0.000975 0.000000
# 3 -0.001851 -0.004154 0.014544 0.000000 0.000950 0.000000
# 4 0.000000 0.000000 0.000000 0.028917 0.000000 0.000877
# 5 -0.000758 -0.000975 0.000950 0.000000 0.029295 0.000000
# 6 0.000000 0.000000 0.000000 0.000877 0.000000 0.030165
#
#
# Mechanical properties :
#
#
# Convention : Reuss Voigt Hill
#
# Bulk Modulus (GPa) = 44.30258 44.63116 44.46687
# Shear Modulus (GPa) = 31.84323 32.23937 32.04130
#
# Velocity S-wave (km/s) = 3.78250 3.80595 3.79424
# Velocity P-wave (km/s) = 6.24353 6.27428 6.25893
#
# Compressibility (1/GPa) = 0.02257205
#
# Stress axis : x y z
#
# Youngs Moduli (GPa) = 75.62174 71.03419 68.75904
#
# Poissons Ratio (x) = 0.25795 0.12727
# Poissons Ratio (y) = 0.27460 0.28564
# Poissons Ratio (z) = 0.13997 0.29509
#
# Static dielectric constant tensor:
#      x y z
#    x 4.020280 0.000000 0.049960 
#    y 0.000000 4.113460 0.000000 
#    z 0.049960 0.000000 4.094500 
# 
# 
# High freq. dielectric constant tensor:
#      x y z
#    x 1.889230 0.000000 0.000620 
#    y 0.000000 1.891020 0.000000 
#    z 0.000620 0.000000 1.894010 
# 
# From -- ./inp_files/70079.got.cif
#   From: 2010.03.12/outbox.cif.g09.slc.cpg/sg5_36_cif.got.tgz:70079.got - 2010.03.31 09:47:26.
