data_PCOD8052202
_publ_section_title
;
Structure prediction by ZEFSAII (Michael W. Deem and Ramdas Pophale) SiO2 
 PCOD8052202
Probable space group: C 2
;
_chemical_formula_sum "Si O2"
_cell_formula_units_Z 18
_cell_length_a 13.930819
_cell_length_b 4.777280
_cell_length_c 17.165696
_cell_angle_alpha 90.000000
_cell_angle_beta 36.144026
_cell_angle_gamma 90.000000
_cell_volume 673.807870
_symmetry_space_group_name_H-M "C 2"
_symmetry_group_IT_number 5
_symmetry_cell_setting 'monoclinic'
loop_
_space_group_symop_operation_xyz
x,y,z
-x,y,-z
1/2+x,1/2+y,z
1/2-x,1/2+y,-z
loop_
_atom_site_type_symbol
_atom_site_label
_atom_site_fract_x
_atom_site_fract_y
_atom_site_fract_z
Si Si1 0.500000 0.853390 0.000000
Si Si2 0.691249 0.732133 0.218997
Si Si3 0.336790 0.035126 0.913311
Si Si4 0.601423 0.463016 0.793868
Si Si5 0.348810 0.540608 0.409585
O O1 0.478699 0.660108 0.088999
O O2 0.342073 0.048507 0.086885
O O3 0.662243 0.001004 0.181024
O O4 0.526237 0.553633 0.332542
O O5 0.731056 0.844171 0.279230
O O6 0.322184 0.716608 0.956539
O O7 0.005480 0.688065 0.156076
O O8 0.637994 0.630790 0.690221
O O9 0.283952 0.226310 0.458937
#
# Coordination Sequence:
#
# PCOD8052202 Si02
#       5
#     2   4   4   4   4
#     4  12  30  56  88 148 172 220 286 366 498 500
#     4  12  31  53  87 130 180 223 289 371 439 531
#     4  12  28  48  82 126 184 228 272 350 456 542
#     4  12  31  53  87 130 180 223 289 371 439 531
#     4  12  32  62  86 120 172 242 308 342 412 518
#
# _framework density 26.713847999999999
#
# number of rings (size 3 to 8) (size 9 to 14) (size 15 to 20)
#    0.000    0.000    0.000    6.000   31.111    0.889 
#    0.000    0.000    0.000    0.000    0.000    0.000 
#    0.000    0.000    0.000    0.000    0.000    0.000 
#
# Total GULP energy -111630.813870 kJ/mol
# GULP energy per Si atom -12403.423763 kJ/mol
# Density = 2.665305 g / cm^3
# Si number density = 26.713848 Si / 1000 Ang^3
#
#
#
# Elastic Constant Matrix: (Units=GPa)
#
#
# Indices 1 2 3 4 5 6 
#
# 1 207.1993 37.4106 54.9344 0.0035 -27.2866 0.0088
# 2 37.4106 94.9681 18.8656 0.0080 -17.2554 0.0217
# 3 54.9344 18.8656 126.0528 0.0027 -25.6982 0.0069
# 4 0.0035 0.0080 0.0027 28.5868 -0.0003 3.7866
# 5 -27.2866 -17.2554 -25.6982 -0.0003 52.4325 -0.0010
# 6 0.0088 0.0217 0.0069 3.7866 -0.0010 62.7328
#
#
#
# Elastic Compliance Matrix: (Units=1/GPa)
#
#
# Indices 1 2 3 4 5 6 
#
# 1 0.005851 -0.001631 -0.001994 0.000000 0.001531 0.000000
# 2 -0.001631 0.011775 -0.000483 -0.000003 0.002790 -0.000004
# 3 -0.001994 -0.000483 0.009588 0.000000 0.003503 -0.000001
# 4 0.000000 -0.000003 0.000000 0.035263 -0.000001 -0.002128
# 5 0.001531 0.002790 0.003503 -0.000001 0.022504 -0.000001
# 6 0.000000 -0.000004 -0.000001 -0.002128 -0.000001 0.016069
#
#
# Mechanical properties :
#
#
# Convention : Reuss Voigt Hill
#
# Bulk Modulus (GPa) = 52.63140 72.29351 62.46245
# Shear Modulus (GPa) = 43.25322 49.88438 46.56880
#
# Velocity S-wave (km/s) = 4.02821 4.32598 4.17975
# Velocity P-wave (km/s) = 6.43273 7.21617 6.83568
#
# Compressibility (1/GPa) = 0.01900006
#
# Stress axis : x y z
#
# Youngs Moduli (GPa) = 170.91400 84.92547 104.29199
#
# Poissons Ratio (x) = 0.13848 0.20792
# Poissons Ratio (y) = 0.27869 0.05036
# Poissons Ratio (z) = 0.34074 0.04101
#
# Static dielectric constant tensor:
#      x y z
#    x 5.482140 -0.000020 -0.194220 
#    y -0.000020 5.080080 0.000030 
#    z -0.194220 0.000030 4.595410 
# 
# 
# High freq. dielectric constant tensor:
#      x y z
#    x 2.109030 0.000000 -0.018140 
#    y 0.000000 2.088960 0.000000 
#    z -0.018140 0.000000 2.046300 
# 
# From -- ./inp_files/65522.got.cif
#   From: 2010.03.12/outbox.cif.g09.slc.cpg/sg5_33_cif.got.tgz:65522.got - 2010.03.31 09:47:26.
