data_PCOD8052169
_publ_section_title
;
Structure prediction by ZEFSAII (Michael W. Deem and Ramdas Pophale) SiO2 
 PCOD8052169
Probable space group: C 2
;
_chemical_formula_sum "Si O2"
_cell_formula_units_Z 16
_cell_length_a 21.688839
_cell_length_b 4.951906
_cell_length_c 9.269764
_cell_angle_alpha 90.000000
_cell_angle_beta 140.151865
_cell_angle_gamma 90.000000
_cell_volume 637.924561
_symmetry_space_group_name_H-M "C 2"
_symmetry_group_IT_number 5
_symmetry_cell_setting 'monoclinic'
loop_
_space_group_symop_operation_xyz
x,y,z
-x,y,-z
1/2+x,1/2+y,z
1/2-x,1/2+y,-z
loop_
_atom_site_type_symbol
_atom_site_label
_atom_site_fract_x
_atom_site_fract_y
_atom_site_fract_z
Si Si1 0.812395 0.944730 0.631136
Si Si2 0.633086 0.484447 0.953772
Si Si3 0.424472 0.276494 0.563797
Si Si4 0.662153 0.773417 0.742101
O O1 0.736706 0.705362 0.531865
O O2 0.894088 0.819184 0.675628
O O3 0.858842 0.053851 0.862705
O O4 0.537862 0.312700 0.750780
O O5 0.631680 0.763767 0.857790
O O6 0.723962 0.310960 0.063797
O O7 0.362018 0.473091 0.353944
O O8 0.399471 0.977404 0.465069
#
# Coordination Sequence:
#
# PCOD8052169 Si02
#       4
#     4   4   4   4
#     4  12  25  51  80 112 155 203 264 320 379 462
#     4  12  28  49  82 111 159 207 252 318 402 440
#     4  12  27  52  77 115 154 204 259 320 381 471
#     4  12  28  48  75 117 158 196 259 319 383 467
#
# _framework density 25.081333000000001
#
# number of rings (size 3 to 8) (size 9 to 14) (size 15 to 20)
#    0.000    0.000    5.000    3.000    0.000   14.000 
#    0.000    5.000    0.000    0.000    0.000    0.000 
#    0.000    0.000    0.000    0.000    0.000    0.000 
#
# Total GULP energy -99226.827127 kJ/mol
# GULP energy per Si atom -12403.353391 kJ/mol
# Density = 2.502425 g / cm^3
# Si number density = 25.081333 Si / 1000 Ang^3
#
#
#
# Elastic Constant Matrix: (Units=GPa)
#
#
# Indices 1 2 3 4 5 6 
#
# 1 174.2521 32.3885 83.1723 0.0000 -8.3362 0.0000
# 2 32.3885 60.9420 13.4668 0.0001 -9.0799 0.0000
# 3 83.1723 13.4668 128.1278 0.0000 1.0031 0.0000
# 4 0.0000 0.0001 0.0000 32.3849 0.0000 -7.8230
# 5 -8.3362 -9.0799 1.0031 0.0000 68.8306 0.0000
# 6 0.0000 0.0000 0.0000 -7.8230 0.0000 38.1982
#
#
#
# Elastic Compliance Matrix: (Units=1/GPa)
#
#
# Indices 1 2 3 4 5 6 
#
# 1 0.009054 -0.003486 -0.005517 0.000000 0.000717 0.000000
# 2 -0.003486 0.018495 0.000303 0.000000 0.002013 0.000000
# 3 -0.005517 0.000303 0.011360 0.000000 -0.000794 0.000000
# 4 0.000000 0.000000 0.000000 0.032486 0.000000 0.006653
# 5 0.000717 0.002013 -0.000794 0.000000 0.014892 0.000000
# 6 0.000000 0.000000 0.000000 0.006653 0.000000 0.027542
#
#
# Mechanical properties :
#
#
# Convention : Reuss Voigt Hill
#
# Bulk Modulus (GPa) = 46.48960 69.04189 57.76575
# Shear Modulus (GPa) = 36.12774 43.50237 39.81505
#
# Velocity S-wave (km/s) = 3.79941 4.16919 3.98859
# Velocity P-wave (km/s) = 6.15005 7.12483 6.65531
#
# Compressibility (1/GPa) = 0.02151019
#
# Stress axis : x y z
#
# Youngs Moduli (GPa) = 110.44568 54.06953 88.02759
#
# Poissons Ratio (x) = 0.18849 0.48562
# Poissons Ratio (y) = 0.38503 -0.02670
# Poissons Ratio (z) = 0.60929 -0.01640
#
# Static dielectric constant tensor:
#      x y z
#    x 4.831390 0.000000 -0.179120 
#    y 0.000000 4.317250 0.000000 
#    z -0.179120 0.000000 4.599650 
# 
# 
# High freq. dielectric constant tensor:
#      x y z
#    x 2.017090 0.000000 -0.010260 
#    y 0.000000 1.993850 0.000000 
#    z -0.010260 0.000000 2.009690 
# 
# From -- ./inp_files/28237.got.cif
#   From: 2010.03.12/outbox.cif.g09.slc.cpg/sg5_15_cif.got.tgz:28237.got - 2010.03.31 09:47:26.
