data_PCOD8052614
_publ_section_title
;
Structure prediction by ZEFSAII (Michael W. Deem and Ramdas Pophale) SiO2 
 PCOD8052614
Probable space group: P C
;
_chemical_formula_sum "Si O2"
_cell_formula_units_Z 16
_cell_length_a 9.678935
_cell_length_b 16.520581
_cell_length_c 5.170596
_cell_angle_alpha 90.000000
_cell_angle_beta 59.522863
_cell_angle_gamma 90.000000
_cell_volume 712.550942
_symmetry_space_group_name_H-M "P C"
_symmetry_group_IT_number 7
_symmetry_cell_setting 'monoclinic'
loop_
_space_group_symop_operation_xyz
x,y,z
x,-y,1/2+z
loop_
_atom_site_type_symbol
_atom_site_label
_atom_site_fract_x
_atom_site_fract_y
_atom_site_fract_z
Si Si1 0.731090 0.284237 0.557100
Si Si2 0.228319 0.267957 0.707701
Si Si3 0.242644 0.453969 0.785774
Si Si4 0.052506 0.217033 0.362303
Si Si5 0.622372 0.456267 0.468167
Si Si6 0.932226 0.961527 0.929390
Si Si7 0.580813 0.782173 0.717457
Si Si8 0.574908 0.031246 0.212227
O O1 0.681662 0.368605 0.483517
O O2 0.697172 0.220921 0.356381
O O3 0.920252 0.285698 0.433275
O O4 0.636365 0.267764 0.913288
O O5 0.187355 0.362305 0.785769
O O6 0.124481 0.230382 0.576181
O O7 0.412809 0.255025 0.465749
O O8 0.189085 0.221175 0.012446
O O9 0.174398 0.510918 0.620494
O O10 0.432353 0.457371 0.631467
O O11 0.954420 0.133432 0.450992
O O12 0.688617 0.517865 0.624477
O O13 0.016908 0.991232 0.586548
O O14 0.745366 0.987202 0.110528
O O15 0.578730 0.875128 0.635178
O O16 0.481255 0.015699 0.570623
#
# Coordination Sequence:
#
# PCOD8052614 Si02
#       8
#     2   2   2   2   2   2   2   2
#     4  12  23  42  68  99 127 180 224 275 335 401
#     4  12  26  45  64 105 141 176 223 284 342 398
#     4  10  21  40  68  95 128 181 228 269 328 406
#     4  12  26  43  67  99 143 179 219 277 348 410
#     4  10  21  37  63  99 129 165 224 286 330 384
#     4  10  19  38  64  89 121 171 225 261 314 406
#     4  12  24  42  72  98 131 171 231 287 327 389
#     4  10  20  37  62  94 122 159 220 277 318 384
#
# _framework density 22.454533999999999
#
# number of rings (size 3 to 8) (size 9 to 14) (size 15 to 20)
#    0.000    1.000    1.250    7.500    3.500    0.000 
#    0.000    7.500    0.000    0.000    0.000    0.000 
#    0.000    0.000    0.000    0.000    0.000    0.000 
#
# Total GULP energy -198349.640729 kJ/mol
# GULP energy per Si atom -12396.852546 kJ/mol
# Density = 2.240343 g / cm^3
# Si number density = 22.454534 Si / 1000 Ang^3
#
#
#
# Elastic Constant Matrix: (Units=GPa)
#
#
# Indices 1 2 3 4 5 6 
#
# 1 74.8163 21.7191 35.9503 0.0000 32.7837 0.0000
# 2 21.7191 104.6869 24.7989 0.0000 15.8281 0.0000
# 3 35.9503 24.7989 80.9278 0.0000 26.7149 0.0000
# 4 0.0000 0.0000 0.0000 22.5334 0.0000 2.8374
# 5 32.7837 15.8281 26.7149 0.0000 41.8766 0.0000
# 6 0.0000 0.0000 0.0000 2.8374 0.0000 41.5061
#
#
#
# Elastic Compliance Matrix: (Units=1/GPa)
#
#
# Indices 1 2 3 4 5 6 
#
# 1 0.022099 -0.001360 -0.004888 0.000000 -0.013668 0.000000
# 2 -0.001360 0.010575 -0.002113 0.000000 -0.001584 0.000000
# 3 -0.004888 -0.002113 0.017290 0.000000 -0.006404 0.000000
# 4 0.000000 0.000000 0.000000 0.044764 0.000000 -0.003060
# 5 -0.013668 -0.001584 -0.006404 0.000000 0.039264 0.000000
# 6 0.000000 0.000000 0.000000 -0.003060 0.000000 0.024302
#
#
# Mechanical properties :
#
#
# Convention : Reuss Voigt Hill
#
# Bulk Modulus (GPa) = 30.08448 47.26307 38.67378
# Shear Modulus (GPa) = 26.86772 33.04740 29.95756
#
# Velocity S-wave (km/s) = 3.46285 3.84050 3.65655
# Velocity P-wave (km/s) = 5.42361 6.38435 5.92349
#
# Compressibility (1/GPa) = 0.03323973
#
# Stress axis : x y z
#
# Youngs Moduli (GPa) = 45.25103 94.56634 57.83726
#
# Poissons Ratio (x) = 0.12864 0.28272
# Poissons Ratio (y) = 0.06156 0.12223
# Poissons Ratio (z) = 0.22120 0.19985
#
# Static dielectric constant tensor:
#      x y z
#    x 4.402820 0.000000 0.811820 
#    y 0.000000 3.999510 0.000000 
#    z 0.811820 0.000000 4.618780 
# 
# 
# High freq. dielectric constant tensor:
#      x y z
#    x 1.881850 0.000000 0.040900 
#    y 0.000000 1.891790 0.000000 
#    z 0.040900 0.000000 1.884560 
# 
# From -- ./inp_files/786.got.cif
#   From: 2010.03.12/outbox.cif.g09.slc.cpg/sg7_cif.got.tgz:786.got - 2010.03.30 08:40:41.
