data_PCOD8052056
_publ_section_title
;
Structure prediction by ZEFSAII (Michael W. Deem and Ramdas Pophale) SiO2 
 PCOD8052056
Probable space group: C 2
;
_chemical_formula_sum "Si O2"
_cell_formula_units_Z 22
_cell_length_a 14.797872
_cell_length_b 7.725543
_cell_length_c 22.485675
_cell_angle_alpha 90.000000
_cell_angle_beta 159.370013
_cell_angle_gamma 90.000000
_cell_volume 905.702761
_symmetry_space_group_name_H-M "C 2"
_symmetry_group_IT_number 5
_symmetry_cell_setting 'monoclinic'
loop_
_space_group_symop_operation_xyz
x,y,z
-x,y,-z
1/2+x,1/2+y,z
1/2-x,1/2+y,-z
loop_
_atom_site_type_symbol
_atom_site_label
_atom_site_fract_x
_atom_site_fract_y
_atom_site_fract_z
Si Si1 0.071831 0.699490 0.982445
Si Si2 0.349851 0.814164 0.963180
Si Si3 0.429943 0.797395 0.774445
Si Si4 0.000000 0.521932 0.500000
Si Si5 0.471921 0.798826 0.367787
Si Si6 0.910994 0.553174 0.666853
O O1 0.794934 0.700902 0.779881
O O2 0.208411 0.516706 0.083074
O O3 0.277807 0.800299 0.070299
O O4 0.000000 0.795357 0.000000
O O5 0.100624 0.694696 0.813610
O O6 0.500000 0.735036 0.000000
O O7 0.538749 0.818714 0.136119
O O8 0.262443 0.628206 0.663390
O O9 0.297991 0.952117 0.655338
O O10 0.960793 0.413199 0.534622
O O11 0.686723 0.650410 0.492998
O O12 0.465281 0.914877 0.303275
#
# Coordination Sequence:
#
# PCOD8052056 Si02
#       6
#     4   4   4   2   4   4
#     4  11  26  49  74 108 150 204 262 316 386 455
#     4  11  27  46  80 107 149 200 263 318 387 453
#     4  12  27  49  77 112 156 203 263 317 384 464
#     4  12  30  46  76 114 162 204 262 314 392 464
#     4  12  29  48  77 115 157 207 257 320 392 459
#     4  12  28  49  79 110 160 202 258 320 387 458
#
# _framework density 24.290528999999999
#
# number of rings (size 3 to 8) (size 9 to 14) (size 15 to 20)
#    0.000    0.364    1.818    4.364   20.364    0.000 
#    0.000    0.000    0.000    0.000    0.000    0.000 
#    0.000    0.000    0.000    0.000    0.000    0.000 
#
# Total GULP energy -136305.046637 kJ/mol
# GULP energy per Si atom -12391.367876 kJ/mol
# Density = 2.423524 g / cm^3
# Si number density = 24.290529 Si / 1000 Ang^3
#
#
#
# Elastic Constant Matrix: (Units=GPa)
#
#
# Indices 1 2 3 4 5 6 
#
# 1 144.8238 24.5488 25.3359 -0.0256 -21.3628 -0.0069
# 2 24.5488 85.7275 27.6807 -0.1189 1.9831 -0.0119
# 3 25.3359 27.6807 97.7169 -0.2409 0.6420 -0.0119
# 4 -0.0256 -0.1189 -0.2409 -44.5321 0.0396 -21.1615
# 5 -21.3628 1.9831 0.6420 0.0396 40.1002 -0.0028
# 6 -0.0069 -0.0119 -0.0119 -21.1615 -0.0028 27.0241
#
#
#
# Elastic Compliance Matrix: (Units=1/GPa)
#
#
# Indices 1 2 3 4 5 6 
#
# 1 0.008172 -0.001926 -0.001603 0.000009 0.004474 0.000008
# 2 -0.001926 0.013307 -0.003259 -0.000015 -0.001632 -0.000008
# 3 -0.001603 -0.003259 0.011578 -0.000040 -0.000878 -0.000028
# 4 0.000009 -0.000015 -0.000040 -0.016366 0.000022 -0.012815
# 5 0.004474 -0.001632 -0.000878 0.000022 0.027416 0.000020
# 6 0.000008 -0.000008 -0.000028 -0.012815 0.000020 0.026969
#
#
# Mechanical properties :
#
#
# Convention : Reuss Voigt Hill
#
# Bulk Modulus (GPa) = 51.33329 53.71098 52.52213
# Shear Modulus (GPa) = 54.85771 21.23197 38.04484
#
# Velocity S-wave (km/s) = 4.75742 2.95970 3.96187
# Velocity P-wave (km/s) = 7.16633 5.81719 6.52671
#
# Compressibility (1/GPa) = 0.01948054
#
# Stress axis : x y z
#
# Youngs Moduli (GPa) = 122.37235 75.15092 86.37008
#
# Poissons Ratio (x) = 0.14475 0.13841
# Poissons Ratio (y) = 0.23570 0.28151
# Poissons Ratio (z) = 0.19610 0.24494
#
# Static dielectric constant tensor:
#      x y z
#    x 4.511030 0.000020 -0.036050 
#    y 0.000020 4.389630 -0.000190 
#    z -0.036050 -0.000190 4.759310 
# 
# 
# High freq. dielectric constant tensor:
#      x y z
#    x 1.976690 0.000000 -0.007730 
#    y 0.000000 1.967190 -0.000010 
#    z -0.007730 -0.000010 1.970500 
# 
# From -- ./inp_files/68743.got.cif
#   From: 2010.03.12/outbox.cif.g09.slc.cpg/sg5_35_cif.got.tgz:68743.got - 2010.03.31 09:47:26.
