data_PCOD8052846
_publ_section_title
;
Structure prediction by ZEFSAII (Michael W. Deem and Ramdas Pophale) SiO2 
 PCOD8052846
Probable space group: C M
;
_chemical_formula_sum "Si O2"
_cell_formula_units_Z 32
_cell_length_a 18.407523
_cell_length_b 13.229871
_cell_length_c 14.502801
_cell_angle_alpha 90.000000
_cell_angle_beta 28.483681
_cell_angle_gamma 90.000000
_cell_volume 1684.371381
_symmetry_space_group_name_H-M "C M"
_symmetry_group_IT_number 8
_symmetry_cell_setting 'monoclinic'
loop_
_space_group_symop_operation_xyz
x,y,z
x,-y,z
1/2+x,1/2+y,z
1/2+x,1/2-y,z
loop_
_atom_site_type_symbol
_atom_site_label
_atom_site_fract_x
_atom_site_fract_y
_atom_site_fract_z
Si Si1 0.245990 0.729565 0.359150
Si Si2 0.803649 0.384861 0.811821
Si Si3 0.838152 0.753443 0.053655
Si Si4 0.513307 0.724307 0.194440
Si Si5 0.054467 0.113843 0.322571
Si Si6 0.018167 0.612801 0.736446
Si Si7 0.454666 0.313965 0.613966
Si Si8 0.234006 0.614620 0.014451
O O1 0.334151 0.706271 0.163903
O O2 0.374603 0.763815 0.287411
O O3 0.155580 0.638517 0.511649
O O4 0.122676 0.816713 0.473949
O O5 0.813027 0.500000 0.760490
O O6 0.911251 0.304007 0.638452
O O7 0.859194 0.384090 0.856336
O O8 0.632355 0.341322 0.000433
O O9 0.698914 0.679940 0.188341
O O10 0.822341 0.852236 0.008109
O O11 0.993053 0.691750 0.849944
O O12 0.462176 0.652035 0.335690
O O13 0.581436 0.823484 0.165705
O O14 0.941863 0.121648 0.535204
O O15 0.107919 0.000000 0.245708
O O16 0.048630 0.500000 0.741025
O O17 0.342380 0.368960 0.807338
O O18 0.184849 0.500000 0.080395
#
# Coordination Sequence:
#
# PCOD8052846 Si02
#       8
#     4   4   4   4   4   4   4   4
#     4  10  21  36  56  84 121 145 177 239 299 332
#     4   9  16  32  56  76 105 145 185 225 276 332
#     4  10  19  36  59  83 111 149 191 236 283 336
#     4  10  20  35  53  80 116 142 177 237 287 338
#     4  10  18  32  58  84 106 142 189 233 281 335
#     4  10  18  35  60  87 112 145 197 240 279 337
#     4   9  18  35  54  83 109 144 189 236 274 332
#     4  10  19  37  59  77 106 154 196 226 274 344
#
# _framework density 18.998186
#
# number of rings (size 3 to 8) (size 9 to 14) (size 15 to 20)
#    0.000    2.250    5.000    1.125    0.000    1.500 
#    4.500   10.000    0.000    0.000    0.000    0.000 
#    0.000    0.000    0.000    0.000    0.000    0.000 
#
# Total GULP energy -198209.688311 kJ/mol
# GULP energy per Si atom -12388.105519 kJ/mol
# Density = 1.895495 g / cm^3
# Si number density = 18.998186 Si / 1000 Ang^3
#
#
#
# Elastic Constant Matrix: (Units=GPa)
#
#
# Indices 1 2 3 4 5 6 
#
# 1 89.2896 26.2455 36.6741 0.0000 7.1170 0.0000
# 2 26.2455 112.7180 24.3468 0.0000 3.8602 0.0000
# 3 36.6741 24.3468 72.4905 0.0001 15.7733 -0.0001
# 4 0.0000 0.0000 0.0001 16.2610 0.0000 6.0466
# 5 7.1170 3.8602 15.7733 0.0000 29.4249 0.0000
# 6 0.0000 0.0000 -0.0001 6.0466 0.0000 10.4097
#
#
#
# Elastic Compliance Matrix: (Units=1/GPa)
#
#
# Indices 1 2 3 4 5 6 
#
# 1 0.014522 -0.001930 -0.006780 0.000000 0.000375 0.000000
# 2 -0.001930 0.009829 -0.002429 0.000000 0.000480 0.000000
# 3 -0.006780 -0.002429 0.019941 0.000000 -0.008731 0.000000
# 4 0.000000 0.000000 0.000000 0.078439 0.000000 -0.045563
# 5 0.000375 0.000480 -0.008731 0.000000 0.038511 0.000000
# 6 0.000000 0.000000 0.000000 -0.045563 0.000000 0.122530
#
#
# Mechanical properties :
#
#
# Convention : Reuss Voigt Hill
#
# Bulk Modulus (GPa) = 45.42742 49.89234 47.65988
# Shear Modulus (GPa) = 15.95461 23.70122 19.82791
#
# Velocity S-wave (km/s) = 2.90107 3.53590 3.23410
# Velocity P-wave (km/s) = 5.93169 6.55658 6.25195
#
# Compressibility (1/GPa) = 0.02201314
#
# Stress axis : x y z
#
# Youngs Moduli (GPa) = 68.86252 101.73650 50.14821
#
# Poissons Ratio (x) = 0.19631 0.34002
# Poissons Ratio (y) = 0.13288 0.12183
# Poissons Ratio (z) = 0.46691 0.24716
#
# Static dielectric constant tensor:
#      x y z
#    x 3.345070 0.000000 0.280880 
#    y 0.000000 3.482360 0.000000 
#    z 0.280880 0.000000 3.597740 
# 
# 
# High freq. dielectric constant tensor:
#      x y z
#    x 1.708550 0.000000 0.017640 
#    y 0.000000 1.725670 0.000000 
#    z 0.017640 0.000000 1.736670 
# 
# From -- ./inp_files/27520.got.cif
#   From: 2010.03.12/outbox.cif.g09.slc.cpg/sg8_14_cif.got.tgz:27520.got - 2010.03.31 10:45:26.
