data_PCOD8052093
_publ_section_title
;
Structure prediction by ZEFSAII (Michael W. Deem and Ramdas Pophale) SiO2 
 PCOD8052093
Probable space group: C 2
;
_chemical_formula_sum "Si O2"
_cell_formula_units_Z 20
_cell_length_a 22.304864
_cell_length_b 8.651151
_cell_length_c 4.980772
_cell_angle_alpha 90.000000
_cell_angle_beta 103.108728
_cell_angle_gamma 90.000000
_cell_volume 936.058463
_symmetry_space_group_name_H-M "C 2"
_symmetry_group_IT_number 5
_symmetry_cell_setting 'monoclinic'
loop_
_space_group_symop_operation_xyz
x,y,z
-x,y,-z
1/2+x,1/2+y,z
1/2-x,1/2+y,-z
loop_
_atom_site_type_symbol
_atom_site_label
_atom_site_fract_x
_atom_site_fract_y
_atom_site_fract_z
Si Si1 0.869061 0.370520 0.918339
Si Si2 0.500000 0.998338 0.000000
Si Si3 0.628533 0.349099 0.627839
Si Si4 0.831186 0.026559 0.830233
Si Si5 0.000000 0.710332 0.500000
Si Si6 0.686963 0.024562 0.638918
O O1 0.854167 0.199405 0.803639
O O2 0.840752 0.492584 0.681609
O O3 0.839274 0.399964 0.178207
O O4 0.942479 0.390136 0.015318
O O5 0.518773 0.104066 0.269465
O O6 0.632453 0.411344 0.329282
O O7 0.557749 0.317470 0.630799
O O8 0.668526 0.195581 0.712119
O O9 0.655117 0.479508 0.851005
O O10 0.759693 0.011632 0.693337
#
# Coordination Sequence:
#
# PCOD8052093 Si02
#       6
#     4   2   4   4   2   4
#     4  12  25  43  70  98 134 179 220 276 331 391
#     4  12  22  46  70  96 130 176 234 270 322 408
#     4  12  25  44  70  97 133 179 220 278 332 387
#     4  12  26  42  66 104 138 167 221 281 340 384
#     4  12  24  46  70  96 130 174 238 272 320 408
#     4  12  23  45  68  97 135 182 221 264 328 414
#
# _framework density 21.366188000000001
#
# number of rings (size 3 to 8) (size 9 to 14) (size 15 to 20)
#    0.000    0.000    4.000    7.200    0.000    1.600 
#    0.000    0.000    0.000    0.000    0.000    0.000 
#    0.000    0.000    0.000    0.000    0.000    0.000 
#
# Total GULP energy -124119.217736 kJ/mol
# GULP energy per Si atom -12411.921774 kJ/mol
# Density = 2.131756 g / cm^3
# Si number density = 21.366188 Si / 1000 Ang^3
#
#
#
# Elastic Constant Matrix: (Units=GPa)
#
#
# Indices 1 2 3 4 5 6 
#
# 1 111.9138 40.0403 7.6012 0.0000 9.2454 0.0000
# 2 40.0403 93.3364 13.0143 0.0000 3.8049 0.0000
# 3 7.6012 13.0143 84.1872 0.0000 -2.8328 0.0000
# 4 0.0000 0.0000 0.0000 31.9284 0.0000 -23.1419
# 5 9.2454 3.8049 -2.8328 0.0000 34.5515 0.0000
# 6 0.0000 0.0000 0.0000 -23.1419 0.0000 -17.9751
#
#
#
# Elastic Compliance Matrix: (Units=1/GPa)
#
#
# Indices 1 2 3 4 5 6 
#
# 1 0.010757 -0.004466 -0.000362 0.000000 -0.002416 0.000000
# 2 -0.004466 0.012867 -0.001598 0.000000 -0.000353 0.000000
# 3 -0.000362 -0.001598 0.012201 0.000000 0.001273 0.000000
# 4 0.000000 0.000000 0.000000 0.016202 0.000000 -0.020859
# 5 -0.002416 -0.000353 0.001273 0.000000 0.029732 0.000000
# 6 0.000000 0.000000 0.000000 -0.020859 0.000000 -0.028778
#
#
# Mechanical properties :
#
#
# Convention : Reuss Voigt Hill
#
# Bulk Modulus (GPa) = 43.52820 45.63879 44.58350
# Shear Modulus (GPa) = 68.03637 24.95306 46.49472
#
# Velocity S-wave (km/s) = 5.64908 3.42113 4.66992
# Velocity P-wave (km/s) = 7.93513 6.08376 7.07030
#
# Compressibility (1/GPa) = 0.02297361
#
# Stress axis : x y z
#
# Youngs Moduli (GPa) = 92.95882 77.71887 81.96170
#
# Poissons Ratio (x) = 0.34708 0.02969
# Poissons Ratio (y) = 0.41514 0.13095
# Poissons Ratio (z) = 0.03367 0.12417
#
# Static dielectric constant tensor:
#      x y z
#    x 3.940370 0.000000 -0.012330 
#    y 0.000000 3.711630 0.000000 
#    z -0.012330 0.000000 3.818890 
# 
# 
# High freq. dielectric constant tensor:
#      x y z
#    x 1.853790 0.000000 -0.000090 
#    y 0.000000 1.836610 0.000000 
#    z -0.000090 0.000000 1.852380 
# 
# From -- ./inp_files/9122.got.cif
#   From: 2010.03.12/outbox.cif.g09.slc.cpg/sg5_5_cif.got.tgz:9122.got - 2010.03.31 09:47:26.
