data_PCOD8052449
_publ_section_title
;
Structure prediction by ZEFSAII (Michael W. Deem and Ramdas Pophale) SiO2 
 PCOD8052449
Probable space group: P M
;
_chemical_formula_sum "Si O2"
_cell_formula_units_Z 16
_cell_length_a 16.705974
_cell_length_b 9.037643
_cell_length_c 12.381479
_cell_angle_alpha 90.000000
_cell_angle_beta 153.277500
_cell_angle_gamma 90.000000
_cell_volume 840.607422
_symmetry_space_group_name_H-M "P M"
_symmetry_group_IT_number 6
_symmetry_cell_setting 'monoclinic'
loop_
_space_group_symop_operation_xyz
x,y,z
x,-y,z
loop_
_atom_site_type_symbol
_atom_site_label
_atom_site_fract_x
_atom_site_fract_y
_atom_site_fract_z
Si Si1 0.303300 0.335022 0.227170
Si Si2 0.931296 0.335033 0.855217
Si Si3 0.912100 0.166304 0.044199
Si Si4 0.139530 0.330536 0.484345
Si Si5 0.530720 0.166304 0.662740
Si Si6 0.516097 0.669451 0.860806
Si Si7 0.906005 0.674243 0.407196
Si Si8 0.026514 0.175926 0.768982
O O1 0.360300 0.500000 0.257413
O O2 0.467771 0.253442 0.480538
O O3 0.145755 0.346094 0.126509
O O4 0.225856 0.241503 0.031661
O O5 0.847510 0.500000 0.744691
O O6 0.855821 0.253396 0.868650
O O7 0.890588 0.241516 0.696430
O O8 0.743899 0.168540 0.920963
O O9 0.966112 0.000000 0.076556
O O10 0.075183 0.238694 0.303695
O O11 0.088276 0.500000 0.399983
O O12 0.354273 0.309856 0.751886
O O13 0.041090 0.278643 0.474543
O O14 0.464005 0.238638 0.692433
O O15 0.455052 0.000000 0.565398
O O16 0.534162 0.500000 0.845729
O O17 0.703240 0.721359 0.136524
O O18 0.920611 0.500000 0.451140
O O19 0.962122 0.771144 0.575842
O O20 0.029836 0.000000 0.778928
#
# Coordination Sequence:
#
# PCOD8052449 Si02
#       8
#     2   2   2   2   2   2   2   2
#     4   9  19  35  56  81 107 146 194 235 284 348
#     4   9  19  35  56  81 107 146 194 235 284 348
#     4  11  22  34  52  83 122 157 194 242 299 357
#     4  10  21  37  59  86 115 154 200 243 292 351
#     4  11  22  34  52  83 122 157 194 242 299 357
#     4  10  21  37  59  86 115 154 200 243 292 351
#     4  10  20  38  60  84 118 156 199 248 291 348
#     4  10  20  36  60  84 112 152 195 244 297 352
#
# _framework density 19.033856
#
# number of rings (size 3 to 8) (size 9 to 14) (size 15 to 20)
#    0.750    1.250    1.250    3.000    0.000    6.000 
#    0.000    1.250    0.000    4.500    0.000    0.000 
#    0.000    0.000    0.000    0.000    0.000    0.000 
#
# Total GULP energy -198325.250464 kJ/mol
# GULP energy per Si atom -12395.328154 kJ/mol
# Density = 1.899053 g / cm^3
# Si number density = 19.033856 Si / 1000 Ang^3
#
#
#
# Elastic Constant Matrix: (Units=GPa)
#
#
# Indices 1 2 3 4 5 6 
#
# 1 98.6142 46.7504 46.5855 0.0000 -8.0455 0.0000
# 2 46.7504 145.1178 58.0044 0.0000 -20.6283 0.0000
# 3 46.5855 58.0044 108.6467 0.0000 -10.6231 0.0000
# 4 0.0000 0.0000 0.0000 24.1026 0.0000 -3.0956
# 5 -8.0455 -20.6283 -10.6231 0.0000 32.9366 0.0000
# 6 0.0000 0.0000 0.0000 -3.0956 0.0000 22.4487
#
#
#
# Elastic Compliance Matrix: (Units=1/GPa)
#
#
# Indices 1 2 3 4 5 6 
#
# 1 0.013435 -0.002538 -0.004378 0.000000 0.000280 0.000000
# 2 -0.002538 0.009813 -0.003728 0.000000 0.004324 0.000000
# 3 -0.004378 -0.003728 0.013154 0.000000 0.000838 0.000000
# 4 0.000000 0.000000 0.000000 0.042237 0.000000 0.005824
# 5 0.000280 0.004324 0.000838 0.000000 0.033408 0.000000
# 6 0.000000 0.000000 0.000000 0.005824 0.000000 0.045349
#
#
# Mechanical properties :
#
#
# Convention : Reuss Voigt Hill
#
# Bulk Modulus (GPa) = 66.16806 72.78438 69.47622
# Shear Modulus (GPa) = 27.21483 29.30013 28.25748
#
# Velocity S-wave (km/s) = 3.78539 3.92774 3.85722
# Velocity P-wave (km/s) = 7.34468 7.67411 7.51120
#
# Compressibility (1/GPa) = 0.01511303
#
# Stress axis : x y z
#
# Youngs Moduli (GPa) = 74.43268 101.90105 76.02458
#
# Poissons Ratio (x) = 0.25867 0.33284
# Poissons Ratio (y) = 0.18894 0.28342
# Poissons Ratio (z) = 0.32587 0.37989
#
# Static dielectric constant tensor:
#      x y z
#    x 3.290550 0.000000 0.084290 
#    y 0.000000 3.537070 0.000000 
#    z 0.084290 0.000000 3.244070 
# 
# 
# High freq. dielectric constant tensor:
#      x y z
#    x 1.723750 0.000000 0.001470 
#    y 0.000000 1.747050 0.000000 
#    z 0.001470 0.000000 1.722900 
# 
# From -- ./inp_files/5348.got.cif
#   From: 2010.03.12/outbox.cif.g09.slc.cpg/sg6_3_cif.got.tgz:5348.got - 2010.03.30 10:24:59.
