data_PCOD8052209
_publ_section_title
;
Structure prediction by ZEFSAII (Michael W. Deem and Ramdas Pophale) SiO2 
 PCOD8052209
Probable space group: C 2
;
_chemical_formula_sum "Si O2"
_cell_formula_units_Z 14
_cell_length_a 18.184746
_cell_length_b 4.830583
_cell_length_c 8.364536
_cell_angle_alpha 90.000000
_cell_angle_beta 45.134795
_cell_angle_gamma 90.000000
_cell_volume 520.778412
_symmetry_space_group_name_H-M "C 2"
_symmetry_group_IT_number 5
_symmetry_cell_setting 'monoclinic'
loop_
_space_group_symop_operation_xyz
x,y,z
-x,y,-z
1/2+x,1/2+y,z
1/2-x,1/2+y,-z
loop_
_atom_site_type_symbol
_atom_site_label
_atom_site_fract_x
_atom_site_fract_y
_atom_site_fract_z
Si Si1 0.000000 0.358270 0.500000
Si Si2 0.577791 0.572841 0.091348
Si Si3 0.619837 0.255670 0.556144
Si Si4 0.685065 0.069136 0.785753
O O1 0.925019 0.153838 0.716015
O O2 0.930325 0.545904 0.491995
O O3 0.465946 0.441257 0.220040
O O4 0.668746 0.354339 0.909528
O O5 0.593728 0.856355 0.971275
O O6 0.682017 0.094502 0.598455
O O7 0.701791 0.453188 0.338723
#
# Coordination Sequence:
#
# PCOD8052209 Si02
#       4
#     2   4   4   4
#     4  12  30  58  84 126 184 208 282 358 430 480
#     4  12  29  55  83 128 165 228 270 360 409 505
#     4  12  30  57  84 129 167 220 288 350 407 519
#     4  12  30  51  94 117 169 224 292 329 432 491
#
# _framework density 26.882836999999999
#
# number of rings (size 3 to 8) (size 9 to 14) (size 15 to 20)
#    0.000    0.000    2.857    3.429   16.000    0.000 
#   10.286    0.000    0.000    0.000    0.000    0.000 
#    0.000    0.000    0.000    0.000    0.000    0.000 
#
# Total GULP energy -86832.761081 kJ/mol
# GULP energy per Si atom -12404.680154 kJ/mol
# Density = 2.682165 g / cm^3
# Si number density = 26.882837 Si / 1000 Ang^3
#
#
#
# Elastic Constant Matrix: (Units=GPa)
#
#
# Indices 1 2 3 4 5 6 
#
# 1 101.5442 58.4282 56.6484 0.0000 10.6340 0.0001
# 2 58.4282 163.3217 60.7099 -0.0003 25.7549 0.0002
# 3 56.6484 60.7099 145.9193 0.0000 16.0737 0.0000
# 4 0.0000 -0.0003 0.0000 75.2857 0.0000 6.6779
# 5 10.6340 25.7549 16.0737 0.0000 27.4611 0.0001
# 6 0.0001 0.0002 0.0000 6.6779 0.0001 38.1740
#
#
#
# Elastic Compliance Matrix: (Units=1/GPa)
#
#
# Indices 1 2 3 4 5 6 
#
# 1 0.014136 -0.003605 -0.004016 0.000000 0.000258 0.000000
# 2 -0.003605 0.008990 -0.001674 0.000000 -0.006055 0.000000
# 3 -0.004016 -0.001674 0.009368 0.000000 -0.002359 0.000000
# 4 0.000000 0.000000 0.000000 0.013492 0.000000 -0.002360
# 5 0.000258 -0.006055 -0.002359 0.000000 0.043375 0.000000
# 6 0.000000 0.000000 0.000000 -0.002360 0.000000 0.026609
#
#
# Mechanical properties :
#
#
# Convention : Reuss Voigt Hill
#
# Bulk Modulus (GPa) = 71.92064 84.70647 78.31356
# Shear Modulus (GPa) = 35.92115 43.85074 39.88595
#
# Velocity S-wave (km/s) = 3.65939 4.04317 3.85606
# Velocity P-wave (km/s) = 6.68328 7.30576 7.00144
#
# Compressibility (1/GPa) = 0.01390421
#
# Stress axis : x y z
#
# Youngs Moduli (GPa) = 70.74295 111.24077 106.74110
#
# Poissons Ratio (x) = 0.40099 0.42871
# Poissons Ratio (y) = 0.25501 0.17865
# Poissons Ratio (z) = 0.28413 0.18618
#
# Static dielectric constant tensor:
#      x y z
#    x 4.354030 0.000000 0.021810 
#    y 0.000000 5.265660 0.000000 
#    z 0.021810 0.000000 5.201690 
# 
# 
# High freq. dielectric constant tensor:
#      x y z
#    x 2.053470 0.000000 0.000610 
#    y 0.000000 2.106680 0.000000 
#    z 0.000610 0.000000 2.101610 
# 
# From -- ./inp_files/28120.got.cif
#   From: 2010.03.12/outbox.cif.g09.slc.cpg/sg5_15_cif.got.tgz:28120.got - 2010.03.31 09:47:26.
