data_PCOD8052211
_publ_section_title
;
Structure prediction by ZEFSAII (Michael W. Deem and Ramdas Pophale) SiO2 
 PCOD8052211
Probable space group: C 2
;
_chemical_formula_sum "Si O2"
_cell_formula_units_Z 32
_cell_length_a 21.108084
_cell_length_b 20.760307
_cell_length_c 9.355959
_cell_angle_alpha 90.000000
_cell_angle_beta 27.565550
_cell_angle_gamma 90.000000
_cell_volume 1897.272116
_symmetry_space_group_name_H-M "C 2"
_symmetry_group_IT_number 5
_symmetry_cell_setting 'monoclinic'
loop_
_space_group_symop_operation_xyz
x,y,z
-x,y,-z
1/2+x,1/2+y,z
1/2-x,1/2+y,-z
loop_
_atom_site_type_symbol
_atom_site_label
_atom_site_fract_x
_atom_site_fract_y
_atom_site_fract_z
Si Si1 0.162841 0.803770 0.514891
Si Si2 0.341389 0.547101 0.150056
Si Si3 0.662963 0.422711 0.013318
Si Si4 0.841388 0.047101 0.484392
Si Si5 0.662965 0.422711 0.334826
Si Si6 0.652431 0.162152 0.865188
Si Si7 0.162837 0.803769 0.833753
Si Si8 0.347567 0.162153 0.474915
O O1 0.222770 0.858620 0.290711
O O2 0.223031 0.814717 0.553939
O O3 0.203619 0.733047 0.372619
O O4 0.000002 0.808257 0.848366
O O5 0.315537 0.534628 0.368926
O O6 0.257073 0.608243 0.259845
O O7 0.287182 0.484914 0.173961
O O8 0.500001 0.560957 0.801306
O O9 0.721038 0.426240 0.057923
O O10 0.499999 0.420095 0.339844
O O11 0.722765 0.358619 0.818222
O O12 0.757069 0.108243 0.711872
O O13 0.787179 0.984915 0.677319
O O14 0.703615 0.233047 0.812913
O O15 0.647748 0.162666 0.704505
O O16 0.499998 0.147443 0.230106
#
# Coordination Sequence:
#
# PCOD8052211 Si02
#       8
#     4   4   4   4   4   4   4   4
#     4   8  13  23  40  59  77 100 133 170 203 235
#     4   9  16  26  42  63  84 106 133 165 200 238
#     4   9  16  25  38  58  83 108 135 168 202 235
#     4   9  16  26  42  63  84 106 133 165 200 238
#     4   9  16  25  38  58  83 108 135 168 202 235
#     4   8  14  25  42  63  84 105 131 165 203 240
#     4   8  13  23  40  59  77 100 133 170 203 235
#     4   8  14  25  42  63  84 105 131 165 203 240
#
# _framework density 16.866320000000002
#
# number of rings (size 3 to 8) (size 9 to 14) (size 15 to 20)
#    0.000    3.500    0.000    2.250    0.000    3.000 
#    0.000    1.250    0.000    3.750    0.000    7.000 
#    0.000    0.000    0.000    0.000    0.000    0.000 
#
# Total GULP energy -198298.317619 kJ/mol
# GULP energy per Si atom -12393.644851 kJ/mol
# Density = 1.682793 g / cm^3
# Si number density = 16.866320 Si / 1000 Ang^3
#
#
#
# Elastic Constant Matrix: (Units=GPa)
#
#
# Indices 1 2 3 4 5 6 
#
# 1 58.0751 64.8770 28.8812 0.0017 12.9972 -0.0007
# 2 64.8770 192.2307 55.2684 0.0014 8.6922 -0.0002
# 3 28.8812 55.2684 38.0044 0.0068 5.1586 0.0011
# 4 0.0017 0.0014 0.0068 20.5122 -0.0016 -7.8243
# 5 12.9972 8.6922 5.1586 -0.0016 14.5055 0.0009
# 6 -0.0007 -0.0002 0.0011 -7.8243 0.0009 11.8695
#
#
#
# Elastic Compliance Matrix: (Units=1/GPa)
#
#
# Indices 1 2 3 4 5 6 
#
# 1 0.038773 -0.007665 -0.014947 0.000003 -0.024832 0.000008
# 2 -0.007665 0.010464 -0.009953 0.000005 0.004138 0.000004
# 3 -0.014947 -0.009953 0.052031 -0.000024 0.000854 -0.000021
# 4 0.000003 0.000005 -0.000024 0.065127 0.000007 0.042932
# 5 -0.024832 0.004138 0.000854 0.000007 0.088407 -0.000004
# 6 0.000008 0.000004 -0.000021 0.042932 -0.000004 0.112550
#
#
# Mechanical properties :
#
#
# Convention : Reuss Voigt Hill
#
# Bulk Modulus (GPa) = 27.67351 65.15150 46.41250
# Shear Modulus (GPa) = 11.24787 18.66301 14.95544
#
# Velocity S-wave (km/s) = 2.58521 3.33006 2.98099
# Velocity P-wave (km/s) = 5.03530 7.31421 6.27901
#
# Compressibility (1/GPa) = 0.03613564
#
# Stress axis : x y z
#
# Youngs Moduli (GPa) = 25.79105 95.56815 19.21945
#
# Poissons Ratio (x) = 0.73257 0.28727
# Poissons Ratio (y) = 0.19770 0.19130
# Poissons Ratio (z) = 0.38550 0.95123
#
# Static dielectric constant tensor:
#      x y z
#    x 2.988030 0.000000 0.134970 
#    y 0.000000 3.581450 0.000000 
#    z 0.134970 0.000000 2.838850 
# 
# 
# High freq. dielectric constant tensor:
#      x y z
#    x 1.614660 0.000000 0.015290 
#    y 0.000000 1.668820 0.000000 
#    z 0.015290 0.000000 1.597760 
# 
# From -- ./inp_files/21616.got.cif
#   From: 2010.03.12/outbox.cif.g09.slc.cpg/sg5_11_cif.got.tgz:21616.got - 2010.03.31 09:47:26.
