data_PCOD8052883
_publ_section_title
;
Structure prediction by ZEFSAII (Michael W. Deem and Ramdas Pophale) SiO2 
 PCOD8052883
Probable space group: C M
;
_chemical_formula_sum "Si O2"
_cell_formula_units_Z 32
_cell_length_a 20.100691
_cell_length_b 8.774379
_cell_length_c 25.000741
_cell_angle_alpha 90.000000
_cell_angle_beta 156.662400
_cell_angle_gamma 90.000000
_cell_volume 1746.778674
_symmetry_space_group_name_H-M "C M"
_symmetry_group_IT_number 8
_symmetry_cell_setting 'monoclinic'
loop_
_space_group_symop_operation_xyz
x,y,z
x,-y,z
1/2+x,1/2+y,z
1/2+x,1/2-y,z
loop_
_atom_site_type_symbol
_atom_site_label
_atom_site_fract_x
_atom_site_fract_y
_atom_site_fract_z
Si Si1 0.837850 0.177439 0.701070
Si Si2 0.330892 0.819840 0.344842
Si Si3 0.642649 0.322207 0.855153
Si Si4 0.516018 0.178227 0.160745
Si Si5 0.655212 0.819900 0.377114
Si Si6 0.018248 0.320473 0.655170
Si Si7 0.546661 0.820775 0.409096
Si Si8 0.126103 0.820073 0.631095
O O1 0.715396 0.234880 0.563348
O O2 0.792125 0.269272 0.721054
O O3 0.027214 0.211282 0.821936
O O4 0.808298 0.000000 0.691571
O O5 0.384924 0.768563 0.324434
O O6 0.454951 0.742815 0.478818
O O7 0.141369 0.766634 0.213950
O O8 0.346608 0.000000 0.363841
O O9 0.631729 0.500000 0.831888
O O10 0.579869 0.225140 0.759138
O O11 0.829077 0.270335 0.008108
O O12 0.549348 0.223866 0.246715
O O13 0.543065 0.000000 0.171669
O O14 0.831038 0.735176 0.505644
O O15 0.547944 0.759014 0.349184
O O16 0.690865 0.000000 0.406692
O O17 0.026126 0.500000 0.654840
O O18 0.141651 0.244945 0.702521
O O19 0.548955 0.000000 0.407405
O O20 0.115343 0.000000 0.625169
#
# Coordination Sequence:
#
# PCOD8052883 Si02
#       8
#     4   4   4   4   4   4   4   4
#     4   9  17  33  55  79 110 148 186 229 278 332
#     4  10  19  33  53  80 114 149 184 229 278 327
#     4  10  21  39  58  80 115 156 191 227 278 339
#     4  10  21  35  57  84 112 151 191 225 274 340
#     4  10  18  34  57  82 110 144 185 230 277 330
#     4  12  23  35  55  85 112 143 191 240 282 330
#     4   8  15  29  52  78 105 141 183 223 270 321
#     4  11  21  34  55  82 112 146 185 235 285 333
#
# _framework density 18.319437000000001
#
# number of rings (size 3 to 8) (size 9 to 14) (size 15 to 20)
#    0.000    2.000    2.500    3.375    0.000    1.000 
#    0.000    1.875    0.000    3.000    0.000    0.000 
#    0.000    0.000    0.000    0.000    0.000    0.000 
#
# Total GULP energy -198377.830083 kJ/mol
# GULP energy per Si atom -12398.614380 kJ/mol
# Density = 1.827774 g / cm^3
# Si number density = 18.319437 Si / 1000 Ang^3
#
#
#
# Elastic Constant Matrix: (Units=GPa)
#
#
# Indices 1 2 3 4 5 6 
#
# 1 136.9996 50.7600 44.3672 0.0051 18.0483 -0.0023
# 2 50.7600 87.6088 42.9141 0.0030 3.8878 0.0025
# 3 44.3672 42.9141 85.5825 -0.0044 14.6904 -0.0002
# 4 0.0051 0.0030 -0.0044 14.4015 0.0011 7.2603
# 5 18.0483 3.8878 14.6904 0.0011 28.0196 -0.0008
# 6 -0.0023 0.0025 -0.0002 7.2603 -0.0008 28.0087
#
#
#
# Elastic Compliance Matrix: (Units=1/GPa)
#
#
# Indices 1 2 3 4 5 6 
#
# 1 0.010409 -0.004749 -0.002173 -0.000004 -0.004907 0.000002
# 2 -0.004749 0.017407 -0.007008 -0.000004 0.004318 -0.000001
# 3 -0.002173 -0.007008 0.017492 0.000009 -0.006799 -0.000002
# 4 -0.000004 -0.000004 0.000009 0.079875 -0.000005 -0.020705
# 5 -0.004907 0.004318 -0.006799 -0.000005 0.041815 0.000002
# 6 0.000002 -0.000001 -0.000002 -0.020705 0.000002 0.041070
#
#
# Mechanical properties :
#
#
# Convention : Reuss Voigt Hill
#
# Bulk Modulus (GPa) = 57.30885 65.14151 61.22518
# Shear Modulus (GPa) = 20.68315 25.56261 23.12288
#
# Velocity S-wave (km/s) = 3.36375 3.73953 3.55661
# Velocity P-wave (km/s) = 6.81450 7.36759 7.09643
#
# Compressibility (1/GPa) = 0.01744931
#
# Stress axis : x y z
#
# Youngs Moduli (GPa) = 96.07275 57.44866 57.16925
#
# Poissons Ratio (x) = 0.27281 0.12421
# Poissons Ratio (y) = 0.45623 0.40062
# Poissons Ratio (z) = 0.20873 0.40258
#
# Static dielectric constant tensor:
#      x y z
#    x 3.922610 -0.000020 0.101200 
#    y -0.000020 3.222950 -0.000010 
#    z 0.101200 -0.000010 3.189440 
# 
# 
# High freq. dielectric constant tensor:
#      x y z
#    x 1.730550 0.000000 0.012540 
#    y 0.000000 1.697290 0.000000 
#    z 0.012540 0.000000 1.678350 
# 
# From -- ./inp_files/24308.got.cif
#   From: 2010.03.12/outbox.cif.g09.slc.cpg/sg8_13_cif.got.tgz:24308.got - 2010.03.31 10:45:26.
