data_PCOD8052769
_publ_section_title
;
Structure prediction by ZEFSAII (Michael W. Deem and Ramdas Pophale) SiO2 
 PCOD8052769
Probable space group: C M
;
_chemical_formula_sum "Si O2"
_cell_formula_units_Z 32
_cell_length_a 19.238786
_cell_length_b 8.817055
_cell_length_c 11.565309
_cell_angle_alpha 90.000000
_cell_angle_beta 109.098835
_cell_angle_gamma 90.000000
_cell_volume 1853.829725
_symmetry_space_group_name_H-M "C M"
_symmetry_group_IT_number 8
_symmetry_cell_setting 'monoclinic'
loop_
_space_group_symop_operation_xyz
x,y,z
x,-y,z
1/2+x,1/2+y,z
1/2+x,1/2-y,z
loop_
_atom_site_type_symbol
_atom_site_label
_atom_site_fract_x
_atom_site_fract_y
_atom_site_fract_z
Si Si1 0.648550 0.175985 0.537860
Si Si2 0.935792 0.679259 0.654053
Si Si3 0.584346 0.321584 0.716953
Si Si4 0.239625 0.179403 0.906160
Si Si5 0.307229 0.323305 0.730680
Si Si6 0.212526 0.826056 0.375195
Si Si7 0.277388 0.172842 0.180399
Si Si8 0.857057 0.178553 0.414147
O O1 0.591626 0.261596 0.589467
O O2 0.730661 0.210500 0.625852
O O3 0.644342 0.247605 0.405484
O O4 0.628136 0.000000 0.523593
O O5 0.935380 0.500000 0.650362
O O6 0.874332 0.735824 0.709147
O O7 0.925038 0.744201 0.517532
O O8 0.015068 0.740083 0.739469
O O9 0.571447 0.500000 0.708148
O O10 0.656271 0.275168 0.829195
O O11 0.298438 0.263141 0.856960
O O12 0.250652 0.000000 0.900682
O O13 0.254368 0.239261 0.044379
O O14 0.326438 0.500000 0.741804
O O15 0.207123 0.816632 0.231428
O O16 0.285888 0.731173 0.450411
O O17 0.220831 0.000000 0.420526
O O18 0.346351 0.264278 0.275317
O O19 0.303421 0.000000 0.181654
O O20 0.866856 0.000000 0.422671
#
# Coordination Sequence:
#
# PCOD8052769 Si02
#       8
#     4   4   4   4   4   4   4   4
#     4  10  18  30  48  73 103 130 165 208 250 297
#     4  12  22  34  51  73 103 136 169 207 256 308
#     4  10  21  34  51  73 104 137 167 206 253 304
#     4   9  18  34  53  75 102 135 170 206 247 296
#     4  10  19  30  49  74 100 129 167 212 250 292
#     4   9  16  27  47  73  99 127 159 201 248 292
#     4   8  16  30  49  74 101 130 167 207 249 294
#     4  10  18  29  48  75 100 126 162 207 251 295
#
# _framework density 17.261564
#
# number of rings (size 3 to 8) (size 9 to 14) (size 15 to 20)
#    0.750    1.500    1.250    3.375    0.000    2.000 
#    0.000    0.000    0.000    1.500    0.000    1.750 
#    0.000    0.000    0.000    0.000    0.000    0.000 
#
# Total GULP energy -198262.208438 kJ/mol
# GULP energy per Si atom -12391.388027 kJ/mol
# Density = 1.722228 g / cm^3
# Si number density = 17.261564 Si / 1000 Ang^3
#
#
#
# Elastic Constant Matrix: (Units=GPa)
#
#
# Indices 1 2 3 4 5 6 
#
# 1 77.7429 45.3451 36.5385 0.0000 -4.5787 0.0000
# 2 45.3451 115.1054 40.2447 0.0000 -2.5279 0.0000
# 3 36.5385 40.2447 99.9215 0.0000 -8.7081 0.0000
# 4 0.0000 0.0000 0.0000 22.7346 0.0000 -4.6314
# 5 -4.5787 -2.5279 -8.7081 0.0000 16.3665 0.0000
# 6 0.0000 0.0000 0.0000 -4.6314 0.0000 28.1668
#
#
#
# Elastic Compliance Matrix: (Units=1/GPa)
#
#
# Indices 1 2 3 4 5 6 
#
# 1 0.018278 -0.005680 -0.004222 0.000000 0.001989 0.000000
# 2 -0.005680 0.011883 -0.002818 0.000000 -0.001253 0.000000
# 3 -0.004222 -0.002818 0.013156 0.000000 0.005383 0.000000
# 4 0.000000 0.000000 0.000000 0.045510 0.000000 0.007483
# 5 0.001989 -0.001253 0.005383 0.000000 0.064328 0.000000
# 6 0.000000 0.000000 0.000000 0.007483 0.000000 0.036733
#
#
# Mechanical properties :
#
#
# Convention : Reuss Voigt Hill
#
# Bulk Modulus (GPa) = 55.94385 59.66961 57.80673
# Shear Modulus (GPa) = 22.59491 24.82970 23.71230
#
# Velocity S-wave (km/s) = 3.62190 3.79679 3.71037
# Velocity P-wave (km/s) = 7.06900 7.33919 7.20536
#
# Compressibility (1/GPa) = 0.01787507
#
# Stress axis : x y z
#
# Youngs Moduli (GPa) = 54.71110 84.15191 76.01045
#
# Poissons Ratio (x) = 0.47802 0.32095
# Poissons Ratio (y) = 0.31078 0.21421
# Poissons Ratio (z) = 0.23101 0.23715
#
# Static dielectric constant tensor:
#      x y z
#    x 3.015580 0.000000 -0.166310 
#    y 0.000000 3.187020 0.000000 
#    z -0.166310 0.000000 3.252920 
# 
# 
# High freq. dielectric constant tensor:
#      x y z
#    x 1.635390 0.000000 -0.019780 
#    y 0.000000 1.678490 0.000000 
#    z -0.019780 0.000000 1.649280 
# 
# From -- ./inp_files/23600.got.cif
#   From: 2010.03.12/outbox.cif.g09.slc.cpg/sg8_12_cif.got.tgz:23600.got - 2010.03.31 10:45:26.
