data_PCOD8052444
_publ_section_title
;
Structure prediction by ZEFSAII (Michael W. Deem and Ramdas Pophale) SiO2 
 PCOD8052444
Probable space group: P M
;
_chemical_formula_sum "Si O2"
_cell_formula_units_Z 16
_cell_length_a 12.112574
_cell_length_b 8.900360
_cell_length_c 9.888630
_cell_angle_alpha 90.000000
_cell_angle_beta 125.574746
_cell_angle_gamma 90.000000
_cell_volume 867.084639
_symmetry_space_group_name_H-M "P M"
_symmetry_group_IT_number 6
_symmetry_cell_setting 'monoclinic'
loop_
_space_group_symop_operation_xyz
x,y,z
x,-y,z
loop_
_atom_site_type_symbol
_atom_site_label
_atom_site_fract_x
_atom_site_fract_y
_atom_site_fract_z
Si Si1 0.096100 0.325225 0.724840
Si Si2 0.334251 0.827646 0.385664
Si Si3 0.274747 0.824717 0.642695
Si Si4 0.590653 0.176684 0.202222
Si Si5 0.557735 0.322799 0.905966
Si Si6 0.630408 0.827486 0.693843
Si Si7 0.316740 0.674821 0.104780
Si Si8 0.816533 0.826272 0.580097
O O1 0.100670 0.500000 0.692898
O O2 0.141754 0.233709 0.624538
O O3 0.945093 0.279128 0.655596
O O4 0.192247 0.284811 0.918894
O O5 0.255080 0.794401 0.468947
O O6 0.492751 0.788081 0.516216
O O7 0.273226 0.721922 0.225500
O O8 0.316010 0.000000 0.328216
O O9 0.404409 0.737038 0.791702
O O10 0.298454 0.000000 0.687354
O O11 0.446149 0.230381 0.153080
O O12 0.705622 0.221100 0.390920
O O13 0.583296 0.000000 0.174292
O O14 0.630024 0.256453 0.089941
O O15 0.553014 0.500000 0.913411
O O16 0.644518 0.274449 0.836994
O O17 0.757030 0.796439 0.687017
O O18 0.623619 0.000000 0.736868
O O19 0.353389 0.500000 0.125105
O O20 0.857929 0.000000 0.592569
#
# Coordination Sequence:
#
# PCOD8052444 Si02
#       8
#     2   2   2   2   2   2   2   2
#     4  11  24  39  56  84 120 153 189 234 289 348
#     4   9  18  34  57  85 112 142 188 238 281 330
#     4  10  20  36  58  82 112 153 195 234 280 336
#     4  11  21  37  60  85 112 148 193 241 281 333
#     4  11  21  33  54  88 119 146 185 236 291 340
#     4   9  18  36  57  82 113 148 190 235 282 339
#     4  11  22  35  55  86 118 148 187 234 285 342
#     4  10  22  40  61  84 112 150 197 236 281 342
#
# _framework density 18.452638
#
# number of rings (size 3 to 8) (size 9 to 14) (size 15 to 20)
#    0.000    1.750    2.500    3.375    0.000    5.500 
#    0.000    1.250    0.000    1.500    0.000    0.000 
#    0.000    0.000    0.000    0.000    0.000    0.000 
#
# Total GULP energy -198462.622738 kJ/mol
# GULP energy per Si atom -12403.913921 kJ/mol
# Density = 1.841064 g / cm^3
# Si number density = 18.452638 Si / 1000 Ang^3
#
#
#
# Elastic Constant Matrix: (Units=GPa)
#
#
# Indices 1 2 3 4 5 6 
#
# 1 106.1808 49.4660 53.5794 0.0000 -7.7052 0.0000
# 2 49.4660 104.9321 59.0174 0.0000 -6.3338 0.0000
# 3 53.5794 59.0174 97.9765 0.0000 -11.7001 0.0000
# 4 0.0000 0.0000 0.0000 27.4274 0.0000 0.8025
# 5 -7.7052 -6.3338 -11.7001 0.0000 27.9078 0.0000
# 6 0.0000 0.0000 0.0000 0.8025 0.0000 25.2992
#
#
#
# Elastic Compliance Matrix: (Units=1/GPa)
#
#
# Indices 1 2 3 4 5 6 
#
# 1 0.013786 -0.003424 -0.005384 0.000000 0.000772 0.000000
# 2 -0.003424 0.015267 -0.007393 0.000000 -0.000580 0.000000
# 3 -0.005384 -0.007393 0.018134 0.000000 0.004438 0.000000
# 4 0.000000 0.000000 0.000000 0.036494 0.000000 -0.001158
# 5 0.000772 -0.000580 0.004438 0.000000 0.037774 0.000000
# 6 0.000000 0.000000 0.000000 -0.001158 0.000000 0.039564
#
#
# Mechanical properties :
#
#
# Convention : Reuss Voigt Hill
#
# Bulk Modulus (GPa) = 67.63819 70.35721 68.99770
# Shear Modulus (GPa) = 25.20785 25.92866 25.56826
#
# Velocity S-wave (km/s) = 3.70007 3.75260 3.72642
# Velocity P-wave (km/s) = 7.41543 7.54899 7.48251
#
# Compressibility (1/GPa) = 0.01478455
#
# Stress axis : x y z
#
# Youngs Moduli (GPa) = 72.53752 65.49970 55.14353
#
# Poissons Ratio (x) = 0.22426 0.29692
# Poissons Ratio (y) = 0.24836 0.40769
# Poissons Ratio (z) = 0.39057 0.48426
#
# Static dielectric constant tensor:
#      x y z
#    x 3.351410 0.000000 -0.279560 
#    y 0.000000 3.386820 0.000000 
#    z -0.279560 0.000000 3.471720 
# 
# 
# High freq. dielectric constant tensor:
#      x y z
#    x 1.708990 0.000000 -0.025410 
#    y 0.000000 1.721710 0.000000 
#    z -0.025410 0.000000 1.707510 
# 
# From -- ./inp_files/3797.got.cif
#   From: 2010.03.12/outbox.cif.g09.slc.cpg/sg6_2_cif.got.tgz:3797.got - 2010.03.30 10:24:59.
