data_PCOD8052954
_publ_section_title
;
Structure prediction by ZEFSAII (Michael W. Deem and Ramdas Pophale) SiO2 
 PCOD8052954
Probable space group: C M
;
_chemical_formula_sum "Si O2"
_cell_formula_units_Z 28
_cell_length_a 8.946548
_cell_length_b 24.681184
_cell_length_c 11.494742
_cell_angle_alpha 90.000000
_cell_angle_beta 38.898512
_cell_angle_gamma 90.000000
_cell_volume 1593.825721
_symmetry_space_group_name_H-M "C M"
_symmetry_group_IT_number 8
_symmetry_cell_setting 'monoclinic'
loop_
_space_group_symop_operation_xyz
x,y,z
x,-y,z
1/2+x,1/2+y,z
1/2+x,1/2-y,z
loop_
_atom_site_type_symbol
_atom_site_label
_atom_site_fract_x
_atom_site_fract_y
_atom_site_fract_z
Si Si1 0.962690 0.661199 0.056080
Si Si2 0.187127 0.561227 0.344266
Si Si3 0.429038 0.650541 0.340481
Si Si4 0.291265 0.377711 0.055967
Si Si5 0.263594 0.061233 0.767626
Si Si6 0.024939 0.212661 0.056064
Si Si7 0.497770 0.849502 0.771703
O O1 0.687401 0.645245 0.242349
O O2 0.993295 0.724599 0.055910
O O3 0.113977 0.627307 0.056117
O O4 0.059757 0.645169 0.869919
O O5 0.283095 0.500000 0.275655
O O6 0.373689 0.593491 0.311736
O O7 0.925636 0.563091 0.555911
O O8 0.160370 0.588601 0.235497
O O9 0.434109 0.697704 0.240419
O O10 0.233529 0.665574 0.556112
O O11 0.519537 0.411311 0.876167
O O12 0.366768 0.318457 0.056094
O O13 0.385024 0.093451 0.800297
O O14 0.221969 0.000000 0.836367
O O15 0.302742 0.197660 0.871785
#
# Coordination Sequence:
#
# PCOD8052954 Si02
#       7
#     4   4   4   4   4   4   4
#     4  11  21  33  49  76 111 132 155 207 258 293
#     4   9  18  35  56  73  94 130 173 209 241 290
#     4   9  19  35  54  75  98 131 172 205 242 295
#     4  10  19  31  51  77 102 129 162 202 251 300
#     4   9  18  35  56  73  94 130 173 209 241 290
#     4   9  19  36  52  69  99 137 172 201 235 291
#     4   9  19  35  54  75  98 131 172 205 242 295
#
# _framework density 17.567793000000002
#
# number of rings (size 3 to 8) (size 9 to 14) (size 15 to 20)
#    0.000    2.571    0.000    3.000    0.000    2.286 
#    0.000    8.571    0.000    3.429    0.000    0.000 
#    0.000    0.000    0.000    0.000    0.000    0.000 
#
# Total GULP energy -173604.639545 kJ/mol
# GULP energy per Si atom -12400.331396 kJ/mol
# Density = 1.752781 g / cm^3
# Si number density = 17.567793 Si / 1000 Ang^3
#
#
#
# Elastic Constant Matrix: (Units=GPa)
#
#
# Indices 1 2 3 4 5 6 
#
# 1 145.5798 58.4742 69.9854 0.0000 -0.6687 0.0000
# 2 58.4742 127.0523 52.9755 0.0000 -0.2579 0.0000
# 3 69.9854 52.9755 139.9132 0.0000 0.2483 0.0000
# 4 0.0000 0.0000 0.0000 21.0855 0.0000 0.0996
# 5 -0.6687 -0.2579 0.2483 0.0000 19.1968 0.0000
# 6 0.0000 0.0000 0.0000 0.0996 0.0000 12.8908
#
#
#
# Elastic Compliance Matrix: (Units=1/GPa)
#
#
# Indices 1 2 3 4 5 6 
#
# 1 0.009902 -0.002958 -0.003834 0.000000 0.000355 0.000000
# 2 -0.002958 0.010231 -0.002394 0.000000 0.000065 0.000000
# 3 -0.003834 -0.002394 0.009972 0.000000 -0.000295 0.000000
# 4 0.000000 0.000000 0.000000 0.047428 0.000000 -0.000366
# 5 0.000355 0.000065 -0.000295 0.000000 0.052109 0.000000
# 6 0.000000 0.000000 0.000000 -0.000366 0.000000 0.077577
#
#
# Mechanical properties :
#
#
# Convention : Reuss Voigt Hill
#
# Bulk Modulus (GPa) = 85.23094 86.15727 85.69410
# Shear Modulus (GPa) = 21.78641 26.04195 23.91418
#
# Velocity S-wave (km/s) = 3.52537 3.85433 3.69352
# Velocity P-wave (km/s) = 8.07414 8.30404 8.18990
#
# Compressibility (1/GPa) = 0.01173283
#
# Stress axis : x y z
#
# Youngs Moduli (GPa) = 100.99199 97.74661 100.28213
#
# Poissons Ratio (x) = 0.28914 0.38444
# Poissons Ratio (y) = 0.29874 0.24009
# Poissons Ratio (z) = 0.38716 0.23401
#
# Static dielectric constant tensor:
#      x y z
#    x 3.172220 0.000000 0.005640 
#    y 0.000000 3.277990 0.000000 
#    z 0.005640 0.000000 3.660660 
# 
# 
# High freq. dielectric constant tensor:
#      x y z
#    x 1.666700 0.000000 0.000300 
#    y 0.000000 1.677980 0.000000 
#    z 0.000300 0.000000 1.691310 
# 
# From -- ./inp_files/19331.got.cif
#   From: 2010.03.12/outbox.cif.g09.slc.cpg/sg8_10_cif.got.tgz:19331.got - 2010.03.31 10:45:26.
