data_PCOD8052616
_publ_section_title
;
Structure prediction by ZEFSAII (Michael W. Deem and Ramdas Pophale) SiO2 
 PCOD8052616
Probable space group: P C
;
_chemical_formula_sum "Si O2"
_cell_formula_units_Z 14
_cell_length_a 9.058706
_cell_length_b 13.440779
_cell_length_c 5.203436
_cell_angle_alpha 90.000000
_cell_angle_beta 99.631113
_cell_angle_gamma 90.000000
_cell_volume 624.620219
_symmetry_space_group_name_H-M "P C"
_symmetry_group_IT_number 7
_symmetry_cell_setting 'monoclinic'
loop_
_space_group_symop_operation_xyz
x,y,z
x,-y,1/2+z
loop_
_atom_site_type_symbol
_atom_site_label
_atom_site_fract_x
_atom_site_fract_y
_atom_site_fract_z
Si Si1 0.412940 0.061873 0.973670
Si Si2 0.537416 0.445172 0.263613
Si Si3 0.834150 0.769117 0.188375
Si Si4 0.070617 0.380989 0.650256
Si Si5 0.065962 0.938232 0.377971
Si Si6 0.195186 0.406400 0.184467
Si Si7 0.646986 0.230180 0.151282
O O1 0.239590 0.092482 0.924748
O O2 0.453909 0.016825 0.708275
O O3 0.508406 0.160020 0.048498
O O4 0.601282 0.487972 0.549487
O O5 0.358598 0.453031 0.232442
O O6 0.583828 0.332519 0.242056
O O7 0.735612 0.753061 0.413113
O O8 0.902653 0.662539 0.117757
O O9 0.969257 0.841111 0.299846
O O10 0.744872 0.813985 0.916551
O O11 0.156521 0.339284 0.421657
O O12 0.076057 0.501320 0.646092
O O13 0.164955 0.340687 0.923226
O O14 0.026257 0.981938 0.645582
#
# Coordination Sequence:
#
# PCOD8052616 Si02
#       7
#     2   2   2   2   2   2   2
#     4  10  23  46  73 104 135 176 231 288 341 404
#     4  12  23  45  67  95 136 180 235 281 338 403
#     4  12  26  45  64 103 141 180 226 275 346 419
#     4  10  20  38  62  92 124 162 223 274 316 394
#     4  10  23  44  71 103 133 173 228 287 338 398
#     4  10  19  39  65  93 117 165 231 271 333 370
#     4  12  28  45  66 104 144 186 226 272 356 424
#
# _framework density 22.413620999999999
#
# number of rings (size 3 to 8) (size 9 to 14) (size 15 to 20)
#    0.000    1.143    2.857    3.429    2.000    3.429 
#   20.571    0.000    0.000    0.000    0.000    0.000 
#    0.000    0.000    0.000    0.000    0.000    0.000 
#
# Total GULP energy -173551.719780 kJ/mol
# GULP energy per Si atom -12396.551413 kJ/mol
# Density = 2.236261 g / cm^3
# Si number density = 22.413621 Si / 1000 Ang^3
#
#
#
# Elastic Constant Matrix: (Units=GPa)
#
#
# Indices 1 2 3 4 5 6 
#
# 1 78.8410 51.6023 40.3758 0.0000 -3.0527 0.0000
# 2 51.6023 88.2456 18.4389 0.0000 7.5632 0.0000
# 3 40.3758 18.4389 186.9717 0.0000 -14.5694 0.0000
# 4 0.0000 0.0000 0.0000 29.8962 0.0000 4.1440
# 5 -3.0527 7.5632 -14.5694 0.0000 35.9033 0.0000
# 6 0.0000 0.0000 0.0000 4.1440 0.0000 23.6488
#
#
#
# Elastic Compliance Matrix: (Units=1/GPa)
#
#
# Indices 1 2 3 4 5 6 
#
# 1 0.023157 -0.013106 -0.003449 0.000000 0.003330 0.000000
# 2 -0.013106 0.019308 0.000539 0.000000 -0.004963 0.000000
# 3 -0.003449 0.000539 0.006204 0.000000 0.002111 0.000000
# 4 0.000000 0.000000 0.000000 0.034282 0.000000 -0.006007
# 5 0.003330 -0.004963 0.002111 0.000000 0.030038 0.000000
# 6 0.000000 0.000000 0.000000 -0.006007 0.000000 0.043338
#
#
# Mechanical properties :
#
#
# Convention : Reuss Voigt Hill
#
# Bulk Modulus (GPa) = 60.09937 63.87693 61.98815
# Shear Modulus (GPa) = 25.78594 34.13242 29.95918
#
# Velocity S-wave (km/s) = 3.39552 3.90660 3.65999
# Velocity P-wave (km/s) = 6.49959 6.99355 6.75109
#
# Compressibility (1/GPa) = 0.01663911
#
# Stress axis : x y z
#
# Youngs Moduli (GPa) = 43.18395 51.79080 161.17526
#
# Poissons Ratio (x) = 0.67877 0.55583
# Poissons Ratio (y) = 0.56597 -0.08692
# Poissons Ratio (z) = 0.14892 -0.02793
#
# Static dielectric constant tensor:
#      x y z
#    x 4.047730 0.000000 -0.235280 
#    y 0.000000 3.639070 0.000000 
#    z -0.235280 0.000000 5.494120 
# 
# 
# High freq. dielectric constant tensor:
#      x y z
#    x 1.875800 0.000000 -0.006460 
#    y 0.000000 1.858710 0.000000 
#    z -0.006460 0.000000 1.920970 
# 
# From -- ./inp_files/560.got.cif
#   From: 2010.03.12/outbox.cif.g09.slc.cpg/sg7_cif.got.tgz:560.got - 2010.03.30 08:40:41.
