data_PCOD8052754
_publ_section_title
;
Structure prediction by ZEFSAII (Michael W. Deem and Ramdas Pophale) SiO2 
 PCOD8052754
Probable space group: C M
;
_chemical_formula_sum "Si O2"
_cell_formula_units_Z 32
_cell_length_a 25.010614
_cell_length_b 8.705753
_cell_length_c 9.705907
_cell_angle_alpha 90.000000
_cell_angle_beta 118.347903
_cell_angle_gamma 90.000000
_cell_volume 1859.898766
_symmetry_space_group_name_H-M "C M"
_symmetry_group_IT_number 8
_symmetry_cell_setting 'monoclinic'
loop_
_space_group_symop_operation_xyz
x,y,z
x,-y,z
1/2+x,1/2+y,z
1/2+x,1/2-y,z
loop_
_atom_site_type_symbol
_atom_site_label
_atom_site_fract_x
_atom_site_fract_y
_atom_site_fract_z
Si Si1 0.313650 0.177666 0.403620
Si Si2 0.182647 0.682188 0.749883
Si Si3 0.546199 0.177729 0.548283
Si Si4 0.863080 0.821297 0.942651
Si Si5 0.775062 0.319133 0.054921
Si Si6 0.453823 0.175265 0.221543
Si Si7 0.271084 0.178432 0.643608
Si Si8 0.929154 0.179654 0.460885
O O1 0.278472 0.224377 0.220697
O O2 0.269454 0.213730 0.478340
O O3 0.376327 0.272990 0.502493
O O4 0.331999 0.000000 0.425519
O O5 0.185294 0.500000 0.774049
O O6 0.113693 0.742487 0.647313
O O7 0.219067 0.724155 0.655572
O O8 0.209058 0.767976 0.916540
O O9 0.523652 0.199785 0.359459
O O10 0.497865 0.267281 0.588433
O O11 0.543223 0.000000 0.585911
O O12 0.837519 0.728218 0.780785
O O13 0.859221 0.000000 0.905241
O O14 0.823382 0.778077 0.027321
O O15 0.933331 0.773445 0.062313
O O16 0.784933 0.500000 0.042147
O O17 0.411433 0.230417 0.297966
O O18 0.439257 0.000000 0.169597
O O19 0.260163 0.000000 0.662231
O O20 0.929187 0.000000 0.434659
#
# Coordination Sequence:
#
# PCOD8052754 Si02
#       8
#     4   4   4   4   4   4   4   4
#     4  10  20  34  50  70 101 135 166 194 242 304
#     4  10  19  33  50  73  99 128 164 206 244 286
#     4   8  17  31  48  69  97 129 162 200 244 288
#     4  11  19  29  46  74 100 124 160 205 246 287
#     4  10  18  29  48  70  94 128 163 203 244 288
#     4   9  16  29  47  69  96 126 155 193 239 289
#     4  10  21  34  49  70  99 138 166 196 246 296
#     4  10  18  27  48  77  98 120 156 203 247 282
#
# _framework density 17.205238000000001
#
# number of rings (size 3 to 8) (size 9 to 14) (size 15 to 20)
#    0.750    1.500    1.250    4.875    0.000    2.500 
#    0.000    0.000    0.000    1.500    0.000    5.250 
#    0.000    0.000    0.000    0.000    0.000    0.000 
#
# Total GULP energy -198211.440729 kJ/mol
# GULP energy per Si atom -12388.215046 kJ/mol
# Density = 1.716608 g / cm^3
# Si number density = 17.205238 Si / 1000 Ang^3
#
#
#
# Elastic Constant Matrix: (Units=GPa)
#
#
# Indices 1 2 3 4 5 6 
#
# 1 76.5512 20.4503 41.8769 0.0000 16.0696 0.0000
# 2 20.4503 54.0900 16.9959 0.0000 2.6120 0.0000
# 3 41.8769 16.9959 89.4801 0.0000 3.3754 0.0000
# 4 0.0000 0.0000 0.0000 17.0228 0.0000 3.9966
# 5 16.0696 2.6120 3.3754 0.0000 28.2573 0.0000
# 6 0.0000 0.0000 0.0000 3.9966 0.0000 22.5320
#
#
#
# Elastic Compliance Matrix: (Units=1/GPa)
#
#
# Indices 1 2 3 4 5 6 
#
# 1 0.021326 -0.004827 -0.008662 0.000000 -0.010647 0.000000
# 2 -0.004827 0.020807 -0.001732 0.000000 0.001029 0.000000
# 3 -0.008662 -0.001732 0.015436 0.000000 0.003242 0.000000
# 4 0.000000 0.000000 0.000000 0.061297 0.000000 -0.010873
# 5 -0.010647 0.001029 0.003242 0.000000 0.040962 0.000000
# 6 0.000000 0.000000 0.000000 -0.010873 0.000000 0.046310
#
#
# Mechanical properties :
#
#
# Convention : Reuss Voigt Hill
#
# Bulk Modulus (GPa) = 36.86308 42.08528 39.47418
# Shear Modulus (GPa) = 20.35632 22.94896 21.65264
#
# Velocity S-wave (km/s) = 3.44342 3.65613 3.55137
# Velocity P-wave (km/s) = 6.10586 6.50668 6.30946
#
# Compressibility (1/GPa) = 0.02712741
#
# Stress axis : x y z
#
# Youngs Moduli (GPa) = 46.89019 48.06018 64.78240
#
# Poissons Ratio (x) = 0.23199 0.56117
# Poissons Ratio (y) = 0.22634 0.11219
# Poissons Ratio (z) = 0.40618 0.08323
#
# Static dielectric constant tensor:
#      x y z
#    x 3.011430 0.000000 0.270700 
#    y 0.000000 3.197740 0.000000 
#    z 0.270700 0.000000 3.322320 
# 
# 
# High freq. dielectric constant tensor:
#      x y z
#    x 1.626670 0.000000 0.023110 
#    y 0.000000 1.673760 0.000000 
#    z 0.023110 0.000000 1.651030 
# 
# From -- ./inp_files/17269.got.cif
#   From: 2010.03.12/outbox.cif.g09.slc.cpg/sg8_9_cif.got.tgz:17269.got - 2010.03.31 10:45:26.
