data_PCOD8052688
_publ_section_title
;
Structure prediction by ZEFSAII (Michael W. Deem and Ramdas Pophale) SiO2 
 PCOD8052688
Probable space group: C M
;
_chemical_formula_sum "Si O2"
_cell_formula_units_Z 32
_cell_length_a 5.195000
_cell_length_b 17.768654
_cell_length_c 21.897318
_cell_angle_alpha 90.000000
_cell_angle_beta 118.959361
_cell_angle_gamma 90.000000
_cell_volume 1768.564374
_symmetry_space_group_name_H-M "C M"
_symmetry_group_IT_number 8
_symmetry_cell_setting 'monoclinic'
loop_
_space_group_symop_operation_xyz
x,y,z
x,-y,z
1/2+x,1/2+y,z
1/2+x,1/2-y,z
loop_
_atom_site_type_symbol
_atom_site_label
_atom_site_fract_x
_atom_site_fract_y
_atom_site_fract_z
Si Si1 0.194470 0.838210 0.165930
Si Si2 0.506480 0.587999 0.593925
Si Si3 0.634424 0.703168 0.387750
Si Si4 0.330523 0.087721 0.506986
Si Si5 0.139472 0.296686 0.870421
Si Si6 0.250187 0.800188 0.719065
Si Si7 0.816281 0.170620 0.225909
Si Si8 0.318861 0.701285 0.015959
O O1 0.513327 0.876782 0.194548
O O2 0.263571 0.750023 0.185776
O O3 0.039238 0.874804 0.207488
O O4 0.999064 0.851865 0.082932
O O5 0.544663 0.500000 0.611875
O O6 0.649316 0.610593 0.546037
O O7 0.674746 0.631861 0.666029
O O8 0.167116 0.612437 0.554788
O O9 0.447927 0.762305 0.405770
O O10 0.690611 0.628904 0.433211
O O11 0.447040 0.680530 0.307618
O O12 0.306134 0.000000 0.489760
O O13 0.944323 0.225759 0.872406
O O14 0.931405 0.337810 0.796730
O O15 0.218424 0.343004 0.941986
O O16 0.451454 0.738431 0.708325
O O17 0.532887 0.769042 0.018958
#
# Coordination Sequence:
#
# PCOD8052688 Si02
#       8
#     4   4   4   4   4   4   4   4
#     4  10  14  23  36  54  88 122 146 182 225 268
#     4  10  21  38  55  71  93 125 163 198 232 283
#     4  12  21  32  50  73  98 124 155 202 244 282
#     4  10  23  39  52  70  97 126 158 197 240 289
#     4   8  16  25  36  60  89 119 145 178 223 274
#     4  10  19  32  51  73 101 126 150 198 241 280
#     4  10  16  25  36  59  89 116 145 192 229 265
#     4  10  14  20  34  52  80 124 149 169 214 277
#
# _framework density 18.093769999999999
#
# number of rings (size 3 to 8) (size 9 to 14) (size 15 to 20)
#    0.000    2.000    5.000    1.500    0.000    3.000 
#    0.000    0.000    0.000    0.000    0.000    0.000 
#    0.000    2.000    0.000    0.000    0.000    6.750 
#
# Total GULP energy -198244.089886 kJ/mol
# GULP energy per Si atom -12390.255618 kJ/mol
# Density = 1.805259 g / cm^3
# Si number density = 18.093770 Si / 1000 Ang^3
#
#
#
# Elastic Constant Matrix: (Units=GPa)
#
#
# Indices 1 2 3 4 5 6 
#
# 1 110.0432 6.3180 7.5188 0.0000 0.1236 0.0000
# 2 6.3180 21.2024 38.5378 0.0000 -3.1471 0.0000
# 3 7.5188 38.5378 126.0662 0.0000 -5.8883 0.0000
# 4 0.0000 0.0000 0.0000 1.9727 0.0000 1.6424
# 5 0.1236 -3.1471 -5.8883 0.0000 27.4912 0.0000
# 6 0.0000 0.0000 0.0000 1.6424 0.0000 4.9946
#
#
#
# Elastic Compliance Matrix: (Units=1/GPa)
#
#
# Indices 1 2 3 4 5 6 
#
# 1 0.009273 -0.004008 0.000655 0.000000 -0.000360 0.000000
# 2 -0.004008 0.108628 -0.032714 0.000000 0.005446 0.000000
# 3 0.000655 -0.032714 0.017898 0.000000 0.000086 0.000000
# 4 0.000000 0.000000 0.000000 0.698031 0.000000 -0.229538
# 5 -0.000360 0.005446 0.000086 0.000000 0.037019 0.000000
# 6 0.000000 0.000000 0.000000 -0.229538 0.000000 0.275696
#
#
# Mechanical properties :
#
#
# Convention : Reuss Voigt Hill
#
# Bulk Modulus (GPa) = 15.70686 40.22900 27.96793
# Shear Modulus (GPa) = 4.03259 20.55418 12.29338
#
# Velocity S-wave (km/s) = 1.49451 3.37409 2.60941
# Velocity P-wave (km/s) = 3.41727 6.12055 4.95676
#
# Compressibility (1/GPa) = 0.06366646
#
# Stress axis : x y z
#
# Youngs Moduli (GPa) = 107.83921 9.20576 55.87333
#
# Poissons Ratio (x) = 0.03689 -0.03661
# Poissons Ratio (y) = 0.43218 1.82781
# Poissons Ratio (z) = -0.07066 0.30115
#
# Static dielectric constant tensor:
#      x y z
#    x 4.598310 0.000000 0.043390 
#    y 0.000000 2.575790 0.000000 
#    z 0.043390 0.000000 3.703180 
# 
# 
# High freq. dielectric constant tensor:
#      x y z
#    x 1.740190 0.000000 -0.000970 
#    y 0.000000 1.601830 0.000000 
#    z -0.000970 0.000000 1.726400 
# 
# From -- ./inp_files/28454.got.cif
#   From: 2010.03.12/outbox.cif.g09.slc.cpg/sg8_15_cif.got.tgz:28454.got - 2010.03.31 10:45:26.
