data_PCOD8052303
_publ_section_title
;
Structure prediction by ZEFSAII (Michael W. Deem and Ramdas Pophale) SiO2 
 PCOD8052303
Probable space group: P M
;
_chemical_formula_sum "Si O2"
_cell_formula_units_Z 16
_cell_length_a 10.501171
_cell_length_b 8.683160
_cell_length_c 9.453727
_cell_angle_alpha 90.000000
_cell_angle_beta 88.796294
_cell_angle_gamma 90.000000
_cell_volume 861.832253
_symmetry_space_group_name_H-M "P M"
_symmetry_group_IT_number 6
_symmetry_cell_setting 'monoclinic'
loop_
_space_group_symop_operation_xyz
x,y,z
x,-y,z
loop_
_atom_site_type_symbol
_atom_site_label
_atom_site_fract_x
_atom_site_fract_y
_atom_site_fract_z
Si Si1 0.032340 0.816522 0.485470
Si Si2 0.792883 0.183369 0.669955
Si Si3 0.507712 0.168245 0.989153
Si Si4 0.254100 0.319216 0.659789
Si Si5 0.237046 0.184768 0.965506
Si Si6 0.778902 0.184955 0.987665
Si Si7 0.010058 0.816958 0.165503
Si Si8 0.515552 0.169722 0.654290
O O1 0.160102 0.742176 0.542086
O O2 0.018688 0.758147 0.324998
O O3 0.908377 0.754018 0.571693
O O4 0.043249 0.000000 0.495103
O O5 0.655372 0.239114 0.609700
O O6 0.791626 0.000000 0.669142
O O7 0.815247 0.243817 0.829582
O O8 0.372441 0.251816 0.023541
O O9 0.517878 0.150733 0.821454
O O10 0.502468 0.000000 0.061056
O O11 0.638485 0.251417 0.037146
O O12 0.241972 0.500000 0.674949
O O13 0.211845 0.243285 0.808239
O O14 0.398768 0.277963 0.609662
O O15 0.241656 0.000000 0.957753
O O16 0.128729 0.246885 0.072413
O O17 0.881306 0.247997 0.096983
O O18 0.772732 0.000000 0.986956
O O19 0.009619 0.000000 0.159374
O O20 0.495452 0.000000 0.586147
#
# Coordination Sequence:
#
# PCOD8052303 Si02
#       8
#     2   2   2   2   2   2   2   2
#     4  10  19  32  48  71 102 133 162 198 239 285
#     4   8  14  26  49  74  95 122 158 197 243 289
#     4   7  11  20  39  64  89 113 142 183 234 279
#     4  11  21  32  48  72  97 129 168 203 240 285
#     4   9  16  30  50  71  94 123 157 198 241 284
#     4   8  12  21  38  64  91 114 144 188 234 278
#     4   9  17  27  44  70  98 125 156 192 237 285
#     4   8  14  28  49  72  94 121 157 201 246 287
#
# _framework density 18.565097000000002
#
# number of rings (size 3 to 8) (size 9 to 14) (size 15 to 20)
#    0.000    3.250    0.000    4.125    0.000    2.000 
#    0.000    2.500    0.000    6.000    0.000    3.500 
#    0.000    0.000    0.000    0.000    0.000    0.000 
#
# Total GULP energy -198209.032376 kJ/mol
# GULP energy per Si atom -12388.064524 kJ/mol
# Density = 1.852284 g / cm^3
# Si number density = 18.565097 Si / 1000 Ang^3
#
#
#
# Elastic Constant Matrix: (Units=GPa)
#
#
# Indices 1 2 3 4 5 6 
#
# 1 179.2391 19.3440 79.4284 0.0000 29.1286 0.0000
# 2 19.3440 28.8647 14.8875 0.0000 3.7040 0.0000
# 3 79.4284 14.8875 104.3519 0.0000 16.3121 0.0000
# 4 0.0000 0.0000 0.0000 2.9668 0.0000 -0.8723
# 5 29.1286 3.7040 16.3121 0.0000 13.2026 0.0000
# 6 0.0000 0.0000 0.0000 -0.8723 0.0000 3.6662
#
#
#
# Elastic Compliance Matrix: (Units=1/GPa)
#
#
# Indices 1 2 3 4 5 6 
#
# 1 0.010956 -0.002414 -0.005357 0.000000 -0.016877 0.000000
# 2 -0.002414 0.038178 -0.003430 0.000000 -0.001148 0.000000
# 3 -0.005357 -0.003430 0.015061 0.000000 -0.005826 0.000000
# 4 0.000000 0.000000 0.000000 0.362408 0.000000 0.086222
# 5 -0.016877 -0.001148 -0.005826 0.000000 0.120499 0.000000
# 6 0.000000 0.000000 0.000000 0.086222 0.000000 0.293272
#
#
# Mechanical properties :
#
#
# Convention : Reuss Voigt Hill
#
# Bulk Modulus (GPa) = 23.92712 59.97504 41.95108
# Shear Modulus (GPa) = 5.70316 17.22018 11.46167
#
# Velocity S-wave (km/s) = 1.75461 3.04889 2.48740
# Velocity P-wave (km/s) = 4.12566 6.69101 5.55836
#
# Compressibility (1/GPa) = 0.04179357
#
# Stress axis : x y z
#
# Youngs Moduli (GPa) = 91.27256 26.19282 66.39862
#
# Poissons Ratio (x) = 0.06322 0.35569
# Poissons Ratio (y) = 0.22031 0.22775
# Poissons Ratio (z) = 0.48894 0.08984
#
# Static dielectric constant tensor:
#      x y z
#    x 4.150800 0.000000 0.029480 
#    y 0.000000 2.773270 0.000000 
#    z 0.029480 0.000000 3.200190 
# 
# 
# High freq. dielectric constant tensor:
#      x y z
#    x 1.750240 0.000000 0.008290 
#    y 0.000000 1.652410 0.000000 
#    z 0.008290 0.000000 1.684610 
# 
# From -- ./inp_files/3627.got.cif
#   From: 2010.03.12/outbox.cif.g09.slc.cpg/sg6_2_cif.got.tgz:3627.got - 2010.03.30 10:24:59.
