data_PCOD8052701
_publ_section_title
;
Structure prediction by ZEFSAII (Michael W. Deem and Ramdas Pophale) SiO2 
 PCOD8052701
Probable space group: C M
;
_chemical_formula_sum "Si O2"
_cell_formula_units_Z 32
_cell_length_a 18.952288
_cell_length_b 8.948278
_cell_length_c 17.682728
_cell_angle_alpha 90.000000
_cell_angle_beta 36.187323
_cell_angle_gamma 90.000000
_cell_volume 1770.584555
_symmetry_space_group_name_H-M "C M"
_symmetry_group_IT_number 8
_symmetry_cell_setting 'monoclinic'
loop_
_space_group_symop_operation_xyz
x,y,z
x,-y,z
1/2+x,1/2+y,z
1/2+x,1/2-y,z
loop_
_atom_site_type_symbol
_atom_site_label
_atom_site_fract_x
_atom_site_fract_y
_atom_site_fract_z
Si Si1 0.450170 0.327708 0.863610
Si Si2 0.051038 0.824311 0.385790
Si Si3 0.701262 0.175809 0.385499
Si Si4 0.798912 0.672413 0.600955
Si Si5 0.920477 0.834104 0.105979
Si Si6 0.600551 0.174385 0.857424
Si Si7 0.642642 0.667752 0.586730
Si Si8 0.731568 0.164104 0.134567
O O1 0.479276 0.500000 0.864500
O O2 0.513667 0.208957 0.862910
O O3 0.504230 0.305980 0.732562
O O4 0.305739 0.299547 0.992605
O O5 0.106693 0.757517 0.413748
O O6 0.129666 0.782896 0.243382
O O7 0.920172 0.761959 0.486381
O O8 0.046153 0.000000 0.398137
O O9 0.837886 0.224427 0.247015
O O10 0.676158 0.214668 0.493745
O O11 0.686101 0.000000 0.384963
O O12 0.826171 0.500000 0.594352
O O13 0.725400 0.739714 0.735559
O O14 0.725775 0.694150 0.587181
O O15 0.834411 0.836546 0.108313
O O16 0.969265 0.000000 0.081001
O O17 0.035167 0.728766 0.991466
O O18 0.626909 0.000000 0.840888
O O19 0.659198 0.500000 0.540479
O O20 0.671056 0.000000 0.181858
#
# Coordination Sequence:
#
# PCOD8052701 Si02
#       8
#     4   4   4   4   4   4   4   4
#     4   8  15  28  45  66  94 127 159 194 238 286
#     4  11  21  32  49  74 101 127 162 205 243 283
#     4  10  20  33  50  72 100 133 164 197 241 290
#     4  10  20  35  52  70  98 133 163 194 242 296
#     4   8  15  28  44  64  92 126 160 193 235 286
#     4  10  17  25  43  71  96 119 155 202 243 278
#     4   9  18  32  51  74  98 126 161 202 243 285
#     4   8  14  27  46  67  93 125 160 195 237 286
#
# _framework density 18.073126999999999
#
# number of rings (size 3 to 8) (size 9 to 14) (size 15 to 20)
#    0.000    2.750    0.000    5.250    0.000    7.500 
#    0.000    0.000    0.000    1.500    0.000    5.250 
#    0.000    0.000    0.000    0.000    0.000    0.000 
#
# Total GULP energy -198261.975262 kJ/mol
# GULP energy per Si atom -12391.373454 kJ/mol
# Density = 1.803199 g / cm^3
# Si number density = 18.073127 Si / 1000 Ang^3
#
#
#
# Elastic Constant Matrix: (Units=GPa)
#
#
# Indices 1 2 3 4 5 6 
#
# 1 24.5209 24.2372 35.5642 0.0000 6.3032 0.0000
# 2 24.2372 112.3524 63.8520 0.0000 2.9046 0.0000
# 3 35.5642 63.8520 167.6332 0.0000 12.9857 0.0000
# 4 0.0000 0.0000 0.0000 30.6162 0.0000 1.8647
# 5 6.3032 2.9046 12.9857 0.0000 22.7343 0.0000
# 6 0.0000 0.0000 0.0000 1.8647 0.0000 20.5730
#
#
#
# Elastic Compliance Matrix: (Units=1/GPa)
#
#
# Indices 1 2 3 4 5 6 
#
# 1 0.066610 -0.008360 -0.010044 0.000000 -0.011663 0.000000
# 2 -0.008360 0.012434 -0.003159 0.000000 0.002533 0.000000
# 3 -0.010044 -0.003159 0.009472 0.000000 -0.002222 0.000000
# 4 0.000000 0.000000 0.000000 0.032844 0.000000 -0.002977
# 5 -0.011663 0.002533 -0.002222 0.000000 0.048165 0.000000
# 6 0.000000 0.000000 0.000000 -0.002977 0.000000 0.048877
#
#
# Mechanical properties :
#
#
# Convention : Reuss Voigt Hill
#
# Bulk Modulus (GPa) = 22.03110 61.31258 41.67184
# Shear Modulus (GPa) = 18.07298 26.84157 22.45727
#
# Velocity S-wave (km/s) = 3.16570 3.85796 3.52885
# Velocity P-wave (km/s) = 5.05753 7.33782 6.30167
#
# Compressibility (1/GPa) = 0.04539038
#
# Stress axis : x y z
#
# Youngs Moduli (GPa) = 15.01278 80.42709 105.57946
#
# Poissons Ratio (x) = 0.67235 1.06043
# Poissons Ratio (y) = 0.12550 0.33349
# Poissons Ratio (z) = 0.15079 0.25405
#
# Static dielectric constant tensor:
#      x y z
#    x 2.705690 0.000000 0.188880 
#    y 0.000000 3.298910 0.000000 
#    z 0.188880 0.000000 4.066860 
# 
# 
# High freq. dielectric constant tensor:
#      x y z
#    x 1.623010 0.000000 0.011500 
#    y 0.000000 1.701060 0.000000 
#    z 0.011500 0.000000 1.730020 
# 
# From -- ./inp_files/24247.got.cif
#   From: 2010.03.12/outbox.cif.g09.slc.cpg/sg8_13_cif.got.tgz:24247.got - 2010.03.31 10:45:26.
