data_PCOD8052217
_publ_section_title
;
Structure prediction by ZEFSAII (Michael W. Deem and Ramdas Pophale) SiO2 
 PCOD8052217
Probable space group: C 2
;
_chemical_formula_sum "Si O2"
_cell_formula_units_Z 16
_cell_length_a 9.000000
_cell_length_b 24.000000
_cell_length_c 15.000000
_cell_angle_alpha 90.000000
_cell_angle_beta 30.000000
_cell_angle_gamma 90.000000
_cell_volume 1620.000000
_symmetry_space_group_name_H-M "C 2"
_symmetry_group_IT_number 5
_symmetry_cell_setting 'monoclinic'
loop_
_space_group_symop_operation_xyz
x,y,z
-x,y,-z
1/2+x,1/2+y,z
1/2-x,1/2+y,-z
loop_
_atom_site_type_symbol
_atom_site_label
_atom_site_fract_x
_atom_site_fract_y
_atom_site_fract_z
Si Si1 0.806897 0.323980 0.184938
Si Si2 0.891909 0.336138 0.458798
Si Si3 0.240608 0.714119 0.311045
Si Si4 0.647495 0.032728 0.686399
Si Si5 0.277326 0.733950 0.803387
Si Si6 0.096858 0.599618 0.543441
Si Si7 0.300718 0.116038 0.188677
Si Si8 0.148822 0.407719 0.684354
O O1 0.460219 0.332195 0.349628
O O2 0.851958 0.258250 0.180280
O O3 0.940145 0.363174 0.193601
O O4 0.000000 0.340715 0.000000
O O5 0.976905 0.384322 0.344174
O O6 0.000000 0.353784 0.500000
O O7 0.044560 0.278066 0.348972
O O8 0.520759 0.701160 0.228499
O O9 0.000000 0.745525 0.500000
O O10 0.083758 0.658638 0.352454
O O11 0.505935 0.057536 0.669258
O O12 0.558180 0.075837 0.809977
O O13 0.000000 0.029019 0.500000
O O14 0.517930 0.970012 0.769620
O O15 0.160528 0.681741 0.803935
O O16 0.000000 0.762695 0.000000
O O17 0.450571 0.605681 0.359123
O O18 0.000000 0.572264 0.500000
O O19 0.500000 0.101695 0.000000
O O20 0.500000 0.411866 0.500000
#
# Coordination Sequence:
#
# PCOD8052217 Si02
#       8
#     4   4   4   4   4   4   4   4
#     4  11  22  37  62  89 117 161 198 240 295 357
#     4  11  23  37  59  91 121 152 200 246 294 351
#     4  11  18  39  59  84 123 159 187 237 298 353
#     4   9  20  37  62  86 112 159 202 236 289 353
#     4  11  22  37  61  88 125 159 187 242 305 350
#     4  10  19  36  59  83 117 157 193 239 291 348
#     4  10  20  36  57  86 120 152 193 242 289 349
#     4   9  19  41  61  81 119 158 198 244 292 346
#
# _framework density 9.8765429999999999
#
# number of rings (size 3 to 8) (size 9 to 14) (size 15 to 20)
#    0.000    1.750    5.000    0.375    1.750    3.500 
#    2.250    0.625    0.000    3.000    0.000    0.000 
#    0.000    0.000    0.000    0.000    0.000    0.000 
#
# Total GULP energy -198249.031343 kJ/mol
# GULP energy per Si atom -12390.564459 kJ/mol
# Density = 0.985406 g / cm^3
# Si number density = 9.876543 Si / 1000 Ang^3
#
#
#
# Elastic Constant Matrix: (Units=GPa)
#
#
# Indices 1 2 3 4 5 6 
#
# 1 131.1542 72.1567 30.2060 -0.0001 22.9585 0.0001
# 2 72.1567 146.5446 36.8517 -0.0001 19.2714 0.0000
# 3 30.2060 36.8517 89.6716 0.0009 14.2532 -0.0004
# 4 -0.0001 -0.0001 0.0009 12.9870 0.0000 8.1010
# 5 22.9585 19.2714 14.2532 0.0000 26.6301 0.0000
# 6 0.0001 0.0000 -0.0004 8.1010 0.0000 28.2117
#
#
#
# Elastic Compliance Matrix: (Units=1/GPa)
#
#
# Indices 1 2 3 4 5 6 
#
# 1 0.011430 -0.004585 -0.001013 0.000000 -0.005994 0.000000
# 2 -0.004585 0.009903 -0.002202 0.000000 -0.002035 0.000000
# 3 -0.001013 -0.002202 0.013122 -0.000001 -0.004556 0.000001
# 4 0.000000 0.000000 -0.000001 0.093801 0.000000 -0.026935
# 5 -0.005994 -0.002035 -0.004556 0.000000 0.046630 0.000000
# 6 0.000000 0.000000 0.000001 -0.026935 0.000000 0.043181
#
#
# Mechanical properties :
#
#
# Convention : Reuss Voigt Hill
#
# Bulk Modulus (GPa) = 53.03667 71.75549 62.39608
# Shear Modulus (GPa) = 20.83756 28.77617 24.80687
#
# Velocity S-wave (km/s) = 3.25145 3.82094 3.54764
# Velocity P-wave (km/s) = 6.40344 7.47470 6.95971
#
# Compressibility (1/GPa) = 0.01885488
#
# Stress axis : x y z
#
# Youngs Moduli (GPa) = 87.49270 100.98299 76.20682
#
# Poissons Ratio (x) = 0.46298 0.07721
# Poissons Ratio (y) = 0.40113 0.16779
# Poissons Ratio (z) = 0.08865 0.22234
#
# Static dielectric constant tensor:
#      x y z
#    x 3.682070 0.000000 0.016150 
#    y 0.000000 3.832990 0.000000 
#    z 0.016150 0.000000 3.505200 
# 
# 
# High freq. dielectric constant tensor:
#      x y z
#    x 1.765050 0.000000 -0.000040 
#    y 0.000000 1.771080 0.000000 
#    z -0.000040 0.000000 1.758180 
# 
# From -- ./inp_files/51671.got.cif
#   From: 2010.06.25/outbox.ucp.g09.slc.cvg/sg5_26_cif.got.tgz:51671.got - 2010.06.28 13:24:32.
