data_PCOD8052975
_publ_section_title
;
Structure prediction by ZEFSAII (Michael W. Deem and Ramdas Pophale) SiO2 
 PCOD8052975
Probable space group: C M
;
_chemical_formula_sum "Si O2"
_cell_formula_units_Z 32
_cell_length_a 20.797681
_cell_length_b 8.963246
_cell_length_c 12.125410
_cell_angle_alpha 90.000000
_cell_angle_beta 127.971545
_cell_angle_gamma 90.000000
_cell_volume 1781.874984
_symmetry_space_group_name_H-M "C M"
_symmetry_group_IT_number 8
_symmetry_cell_setting 'monoclinic'
loop_
_space_group_symop_operation_xyz
x,y,z
x,-y,z
1/2+x,1/2+y,z
1/2+x,1/2-y,z
loop_
_atom_site_type_symbol
_atom_site_label
_atom_site_fract_x
_atom_site_fract_y
_atom_site_fract_z
Si Si1 0.823870 0.327276 0.515950
Si Si2 0.482461 0.676522 0.092093
Si Si3 0.160858 0.175116 0.238180
Si Si4 0.435131 0.171164 0.827829
Si Si5 0.072872 0.675270 0.797605
Si Si6 0.890338 0.173280 0.211427
Si Si7 0.456911 0.327785 0.516623
Si Si8 0.718648 0.322841 0.062293
O O1 0.841020 0.500000 0.502308
O O2 0.728331 0.287172 0.402754
O O3 0.852334 0.297803 0.671327
O O4 0.873066 0.226424 0.482665
O O5 0.485734 0.500000 0.095662
O O6 0.574100 0.745440 0.181993
O O7 0.439539 0.733666 0.157541
O O8 0.430987 0.728886 0.932096
O O9 0.190177 0.239282 0.151461
O O10 0.149754 0.000000 0.213589
O O11 0.512152 0.216412 0.833719
O O12 0.441344 0.000000 0.870673
O O13 0.086209 0.500000 0.800734
O O14 0.034067 0.735231 0.642958
O O15 0.159191 0.754645 0.907209
O O16 0.949637 0.197307 0.378198
O O17 0.809714 0.270728 0.135704
O O18 0.865637 0.000000 0.173757
O O19 0.470209 0.500000 0.560705
O O20 0.715243 0.500000 0.052210
#
# Coordination Sequence:
#
# PCOD8052975 Si02
#       8
#     4   4   4   4   4   4   4   4
#     4   9  17  32  52  77 106 137 175 222 275 318
#     4  10  20  36  55  75 107 146 179 215 266 324
#     4   9  17  31  54  80 102 133 179 222 260 311
#     4   9  18  31  50  77 107 137 173 218 266 316
#     4  10  20  34  54  80 111 141 174 222 277 322
#     4  10  22  37  53  77 112 150 180 218 271 321
#     4  10  19  32  51  78 108 139 182 223 264 318
#     4  11  20  33  57  84 107 137 184 228 265 316
#
# _framework density 17.958611000000001
#
# number of rings (size 3 to 8) (size 9 to 14) (size 15 to 20)
#    0.000    2.250    2.500    1.875    0.000    3.000 
#    0.000    1.875    0.000    3.000    0.000    0.000 
#    0.000    0.000    0.000    0.000    0.000    0.000 
#
# Total GULP energy -198404.540763 kJ/mol
# GULP energy per Si atom -12400.283798 kJ/mol
# Density = 1.791774 g / cm^3
# Si number density = 17.958611 Si / 1000 Ang^3
#
#
#
# Elastic Constant Matrix: (Units=GPa)
#
#
# Indices 1 2 3 4 5 6 
#
# 1 106.0997 36.6094 63.7555 0.0000 -1.0706 0.0000
# 2 36.6094 59.5022 43.0347 0.0000 -0.0712 0.0000
# 3 63.7555 43.0347 136.8356 0.0000 5.8627 0.0000
# 4 0.0000 0.0000 0.0000 30.4181 0.0000 1.0679
# 5 -1.0706 -0.0712 5.8627 0.0000 27.6543 0.0000
# 6 0.0000 0.0000 0.0000 1.0679 0.0000 22.0885
#
#
#
# Elastic Compliance Matrix: (Units=1/GPa)
#
#
# Indices 1 2 3 4 5 6 
#
# 1 0.014270 -0.005073 -0.005123 0.000000 0.001626 0.000000
# 2 -0.005073 0.023621 -0.005106 0.000000 0.000947 0.000000
# 3 -0.005123 -0.005106 0.011414 0.000000 -0.002631 0.000000
# 4 0.000000 0.000000 0.000000 0.032931 0.000000 -0.001592
# 5 0.001626 0.000947 -0.002631 0.000000 0.036784 0.000000
# 6 0.000000 0.000000 0.000000 -0.001592 0.000000 0.045349
#
#
# Mechanical properties :
#
#
# Convention : Reuss Voigt Hill
#
# Bulk Modulus (GPa) = 53.47179 65.47072 59.47126
# Shear Modulus (GPa) = 24.85004 26.63472 25.74238
#
# Velocity S-wave (km/s) = 3.72390 3.85530 3.79017
# Velocity P-wave (km/s) = 6.95195 7.50689 7.23474
#
# Compressibility (1/GPa) = 0.01870145
#
# Stress axis : x y z
#
# Youngs Moduli (GPa) = 70.07518 42.33510 87.61455
#
# Poissons Ratio (x) = 0.21475 0.44887
# Poissons Ratio (y) = 0.35547 0.44735
# Poissons Ratio (z) = 0.35901 0.21616
#
# Static dielectric constant tensor:
#      x y z
#    x 3.217310 0.000000 0.066870 
#    y 0.000000 3.186900 0.000000 
#    z 0.066870 0.000000 3.497610 
# 
# 
# High freq. dielectric constant tensor:
#      x y z
#    x 1.664750 0.000000 0.008560 
#    y 0.000000 1.685750 0.000000 
#    z 0.008560 0.000000 1.710470 
# 
# From -- ./inp_files/23683.got.cif
#   From: 2010.03.12/outbox.cif.g09.slc.cpg/sg8_12_cif.got.tgz:23683.got - 2010.03.31 10:45:26.
