data_PCOD8052156
_publ_section_title
;
Structure prediction by ZEFSAII (Michael W. Deem and Ramdas Pophale) SiO2 
 PCOD8052156
Probable space group: C 2
;
_chemical_formula_sum "Si O2"
_cell_formula_units_Z 24
_cell_length_a 11.185631
_cell_length_b 7.728659
_cell_length_c 11.275873
_cell_angle_alpha 90.000000
_cell_angle_beta 103.046471
_cell_angle_gamma 90.000000
_cell_volume 949.636220
_symmetry_space_group_name_H-M "C 2"
_symmetry_group_IT_number 5
_symmetry_cell_setting 'monoclinic'
loop_
_space_group_symop_operation_xyz
x,y,z
-x,y,-z
1/2+x,1/2+y,z
1/2-x,1/2+y,-z
loop_
_atom_site_type_symbol
_atom_site_label
_atom_site_fract_x
_atom_site_fract_y
_atom_site_fract_z
Si Si1 0.089516 0.715390 0.779816
Si Si2 0.000000 0.811825 0.500000
Si Si3 0.672963 0.861073 0.735934
Si Si4 0.594980 0.890939 0.376627
Si Si5 0.795006 0.023317 0.564148
Si Si6 0.000000 0.635357 0.000000
Si Si7 0.712045 0.011196 0.171420
O O1 0.149625 0.526110 0.814465
O O2 0.196582 0.853268 0.810292
O O3 0.022626 0.712204 0.632986
O O4 0.005172 0.750044 0.878634
O O5 0.884612 0.941540 0.486999
O O6 0.545672 0.834479 0.632120
O O7 0.790431 0.903024 0.679340
O O8 0.704753 0.684353 0.808863
O O9 0.653237 0.025695 0.484887
O O10 0.677301 0.718854 0.397738
O O11 0.613251 0.987714 0.255541
O O12 0.124435 0.520321 0.036375
#
# Coordination Sequence:
#
# PCOD8052156 Si02
#       7
#     4   2   4   4   4   2   4
#     4  12  28  53  81 120 163 216 268 342 404 486
#     4  12  26  50  82 122 170 212 278 334 414 490
#     4  12  27  47  80 113 162 216 263 335 410 477
#     4  12  26  45  72 118 163 213 267 331 403 494
#     4  12  25  43  76 117 165 216 261 334 415 472
#     4  12  30  54  88 112 168 218 276 338 406 490
#     4  12  27  54  76 118 158 210 281 332 405 490
#
# _framework density 25.272836999999999
#
# number of rings (size 3 to 8) (size 9 to 14) (size 15 to 20)
#    0.000    0.000    5.000    3.500    9.333    0.000 
#    0.000    1.667    0.000    0.000    0.000    0.000 
#    0.000    0.000    0.000    0.000    0.000    0.000 
#
# Total GULP energy -148679.897161 kJ/mol
# GULP energy per Si atom -12389.991430 kJ/mol
# Density = 2.521531 g / cm^3
# Si number density = 25.272837 Si / 1000 Ang^3
#
#
#
# Elastic Constant Matrix: (Units=GPa)
#
#
# Indices 1 2 3 4 5 6 
#
# 1 99.5406 42.0033 53.0303 0.0000 -0.6505 0.0000
# 2 42.0033 131.6987 44.5148 0.0000 19.9850 0.0000
# 3 53.0303 44.5148 151.8233 0.0000 -0.1299 0.0000
# 4 0.0000 0.0000 0.0000 23.5968 0.0000 -1.4942
# 5 -0.6505 19.9850 -0.1299 0.0000 56.8106 0.0000
# 6 0.0000 0.0000 0.0000 -1.4942 0.0000 22.1344
#
#
#
# Elastic Compliance Matrix: (Units=1/GPa)
#
#
# Indices 1 2 3 4 5 6 
#
# 1 0.013398 -0.003202 -0.003740 0.000000 0.001271 0.000000
# 2 -0.003202 0.009727 -0.001736 0.000000 -0.003462 0.000000
# 3 -0.003740 -0.001736 0.008403 0.000000 0.000587 0.000000
# 4 0.000000 0.000000 0.000000 0.042561 0.000000 0.002873
# 5 0.001271 -0.003462 0.000587 0.000000 0.018836 0.000000
# 6 0.000000 0.000000 0.000000 0.002873 0.000000 0.045372
#
#
# Mechanical properties :
#
#
# Convention : Reuss Voigt Hill
#
# Bulk Modulus (GPa) = 70.56810 73.57325 72.07068
# Shear Modulus (GPa) = 31.17668 36.74265 33.95966
#
# Velocity S-wave (km/s) = 3.51608 3.81706 3.66966
# Velocity P-wave (km/s) = 6.66835 6.97147 6.82159
#
# Compressibility (1/GPa) = 0.01417071
#
# Stress axis : x y z
#
# Youngs Moduli (GPa) = 74.63800 102.81092 119.01169
#
# Poissons Ratio (x) = 0.32919 0.44509
# Poissons Ratio (y) = 0.23898 0.20665
# Poissons Ratio (z) = 0.27914 0.17852
#
# Static dielectric constant tensor:
#      x y z
#    x 4.768990 0.000000 -0.004630 
#    y 0.000000 4.457310 0.000000 
#    z -0.004630 0.000000 4.522910 
# 
# 
# High freq. dielectric constant tensor:
#      x y z
#    x 2.032220 0.000000 0.002180 
#    y 0.000000 2.011070 0.000000 
#    z 0.002180 0.000000 1.996960 
# 
# From -- ./inp_files/38458.got.cif
#   From: 2010.03.12/outbox.cif.g09.slc.cpg/sg5_20_cif.got.tgz:38458.got - 2010.03.31 09:47:26.
