data_PCOD8052797
_publ_section_title
;
Structure prediction by ZEFSAII (Michael W. Deem and Ramdas Pophale) SiO2 
 PCOD8052797
Probable space group: C M
;
_chemical_formula_sum "Si O2"
_cell_formula_units_Z 32
_cell_length_a 14.748959
_cell_length_b 8.784241
_cell_length_c 12.158742
_cell_angle_alpha 90.000000
_cell_angle_beta 90.628774
_cell_angle_gamma 90.000000
_cell_volume 1575.172430
_symmetry_space_group_name_H-M "C M"
_symmetry_group_IT_number 8
_symmetry_cell_setting 'monoclinic'
loop_
_space_group_symop_operation_xyz
x,y,z
x,-y,z
1/2+x,1/2+y,z
1/2+x,1/2-y,z
loop_
_atom_site_type_symbol
_atom_site_label
_atom_site_fract_x
_atom_site_fract_y
_atom_site_fract_z
Si Si1 0.824410 0.319752 0.375000
Si Si2 0.865649 0.321865 0.931023
Si Si3 0.508657 0.177895 0.750270
Si Si4 0.619281 0.324310 0.357623
Si Si5 0.158517 0.173691 0.884284
Si Si6 0.344093 0.676674 0.152444
Si Si7 0.469378 0.319710 0.518446
Si Si8 0.657548 0.326585 0.124515
O O1 0.828644 0.500000 0.375556
O O2 0.720623 0.258866 0.377582
O O3 0.874922 0.258347 0.265829
O O4 0.873884 0.254254 0.483150
O O5 0.873351 0.500000 0.952800
O O6 0.933193 0.268505 0.836356
O O7 0.763713 0.277848 0.892785
O O8 0.895130 0.240158 0.044934
O O9 0.608160 0.216062 0.798748
O O10 0.493258 0.274552 0.641590
O O11 0.501996 0.000000 0.723440
O O12 0.621285 0.500000 0.388936
O O13 0.546277 0.248409 0.437901
O O14 0.590596 0.299965 0.227948
O O15 0.149350 0.000000 0.842911
O O16 0.111168 0.192956 0.004653
O O17 0.366235 0.500000 0.164662
O O18 0.237759 0.705702 0.134099
O O19 0.461375 0.500000 0.508341
O O20 0.698098 0.500000 0.133543
#
# Coordination Sequence:
#
# PCOD8052797 Si02
#       8
#     4   4   4   4   4   4   4   4
#     4  10  20  38  60  82 112 149 184 220 271 331
#     4   9  20  39  59  79 110 151 186 219 272 338
#     4  11  24  40  56  78 109 146 190 234 276 325
#     4   8  17  35  59  82 109 146 180 214 266 333
#     4   9  18  35  59  83 108 141 179 223 275 330
#     4  10  18  30  54  88 117 140 176 226 276 324
#     4  11  23  39  57  81 110 143 190 237 274 319
#     4   8  15  32  56  81 111 146 179 213 268 338
#
# _framework density 20.315235000000001
#
# number of rings (size 3 to 8) (size 9 to 14) (size 15 to 20)
#    0.000    2.500    0.000    3.750    0.000    5.000 
#    0.000   12.500    0.000    0.000    0.000    0.000 
#    0.000    0.000    0.000    0.000    0.000    0.000 
#
# Total GULP energy -198330.655040 kJ/mol
# GULP energy per Si atom -12395.665940 kJ/mol
# Density = 2.026900 g / cm^3
# Si number density = 20.315235 Si / 1000 Ang^3
#
#
#
# Elastic Constant Matrix: (Units=GPa)
#
#
# Indices 1 2 3 4 5 6 
#
# 1 42.7237 14.2017 16.4747 0.0000 1.5641 0.0000
# 2 14.2017 66.3720 24.9901 0.0000 2.7830 0.0000
# 3 16.4747 24.9901 92.3581 0.0000 4.7736 0.0000
# 4 0.0000 0.0000 0.0000 35.4292 0.0000 4.8276
# 5 1.5641 2.7830 4.7736 0.0000 35.8485 0.0000
# 6 0.0000 0.0000 0.0000 4.8276 0.0000 24.6806
#
#
#
# Elastic Compliance Matrix: (Units=1/GPa)
#
#
# Indices 1 2 3 4 5 6 
#
# 1 0.026188 -0.004272 -0.003498 0.000000 -0.000345 0.000000
# 2 -0.004272 0.017490 -0.003937 0.000000 -0.000647 0.000000
# 3 -0.003498 -0.003937 0.012579 0.000000 -0.001217 0.000000
# 4 0.000000 0.000000 0.000000 0.028998 0.000000 -0.005672
# 5 -0.000345 -0.000647 -0.001217 0.000000 0.028122 0.000000
# 6 0.000000 0.000000 0.000000 -0.005672 0.000000 0.041627
#
#
# Mechanical properties :
#
#
# Convention : Reuss Voigt Hill
#
# Bulk Modulus (GPa) = 30.44687 34.75408 32.60047
# Shear Modulus (GPa) = 26.40389 28.91082 27.65735
#
# Velocity S-wave (km/s) = 3.60906 3.77651 3.69373
# Velocity P-wave (km/s) = 5.69094 6.01336 5.85437
#
# Compressibility (1/GPa) = 0.03284410
#
# Stress axis : x y z
#
# Youngs Moduli (GPa) = 38.18607 57.17502 79.49470
#
# Poissons Ratio (x) = 0.24425 0.27803
# Poissons Ratio (y) = 0.16313 0.31297
# Poissons Ratio (z) = 0.13356 0.22510
#
# Static dielectric constant tensor:
#      x y z
#    x 3.597520 0.000000 -0.149470 
#    y 0.000000 3.410720 0.000000 
#    z -0.149470 0.000000 3.861550 
# 
# 
# High freq. dielectric constant tensor:
#      x y z
#    x 1.777220 0.000000 -0.001050 
#    y 0.000000 1.775330 0.000000 
#    z -0.001050 0.000000 1.801330 
# 
# From -- ./inp_files/21566.got.cif
#   From: 2010.03.12/outbox.cif.g09.slc.cpg/sg8_11_cif.got.tgz:21566.got - 2010.03.31 10:45:26.
