data_PCOD8052849
_publ_section_title
;
Structure prediction by ZEFSAII (Michael W. Deem and Ramdas Pophale) SiO2 
 PCOD8052849
Probable space group: C M
;
_chemical_formula_sum "Si O2"
_cell_formula_units_Z 32
_cell_length_a 20.866660
_cell_length_b 8.601891
_cell_length_c 25.627592
_cell_angle_alpha 90.000000
_cell_angle_beta 157.850462
_cell_angle_gamma 90.000000
_cell_volume 1734.303319
_symmetry_space_group_name_H-M "C M"
_symmetry_group_IT_number 8
_symmetry_cell_setting 'monoclinic'
loop_
_space_group_symop_operation_xyz
x,y,z
x,-y,z
1/2+x,1/2+y,z
1/2+x,1/2-y,z
loop_
_atom_site_type_symbol
_atom_site_label
_atom_site_fract_x
_atom_site_fract_y
_atom_site_fract_z
Si Si1 0.400180 0.317487 0.557340
Si Si2 0.921347 0.817646 0.849100
Si Si3 0.781850 0.318032 0.848816
Si Si4 0.678018 0.317845 0.584779
Si Si5 0.587886 0.684042 0.131297
Si Si6 0.258176 0.183517 0.154164
Si Si7 0.634031 0.184673 0.439229
Si Si8 0.352490 0.684807 0.404813
O O1 0.370389 0.500000 0.531959
O O2 0.589214 0.279535 0.720252
O O3 0.264869 0.243585 0.495685
O O4 0.373268 0.249591 0.479013
O O5 0.821942 0.777347 0.826909
O O6 0.847290 0.722737 0.744770
O O7 0.902447 0.000000 0.823909
O O8 0.120289 0.768830 0.006131
O O9 0.805488 0.500000 0.854625
O O10 0.901909 0.262553 0.986796
O O11 0.668249 0.500000 0.567961
O O12 0.690523 0.233283 0.539216
O O13 0.513395 0.257235 0.492300
O O14 0.566120 0.500000 0.115332
O O15 0.697833 0.745666 0.165041
O O16 0.679021 0.741885 0.252245
O O17 0.445482 0.251027 0.283288
O O18 0.267884 0.000000 0.165316
O O19 0.635770 0.000000 0.438017
O O20 0.340744 0.500000 0.394692
#
# Coordination Sequence:
#
# PCOD8052849 Si02
#       8
#     4   4   4   4   4   4   4   4
#     4   9  19  35  56  79 106 141 181 218 266 324
#     4  10  19  32  52  80 108 139 178 223 268 315
#     4  10  18  33  53  79 109 141 177 220 270 316
#     4  11  21  34  53  80 111 141 177 223 270 316
#     4  10  19  32  51  81 108 136 177 221 267 316
#     4   8  16  30  50  77 104 129 170 219 262 307
#     4  10  19  36  58  78 105 142 179 222 267 318
#     4  10  19  34  53  78 107 139 179 222 266 316
#
# _framework density 18.451212000000002
#
# number of rings (size 3 to 8) (size 9 to 14) (size 15 to 20)
#    0.000    2.250    2.500    2.250    0.000    0.500 
#    0.000    3.750    0.000    4.500    0.000    0.000 
#    0.000    0.000    0.000    0.000    0.000    0.000 
#
# Total GULP energy -198376.605886 kJ/mol
# GULP energy per Si atom -12398.537868 kJ/mol
# Density = 1.840922 g / cm^3
# Si number density = 18.451212 Si / 1000 Ang^3
#
#
#
# Elastic Constant Matrix: (Units=GPa)
#
#
# Indices 1 2 3 4 5 6 
#
# 1 106.0803 11.3786 68.0021 -0.0027 4.4086 -0.0015
# 2 11.3786 23.6118 20.1483 -0.0118 2.9888 0.0005
# 3 68.0021 20.1483 162.2112 -0.0005 -4.5746 0.0023
# 4 -0.0027 -0.0118 -0.0005 27.1770 0.0040 -5.7279
# 5 4.4086 2.9888 -4.5746 0.0040 28.3107 0.0012
# 6 -0.0015 0.0005 0.0023 -5.7279 0.0012 19.6854
#
#
#
# Elastic Compliance Matrix: (Units=1/GPa)
#
#
# Indices 1 2 3 4 5 6 
#
# 1 0.013170 -0.001360 -0.005431 0.000002 -0.002785 0.000002
# 2 -0.001360 0.048543 -0.005624 0.000023 -0.005822 0.000006
# 3 -0.005431 -0.005624 0.009223 -0.000004 0.002930 -0.000003
# 4 0.000002 0.000023 -0.000004 0.039200 -0.000009 0.011406
# 5 -0.002785 -0.005822 0.002930 -0.000009 0.036844 -0.000005
# 6 0.000002 0.000006 -0.000003 0.011406 -0.000005 0.054118
#
#
# Mechanical properties :
#
#
# Convention : Reuss Voigt Hill
#
# Bulk Modulus (GPa) = 21.68889 54.55126 38.12007
# Shear Modulus (GPa) = 20.72167 27.85958 24.29063
#
# Velocity S-wave (km/s) = 3.35483 3.88997 3.63227
# Velocity P-wave (km/s) = 5.17559 7.05727 6.18837
#
# Compressibility (1/GPa) = 0.04610656
#
# Stress axis : x y z
#
# Youngs Moduli (GPa) = 75.93203 20.60046 108.43011
#
# Poissons Ratio (x) = 0.02802 0.58884
# Poissons Ratio (y) = 0.10327 0.60976
# Poissons Ratio (z) = 0.41236 0.11585
#
# Static dielectric constant tensor:
#      x y z
#    x 3.347610 0.000000 0.053760 
#    y 0.000000 3.153570 -0.000010 
#    z 0.053760 -0.000010 3.790580 
# 
# 
# High freq. dielectric constant tensor:
#      x y z
#    x 1.685750 0.000000 -0.009750 
#    y 0.000000 1.696270 0.000000 
#    z -0.009750 0.000000 1.733300 
# 
# From -- ./inp_files/31352.got.cif
#   From: 2010.03.12/outbox.cif.g09.slc.cpg/sg8_16_cif.got.tgz:31352.got - 2010.03.31 10:45:26.
