data_PCOD8052458
_publ_section_title
;
Structure prediction by ZEFSAII (Michael W. Deem and Ramdas Pophale) SiO2 
 PCOD8052458
Probable space group: P M
;
_chemical_formula_sum "Si O2"
_cell_formula_units_Z 14
_cell_length_a 15.418022
_cell_length_b 10.525408
_cell_length_c 7.681642
_cell_angle_alpha 90.000000
_cell_angle_beta 147.092065
_cell_angle_gamma 90.000000
_cell_volume 677.257705
_symmetry_space_group_name_H-M "P M"
_symmetry_group_IT_number 6
_symmetry_cell_setting 'monoclinic'
loop_
_space_group_symop_operation_xyz
x,y,z
x,-y,z
loop_
_atom_site_type_symbol
_atom_site_label
_atom_site_fract_x
_atom_site_fract_y
_atom_site_fract_z
Si Si1 0.079080 0.137708 0.642930
Si Si2 0.624721 0.639757 0.597973
Si Si3 0.813091 0.858974 0.479507
Si Si4 0.927689 0.205934 0.046278
Si Si5 0.283271 0.645602 0.115050
Si Si6 0.556398 0.645548 0.082893
Si Si7 0.218783 0.355618 0.395598
O O1 0.953239 0.169424 0.581020
O O2 0.997328 0.118846 0.316376
O O3 0.160032 0.000000 0.819760
O O4 0.207284 0.252322 0.853820
O O5 0.686978 0.500000 0.752222
O O6 0.472028 0.676092 0.459975
O O7 0.557152 0.642892 0.290297
O O8 0.772197 0.732258 0.873124
O O9 0.689775 0.744160 0.240478
O O10 0.738922 0.000000 0.318470
O O11 0.879812 0.866323 0.789698
O O12 0.062955 0.306951 0.228567
O O13 0.262087 0.500000 0.009918
O O14 0.195727 0.663379 0.151071
O O15 0.587021 0.500000 0.062943
O O16 0.386660 0.705388 0.738959
O O17 0.233473 0.500000 0.475078
#
# Coordination Sequence:
#
# PCOD8052458 Si02
#       7
#     2   2   2   2   2   2   2
#     4  11  24  41  61  89 121 160 204 248 298 357
#     4   9  19  35  58  89 123 152 193 247 298 353
#     4  10  22  41  59  86 123 157 198 251 297 351
#     4  11  21  38  63  88 119 160 202 240 303 352
#     4  10  21  39  61  90 123 159 200 247 299 354
#     4   9  19  36  59  86 119 156 196 244 297 354
#     4  10  20  36  61  92 125 156 198 249 299 355
#
# _framework density 20.671597999999999
#
# number of rings (size 3 to 8) (size 9 to 14) (size 15 to 20)
#    0.000    2.000    1.429    1.714    2.000    3.429 
#    0.000    8.571    0.000    0.000    0.000    0.000 
#    0.000    0.000    0.000    0.000    0.000    0.000 
#
# Total GULP energy -173495.639388 kJ/mol
# GULP energy per Si atom -12392.545671 kJ/mol
# Density = 2.062455 g / cm^3
# Si number density = 20.671598 Si / 1000 Ang^3
#
#
#
# Elastic Constant Matrix: (Units=GPa)
#
#
# Indices 1 2 3 4 5 6 
#
# 1 77.3646 31.6261 13.5131 0.0000 15.4365 0.0000
# 2 31.6261 109.1888 49.1830 0.0000 19.6256 0.0000
# 3 13.5131 49.1830 84.7207 0.0000 14.2600 0.0000
# 4 0.0000 0.0000 0.0000 19.0882 0.0000 -10.0394
# 5 15.4365 19.6256 14.2600 0.0000 24.1924 0.0000
# 6 0.0000 0.0000 0.0000 -10.0394 0.0000 -30.5675
#
#
#
# Elastic Compliance Matrix: (Units=1/GPa)
#
#
# Indices 1 2 3 4 5 6 
#
# 1 0.015767 -0.003572 0.000848 0.000000 -0.007663 0.000000
# 2 -0.003572 0.014191 -0.006788 0.000000 -0.005232 0.000000
# 3 0.000848 -0.006788 0.016400 0.000000 -0.004702 0.000000
# 4 0.000000 0.000000 0.000000 0.044672 0.000000 -0.014672
# 5 -0.007663 -0.005232 -0.004702 0.000000 0.053241 0.000000
# 6 0.000000 0.000000 0.000000 -0.014672 0.000000 -0.027896
#
#
# Mechanical properties :
#
#
# Convention : Reuss Voigt Hill
#
# Bulk Modulus (GPa) = 36.58244 51.10204 43.84224
# Shear Modulus (GPa) = 34.60008 14.33941 24.46975
#
# Velocity S-wave (km/s) = 4.09565 2.63663 3.44428
# Velocity P-wave (km/s) = 6.33255 5.83470 6.08871
#
# Compressibility (1/GPa) = 0.02733552
#
# Stress axis : x y z
#
# Youngs Moduli (GPa) = 63.42508 70.46764 60.97506
#
# Poissons Ratio (x) = 0.25168 -0.05173
# Poissons Ratio (y) = 0.22653 0.41389
# Poissons Ratio (z) = -0.05381 0.47833
#
# Static dielectric constant tensor:
#      x y z
#    x 3.725530 0.000000 0.033550 
#    y 0.000000 3.789980 0.000000 
#    z 0.033550 0.000000 3.654440 
# 
# 
# High freq. dielectric constant tensor:
#      x y z
#    x 1.815570 0.000000 -0.000660 
#    y 0.000000 1.799230 0.000000 
#    z -0.000660 0.000000 1.798940 
# 
# From -- ./inp_files/2985.got.cif
#   From: 2010.03.12/outbox.cif.g09.slc.cpg/sg6_2_cif.got.tgz:2985.got - 2010.03.30 10:24:59.
