data_PCOD8052038
_publ_section_title
;
Structure prediction by ZEFSAII (Michael W. Deem and Ramdas Pophale) SiO2 
 PCOD8052038
Probable space group: C 2
;
_chemical_formula_sum "Si O2"
_cell_formula_units_Z 22
_cell_length_a 26.920950
_cell_length_b 6.736482
_cell_length_c 10.528741
_cell_angle_alpha 90.000000
_cell_angle_beta 27.403776
_cell_angle_gamma 90.000000
_cell_volume 878.823377
_symmetry_space_group_name_H-M "C 2"
_symmetry_group_IT_number 5
_symmetry_cell_setting 'monoclinic'
loop_
_space_group_symop_operation_xyz
x,y,z
-x,y,-z
1/2+x,1/2+y,z
1/2-x,1/2+y,-z
loop_
_atom_site_type_symbol
_atom_site_label
_atom_site_fract_x
_atom_site_fract_y
_atom_site_fract_z
Si Si1 0.500000 0.064880 0.500000
Si Si2 0.865301 0.129149 0.214570
Si Si3 0.144993 0.754795 0.605786
Si Si4 0.842295 0.273697 0.772059
Si Si5 0.381750 0.347995 0.612656
Si Si6 0.415757 0.848202 0.333026
O O1 0.484560 0.206556 0.411239
O O2 0.397999 0.917112 0.750347
O O3 0.765441 0.163202 0.347539
O O4 0.838167 0.234694 0.410094
O O5 0.886119 0.895302 0.203183
O O6 0.971629 0.227007 0.910706
O O7 0.138744 0.882078 0.489763
O O8 0.064258 0.568658 0.770788
O O9 0.856127 0.376017 0.602340
O O10 0.900508 0.061038 0.634186
O O11 0.718724 0.240128 0.089550
#
# Coordination Sequence:
#
# PCOD8052038 Si02
#       6
#     2   4   4   4   4   4
#     4  12  26  46  74 112 146 200 242 310 380 434
#     4  11  26  45  77 108 146 200 243 310 367 442
#     4  12  24  50  76 110 153 192 255 305 375 441
#     4  12  25  50  75 110 151 192 253 304 376 443
#     4  12  26  47  80 110 151 198 247 314 371 451
#     4  11  25  48  73 111 146 196 252 302 372 446
#
# _framework density 25.033470999999999
#
# number of rings (size 3 to 8) (size 9 to 14) (size 15 to 20)
#    0.000    0.364    7.273    0.545    2.545    2.909 
#    3.273    1.818    0.000    0.000    0.000    0.000 
#    0.000    0.000    0.000    0.000    0.000    0.000 
#
# Total GULP energy -136332.628673 kJ/mol
# GULP energy per Si atom -12393.875334 kJ/mol
# Density = 2.497649 g / cm^3
# Si number density = 25.033471 Si / 1000 Ang^3
#
#
#
# Elastic Constant Matrix: (Units=GPa)
#
#
# Indices 1 2 3 4 5 6 
#
# 1 119.1820 39.5195 37.7788 0.0000 -7.0194 0.0000
# 2 39.5195 155.7808 15.6293 0.0000 -13.2077 0.0000
# 3 37.7788 15.6293 88.5348 0.0000 6.9895 0.0000
# 4 0.0000 0.0000 0.0000 33.2005 0.0000 -3.4974
# 5 -7.0194 -13.2077 6.9895 0.0000 26.8425 0.0000
# 6 0.0000 0.0000 0.0000 -3.4974 0.0000 49.5584
#
#
#
# Elastic Compliance Matrix: (Units=1/GPa)
#
#
# Indices 1 2 3 4 5 6 
#
# 1 0.010627 -0.002004 -0.004413 0.000000 0.002942 0.000000
# 2 -0.002004 0.007270 -0.000683 0.000000 0.003231 0.000000
# 3 -0.004413 -0.000683 0.013698 0.000000 -0.005057 0.000000
# 4 0.000000 0.000000 0.000000 0.030346 0.000000 0.002142
# 5 0.002942 0.003231 -0.005057 0.000000 0.040931 0.000000
# 6 0.000000 0.000000 0.000000 0.002142 0.000000 0.020329
#
#
# Mechanical properties :
#
#
# Convention : Reuss Voigt Hill
#
# Bulk Modulus (GPa) = 57.48990 61.03922 59.26456
# Shear Modulus (GPa) = 34.91617 39.95828 37.43723
#
# Velocity S-wave (km/s) = 3.73873 3.99957 3.87135
# Velocity P-wave (km/s) = 6.45387 6.76497 6.61125
#
# Compressibility (1/GPa) = 0.01739436
#
# Stress axis : x y z
#
# Youngs Moduli (GPa) = 94.09834 137.54929 73.00282
#
# Poissons Ratio (x) = 0.27561 0.32218
# Poissons Ratio (y) = 0.18855 0.04990
# Poissons Ratio (z) = 0.41528 0.09401
#
# Static dielectric constant tensor:
#      x y z
#    x 4.512900 0.000000 -0.103800 
#    y 0.000000 4.856270 0.000000 
#    z -0.103800 0.000000 3.990360 
# 
# 
# High freq. dielectric constant tensor:
#      x y z
#    x 1.991590 0.000000 -0.008480 
#    y 0.000000 2.035010 0.000000 
#    z -0.008480 0.000000 1.958430 
# 
# From -- ./inp_files/48209.got.cif
#   From: 2010.03.12/outbox.cif.g09.slc.cpg/sg5_25_cif.got.tgz:48209.got - 2010.03.31 09:47:26.
