data_PCOD8052600
_publ_section_title
;
Structure prediction by ZEFSAII (Michael W. Deem and Ramdas Pophale) SiO2 
 PCOD8052600
Probable space group: P C
;
_chemical_formula_sum "Si O2"
_cell_formula_units_Z 14
_cell_length_a 18.707856
_cell_length_b 7.658154
_cell_length_c 4.987011
_cell_angle_alpha 90.000000
_cell_angle_beta 104.612460
_cell_angle_gamma 90.000000
_cell_volume 691.367061
_symmetry_space_group_name_H-M "P C"
_symmetry_group_IT_number 7
_symmetry_cell_setting 'monoclinic'
loop_
_space_group_symop_operation_xyz
x,y,z
x,-y,1/2+z
loop_
_atom_site_type_symbol
_atom_site_label
_atom_site_fract_x
_atom_site_fract_y
_atom_site_fract_z
Si Si1 0.461580 0.118853 0.719130
Si Si2 0.594901 0.381638 0.928770
Si Si3 0.333320 0.617682 0.092830
Si Si4 0.726507 0.879181 0.552166
Si Si5 0.885551 0.111992 0.101325
Si Si6 0.166714 0.611791 0.996416
Si Si7 0.041465 0.116064 0.369252
O O1 0.525730 0.257431 0.820962
O O2 0.383600 0.214035 0.687542
O O3 0.468334 0.041991 0.428410
O O4 0.592094 0.545073 0.726300
O O5 0.669359 0.274740 0.948845
O O6 0.349930 0.463852 0.318988
O O7 0.249285 0.686371 0.035468
O O8 0.808355 0.790849 0.596950
O O9 0.715304 0.038065 0.333940
O O10 0.961878 0.214442 0.245129
O O11 0.886290 0.937140 0.288380
O O12 0.154788 0.446480 0.790750
O O13 0.108354 0.757880 0.863329
O O14 0.046609 0.051080 0.678823
#
# Coordination Sequence:
#
# PCOD8052600 Si02
#       7
#     2   2   2   2   2   2   2
#     4  12  24  39  60  85 108 137 181 223 261 311
#     4  12  24  39  57  81 113 144 174 214 270 322
#     4  10  21  39  58  78 109 145 176 214 270 322
#     4  10  19  36  58  79 105 140 183 223 261 311
#     4   8  16  30  51  76 103 137 175 219 267 309
#     4  10  21  36  54  78 110 145 176 214 270 322
#     4  10  19  33  54  79 106 140 183 223 261 311
#
# _framework density 20.249735999999999
#
# number of rings (size 3 to 8) (size 9 to 14) (size 15 to 20)
#    0.000    1.714    0.000    5.143    0.000    1.143 
#    0.000    1.429    0.000    0.000    0.000    0.000 
#    0.000    0.000    0.000    0.000    0.000    0.000 
#
# Total GULP energy -173598.509862 kJ/mol
# GULP energy per Si atom -12399.893562 kJ/mol
# Density = 2.020365 g / cm^3
# Si number density = 20.249736 Si / 1000 Ang^3
#
#
#
# Elastic Constant Matrix: (Units=GPa)
#
#
# Indices 1 2 3 4 5 6 
#
# 1 152.7392 59.3641 29.4708 0.0000 24.6414 0.0000
# 2 59.3641 60.3122 10.6785 0.0000 15.2656 0.0000
# 3 29.4708 10.6785 78.7870 0.0000 3.9350 0.0000
# 4 0.0000 0.0000 0.0000 -110.1326 0.0000 -282.1215
# 5 24.6414 15.2656 3.9350 0.0000 34.2551 0.0000
# 6 0.0000 0.0000 0.0000 -282.1215 0.0000 -547.7648
#
#
#
# Elastic Compliance Matrix: (Units=1/GPa)
#
#
# Indices 1 2 3 4 5 6 
#
# 1 0.011524 -0.009955 -0.002785 0.000000 -0.003533 0.000000
# 2 -0.009955 0.027651 0.000235 0.000000 -0.005188 0.000000
# 3 -0.002785 0.000235 0.013686 0.000000 0.000326 0.000000
# 4 0.000000 0.000000 0.000000 0.028432 0.000000 -0.014644
# 5 -0.003533 -0.005188 0.000326 0.000000 0.034009 0.000000
# 6 0.000000 0.000000 0.000000 -0.014644 0.000000 0.005716
#
#
# Mechanical properties :
#
#
# Convention : Reuss Voigt Hill
#
# Bulk Modulus (GPa) = 35.90559 54.54056 45.22308
# Shear Modulus (GPa) = 32.19362 -111.90678 -39.85658
#
# Velocity S-wave (km/s) = 3.99159 -7.44200 -4.44131
# Velocity P-wave (km/s) = 6.24609 6.84485 1.97969
#
# Compressibility (1/GPa) = 0.02785081
#
# Stress axis : x y z
#
# Youngs Moduli (GPa) = 86.77828 36.16566 73.06776
#
# Poissons Ratio (x) = 0.36003 0.20347
# Poissons Ratio (y) = 0.86389 -0.01719
# Poissons Ratio (z) = 0.24165 -0.00851
#
# Static dielectric constant tensor:
#      x y z
#    x 4.046380 0.000000 0.141410 
#    y 0.000000 3.712440 0.000000 
#    z 0.141410 0.000000 3.924410 
# 
# 
# High freq. dielectric constant tensor:
#      x y z
#    x 1.816240 0.000000 0.003420 
#    y 0.000000 1.741140 0.000000 
#    z 0.003420 0.000000 1.815550 
# 
# From -- ./inp_files/1320.got.cif
#   From: 2010.03.12/outbox.cif.g09.slc.cpg/sg7_cif.got.tgz:1320.got - 2010.03.30 08:40:41.
