data_PCOD8052803
_publ_section_title
;
Structure prediction by ZEFSAII (Michael W. Deem and Ramdas Pophale) SiO2 
 PCOD8052803
Probable space group: C M
;
_chemical_formula_sum "Si O2"
_cell_formula_units_Z 32
_cell_length_a 24.805709
_cell_length_b 8.841727
_cell_length_c 19.044565
_cell_angle_alpha 90.000000
_cell_angle_beta 153.754497
_cell_angle_gamma 90.000000
_cell_volume 1847.125950
_symmetry_space_group_name_H-M "C M"
_symmetry_group_IT_number 8
_symmetry_cell_setting 'monoclinic'
loop_
_space_group_symop_operation_xyz
x,y,z
x,-y,z
1/2+x,1/2+y,z
1/2+x,1/2-y,z
loop_
_atom_site_type_symbol
_atom_site_label
_atom_site_fract_x
_atom_site_fract_y
_atom_site_fract_z
Si Si1 0.933620 0.671132 0.743210
Si Si2 0.711260 0.321538 0.387518
Si Si3 0.401673 0.678452 0.246383
Si Si4 0.178070 0.821887 0.061010
Si Si5 0.542562 0.830842 0.298481
Si Si6 0.633336 0.832651 0.550728
Si Si7 0.141610 0.680065 0.165717
Si Si8 0.870553 0.330181 0.828253
O O1 0.979440 0.500000 0.782528
O O2 0.837512 0.723539 0.572223
O O3 0.867366 0.677175 0.740558
O O4 0.048353 0.782715 0.874528
O O5 0.692874 0.500000 0.364037
O O6 0.595906 0.250401 0.292641
O O7 0.718123 0.253662 0.317685
O O8 0.383240 0.500000 0.227652
O O9 0.281057 0.763496 0.129183
O O10 0.429637 0.733972 0.199011
O O11 0.515327 0.727621 0.430084
O O12 0.195820 0.739912 0.156238
O O13 0.188880 0.000000 0.084368
O O14 0.645414 0.841249 0.479775
O O15 0.498802 0.000000 0.226323
O O16 0.759099 0.767596 0.729142
O O17 0.612320 0.000000 0.558000
O O18 0.153210 0.500000 0.179861
O O19 0.000085 0.731178 0.007671
O O20 0.849543 0.500000 0.830134
#
# Coordination Sequence:
#
# PCOD8052803 Si02
#       8
#     4   4   4   4   4   4   4   4
#     4   9  18  31  49  72 100 132 168 209 252 298
#     4  11  20  33  53  78 106 137 171 207 254 308
#     4  10  18  31  51  74 101 132 168 210 254 298
#     4  11  21  34  52  76 102 132 174 215 252 299
#     4   9  18  30  48  76 103 129 163 206 250 294
#     4   9  17  27  46  75 101 125 160 206 248 291
#     4  10  22  36  50  72 107 142 171 207 254 305
#     4   9  16  30  49  71 100 133 167 206 252 299
#
# _framework density 17.324211999999999
#
# number of rings (size 3 to 8) (size 9 to 14) (size 15 to 20)
#    0.750    1.500    1.250    4.125    0.000    3.500 
#    0.000    0.000    0.000    1.500    0.000    0.000 
#    0.000    0.000    0.000    0.000    0.000    0.000 
#
# Total GULP energy -198306.629665 kJ/mol
# GULP energy per Si atom -12394.164354 kJ/mol
# Density = 1.728478 g / cm^3
# Si number density = 17.324212 Si / 1000 Ang^3
#
#
#
# Elastic Constant Matrix: (Units=GPa)
#
#
# Indices 1 2 3 4 5 6 
#
# 1 65.4197 23.6280 34.2198 0.0000 5.1435 0.0000
# 2 23.6280 92.5035 32.5990 0.0000 4.2739 0.0000
# 3 34.2198 32.5990 72.3759 0.0000 -5.8043 0.0000
# 4 0.0000 0.0000 0.0000 25.1256 0.0000 2.2887
# 5 5.1435 4.2739 -5.8043 0.0000 26.5371 0.0000
# 6 0.0000 0.0000 0.0000 2.2887 0.0000 28.2288
#
#
#
# Elastic Compliance Matrix: (Units=1/GPa)
#
#
# Indices 1 2 3 4 5 6 
#
# 1 0.021571 -0.001740 -0.009901 0.000000 -0.006066 0.000000
# 2 -0.001740 0.013298 -0.005406 0.000000 -0.002987 0.000000
# 3 -0.009901 -0.005406 0.021535 0.000000 0.007500 0.000000
# 4 0.000000 0.000000 0.000000 0.040096 0.000000 -0.003251
# 5 -0.006066 -0.002987 0.007500 0.000000 0.040980 0.000000
# 6 0.000000 0.000000 0.000000 -0.003251 0.000000 0.035688
#
#
# Mechanical properties :
#
#
# Convention : Reuss Voigt Hill
#
# Bulk Modulus (GPa) = 44.82785 45.68807 45.25796
# Shear Modulus (GPa) = 23.28829 25.30182 24.29506
#
# Velocity S-wave (km/s) = 3.67040 3.82578 3.74889
# Velocity P-wave (km/s) = 6.62529 6.77828 6.70222
#
# Compressibility (1/GPa) = 0.02230756
#
# Stress axis : x y z
#
# Youngs Moduli (GPa) = 46.35940 75.19842 46.43643
#
# Poissons Ratio (x) = 0.13085 0.45979
# Poissons Ratio (y) = 0.08067 0.25106
# Poissons Ratio (z) = 0.45902 0.40656
#
# Static dielectric constant tensor:
#      x y z
#    x 2.905890 0.000000 0.050290 
#    y 0.000000 3.290620 0.000000 
#    z 0.050290 0.000000 3.082010 
# 
# 
# High freq. dielectric constant tensor:
#      x y z
#    x 1.635070 0.000000 0.013520 
#    y 0.000000 1.683470 0.000000 
#    z 0.013520 0.000000 1.649990 
# 
# From -- ./inp_files/30050.got.cif
#   From: 2010.03.12/outbox.cif.g09.slc.cpg/sg8_16_cif.got.tgz:30050.got - 2010.03.31 10:45:26.
