data_PCOD8052983
_publ_section_title
;
Structure prediction by ZEFSAII (Michael W. Deem and Ramdas Pophale) SiO2 
 PCOD8052983
Probable space group: C M
;
_chemical_formula_sum "Si O2"
_cell_formula_units_Z 24
_cell_length_a 14.843949
_cell_length_b 15.907881
_cell_length_c 5.061576
_cell_angle_alpha 90.000000
_cell_angle_beta 93.173196
_cell_angle_gamma 90.000000
_cell_volume 1193.386621
_symmetry_space_group_name_H-M "C M"
_symmetry_group_IT_number 8
_symmetry_cell_setting 'monoclinic'
loop_
_space_group_symop_operation_xyz
x,y,z
x,-y,z
1/2+x,1/2+y,z
1/2+x,1/2-y,z
loop_
_atom_site_type_symbol
_atom_site_label
_atom_site_fract_x
_atom_site_fract_y
_atom_site_fract_z
Si Si1 0.280320 0.833603 0.948160
Si Si2 0.417934 0.594445 0.688900
Si Si3 0.873134 0.403517 0.444006
Si Si4 0.862460 0.831127 0.176872
Si Si5 0.088570 0.784611 0.780095
Si Si6 0.525675 0.786772 0.273726
O O1 0.343198 0.850950 0.700223
O O2 0.176361 0.841660 0.848695
O O3 0.301192 0.897578 0.191858
O O4 0.294201 0.740721 0.070159
O O5 0.448740 0.500000 0.626600
O O6 0.344595 0.627021 0.459262
O O7 0.505438 0.652461 0.733231
O O8 0.364244 0.596366 0.956279
O O9 0.884212 0.500000 0.530467
O O10 0.968122 0.369135 0.344379
O O11 0.960958 0.792490 0.231515
O O12 0.100064 0.732726 0.510124
O O13 0.075514 0.710820 0.998808
#
# Coordination Sequence:
#
# PCOD8052983 Si02
#       6
#     4   4   4   4   4   4
#     4  11  21  36  56  81 111 143 182 226 275 327
#     4  10  19  32  52  77 104 134 172 219 267 315
#     4  11  22  36  57  83 112 145 181 227 278 328
#     4   9  18  33  52  73 100 141 181 209 251 321
#     4  10  20  34  55  79 106 141 179 222 269 320
#     4   9  18  35  54  75 103 144 189 215 252 325
#
# _framework density 20.110831999999998
#
# number of rings (size 3 to 8) (size 9 to 14) (size 15 to 20)
#    0.000    2.000    0.000    7.000    0.000    1.333 
#    0.000    0.000    0.000    6.000    0.000    0.000 
#    0.000    0.000    0.000    0.000    0.000    0.000 
#
# Total GULP energy -148657.586850 kJ/mol
# GULP energy per Si atom -12388.132237 kJ/mol
# Density = 2.006506 g / cm^3
# Si number density = 20.110832 Si / 1000 Ang^3
#
#
#
# Elastic Constant Matrix: (Units=GPa)
#
#
# Indices 1 2 3 4 5 6 
#
# 1 33.8113 29.6895 22.8145 0.0000 5.7687 0.0000
# 2 29.6895 97.3420 45.2982 0.0000 6.4867 0.0000
# 3 22.8145 45.2982 134.6827 0.0000 12.8160 0.0000
# 4 0.0000 0.0000 0.0000 28.4583 0.0000 2.3235
# 5 5.7687 6.4867 12.8160 0.0000 26.5397 0.0000
# 6 0.0000 0.0000 0.0000 2.3235 0.0000 11.7759
#
#
#
# Elastic Compliance Matrix: (Units=1/GPa)
#
#
# Indices 1 2 3 4 5 6 
#
# 1 0.042223 -0.011188 -0.002910 0.000000 -0.005038 0.000000
# 2 -0.011188 0.015172 -0.003235 0.000000 0.000286 0.000000
# 3 -0.002910 -0.003235 0.009298 0.000000 -0.003067 0.000000
# 4 0.000000 0.000000 0.000000 0.035714 0.000000 -0.007047
# 5 -0.005038 0.000286 -0.003067 0.000000 0.040185 0.000000
# 6 0.000000 0.000000 0.000000 -0.007047 0.000000 0.086309
#
#
# Mechanical properties :
#
#
# Convention : Reuss Voigt Hill
#
# Bulk Modulus (GPa) = 31.22403 51.27116 41.24759
# Shear Modulus (GPa) = 18.23195 24.55703 21.39449
#
# Velocity S-wave (km/s) = 3.01420 3.49819 3.26518
# Velocity P-wave (km/s) = 5.26057 6.47040 5.89660
#
# Compressibility (1/GPa) = 0.03202662
#
# Stress axis : x y z
#
# Youngs Moduli (GPa) = 23.68351 65.91192 107.55515
#
# Poissons Ratio (x) = 0.73745 0.31299
# Poissons Ratio (y) = 0.26498 0.34791
# Poissons Ratio (z) = 0.06892 0.21321
#
# Static dielectric constant tensor:
#      x y z
#    x 3.241860 0.000000 0.099720 
#    y 0.000000 3.293210 0.000000 
#    z 0.099720 0.000000 4.471000 
# 
# 
# High freq. dielectric constant tensor:
#      x y z
#    x 1.742780 0.000000 0.013150 
#    y 0.000000 1.753070 0.000000 
#    z 0.013150 0.000000 1.822950 
# 
# From -- ./inp_files/3860.got.cif
#   From: 2010.03.12/outbox.cif.g09.slc.cpg/sg8_2_cif.got.tgz:3860.got - 2010.03.31 10:45:26.
