data_PCOD8052908
_publ_section_title
;
Structure prediction by ZEFSAII (Michael W. Deem and Ramdas Pophale) SiO2 
 PCOD8052908
Probable space group: C M
;
_chemical_formula_sum "Si O2"
_cell_formula_units_Z 32
_cell_length_a 23.254024
_cell_length_b 13.690717
_cell_length_c 8.481883
_cell_angle_alpha 90.000000
_cell_angle_beta 35.147909
_cell_angle_gamma 90.000000
_cell_volume 1554.549807
_symmetry_space_group_name_H-M "C M"
_symmetry_group_IT_number 8
_symmetry_cell_setting 'monoclinic'
loop_
_space_group_symop_operation_xyz
x,y,z
x,-y,z
1/2+x,1/2+y,z
1/2+x,1/2-y,z
loop_
_atom_site_type_symbol
_atom_site_label
_atom_site_fract_x
_atom_site_fract_y
_atom_site_fract_z
Si Si1 0.289850 0.700299 0.240220
Si Si2 0.031029 0.607555 0.453184
Si Si3 0.587588 0.886409 0.660997
Si Si4 0.305974 0.892947 0.033472
Si Si5 0.043546 0.208313 0.215828
Si Si6 0.766724 0.295099 0.799574
Si Si7 0.855426 0.113707 0.769138
Si Si8 0.926841 0.733590 0.193967
O O1 0.184374 0.656146 0.532654
O O2 0.266989 0.812595 0.243636
O O3 0.365308 0.693578 0.218268
O O4 0.337026 0.637880 0.992801
O O5 0.059092 0.500000 0.324436
O O6 0.103089 0.637357 0.438493
O O7 0.032775 0.681818 0.305870
O O8 0.924670 0.605637 0.776449
O O9 0.581715 0.000000 0.704803
O O10 0.485299 0.843474 0.957258
O O11 0.262592 0.000000 0.175381
O O12 0.274099 0.868480 0.927622
O O13 0.972957 0.135744 0.474594
O O14 0.006364 0.204678 0.118627
O O15 0.159512 0.182768 0.963352
O O16 0.785212 0.182308 0.815325
O O17 0.849737 0.321859 0.483312
O O18 0.831441 0.000000 0.788565
#
# Coordination Sequence:
#
# PCOD8052908 Si02
#       8
#     4   4   4   4   4   4   4   4
#     4  11  21  38  60  90 122 157 193 246 298 356
#     4  10  18  35  61  89 116 146 194 251 297 344
#     4  11  23  38  63  92 119 154 202 248 294 352
#     4  10  19  36  61  87 114 151 196 249 295 344
#     4  11  21  39  60  89 117 158 196 243 298 356
#     4  10  22  39  62  84 118 156 201 244 296 351
#     4  10  21  40  64  88 116 153 198 249 302 350
#     4  11  22  39  56  83 124 161 189 240 297 351
#
# _framework density 20.584738999999999
#
# number of rings (size 3 to 8) (size 9 to 14) (size 15 to 20)
#    0.000    1.500    5.000    2.625    0.000    3.000 
#    0.000    7.500    0.000    6.750    0.000    0.000 
#    0.000    0.000    0.000    0.000    0.000    0.000 
#
# Total GULP energy -198367.100421 kJ/mol
# GULP energy per Si atom -12397.943776 kJ/mol
# Density = 2.053789 g / cm^3
# Si number density = 20.584739 Si / 1000 Ang^3
#
#
#
# Elastic Constant Matrix: (Units=GPa)
#
#
# Indices 1 2 3 4 5 6 
#
# 1 135.6183 25.8528 29.8953 0.0000 -11.7809 0.0000
# 2 25.8528 98.9650 10.9021 0.0000 1.8664 0.0000
# 3 29.8953 10.9021 56.5541 0.0000 -7.8859 0.0000
# 4 0.0000 0.0000 0.0000 17.3456 0.0000 -3.0855
# 5 -11.7809 1.8664 -7.8859 0.0000 34.9776 0.0000
# 6 0.0000 0.0000 0.0000 -3.0855 0.0000 18.8680
#
#
#
# Elastic Compliance Matrix: (Units=1/GPa)
#
#
# Indices 1 2 3 4 5 6 
#
# 1 0.008803 -0.001902 -0.003984 0.000000 0.002168 0.000000
# 2 -0.001902 0.010771 -0.001281 0.000000 -0.001504 0.000000
# 3 -0.003984 -0.001281 0.020502 0.000000 0.003349 0.000000
# 4 0.000000 0.000000 0.000000 0.059379 0.000000 0.009710
# 5 0.002168 -0.001504 0.003349 0.000000 0.030155 0.000000
# 6 0.000000 0.000000 0.000000 0.009710 0.000000 0.054588
#
#
# Mechanical properties :
#
#
# Convention : Reuss Voigt Hill
#
# Bulk Modulus (GPa) = 38.84661 47.15975 43.00318
# Shear Modulus (GPa) = 24.14157 29.20406 26.67281
#
# Velocity S-wave (km/s) = 3.42832 3.77068 3.60357
# Velocity P-wave (km/s) = 5.88079 6.47435 6.18469
#
# Compressibility (1/GPa) = 0.02574227
#
# Stress axis : x y z
#
# Youngs Moduli (GPa) = 113.60064 92.84372 48.77511
#
# Poissons Ratio (x) = 0.17654 0.19434
# Poissons Ratio (y) = 0.21601 0.06247
# Poissons Ratio (z) = 0.45263 0.11892
#
# Static dielectric constant tensor:
#      x y z
#    x 3.957710 0.000000 -0.124240 
#    y 0.000000 3.650860 0.000000 
#    z -0.124240 0.000000 3.671400 
# 
# 
# High freq. dielectric constant tensor:
#      x y z
#    x 1.814050 0.000000 -0.009050 
#    y 0.000000 1.782400 0.000000 
#    z -0.009050 0.000000 1.797880 
# 
# From -- ./inp_files/17597.got.cif
#   From: 2010.03.12/outbox.cif.g09.slc.cpg/sg8_9_cif.got.tgz:17597.got - 2010.03.31 10:45:26.
