data_PCOD8052160
_publ_section_title
;
Structure prediction by ZEFSAII (Michael W. Deem and Ramdas Pophale) SiO2 
 PCOD8052160
Probable space group: C 2
;
_chemical_formula_sum "Si O2"
_cell_formula_units_Z 16
_cell_length_a 12.294137
_cell_length_b 7.600706
_cell_length_c 10.863705
_cell_angle_alpha 90.000000
_cell_angle_beta 144.190196
_cell_angle_gamma 90.000000
_cell_volume 593.960288
_symmetry_space_group_name_H-M "C 2"
_symmetry_group_IT_number 5
_symmetry_cell_setting 'monoclinic'
loop_
_space_group_symop_operation_xyz
x,y,z
-x,y,-z
1/2+x,1/2+y,z
1/2-x,1/2+y,-z
loop_
_atom_site_type_symbol
_atom_site_label
_atom_site_fract_x
_atom_site_fract_y
_atom_site_fract_z
Si Si1 0.428903 0.419370 0.058699
Si Si2 0.860081 0.118752 0.224875
Si Si3 0.319872 0.870509 0.757364
Si Si4 0.729975 0.185818 0.448660
O O1 0.326192 0.559574 0.051481
O O2 0.605251 0.353450 0.299358
O O3 0.500000 0.514061 0.000000
O O4 0.294543 0.263820 0.888013
O O5 0.067833 0.194795 0.433080
O O6 0.833201 0.951072 0.290570
O O7 0.252843 0.696126 0.619756
O O8 0.371744 0.009874 0.694726
O O9 0.500000 0.822912 0.000000
#
# Coordination Sequence:
#
# PCOD8052160 Si02
#       4
#     4   4   4   4
#     4  12  27  46  73 111 147 195 253 304 368 450
#     4  12  26  47  76 103 154 199 237 315 374 429
#     4  12  25  51  76 109 154 194 251 308 367 449
#     4  12  25  46  77 105 147 200 240 307 376 430
#
# _framework density 26.937826999999999
#
# number of rings (size 3 to 8) (size 9 to 14) (size 15 to 20)
#    0.000    0.000    7.500    2.250    0.000    3.000 
#    0.000    0.000    0.000    0.000    0.000    0.000 
#    0.000    0.000    0.000    0.000    0.000    0.000 
#
# Total GULP energy -99192.416934 kJ/mol
# GULP energy per Si atom -12399.052117 kJ/mol
# Density = 2.687652 g / cm^3
# Si number density = 26.937827 Si / 1000 Ang^3
#
#
#
# Elastic Constant Matrix: (Units=GPa)
#
#
# Indices 1 2 3 4 5 6 
#
# 1 136.4960 29.3247 14.7554 0.0000 -10.8786 0.0000
# 2 29.3247 69.1142 18.8242 0.0000 -12.4607 0.0000
# 3 14.7554 18.8242 145.4718 0.0000 -11.7415 0.0000
# 4 0.0000 0.0000 0.0000 38.8349 0.0000 -26.7426
# 5 -10.8786 -12.4607 -11.7415 0.0000 53.3385 0.0000
# 6 0.0000 0.0000 0.0000 -26.7426 0.0000 42.2858
#
#
#
# Elastic Compliance Matrix: (Units=1/GPa)
#
#
# Indices 1 2 3 4 5 6 
#
# 1 0.008117 -0.003201 -0.000342 0.000000 0.000832 0.000000
# 2 -0.003201 0.016792 -0.001613 0.000000 0.002915 0.000000
# 3 -0.000342 -0.001613 0.007210 0.000000 0.001141 0.000000
# 4 0.000000 0.000000 0.000000 0.045616 0.000000 0.028848
# 5 0.000832 0.002915 0.001141 0.000000 0.019850 0.000000
# 6 0.000000 0.000000 0.000000 0.028848 0.000000 0.041893
#
#
# Mechanical properties :
#
#
# Convention : Reuss Voigt Hill
#
# Bulk Modulus (GPa) = 45.85654 52.98783 49.42218
# Shear Modulus (GPa) = 31.83540 46.10371 38.96956
#
# Velocity S-wave (km/s) = 3.44148 4.14150 3.80761
# Velocity P-wave (km/s) = 5.73164 6.52552 6.14143
#
# Compressibility (1/GPa) = 0.02180714
#
# Stress axis : x y z
#
# Youngs Moduli (GPa) = 123.19512 59.55303 138.70323
#
# Poissons Ratio (x) = 0.19062 0.04743
# Poissons Ratio (y) = 0.39433 0.22372
# Poissons Ratio (z) = 0.04213 0.09605
#
# Static dielectric constant tensor:
#      x y z
#    x 5.013600 0.000000 -0.304040 
#    y 0.000000 4.639240 0.000000 
#    z -0.304040 0.000000 5.079520 
# 
# 
# High freq. dielectric constant tensor:
#      x y z
#    x 2.078190 0.000000 -0.023080 
#    y 0.000000 2.070740 0.000000 
#    z -0.023080 0.000000 2.105870 
# 
# From -- ./inp_files/18172.got.cif
#   From: 2010.03.12/outbox.cif.g09.slc.cpg/sg5_10_cif.got.tgz:18172.got - 2010.03.31 09:47:26.
