data_PCOD8052678
_publ_section_title
;
Structure prediction by ZEFSAII (Michael W. Deem and Ramdas Pophale) SiO2 
 PCOD8052678
Probable space group: P C
;
_chemical_formula_sum "Si O2"
_cell_formula_units_Z 16
_cell_length_a 6.417713
_cell_length_b 24.115228
_cell_length_c 6.165830
_cell_angle_alpha 90.000000
_cell_angle_beta 46.129499
_cell_angle_gamma 90.000000
_cell_volume 687.928126
_symmetry_space_group_name_H-M "P C"
_symmetry_group_IT_number 7
_symmetry_cell_setting 'monoclinic'
loop_
_space_group_symop_operation_xyz
x,y,z
x,-y,1/2+z
loop_
_atom_site_type_symbol
_atom_site_label
_atom_site_fract_x
_atom_site_fract_y
_atom_site_fract_z
Si Si1 0.546250 0.939741 0.693860
Si Si2 0.243836 0.216050 0.912506
Si Si3 0.248547 0.600736 0.379337
Si Si4 0.741649 0.528159 0.880322
Si Si5 0.718411 0.142310 0.405812
Si Si6 0.141701 0.304437 0.643871
Si Si7 0.511198 0.311273 0.983991
Si Si8 0.901965 0.951979 0.054550
O O1 0.529049 0.884955 0.851597
O O2 0.695553 0.918695 0.367770
O O3 0.754137 0.988981 0.624409
O O4 0.225089 0.964582 0.902828
O O5 0.486624 0.168377 0.737005
O O6 0.233812 0.247204 0.690024
O O7 0.316196 0.260058 0.045838
O O8 0.929315 0.190829 0.179022
O O9 0.435265 0.559350 0.095628
O O10 0.081815 0.645431 0.352756
O O11 0.467118 0.632737 0.380684
O O12 0.014715 0.568806 0.692986
O O13 0.754532 0.499549 0.120776
O O14 0.912501 0.090814 0.349183
O O15 0.410449 0.322227 0.301438
O O16 0.846934 0.295347 0.723628
#
# Coordination Sequence:
#
# PCOD8052678 Si02
#       8
#     2   2   2   2   2   2   2   2
#     4  12  26  43  68  95 128 175 224 273 342 416
#     4  11  26  44  64 106 132 174 224 285 356 426
#     4  11  26  46  72 108 144 194 252 291 366 426
#     4  12  28  47  74 110 162 203 250 314 370 436
#     4  12  26  43  68  94 142 167 222 286 346 428
#     4  11  24  44  75  99 138 183 235 296 352 433
#     4  11  24  44  75  99 138 183 235 296 352 433
#     4  12  26  43  68  95 128 175 224 273 342 416
#
# _framework density 23.258244000000001
#
# number of rings (size 3 to 8) (size 9 to 14) (size 15 to 20)
#    0.000    0.500    1.250    6.000    7.000   10.000 
#    0.000    0.000    0.000    0.000    0.000    0.000 
#    0.000    0.000    0.000    0.000    0.000    0.000 
#
# Total GULP energy -198258.845205 kJ/mol
# GULP energy per Si atom -12391.177825 kJ/mol
# Density = 2.320531 g / cm^3
# Si number density = 23.258244 Si / 1000 Ang^3
#
#
#
# Elastic Constant Matrix: (Units=GPa)
#
#
# Indices 1 2 3 4 5 6 
#
# 1 106.1272 27.4160 24.6898 0.0000 -15.0957 0.0000
# 2 27.4160 101.2702 23.7241 0.0000 1.6748 0.0000
# 3 24.6898 23.7241 109.7877 0.0000 -10.0670 0.0000
# 4 0.0000 0.0000 0.0000 31.1921 0.0000 -2.5120
# 5 -15.0957 1.6748 -10.0670 0.0000 49.7402 0.0000
# 6 0.0000 0.0000 0.0000 -2.5120 0.0000 22.3048
#
#
#
# Elastic Compliance Matrix: (Units=1/GPa)
#
#
# Indices 1 2 3 4 5 6 
#
# 1 0.010913 -0.002629 -0.001604 0.000000 0.003076 0.000000
# 2 -0.002629 0.011068 -0.001944 0.000000 -0.001564 0.000000
# 3 -0.001604 -0.001944 0.010037 0.000000 0.001610 0.000000
# 4 0.000000 0.000000 0.000000 0.032353 0.000000 0.003644
# 5 0.003076 -0.001564 0.001610 0.000000 0.021416 0.000000
# 6 0.000000 0.000000 0.000000 0.003644 0.000000 0.045244
#
#
# Mechanical properties :
#
#
# Convention : Reuss Voigt Hill
#
# Bulk Modulus (GPa) = 50.85683 52.09390 51.47536
# Shear Modulus (GPa) = 33.34705 36.73777 35.04241
#
# Velocity S-wave (km/s) = 3.79063 3.97868 3.88579
# Velocity P-wave (km/s) = 6.40875 6.59948 6.50482
#
# Compressibility (1/GPa) = 0.01966304
#
# Stress axis : x y z
#
# Youngs Moduli (GPa) = 91.63767 90.35364 99.63307
#
# Poissons Ratio (x) = 0.23758 0.15980
# Poissons Ratio (y) = 0.24095 0.19366
# Poissons Ratio (z) = 0.14697 0.17562
#
# Static dielectric constant tensor:
#      x y z
#    x 4.301580 0.000000 0.304810 
#    y 0.000000 4.196210 0.000000 
#    z 0.304810 0.000000 4.484490 
# 
# 
# High freq. dielectric constant tensor:
#      x y z
#    x 1.923540 0.000000 -0.002340 
#    y 0.000000 1.925280 0.000000 
#    z -0.002340 0.000000 1.935480 
# 
# From -- ./inp_files/379.got.cif
#   From: 2010.03.12/outbox.cif.g09.slc.cpg/sg7_cif.got.tgz:379.got - 2010.03.30 08:40:41.
