data_PCOD8052184
_publ_section_title
;
Structure prediction by ZEFSAII (Michael W. Deem and Ramdas Pophale) SiO2 
 PCOD8052184
Probable space group: C 2
;
_chemical_formula_sum "Si O2"
_cell_formula_units_Z 22
_cell_length_a 13.967139
_cell_length_b 5.436946
_cell_length_c 11.482320
_cell_angle_alpha 90.000000
_cell_angle_beta 85.602159
_cell_angle_gamma 90.000000
_cell_volume 869.383746
_symmetry_space_group_name_H-M "C 2"
_symmetry_group_IT_number 5
_symmetry_cell_setting 'monoclinic'
loop_
_space_group_symop_operation_xyz
x,y,z
-x,y,-z
1/2+x,1/2+y,z
1/2-x,1/2+y,-z
loop_
_atom_site_type_symbol
_atom_site_label
_atom_site_fract_x
_atom_site_fract_y
_atom_site_fract_z
Si Si1 0.000000 0.915431 0.500000
Si Si2 0.569700 0.792587 0.866596
Si Si3 0.147569 0.603662 0.387535
Si Si4 0.159603 0.789944 0.956566
Si Si5 0.641029 0.773917 0.607706
Si Si6 0.637880 0.940255 0.140256
O O1 0.051842 0.769686 0.389602
O O2 0.090548 0.052639 0.545972
O O3 0.608327 0.529152 0.909292
O O4 0.578967 0.821930 0.727325
O O5 0.623212 0.031324 0.908550
O O6 0.455598 0.804756 0.906013
O O7 0.249912 0.731468 0.363582
O O8 0.140894 0.497266 0.518060
O O9 0.138518 0.417005 0.280139
O O10 0.272732 0.790662 0.920423
O O11 0.143139 0.730613 0.097090
#
# Coordination Sequence:
#
# PCOD8052184 Si02
#       6
#     2   4   4   4   4   4
#     4  12  26  50  80 114 162 210 268 326 428 478
#     4  12  30  54  86 117 166 212 277 345 408 493
#     4  12  27  50  82 118 163 213 269 345 404 502
#     4  12  30  54  80 122 160 221 276 337 405 488
#     4  12  27  50  81 120 158 212 272 339 416 487
#     4  12  29  53  83 117 167 219 278 337 418 478
#
# _framework density 25.305277
#
# number of rings (size 3 to 8) (size 9 to 14) (size 15 to 20)
#    0.000    0.000    3.636    4.364    7.636    8.727 
#    3.273    0.000    0.000    0.000    0.000    0.000 
#    0.000    0.000    0.000    0.000    0.000    0.000 
#
# Total GULP energy -136319.949531 kJ/mol
# GULP energy per Si atom -12392.722685 kJ/mol
# Density = 2.524768 g / cm^3
# Si number density = 25.305277 Si / 1000 Ang^3
#
#
#
# Elastic Constant Matrix: (Units=GPa)
#
#
# Indices 1 2 3 4 5 6 
#
# 1 202.9521 48.6927 22.3746 0.0000 -11.2704 0.0000
# 2 48.6927 122.1549 35.0217 0.0000 -2.4574 0.0000
# 3 22.3746 35.0217 108.8695 0.0000 -4.6731 0.0000
# 4 0.0000 0.0000 0.0000 35.5086 0.0000 0.0910
# 5 -11.2704 -2.4574 -4.6731 0.0000 37.3456 0.0000
# 6 0.0000 0.0000 0.0000 0.0910 0.0000 42.9466
#
#
#
# Elastic Compliance Matrix: (Units=1/GPa)
#
#
# Indices 1 2 3 4 5 6 
#
# 1 0.005551 -0.002064 -0.000413 0.000000 0.001488 0.000000
# 2 -0.002064 0.009788 -0.002738 0.000000 -0.000322 0.000000
# 3 -0.000413 -0.002738 0.010193 0.000000 0.000971 0.000000
# 4 0.000000 0.000000 0.000000 0.028162 0.000000 -0.000060
# 5 0.001488 -0.000322 0.000971 0.000000 0.027326 0.000000
# 6 0.000000 0.000000 0.000000 -0.000060 0.000000 0.023285
#
#
# Mechanical properties :
#
#
# Convention : Reuss Voigt Hill
#
# Bulk Modulus (GPa) = 66.22295 71.79495 69.00895
# Shear Modulus (GPa) = 41.74723 45.01933 43.38328
#
# Velocity S-wave (km/s) = 4.06611 4.22245 4.14502
# Velocity P-wave (km/s) = 6.94772 7.22532 7.08788
#
# Compressibility (1/GPa) = 0.01510050
#
# Stress axis : x y z
#
# Youngs Moduli (GPa) = 180.15864 102.16872 98.11006
#
# Poissons Ratio (x) = 0.21091 0.04050
# Poissons Ratio (y) = 0.37190 0.26864
# Poissons Ratio (z) = 0.07438 0.27975
#
# Static dielectric constant tensor:
#      x y z
#    x 4.695360 0.000000 0.047330 
#    y 0.000000 4.519450 0.000000 
#    z 0.047330 0.000000 5.309950 
# 
# 
# High freq. dielectric constant tensor:
#      x y z
#    x 2.043390 0.000000 -0.004790 
#    y 0.000000 1.996870 0.000000 
#    z -0.004790 0.000000 2.034970 
# 
# From -- ./inp_files/41126.got.cif
#   From: 2010.03.12/outbox.cif.g09.slc.cpg/sg5_21_cif.got.tgz:41126.got - 2010.03.31 09:47:26.
