data_PCOD8052830
_publ_section_title
;
Structure prediction by ZEFSAII (Michael W. Deem and Ramdas Pophale) SiO2 
 PCOD8052830
Probable space group: C M
;
_chemical_formula_sum "Si O2"
_cell_formula_units_Z 32
_cell_length_a 20.589975
_cell_length_b 9.295706
_cell_length_c 25.310705
_cell_angle_alpha 90.000000
_cell_angle_beta 22.309186
_cell_angle_gamma 90.000000
_cell_volume 1838.966346
_symmetry_space_group_name_H-M "C M"
_symmetry_group_IT_number 8
_symmetry_cell_setting 'monoclinic'
loop_
_space_group_symop_operation_xyz
x,y,z
x,-y,z
1/2+x,1/2+y,z
1/2+x,1/2-y,z
loop_
_atom_site_type_symbol
_atom_site_label
_atom_site_fract_x
_atom_site_fract_y
_atom_site_fract_z
Si Si1 0.643010 0.831206 0.404770
Si Si2 0.916563 0.165211 0.113540
Si Si3 0.549508 0.831255 0.857153
Si Si4 0.368320 0.170275 0.428922
Si Si5 0.098788 0.829485 0.545607
Si Si6 0.713049 0.833506 0.846080
Si Si7 0.748308 0.832878 0.128532
Si Si8 0.305699 0.170199 0.593941
O O1 0.807082 0.786325 0.246508
O O2 0.656642 0.744186 0.448279
O O3 0.472085 0.787521 0.502305
O O4 0.643200 0.000000 0.416896
O O5 0.801294 0.194176 0.149045
O O6 0.968366 0.000000 0.078637
O O7 0.093938 0.252188 0.977825
O O8 0.656936 0.796918 0.828883
O O9 0.642027 0.753858 0.739106
O O10 0.534080 0.000000 0.857575
O O11 0.360923 0.763694 0.004452
O O12 0.224154 0.225850 0.497251
O O13 0.553644 0.221450 0.268915
O O14 0.330859 0.228797 0.515655
O O15 0.369780 0.000000 0.431207
O O16 0.908096 0.781838 0.705803
O O17 0.108497 0.000000 0.529834
O O18 0.692699 0.000000 0.874109
O O19 0.770642 0.000000 0.096365
O O20 0.271054 0.000000 0.622115
#
# Coordination Sequence:
#
# PCOD8052830 Si02
#       8
#     4   4   4   4   4   4   4   4
#     4  10  19  32  52  78 104 130 169 215 254 296
#     4   9  17  30  51  76  99 125 165 214 253 288
#     4  10  19  31  48  76 108 134 163 207 257 302
#     4   9  18  34  56  77 100 132 173 215 251 295
#     4  10  20  35  53  75 105 138 168 205 255 306
#     4   9  18  31  47  72 104 133 164 201 249 303
#     4   9  16  31  53  76  98 128 171 213 252 295
#     4  10  18  32  54  78 100 130 173 216 251 291
#
# _framework density 17.401078999999999
#
# number of rings (size 3 to 8) (size 9 to 14) (size 15 to 20)
#    0.000    2.500    2.500    0.375    0.000    1.500 
#    0.000    3.125    0.000    6.000    0.000    0.000 
#    0.000    0.000    0.000    0.000    0.000    0.000 
#
# Total GULP energy -198414.012332 kJ/mol
# GULP energy per Si atom -12400.875771 kJ/mol
# Density = 1.736147 g / cm^3
# Si number density = 17.401079 Si / 1000 Ang^3
#
#
#
# Elastic Constant Matrix: (Units=GPa)
#
#
# Indices 1 2 3 4 5 6 
#
# 1 92.0802 33.0940 67.8291 -0.0017 4.1046 -0.0027
# 2 33.0940 47.3764 53.5679 -0.0140 7.0776 -0.0017
# 3 67.8291 53.5679 170.6900 -0.0189 6.0914 0.0008
# 4 -0.0017 -0.0140 -0.0189 27.5892 -0.0008 4.2968
# 5 4.1046 7.0776 6.0914 -0.0008 26.6056 -0.0001
# 6 -0.0027 -0.0017 0.0008 4.2968 -0.0001 20.7352
#
#
#
# Elastic Compliance Matrix: (Units=1/GPa)
#
#
# Indices 1 2 3 4 5 6 
#
# 1 0.016512 -0.006413 -0.004556 -0.000006 0.000202 0.000003
# 2 -0.006413 0.036327 -0.008613 0.000012 -0.006702 0.000000
# 3 -0.004556 -0.008613 0.010350 0.000003 0.000625 -0.000002
# 4 -0.000006 0.000012 0.000003 0.037455 -0.000002 -0.007761
# 5 0.000202 -0.006702 0.000625 -0.000002 0.039195 0.000000
# 6 0.000003 0.000000 -0.000002 -0.007761 0.000000 0.049836
#
#
# Mechanical properties :
#
#
# Convention : Reuss Voigt Hill
#
# Bulk Modulus (GPa) = 41.62333 68.79206 55.20770
# Shear Modulus (GPa) = 21.11067 25.36304 23.23685
#
# Velocity S-wave (km/s) = 3.48685 3.82194 3.65823
# Velocity P-wave (km/s) = 6.33899 7.68735 7.04550
#
# Compressibility (1/GPa) = 0.02402499
#
# Stress axis : x y z
#
# Youngs Moduli (GPa) = 60.56129 27.52771 96.61870
#
# Poissons Ratio (x) = 0.17653 0.44023
# Poissons Ratio (y) = 0.38836 0.83219
# Poissons Ratio (z) = 0.27594 0.23710
#
# Static dielectric constant tensor:
#      x y z
#    x 3.110810 -0.000010 0.002420 
#    y -0.000010 3.050280 0.000010 
#    z 0.002420 0.000010 3.450940 
# 
# 
# High freq. dielectric constant tensor:
#      x y z
#    x 1.647420 0.000000 0.007260 
#    y 0.000000 1.655090 0.000000 
#    z 0.007260 0.000000 1.687380 
# 
# From -- ./inp_files/15874.got.cif
#   From: 2010.03.12/outbox.cif.g09.slc.cpg/sg8_8_cif.got.tgz:15874.got - 2010.03.31 10:45:26.
