data_PCOD8052422
_publ_section_title
;
Structure prediction by ZEFSAII (Michael W. Deem and Ramdas Pophale) SiO2 
 PCOD8052422
Probable space group: P M
;
_chemical_formula_sum "Si O2"
_cell_formula_units_Z 16
_cell_length_a 20.015399
_cell_length_b 8.937629
_cell_length_c 15.843838
_cell_angle_alpha 90.000000
_cell_angle_beta 162.139348
_cell_angle_gamma 90.000000
_cell_volume 869.290720
_symmetry_space_group_name_H-M "P M"
_symmetry_group_IT_number 6
_symmetry_cell_setting 'monoclinic'
loop_
_space_group_symop_operation_xyz
x,y,z
x,-y,z
loop_
_atom_site_type_symbol
_atom_site_label
_atom_site_fract_x
_atom_site_fract_y
_atom_site_fract_z
Si Si1 0.422310 0.673504 0.175290
Si Si2 0.574557 0.172510 0.197255
Si Si3 0.906460 0.325998 0.167535
Si Si4 0.478847 0.175699 0.593967
Si Si5 0.946711 0.326299 0.540294
Si Si6 0.092923 0.172831 0.552997
Si Si7 0.074337 0.670303 0.185579
Si Si8 0.590257 0.673374 0.558653
O O1 0.479342 0.500000 0.228723
O O2 0.562713 0.770985 0.279070
O O3 0.486750 0.725324 0.346241
O O4 0.167132 0.705335 0.856888
O O5 0.749504 0.270231 0.359194
O O6 0.644952 0.000000 0.281332
O O7 0.345412 0.198543 0.876147
O O8 0.867753 0.500000 0.137646
O O9 0.045408 0.256823 0.409526
O O10 0.042702 0.298203 0.246501
O O11 0.670406 0.250717 0.878289
O O12 0.250444 0.215424 0.362110
O O13 0.476663 0.231224 0.495074
O O14 0.513866 0.000000 0.637796
O O15 0.916653 0.500000 0.484023
O O16 0.945336 0.239395 0.450147
O O17 0.032717 0.000000 0.471027
O O18 0.151264 0.500000 0.262437
O O19 0.848470 0.701938 0.865638
O O20 0.541663 0.500000 0.519863
#
# Coordination Sequence:
#
# PCOD8052422 Si02
#       8
#     2   2   2   2   2   2   2   2
#     4   9  19  36  57  80 105 139 183 225 265 311
#     4  10  21  36  54  78 111 145 176 218 269 318
#     4  10  21  38  59  80 104 138 179 221 263 312
#     4  11  22  35  54  80 111 142 173 216 267 320
#     4  10  20  35  56  80 108 142 181 222 261 312
#     4  10  21  37  56  79 108 140 175 219 269 317
#     4   9  19  36  56  77 104 139 178 219 263 313
#     4   9  19  37  58  78 105 141 181 224 265 311
#
# _framework density 18.405812000000001
#
# number of rings (size 3 to 8) (size 9 to 14) (size 15 to 20)
#    0.000    2.250    0.000    3.375    0.000    7.000 
#    0.000    7.500    0.000    0.000    0.000    0.000 
#    0.000    0.000    0.000    0.000    0.000    0.000 
#
# Total GULP energy -198477.644693 kJ/mol
# GULP energy per Si atom -12404.852793 kJ/mol
# Density = 1.836392 g / cm^3
# Si number density = 18.405812 Si / 1000 Ang^3
#
#
#
# Elastic Constant Matrix: (Units=GPa)
#
#
# Indices 1 2 3 4 5 6 
#
# 1 109.4683 63.5114 64.0236 0.0000 -8.9202 0.0000
# 2 63.5114 115.0138 50.1620 0.0000 -0.0884 0.0000
# 3 64.0236 50.1620 70.1726 0.0000 -1.7368 0.0000
# 4 0.0000 0.0000 0.0000 28.0917 0.0000 1.8182
# 5 -8.9202 -0.0884 -1.7368 0.0000 39.2642 0.0000
# 6 0.0000 0.0000 0.0000 1.8182 0.0000 28.2871
#
#
#
# Elastic Compliance Matrix: (Units=1/GPa)
#
#
# Indices 1 2 3 4 5 6 
#
# 1 0.021927 -0.004977 -0.016342 0.000000 0.004247 0.000000
# 2 -0.004977 0.013769 -0.005334 0.000000 -0.001336 0.000000
# 3 -0.016342 -0.005334 0.032918 0.000000 -0.002269 0.000000
# 4 0.000000 0.000000 0.000000 0.035746 0.000000 -0.002298
# 5 0.004247 -0.001336 -0.002269 0.000000 0.026330 0.000000
# 6 0.000000 0.000000 0.000000 -0.002298 0.000000 0.035499
#
#
# Mechanical properties :
#
#
# Convention : Reuss Voigt Hill
#
# Bulk Modulus (GPa) = 65.33591 72.22764 68.78178
# Shear Modulus (GPa) = 22.26188 26.92577 24.59383
#
# Velocity S-wave (km/s) = 3.48156 3.82893 3.65937
# Velocity P-wave (km/s) = 7.19279 7.67298 7.43676
#
# Compressibility (1/GPa) = 0.01530552
#
# Stress axis : x y z
#
# Youngs Moduli (GPa) = 45.60588 72.62931 30.37860
#
# Poissons Ratio (x) = 0.36150 0.49646
# Poissons Ratio (y) = 0.22700 0.16204
# Poissons Ratio (z) = 0.74531 0.38741
#
# Static dielectric constant tensor:
#      x y z
#    x 3.413230 0.000000 -0.104520 
#    y 0.000000 3.443550 0.000000 
#    z -0.104520 0.000000 3.347990 
# 
# 
# High freq. dielectric constant tensor:
#      x y z
#    x 1.718700 0.000000 -0.002180 
#    y 0.000000 1.721010 0.000000 
#    z -0.002180 0.000000 1.711680 
# 
# From -- ./inp_files/1855.got.cif
#   From: 2010.03.12/outbox.cif.g09.slc.cpg/sg6_1_cif.got.tgz:1855.got - 2010.03.30 10:24:59.
