data_PCOD8052747
_publ_section_title
;
Structure prediction by ZEFSAII (Michael W. Deem and Ramdas Pophale) SiO2 
 PCOD8052747
Probable space group: C M
;
_chemical_formula_sum "Si O2"
_cell_formula_units_Z 32
_cell_length_a 20.150124
_cell_length_b 9.086073
_cell_length_c 19.774042
_cell_angle_alpha 90.000000
_cell_angle_beta 29.984156
_cell_angle_gamma 90.000000
_cell_volume 1809.303084
_symmetry_space_group_name_H-M "C M"
_symmetry_group_IT_number 8
_symmetry_cell_setting 'monoclinic'
loop_
_space_group_symop_operation_xyz
x,y,z
x,-y,z
1/2+x,1/2+y,z
1/2+x,1/2-y,z
loop_
_atom_site_type_symbol
_atom_site_label
_atom_site_fract_x
_atom_site_fract_y
_atom_site_fract_z
Si Si1 0.985890 0.827358 0.856820
Si Si2 0.524789 0.670791 0.114107
Si Si3 0.429025 0.329974 0.058158
Si Si4 0.509603 0.671678 0.349736
Si Si5 0.670323 0.328134 0.334972
Si Si6 0.718134 0.172969 0.574091
Si Si7 0.235842 0.328115 0.405208
Si Si8 0.217691 0.175197 0.055811
O O1 0.117668 0.762045 0.708577
O O2 0.978980 0.000000 0.849067
O O3 0.994477 0.790892 0.928988
O O4 0.858884 0.752705 0.935216
O O5 0.520622 0.500000 0.134986
O O6 0.536266 0.702380 0.023447
O O7 0.385386 0.735699 0.264983
O O8 0.650719 0.731927 0.044530
O O9 0.383821 0.500000 0.101357
O O10 0.300477 0.231207 0.182606
O O11 0.502673 0.500000 0.340404
O O12 0.546007 0.705705 0.395484
O O13 0.364700 0.736870 0.461169
O O14 0.623241 0.734415 0.199618
O O15 0.689042 0.500000 0.330101
O O16 0.643346 0.252100 0.431235
O O17 0.683018 0.204370 0.526764
O O18 0.707583 0.000000 0.599849
O O19 0.232441 0.500000 0.391323
O O20 0.240409 0.000000 0.038670
#
# Coordination Sequence:
#
# PCOD8052747 Si02
#       8
#     4   4   4   4   4   4   4   4
#     4  11  23  36  50  76 113 143 169 214 268 313
#     4   8  14  28  54  79  97 125 171 221 254 292
#     4   9  18  33  51  73 104 140 174 210 256 306
#     4   9  17  31  54  82 104 129 176 223 255 298
#     4  10  18  29  51  81 109 132 163 214 265 309
#     4  10  20  37  58  76 100 141 184 216 251 308
#     4   9  17  32  53  77 104 134 171 213 257 307
#     4  10  17  32  57  80 101 132 178 221 254 305
#
# _framework density 17.686368000000002
#
# number of rings (size 3 to 8) (size 9 to 14) (size 15 to 20)
#    0.000    2.500    2.500    1.500    0.000    1.000 
#    0.000    5.625    0.000    4.500    0.000    0.000 
#    0.000    0.000    0.000    0.000    0.000    0.000 
#
# Total GULP energy -198330.618330 kJ/mol
# GULP energy per Si atom -12395.663646 kJ/mol
# Density = 1.764611 g / cm^3
# Si number density = 17.686368 Si / 1000 Ang^3
#
#
#
# Elastic Constant Matrix: (Units=GPa)
#
#
# Indices 1 2 3 4 5 6 
#
# 1 136.0876 46.0577 46.8526 -0.0001 6.7913 0.0001
# 2 46.0577 55.4732 30.5511 0.0002 4.7422 -0.0001
# 3 46.8526 30.5511 81.4932 0.0003 2.3257 -0.0001
# 4 -0.0001 0.0002 0.0003 23.8214 -0.0001 4.4758
# 5 6.7913 4.7422 2.3257 -0.0001 26.9284 0.0000
# 6 0.0001 -0.0001 -0.0001 4.4758 0.0000 24.0722
#
#
#
# Elastic Compliance Matrix: (Units=1/GPa)
#
#
# Indices 1 2 3 4 5 6 
#
# 1 0.011064 -0.007054 -0.003682 0.000000 -0.001230 0.000000
# 2 -0.007054 0.027505 -0.006184 0.000000 -0.002531 0.000000
# 3 -0.003682 -0.006184 0.016690 0.000000 0.000576 0.000000
# 4 0.000000 0.000000 0.000000 0.043499 0.000000 -0.008088
# 5 -0.001230 -0.002531 0.000576 0.000000 0.037842 0.000000
# 6 0.000000 0.000000 0.000000 -0.008088 0.000000 0.043046
#
#
# Mechanical properties :
#
#
# Convention : Reuss Voigt Hill
#
# Bulk Modulus (GPa) = 46.68413 57.77519 52.22966
# Shear Modulus (GPa) = 22.66300 24.93723 23.80011
#
# Velocity S-wave (km/s) = 3.58352 3.75903 3.67232
# Velocity P-wave (km/s) = 6.60114 7.18177 6.89757
#
# Compressibility (1/GPa) = 0.02142056
#
# Stress axis : x y z
#
# Youngs Moduli (GPa) = 90.37994 36.35679 59.91769
#
# Poissons Ratio (x) = 0.25645 0.22060
# Poissons Ratio (y) = 0.63750 0.37053
# Poissons Ratio (z) = 0.33276 0.22483
#
# Static dielectric constant tensor:
#      x y z
#    x 3.672100 0.000000 0.036230 
#    y 0.000000 3.047240 0.000000 
#    z 0.036230 0.000000 3.050070 
# 
# 
# High freq. dielectric constant tensor:
#      x y z
#    x 1.704660 0.000000 0.006860 
#    y 0.000000 1.658200 0.000000 
#    z 0.006860 0.000000 1.654290 
# 
# From -- ./inp_files/29540.got.cif
#   From: 2010.03.12/outbox.cif.g09.slc.cpg/sg8_15_cif.got.tgz:29540.got - 2010.03.31 10:45:26.
