data_PCOD8052295
_publ_section_title
;
Structure prediction by ZEFSAII (Michael W. Deem and Ramdas Pophale) SiO2 
 PCOD8052295
Probable space group: P M
;
_chemical_formula_sum "Si O2"
_cell_formula_units_Z 16
_cell_length_a 9.437039
_cell_length_b 15.099727
_cell_length_c 6.681520
_cell_angle_alpha 90.000000
_cell_angle_beta 125.344609
_cell_angle_gamma 90.000000
_cell_volume 776.611634
_symmetry_space_group_name_H-M "P M"
_symmetry_group_IT_number 6
_symmetry_cell_setting 'monoclinic'
loop_
_space_group_symop_operation_xyz
x,y,z
x,-y,z
loop_
_atom_site_type_symbol
_atom_site_label
_atom_site_fract_x
_atom_site_fract_y
_atom_site_fract_z
Si Si1 0.062370 0.596497 0.712550
Si Si2 0.590345 0.225074 0.907832
Si Si3 0.089183 0.157419 0.846754
Si Si4 0.382308 0.603915 0.682747
Si Si5 0.137334 0.321010 0.162313
Si Si6 0.445125 0.095888 0.072797
Si Si7 0.936528 0.254913 0.375771
Si Si8 0.703735 0.101711 0.645847
O O1 0.998147 0.500000 0.598171
O O2 0.246720 0.616671 0.753633
O O3 0.916232 0.663016 0.512433
O O4 0.071730 0.601212 0.961349
O O5 0.544343 0.329488 0.849815
O O6 0.632916 0.176235 0.736904
O O7 0.438986 0.170371 0.894895
O O8 0.750790 0.212617 0.189178
O O9 0.060636 0.184456 0.589398
O O10 0.909160 0.118172 0.781699
O O11 0.167656 0.238685 0.039853
O O12 0.246851 0.088129 0.992036
O O13 0.439992 0.500000 0.713001
O O14 0.305322 0.639304 0.409746
O O15 0.000325 0.290283 0.214797
O O16 0.588017 0.117860 0.356587
O O17 0.492570 0.000000 0.019587
O O18 0.681734 0.000000 0.704806
#
# Coordination Sequence:
#
# PCOD8052295 Si02
#       8
#     2   2   2   2   2   2   2   2
#     4   9  19  36  58  87 121 161 215 264 312 378
#     4  12  22  41  63  90 133 169 210 269 321 387
#     4  11  21  41  65  92 126 170 215 259 318 383
#     4  10  22  38  61  92 126 168 216 268 321 379
#     4  10  18  36  61  88 119 164 210 256 321 371
#     4  11  24  41  64  93 126 169 215 264 322 384
#     4  10  21  35  61  88 119 168 207 255 320 374
#     4  11  24  42  65  96 132 169 217 269 320 382
#
# _framework density 20.602319000000001
#
# number of rings (size 3 to 8) (size 9 to 14) (size 15 to 20)
#    0.000    1.500    2.500    4.125    0.000    1.000 
#    0.000    0.000    0.000    0.000    0.000    0.000 
#    0.000    0.000    0.000    0.000    0.000    0.000 
#
# Total GULP energy -198220.493257 kJ/mol
# GULP energy per Si atom -12388.780829 kJ/mol
# Density = 2.055543 g / cm^3
# Si number density = 20.602319 Si / 1000 Ang^3
#
#
#
# Elastic Constant Matrix: (Units=GPa)
#
#
# Indices 1 2 3 4 5 6 
#
# 1 73.1552 33.5008 32.0123 0.0000 -1.2253 0.0000
# 2 33.5008 127.3048 40.6764 0.0000 0.5392 0.0000
# 3 32.0123 40.6764 98.8876 0.0000 -6.8018 0.0000
# 4 0.0000 0.0000 0.0000 27.8482 0.0000 -0.8229
# 5 -1.2253 0.5392 -6.8018 0.0000 31.3579 0.0000
# 6 0.0000 0.0000 0.0000 -0.8229 0.0000 28.5617
#
#
#
# Elastic Compliance Matrix: (Units=1/GPa)
#
#
# Indices 1 2 3 4 5 6 
#
# 1 0.016935 -0.003108 -0.004218 0.000000 -0.000200 0.000000
# 2 -0.003108 0.009644 -0.003026 0.000000 -0.000944 0.000000
# 3 -0.004218 -0.003026 0.012907 0.000000 0.002687 0.000000
# 4 0.000000 0.000000 0.000000 0.035940 0.000000 0.001035
# 5 -0.000200 -0.000944 0.002687 0.000000 0.032481 0.000000
# 6 0.000000 0.000000 0.000000 0.001035 0.000000 0.035042
#
#
# Mechanical properties :
#
#
# Convention : Reuss Voigt Hill
#
# Bulk Modulus (GPa) = 53.23802 56.85852 55.04827
# Shear Modulus (GPa) = 29.42694 30.43077 29.92886
#
# Velocity S-wave (km/s) = 3.78343 3.84742 3.81556
# Velocity P-wave (km/s) = 6.70691 6.88439 6.79623
#
# Compressibility (1/GPa) = 0.01878357
#
# Stress axis : x y z
#
# Youngs Moduli (GPa) = 59.04880 103.69338 77.47631
#
# Poissons Ratio (x) = 0.32229 0.32676
# Poissons Ratio (y) = 0.18353 0.23441
# Poissons Ratio (z) = 0.24904 0.31374
#
# Static dielectric constant tensor:
#      x y z
#    x 3.460900 0.000000 -0.048050 
#    y 0.000000 3.880170 0.000000 
#    z -0.048050 0.000000 3.914670 
# 
# 
# High freq. dielectric constant tensor:
#      x y z
#    x 1.785120 0.000000 -0.005270 
#    y 0.000000 1.815420 0.000000 
#    z -0.005270 0.000000 1.812400 
# 
# From -- ./inp_files/1317.got.cif
#   From: 2010.03.12/outbox.cif.g09.slc.cpg/sg6_1_cif.got.tgz:1317.got - 2010.03.30 10:24:59.
