data_PCOD8052109
_publ_section_title
;
Structure prediction by ZEFSAII (Michael W. Deem and Ramdas Pophale) SiO2 
 PCOD8052109
Probable space group: C 2
;
_chemical_formula_sum "Si O2"
_cell_formula_units_Z 30
_cell_length_a 13.633865
_cell_length_b 5.585289
_cell_length_c 17.114850
_cell_angle_alpha 90.000000
_cell_angle_beta 102.047928
_cell_angle_gamma 90.000000
_cell_volume 1274.573111
_symmetry_space_group_name_H-M "C 2"
_symmetry_group_IT_number 5
_symmetry_cell_setting 'monoclinic'
loop_
_space_group_symop_operation_xyz
x,y,z
-x,y,-z
1/2+x,1/2+y,z
1/2-x,1/2+y,-z
loop_
_atom_site_type_symbol
_atom_site_label
_atom_site_fract_x
_atom_site_fract_y
_atom_site_fract_z
Si Si1 0.564866 0.251130 0.829075
Si Si2 0.640506 0.442954 0.163297
Si Si3 0.180751 0.282879 0.304640
Si Si4 0.000000 0.670671 0.500000
Si Si5 0.025400 0.459562 0.670690
Si Si6 0.714192 0.264136 0.526438
Si Si7 0.255483 0.093010 0.047516
Si Si8 0.679666 0.627431 0.769059
O O1 0.458080 0.274653 0.856352
O O2 0.636203 0.077447 0.890678
O O3 0.618899 0.507865 0.830368
O O4 0.556756 0.163768 0.737677
O O5 0.630478 0.580286 0.243279
O O6 0.657476 0.608640 0.089542
O O7 0.746899 0.311240 0.177502
O O8 0.090537 0.412874 0.332530
O O9 0.254681 0.174151 0.382075
O O10 0.247002 0.451009 0.263004
O O11 0.034197 0.518271 0.580809
O O12 0.903165 0.831351 0.503749
O O13 0.100193 0.237265 0.695022
O O14 0.767421 0.520557 0.520325
O O15 0.253175 0.345358 0.001562
#
# Coordination Sequence:
#
# PCOD8052109 Si02
#       8
#     4   4   4   2   4   4   4   4
#     4  12  26  48  79 117 147 212 261 320 388 472
#     4  12  26  47  81 114 152 204 257 320 385 473
#     4  12  26  45  79 110 154 209 268 325 387 467
#     4  12  28  48  74 112 162 218 260 336 398 452
#     4  12  26  46  77 114 155 209 271 321 394 467
#     4  12  30  50  74 110 162 207 265 333 392 455
#     4  12  29  54  82 118 163 202 253 323 401 475
#     4  12  23  46  77 110 156 200 260 325 382 457
#
# _framework density 23.537292999999998
#
# number of rings (size 3 to 8) (size 9 to 14) (size 15 to 20)
#    0.000    0.000    6.667    2.400    5.600    2.133 
#    0.000    4.000    0.000    0.000    0.000    0.000 
#    0.000    0.000    0.000    0.000    0.000    0.000 
#
# Total GULP energy -185884.276847 kJ/mol
# GULP energy per Si atom -12392.285123 kJ/mol
# Density = 2.348372 g / cm^3
# Si number density = 23.537293 Si / 1000 Ang^3
#
#
#
# Elastic Constant Matrix: (Units=GPa)
#
#
# Indices 1 2 3 4 5 6 
#
# 1 133.3095 27.2029 36.3279 0.0000 23.9973 0.0000
# 2 27.2029 95.3957 35.2147 0.0000 1.9618 0.0000
# 3 36.3279 35.2147 103.4467 0.0000 9.2124 0.0000
# 4 0.0000 0.0000 0.0000 40.1780 0.0000 7.0821
# 5 23.9973 1.9618 9.2124 0.0000 18.2803 0.0000
# 6 0.0000 0.0000 0.0000 7.0821 0.0000 31.3947
#
#
#
# Elastic Compliance Matrix: (Units=1/GPa)
#
#
# Indices 1 2 3 4 5 6 
#
# 1 0.010787 -0.002101 -0.001918 0.000000 -0.012969 0.000000
# 2 -0.002101 0.012410 -0.003783 0.000000 0.003333 0.000000
# 3 -0.001918 -0.003783 0.011902 0.000000 -0.003074 0.000000
# 4 0.000000 0.000000 0.000000 0.025920 0.000000 -0.005847
# 5 -0.012969 0.003333 -0.003074 0.000000 0.072920 0.000000
# 6 0.000000 0.000000 0.000000 -0.005847 0.000000 0.033171
#
#
# Mechanical properties :
#
#
# Convention : Reuss Voigt Hill
#
# Bulk Modulus (GPa) = 51.29834 58.84923 55.07378
# Shear Modulus (GPa) = 26.42506 33.53103 29.97804
#
# Velocity S-wave (km/s) = 3.35429 3.77847 3.57268
# Velocity P-wave (km/s) = 6.06988 6.64023 6.36145
#
# Compressibility (1/GPa) = 0.01949381
#
# Stress axis : x y z
#
# Youngs Moduli (GPa) = 92.70099 80.58051 84.01908
#
# Poissons Ratio (x) = 0.16933 0.16115
# Poissons Ratio (y) = 0.19480 0.31788
# Poissons Ratio (z) = 0.17780 0.30487
#
# Static dielectric constant tensor:
#      x y z
#    x 4.252350 0.000000 -0.222590 
#    y 0.000000 4.296190 0.000000 
#    z -0.222590 0.000000 3.914000 
# 
# 
# High freq. dielectric constant tensor:
#      x y z
#    x 1.953750 0.000000 0.006740 
#    y 0.000000 1.921740 0.000000 
#    z 0.006740 0.000000 1.937950 
# 
# From -- ./inp_files/61234.got.cif
#   From: 2010.03.12/outbox.cif.g09.slc.cpg/sg5_31_cif.got.tgz:61234.got - 2010.03.31 09:47:26.
