data_PCOD8052677
_publ_section_title
;
Structure prediction by ZEFSAII (Michael W. Deem and Ramdas Pophale) SiO2 
 PCOD8052677
Probable space group: P C
;
_chemical_formula_sum "Si O2"
_cell_formula_units_Z 16
_cell_length_a 6.831956
_cell_length_b 24.582878
_cell_length_c 5.308021
_cell_angle_alpha 90.000000
_cell_angle_beta 46.413291
_cell_angle_gamma 90.000000
_cell_volume 645.725563
_symmetry_space_group_name_H-M "P C"
_symmetry_group_IT_number 7
_symmetry_cell_setting 'monoclinic'
loop_
_space_group_symop_operation_xyz
x,y,z
x,-y,1/2+z
loop_
_atom_site_type_symbol
_atom_site_label
_atom_site_fract_x
_atom_site_fract_y
_atom_site_fract_z
Si Si1 0.640480 0.106293 0.256070
Si Si2 0.123283 0.965302 0.197383
Si Si3 0.294957 0.197333 0.438186
Si Si4 0.787445 0.702769 0.858860
Si Si5 0.064557 0.393204 0.395446
Si Si6 0.543900 0.535022 0.336529
Si Si7 0.967719 0.181370 0.248316
Si Si8 0.249966 0.686315 0.100667
O O1 0.354387 0.078100 0.554545
O O2 0.580642 0.164465 0.170881
O O3 0.835030 0.064726 0.939934
O O4 0.787297 0.126463 0.382674
O O5 0.148310 0.008561 0.400200
O O6 0.161485 0.188269 0.832386
O O7 0.349764 0.261892 0.342627
O O8 0.128078 0.170935 0.361041
O O9 0.480957 0.680310 0.111700
O O10 0.971032 0.663971 0.865438
O O11 0.782368 0.764895 0.957878
O O12 0.946253 0.701082 0.453345
O O13 0.232208 0.373340 0.491337
O O14 0.803982 0.429429 0.673181
O O15 0.275266 0.428589 0.050939
O O16 0.543864 0.491802 0.562023
#
# Coordination Sequence:
#
# PCOD8052677 Si02
#       8
#     2   2   2   2   2   2   2   2
#     4  12  26  52  79 110 149 202 238 312 380 428
#     4  12  30  52  77 106 145 194 264 316 362 426
#     4  11  25  46  73 113 154 194 238 293 367 461
#     4  11  24  44  71 110 153 193 237 292 366 460
#     4  12  26  48  79 106 147 202 236 312 378 428
#     4  12  30  52  77 106 145 194 264 316 362 426
#     4  11  25  46  73 113 154 194 238 293 367 461
#     4  11  24  44  71 110 153 193 237 292 366 460
#
# _framework density 24.778327999999998
#
# number of rings (size 3 to 8) (size 9 to 14) (size 15 to 20)
#    0.000    0.500    3.750    3.000    7.000    3.000 
#    0.000    0.000    0.000    0.000    0.000    0.000 
#    0.000    0.000    0.000    0.000    0.000    0.000 
#
# Total GULP energy -198288.837844 kJ/mol
# GULP energy per Si atom -12393.052365 kJ/mol
# Density = 2.472193 g / cm^3
# Si number density = 24.778328 Si / 1000 Ang^3
#
#
#
# Elastic Constant Matrix: (Units=GPa)
#
#
# Indices 1 2 3 4 5 6 
#
# 1 95.5232 5.5476 24.0839 0.0000 -9.3549 0.0000
# 2 5.5476 94.8433 20.9305 0.0000 -11.1145 0.0000
# 3 24.0839 20.9305 65.0170 0.0000 -13.8177 0.0000
# 4 0.0000 0.0000 0.0000 36.4318 0.0000 -0.9220
# 5 -9.3549 -11.1145 -13.8177 0.0000 46.6539 0.0000
# 6 0.0000 0.0000 0.0000 -0.9220 0.0000 -452.2186
#
#
#
# Elastic Compliance Matrix: (Units=1/GPa)
#
#
# Indices 1 2 3 4 5 6 
#
# 1 0.011615 0.000380 -0.004173 0.000000 0.001184 0.000000
# 2 0.000380 0.011495 -0.003461 0.000000 0.001790 0.000000
# 3 -0.004173 -0.003461 0.018876 0.000000 0.003929 0.000000
# 4 0.000000 0.000000 0.000000 0.027447 0.000000 -0.000056
# 5 0.001184 0.001790 0.003929 0.000000 0.023262 0.000000
# 6 0.000000 0.000000 0.000000 -0.000056 0.000000 -0.002211
#
#
# Mechanical properties :
#
#
# Convention : Reuss Voigt Hill
#
# Bulk Modulus (GPa) = 36.39355 39.61193 38.00274
# Shear Modulus (GPa) = 43.80195 -60.17181 -8.18493
#
# Velocity S-wave (km/s) = 4.20903 -4.93323 -1.81946
# Velocity P-wave (km/s) = 6.19199 4.05312 3.31006
#
# Compressibility (1/GPa) = 0.02747740
#
# Stress axis : x y z
#
# Youngs Moduli (GPa) = 86.09809 86.99441 52.97822
#
# Poissons Ratio (x) = -0.03308 0.22109
# Poissons Ratio (y) = -0.03274 0.18336
# Poissons Ratio (z) = 0.35931 0.30109
#
# Static dielectric constant tensor:
#      x y z
#    x 4.493700 0.000000 -0.257790 
#    y 0.000000 5.313060 0.000000 
#    z -0.257790 0.000000 4.298760 
# 
# 
# High freq. dielectric constant tensor:
#      x y z
#    x 1.998460 0.000000 -0.020230 
#    y 0.000000 2.005400 0.000000 
#    z -0.020230 0.000000 1.970500 
# 
# From -- ./inp_files/412.got.cif
#   From: 2010.03.12/outbox.cif.g09.slc.cpg/sg7_cif.got.tgz:412.got - 2010.03.30 08:40:41.
