data_PCOD8052242
_publ_section_title
;
Structure prediction by ZEFSAII (Michael W. Deem and Ramdas Pophale) SiO2 
 PCOD8052242
Probable space group: P M
;
_chemical_formula_sum "Si O2"
_cell_formula_units_Z 16
_cell_length_a 9.628432
_cell_length_b 8.972370
_cell_length_c 11.605001
_cell_angle_alpha 90.000000
_cell_angle_beta 70.932959
_cell_angle_gamma 90.000000
_cell_volume 947.551193
_symmetry_space_group_name_H-M "P M"
_symmetry_group_IT_number 6
_symmetry_cell_setting 'monoclinic'
loop_
_space_group_symop_operation_xyz
x,y,z
x,-y,z
loop_
_atom_site_type_symbol
_atom_site_label
_atom_site_fract_x
_atom_site_fract_y
_atom_site_fract_z
Si Si1 0.244120 0.169803 0.028380
Si Si2 0.303300 0.325574 0.473982
Si Si3 0.992037 0.671940 0.674209
Si Si4 0.399568 0.323693 0.797805
Si Si5 0.871143 0.170665 0.499898
Si Si6 0.115823 0.829809 0.833677
Si Si7 0.544166 0.827388 0.562899
Si Si8 0.167557 0.823642 0.301436
O O1 0.196964 0.235729 0.163882
O O2 0.298044 0.000000 0.026317
O O3 0.379841 0.263364 0.934785
O O4 0.103819 0.178212 0.977234
O O5 0.333316 0.500000 0.454743
O O6 0.444267 0.252693 0.495476
O O7 0.285858 0.255342 0.351587
O O8 0.153595 0.291841 0.582101
O O9 0.960231 0.500000 0.703875
O O10 0.873247 0.733717 0.616789
O O11 0.979116 0.757176 0.801581
O O12 0.416522 0.500000 0.792983
O O13 0.258250 0.270581 0.760621
O O14 0.533824 0.247986 0.692977
O O15 0.714630 0.192049 0.479473
O O16 0.000575 0.222891 0.378494
O O17 0.896274 0.000000 0.529248
O O18 0.138405 0.000000 0.787054
O O19 0.499282 0.000000 0.583499
O O20 0.189422 0.000000 0.303533
#
# Coordination Sequence:
#
# PCOD8052242 Si02
#       8
#     2   2   2   2   2   2   2   2
#     4   8  16  29  48  72  95 124 160 202 242 281
#     4  10  19  29  46  71  97 126 162 201 241 285
#     4  10  18  29  46  71  99 126 159 199 242 287
#     4  10  18  28  46  72  97 123 155 199 245 285
#     4   9  20  33  49  71  99 131 163 198 239 288
#     4   9  16  27  46  71  95 121 153 197 240 280
#     4  11  20  32  49  72  99 131 165 198 242 293
#     4   9  17  33  52  72  97 126 163 202 239 283
#
# _framework density 16.885631
#
# number of rings (size 3 to 8) (size 9 to 14) (size 15 to 20)
#    0.750    1.750    1.250    2.250    0.000    2.500 
#    0.000    0.000    0.000    1.500    0.000    8.750 
#    0.000    0.000    0.000    0.000    0.000    0.000 
#
# Total GULP energy -198233.040911 kJ/mol
# GULP energy per Si atom -12389.565057 kJ/mol
# Density = 1.684720 g / cm^3
# Si number density = 16.885631 Si / 1000 Ang^3
#
#
#
# Elastic Constant Matrix: (Units=GPa)
#
#
# Indices 1 2 3 4 5 6 
#
# 1 75.0624 34.9827 39.1592 0.0000 7.7224 0.0000
# 2 34.9827 92.3922 41.4402 0.0000 6.5302 0.0000
# 3 39.1592 41.4402 107.1360 0.0000 10.9917 0.0000
# 4 0.0000 0.0000 0.0000 19.8220 0.0000 4.5188
# 5 7.7224 6.5302 10.9917 0.0000 17.8691 0.0000
# 6 0.0000 0.0000 0.0000 4.5188 0.0000 18.7078
#
#
#
# Elastic Compliance Matrix: (Units=1/GPa)
#
#
# Indices 1 2 3 4 5 6 
#
# 1 0.018177 -0.004620 -0.004508 0.000000 -0.003394 0.000000
# 2 -0.004620 0.014323 -0.003756 0.000000 -0.000927 0.000000
# 3 -0.004508 -0.003756 0.012909 0.000000 -0.004619 0.000000
# 4 0.000000 0.000000 0.000000 0.053389 0.000000 -0.012896
# 5 -0.003394 -0.000927 -0.004619 0.000000 0.060609 0.000000
# 6 0.000000 0.000000 0.000000 -0.012896 0.000000 0.056569
#
#
# Mechanical properties :
#
#
# Convention : Reuss Voigt Hill
#
# Bulk Modulus (GPa) = 50.92068 56.19498 53.55783
# Shear Modulus (GPa) = 20.13761 21.88035 21.00898
#
# Velocity S-wave (km/s) = 3.45713 3.60362 3.53114
# Velocity P-wave (km/s) = 6.79392 7.11806 6.95788
#
# Compressibility (1/GPa) = 0.01963839
#
# Stress axis : x y z
#
# Youngs Moduli (GPa) = 55.01560 69.81709 77.46718
#
# Poissons Ratio (x) = 0.32257 0.34926
# Poissons Ratio (y) = 0.25419 0.29099
# Poissons Ratio (z) = 0.24804 0.26226
#
# Static dielectric constant tensor:
#      x y z
#    x 2.906390 0.000000 0.139100 
#    y 0.000000 3.141930 0.000000 
#    z 0.139100 0.000000 3.156850 
# 
# 
# High freq. dielectric constant tensor:
#      x y z
#    x 1.616740 0.000000 0.019680 
#    y 0.000000 1.659760 0.000000 
#    z 0.019680 0.000000 1.633810 
# 
# From -- ./inp_files/3601.got.cif
#   From: 2010.03.12/outbox.cif.g09.slc.cpg/sg6_2_cif.got.tgz:3601.got - 2010.03.30 10:24:59.
