data_PCOD8052812
_publ_section_title
;
Structure prediction by ZEFSAII (Michael W. Deem and Ramdas Pophale) SiO2 
 PCOD8052812
Probable space group: C M
;
_chemical_formula_sum "Si O2"
_cell_formula_units_Z 32
_cell_length_a 20.721061
_cell_length_b 9.035146
_cell_length_c 25.418777
_cell_angle_alpha 90.000000
_cell_angle_beta 157.891041
_cell_angle_gamma 90.000000
_cell_volume 1791.083426
_symmetry_space_group_name_H-M "C M"
_symmetry_group_IT_number 8
_symmetry_cell_setting 'monoclinic'
loop_
_space_group_symop_operation_xyz
x,y,z
x,-y,z
1/2+x,1/2+y,z
1/2+x,1/2-y,z
loop_
_atom_site_type_symbol
_atom_site_label
_atom_site_fract_x
_atom_site_fract_y
_atom_site_fract_z
Si Si1 0.296160 0.824854 0.946190
Si Si2 0.859279 0.330599 0.507642
Si Si3 0.522347 0.325003 0.922108
Si Si4 0.027248 0.830663 0.198891
Si Si5 0.974765 0.174267 0.768992
Si Si6 0.748520 0.829224 0.801104
Si Si7 0.692623 0.173527 0.476451
Si Si8 0.871952 0.173405 0.194287
O O1 0.299988 0.765478 0.890223
O O2 0.130213 0.759381 0.851476
O O3 0.294523 0.000000 0.942563
O O4 0.466149 0.772478 0.105236
O O5 0.833024 0.500000 0.507638
O O6 0.730050 0.301895 0.361340
O O7 0.817098 0.220224 0.523034
O O8 0.052802 0.300914 0.635268
O O9 0.551250 0.500000 0.943030
O O10 0.480992 0.261661 0.832705
O O11 0.365530 0.278982 0.840885
O O12 0.692812 0.249010 0.073010
O O13 0.925375 0.787961 0.175054
O O14 0.991426 0.000000 0.156396
O O15 0.791588 0.214268 0.605078
O O16 0.000447 0.000000 0.790054
O O17 0.778876 0.000000 0.838330
O O18 0.514317 0.261415 0.341358
O O19 0.655048 0.000000 0.443394
O O20 0.858354 0.000000 0.193771
#
# Coordination Sequence:
#
# PCOD8052812 Si02
#       8
#     4   4   4   4   4   4   4   4
#     4  11  20  33  54  80 109 140 177 225 267 311
#     4   9  18  33  51  77 109 139 175 220 269 316
#     4  10  20  37  57  78 107 144 183 218 263 322
#     4   9  18  32  51  77 107 137 175 221 267 315
#     4   9  18  32  52  80 107 135 178 224 263 309
#     4  10  21  36  56  79 108 145 179 219 268 320
#     4  10  18  31  53  80 106 136 176 223 269 316
#     4  10  20  34  52  79 111 142 175 220 270 315
#
# _framework density 17.866281000000001
#
# number of rings (size 3 to 8) (size 9 to 14) (size 15 to 20)
#    0.000    2.250    2.500    1.875    0.000    2.500 
#    0.000    2.500    0.000    4.500    0.000    0.000 
#    0.000    0.000    0.000    0.000    0.000    0.000 
#
# Total GULP energy -198413.772762 kJ/mol
# GULP energy per Si atom -12400.860798 kJ/mol
# Density = 1.782562 g / cm^3
# Si number density = 17.866281 Si / 1000 Ang^3
#
#
#
# Elastic Constant Matrix: (Units=GPa)
#
#
# Indices 1 2 3 4 5 6 
#
# 1 97.2893 39.0239 66.0483 -0.0026 -0.5580 0.0000
# 2 39.0239 57.4007 46.4944 0.0094 -1.0988 0.0006
# 3 66.0483 46.4944 147.7144 0.0246 1.6834 -0.0016
# 4 -0.0026 0.0094 0.0246 28.0825 -0.0007 -1.5065
# 5 -0.5580 -1.0988 1.6834 -0.0007 27.2139 0.0007
# 6 0.0000 0.0006 -0.0016 -1.5065 0.0007 23.1384
#
#
#
# Elastic Compliance Matrix: (Units=1/GPa)
#
#
# Indices 1 2 3 4 5 6 
#
# 1 0.016676 -0.007096 -0.005227 0.000008 0.000379 0.000000
# 2 -0.007096 0.026456 -0.005169 -0.000005 0.001242 -0.000001
# 3 -0.005227 -0.005169 0.010745 -0.000008 -0.000981 0.000000
# 4 0.000008 -0.000005 -0.000008 0.035734 0.000001 0.002327
# 5 0.000379 0.001242 -0.000981 0.000001 0.036864 -0.000001
# 6 0.000000 -0.000001 0.000000 0.002327 -0.000001 0.043370
#
#
# Mechanical properties :
#
#
# Convention : Reuss Voigt Hill
#
# Bulk Modulus (GPa) = 52.92805 67.28195 60.10500
# Shear Modulus (GPa) = 23.68259 25.74281 24.71270
#
# Velocity S-wave (km/s) = 3.64476 3.79998 3.72318
# Velocity P-wave (km/s) = 6.88485 7.54941 7.22477
#
# Compressibility (1/GPa) = 0.01889357
#
# Stress axis : x y z
#
# Youngs Moduli (GPa) = 59.96788 37.79898 93.06573
#
# Poissons Ratio (x) = 0.26821 0.48647
# Poissons Ratio (y) = 0.42551 0.48102
# Poissons Ratio (z) = 0.31346 0.19537
#
# Static dielectric constant tensor:
#      x y z
#    x 3.135960 0.000000 -0.059720 
#    y 0.000000 3.183630 -0.000010 
#    z -0.059720 -0.000010 3.497680 
# 
# 
# High freq. dielectric constant tensor:
#      x y z
#    x 1.660690 0.000000 -0.008110 
#    y 0.000000 1.683380 0.000000 
#    z -0.008110 0.000000 1.706360 
# 
# From -- ./inp_files/31318.got.cif
#   From: 2010.03.12/outbox.cif.g09.slc.cpg/sg8_16_cif.got.tgz:31318.got - 2010.03.31 10:45:26.
