data_PCOD8052804
_publ_section_title
;
Structure prediction by ZEFSAII (Michael W. Deem and Ramdas Pophale) SiO2 
 PCOD8052804
Probable space group: C M
;
_chemical_formula_sum "Si O2"
_cell_formula_units_Z 32
_cell_length_a 17.093405
_cell_length_b 21.839895
_cell_length_c 7.162761
_cell_angle_alpha 90.000000
_cell_angle_beta 134.624913
_cell_angle_gamma 90.000000
_cell_volume 1903.133130
_symmetry_space_group_name_H-M "C M"
_symmetry_group_IT_number 8
_symmetry_cell_setting 'monoclinic'
loop_
_space_group_symop_operation_xyz
x,y,z
x,-y,z
1/2+x,1/2+y,z
1/2+x,1/2-y,z
loop_
_atom_site_type_symbol
_atom_site_label
_atom_site_fract_x
_atom_site_fract_y
_atom_site_fract_z
Si Si1 0.099130 0.282146 0.006740
Si Si2 0.780075 0.786136 0.602558
Si Si3 0.483361 0.653699 0.795245
Si Si4 0.570952 0.359017 0.558884
Si Si5 0.596044 0.217803 0.571159
Si Si6 0.071437 0.932326 0.223376
Si Si7 0.928661 0.676593 0.996870
Si Si8 0.268854 0.069362 0.791773
O O1 0.217999 0.275144 0.301487
O O2 0.022914 0.329147 0.996043
O O3 0.104227 0.304250 0.799908
O O4 0.048384 0.215479 0.939848
O O5 0.865102 0.840177 0.694324
O O6 0.697658 0.810597 0.624566
O O7 0.836939 0.724132 0.771397
O O8 0.480014 0.640261 0.569055
O O9 0.549437 0.596256 0.986233
O O10 0.607622 0.290544 0.572641
O O11 0.512159 0.389531 0.280562
O O12 0.683544 0.397618 0.794911
O O13 0.481169 0.197849 0.282942
O O14 0.202821 0.933846 0.483657
O O15 0.020224 0.000000 0.146258
O O16 0.878043 0.609435 0.946464
O O17 0.299174 0.000000 0.909243
#
# Coordination Sequence:
#
# PCOD8052804 Si02
#       8
#     4   4   4   4   4   4   4   4
#     4   9  20  32  47  78 105 132 168 210 260 311
#     4  10  18  31  51  74 105 133 167 210 263 310
#     4  10  19  30  50  75 100 136 166 208 258 309
#     4   9  17  33  45  74 105 129 166 205 255 307
#     4  10  19  32  51  76 106 137 164 214 265 304
#     4   9  18  32  48  68 100 133 163 208 253 300
#     4  10  18  32  51  74 104 134 171 213 252 315
#     4   9  18  34  53  73 104 140 165 210 260 302
#
# _framework density 16.814378000000001
#
# number of rings (size 3 to 8) (size 9 to 14) (size 15 to 20)
#    0.750    1.750    1.250    3.000    0.000    5.000 
#    2.250    0.000    0.000    3.000    0.000    0.000 
#    0.000    0.000    0.000    0.000    0.000    0.000 
#
# Total GULP energy -198218.254571 kJ/mol
# GULP energy per Si atom -12388.640911 kJ/mol
# Density = 1.677611 g / cm^3
# Si number density = 16.814378 Si / 1000 Ang^3
#
#
#
# Elastic Constant Matrix: (Units=GPa)
#
#
# Indices 1 2 3 4 5 6 
#
# 1 94.2236 34.7508 41.9586 0.0000 -7.2445 0.0000
# 2 34.7508 76.3471 21.4744 0.0000 4.1322 0.0000
# 3 41.9586 21.4744 96.8176 0.0000 -7.3125 0.0000
# 4 0.0000 0.0000 0.0000 20.4474 0.0000 2.5784
# 5 -7.2445 4.1322 -7.3125 0.0000 25.3678 0.0000
# 6 0.0000 0.0000 0.0000 2.5784 0.0000 19.6507
#
#
#
# Elastic Compliance Matrix: (Units=1/GPa)
#
#
# Indices 1 2 3 4 5 6 
#
# 1 0.015277 -0.005739 -0.005058 0.000000 0.003840 0.000000
# 2 -0.005739 0.016391 -0.001507 0.000000 -0.004743 0.000000
# 3 -0.005058 -0.001507 0.013048 0.000000 0.002562 0.000000
# 4 0.000000 0.000000 0.000000 0.049729 0.000000 -0.006525
# 5 0.003840 -0.004743 0.002562 0.000000 0.042028 0.000000
# 6 0.000000 0.000000 0.000000 -0.006525 0.000000 0.051745
#
#
# Mechanical properties :
#
#
# Convention : Reuss Voigt Hill
#
# Bulk Modulus (GPa) = 49.72779 51.52843 50.62811
# Shear Modulus (GPa) = 22.77619 24.37349 23.57484
#
# Velocity S-wave (km/s) = 3.68444 3.81144 3.74848
# Velocity P-wave (km/s) = 6.90933 7.07682 6.99358
#
# Compressibility (1/GPa) = 0.02010948
#
# Stress axis : x y z
#
# Youngs Moduli (GPa) = 65.45723 61.01013 76.63790
#
# Poissons Ratio (x) = 0.35013 0.38763
# Poissons Ratio (y) = 0.37565 0.11547
# Poissons Ratio (z) = 0.33108 0.09192
#
# Static dielectric constant tensor:
#      x y z
#    x 3.171430 0.000000 -0.048630 
#    y 0.000000 2.952900 0.000000 
#    z -0.048630 0.000000 3.117770 
# 
# 
# High freq. dielectric constant tensor:
#      x y z
#    x 1.640360 0.000000 -0.007490 
#    y 0.000000 1.620190 0.000000 
#    z -0.007490 0.000000 1.639270 
# 
# From -- ./inp_files/15293.got.cif
#   From: 2010.03.12/outbox.cif.g09.slc.cpg/sg8_8_cif.got.tgz:15293.got - 2010.03.31 10:45:26.
