data_PCOD8052372
_publ_section_title
;
Structure prediction by ZEFSAII (Michael W. Deem and Ramdas Pophale) SiO2 
 PCOD8052372
Probable space group: P M
;
_chemical_formula_sum "Si O2"
_cell_formula_units_Z 16
_cell_length_a 9.269976
_cell_length_b 8.764151
_cell_length_c 11.167331
_cell_angle_alpha 90.000000
_cell_angle_beta 64.999249
_cell_angle_gamma 90.000000
_cell_volume 822.263300
_symmetry_space_group_name_H-M "P M"
_symmetry_group_IT_number 6
_symmetry_cell_setting 'monoclinic'
loop_
_space_group_symop_operation_xyz
x,y,z
x,-y,z
loop_
_atom_site_type_symbol
_atom_site_label
_atom_site_fract_x
_atom_site_fract_y
_atom_site_fract_z
Si Si1 0.390640 0.321921 0.870560
Si Si2 0.729608 0.325989 0.850812
Si Si3 0.336271 0.320672 0.619059
Si Si4 0.631960 0.819395 0.380413
Si Si5 0.569022 0.323907 0.155222
Si Si6 0.266494 0.179868 0.144725
Si Si7 0.951774 0.819430 0.387368
Si Si8 0.019706 0.821146 0.630554
O O1 0.359557 0.500000 0.905229
O O2 0.575820 0.283281 0.825687
O O3 0.343093 0.269529 0.754887
O O4 0.281729 0.228387 0.001131
O O5 0.782470 0.500000 0.807443
O O6 0.869638 0.211075 0.767967
O O7 0.691288 0.301820 0.003545
O O8 0.361224 0.500000 0.598285
O O9 0.473062 0.238737 0.497679
O O10 0.168101 0.273287 0.625607
O O11 0.642222 0.765567 0.240496
O O12 0.785750 0.752313 0.395890
O O13 0.631272 0.000000 0.383203
O O14 0.547438 0.500000 0.196636
O O15 0.396740 0.259800 0.182018
O O16 0.094677 0.234844 0.251503
O O17 0.288905 0.000000 0.149557
O O18 0.980207 0.759843 0.511741
O O19 0.942162 0.000000 0.392493
O O20 0.060097 0.000000 0.618049
#
# Coordination Sequence:
#
# PCOD8052372 Si02
#       8
#     2   2   2   2   2   2   2   2
#     4   9  20  38  58  82 114 149 186 230 280 336
#     4   9  19  37  58  81 112 147 184 228 276 332
#     4  11  23  39  58  82 114 150 187 230 284 341
#     4  11  22  38  59  83 112 145 188 239 284 330
#     4  10  21  38  58  83 116 152 188 227 279 339
#     4  10  19  35  60  86 113 147 187 231 280 333
#     4   9  21  38  55  80 113 145 180 230 285 333
#     4  11  22  37  58  83 112 147 188 233 282 336
#
# _framework density 19.458487999999999
#
# number of rings (size 3 to 8) (size 9 to 14) (size 15 to 20)
#    0.000    2.000    0.000    4.125    0.000    5.500 
#    0.000    8.750    0.000    0.000    0.000    0.000 
#    0.000    0.000    0.000    0.000    0.000    0.000 
#
# Total GULP energy -198468.024362 kJ/mol
# GULP energy per Si atom -12404.251523 kJ/mol
# Density = 1.941420 g / cm^3
# Si number density = 19.458488 Si / 1000 Ang^3
#
#
#
# Elastic Constant Matrix: (Units=GPa)
#
#
# Indices 1 2 3 4 5 6 
#
# 1 131.4677 26.8649 75.5567 0.0000 12.2024 0.0000
# 2 26.8649 57.2925 35.9175 0.0000 2.0469 0.0000
# 3 75.5567 35.9175 119.4403 0.0000 3.2743 0.0000
# 4 0.0000 0.0000 0.0000 33.3717 0.0000 3.3472
# 5 12.2024 2.0469 3.2743 0.0000 38.2880 0.0000
# 6 0.0000 0.0000 0.0000 3.3472 0.0000 26.9066
#
#
#
# Elastic Compliance Matrix: (Units=1/GPa)
#
#
# Indices 1 2 3 4 5 6 
#
# 1 0.012397 -0.001031 -0.007443 0.000000 -0.003259 0.000000
# 2 -0.001031 0.021609 -0.005837 0.000000 -0.000328 0.000000
# 3 -0.007443 -0.005837 0.014797 0.000000 0.001419 0.000000
# 4 0.000000 0.000000 0.000000 0.030344 0.000000 -0.003775
# 5 -0.003259 -0.000328 0.001419 0.000000 0.027053 0.000000
# 6 0.000000 0.000000 0.000000 -0.003775 0.000000 0.037635
#
#
# Mechanical properties :
#
#
# Convention : Reuss Voigt Hill
#
# Bulk Modulus (GPa) = 49.55030 64.98650 57.26840
# Shear Modulus (GPa) = 27.90429 31.03736 29.47082
#
# Velocity S-wave (km/s) = 3.79098 3.99815 3.89594
# Velocity P-wave (km/s) = 6.68446 7.40159 7.05215
#
# Compressibility (1/GPa) = 0.02018151
#
# Stress axis : x y z
#
# Youngs Moduli (GPa) = 80.66329 46.27783 67.58014
#
# Poissons Ratio (x) = 0.04769 0.50301
# Poissons Ratio (y) = 0.08312 0.39448
# Poissons Ratio (z) = 0.60039 0.27013
#
# Static dielectric constant tensor:
#      x y z
#    x 3.692690 0.000000 0.122650 
#    y 0.000000 3.457430 0.000000 
#    z 0.122650 0.000000 3.686900 
# 
# 
# High freq. dielectric constant tensor:
#      x y z
#    x 1.762320 0.000000 0.003220 
#    y 0.000000 1.752860 0.000000 
#    z 0.003220 0.000000 1.769720 
# 
# From -- ./inp_files/3791.got.cif
#   From: 2010.03.12/outbox.cif.g09.slc.cpg/sg6_2_cif.got.tgz:3791.got - 2010.03.30 10:24:59.
