data_PCOD8052228
_publ_section_title
;
Structure prediction by ZEFSAII (Michael W. Deem and Ramdas Pophale) SiO2 
 PCOD8052228
Probable space group: P M
;
_chemical_formula_sum "Si O2"
_cell_formula_units_Z 16
_cell_length_a 12.437860
_cell_length_b 8.995715
_cell_length_c 9.761264
_cell_angle_alpha 90.000000
_cell_angle_beta 61.031767
_cell_angle_gamma 90.000000
_cell_volume 955.520599
_symmetry_space_group_name_H-M "P M"
_symmetry_group_IT_number 6
_symmetry_cell_setting 'monoclinic'
loop_
_space_group_symop_operation_xyz
x,y,z
x,-y,z
loop_
_atom_site_type_symbol
_atom_site_label
_atom_site_fract_x
_atom_site_fract_y
_atom_site_fract_z
Si Si1 0.798840 0.670461 0.913630
Si Si2 0.509695 0.830830 0.289773
Si Si3 0.625494 0.175288 0.810654
Si Si4 0.725757 0.670877 0.258797
Si Si5 0.008647 0.669101 0.582419
Si Si6 0.432096 0.324869 0.085121
Si Si7 0.251799 0.168187 0.372517
Si Si8 0.800217 0.326873 0.506666
O O1 0.754484 0.500000 0.917035
O O2 0.713817 0.781663 0.881804
O O3 0.937332 0.688475 0.770211
O O4 0.799498 0.712517 0.074548
O O5 0.600074 0.767362 0.350276
O O6 0.529142 0.723279 0.145264
O O7 0.363403 0.824380 0.416692
O O8 0.546554 0.000000 0.229996
O O9 0.683763 0.235239 0.634064
O O10 0.608530 0.000000 0.813372
O O11 0.490470 0.251294 0.912650
O O12 0.685761 0.500000 0.284356
O O13 0.811635 0.705261 0.337063
O O14 0.049004 0.500000 0.533786
O O15 0.924659 0.724075 0.506387
O O16 0.131085 0.765537 0.514513
O O17 0.421386 0.500000 0.075142
O O18 0.297839 0.257151 0.207352
O O19 0.225278 0.000000 0.343934
O O20 0.776975 0.500000 0.553841
#
# Coordination Sequence:
#
# PCOD8052228 Si02
#       8
#     2   2   2   2   2   2   2   2
#     4   9  17  29  48  71  95 126 164 205 242 283
#     4   9  18  29  45  73 100 122 153 200 245 289
#     4  11  19  29  46  72 100 128 160 200 249 291
#     4  10  18  31  52  74  99 132 165 200 243 291
#     4   9  17  30  47  69  97 128 164 206 244 284
#     4  10  17  28  48  71  94 122 155 198 244 286
#     4   9  18  30  46  71  97 122 161 208 246 286
#     4   9  20  34  48  71 102 134 168 201 239 290
#
# _framework density 16.744797999999999
#
# number of rings (size 3 to 8) (size 9 to 14) (size 15 to 20)
#    0.750    1.750    1.250    3.375    0.000    2.500 
#    0.000    0.000    0.000    1.500    0.000    7.000 
#    0.000    0.000    0.000    0.000    0.000    0.000 
#
# Total GULP energy -198224.032220 kJ/mol
# GULP energy per Si atom -12389.002014 kJ/mol
# Density = 1.670669 g / cm^3
# Si number density = 16.744798 Si / 1000 Ang^3
#
#
#
# Elastic Constant Matrix: (Units=GPa)
#
#
# Indices 1 2 3 4 5 6 
#
# 1 64.4330 30.2304 44.0236 0.0000 -5.8720 0.0000
# 2 30.2304 100.5106 37.5856 0.0000 -11.7680 0.0000
# 3 44.0236 37.5856 94.4634 0.0000 -1.5317 0.0000
# 4 0.0000 0.0000 0.0000 20.2823 0.0000 -7.3845
# 5 -5.8720 -11.7680 -1.5317 0.0000 28.9299 0.0000
# 6 0.0000 0.0000 0.0000 -7.3845 0.0000 21.4309
#
#
#
# Elastic Compliance Matrix: (Units=1/GPa)
#
#
# Indices 1 2 3 4 5 6 
#
# 1 0.024050 -0.003174 -0.009895 0.000000 0.003066 0.000000
# 2 -0.003174 0.012727 -0.003514 0.000000 0.004347 0.000000
# 3 -0.009895 -0.003514 0.016554 0.000000 -0.002561 0.000000
# 4 0.000000 0.000000 0.000000 0.056377 0.000000 0.019426
# 5 0.003066 0.004347 -0.002561 0.000000 0.036821 0.000000
# 6 0.000000 0.000000 0.000000 0.019426 0.000000 0.053355
#
#
# Mechanical properties :
#
#
# Convention : Reuss Voigt Hill
#
# Bulk Modulus (GPa) = 49.59387 53.67626 51.63507
# Shear Modulus (GPa) = 20.85310 23.96645 22.40978
#
# Velocity S-wave (km/s) = 3.53278 3.78733 3.66226
# Velocity P-wave (km/s) = 6.80606 7.15892 6.98472
#
# Compressibility (1/GPa) = 0.02016378
#
# Stress axis : x y z
#
# Youngs Moduli (GPa) = 41.58072 78.57402 60.40667
#
# Poissons Ratio (x) = 0.24939 0.59775
# Poissons Ratio (y) = 0.13198 0.21228
# Poissons Ratio (z) = 0.41146 0.27612
#
# Static dielectric constant tensor:
#      x y z
#    x 2.849120 0.000000 -0.094250 
#    y 0.000000 3.107650 0.000000 
#    z -0.094250 0.000000 3.168270 
# 
# 
# High freq. dielectric constant tensor:
#      x y z
#    x 1.605000 0.000000 -0.018420 
#    y 0.000000 1.652300 0.000000 
#    z -0.018420 0.000000 1.632590 
# 
# From -- ./inp_files/3745.got.cif
#   From: 2010.03.12/outbox.cif.g09.slc.cpg/sg6_2_cif.got.tgz:3745.got - 2010.03.30 10:24:59.
