data_PCOD8052694
_publ_section_title
;
Structure prediction by ZEFSAII (Michael W. Deem and Ramdas Pophale) SiO2 
 PCOD8052694
Probable space group: C M
;
_chemical_formula_sum "Si O2"
_cell_formula_units_Z 22
_cell_length_a 18.653289
_cell_length_b 7.653649
_cell_length_c 14.680108
_cell_angle_alpha 90.000000
_cell_angle_beta 37.289553
_cell_angle_gamma 90.000000
_cell_volume 1269.736356
_symmetry_space_group_name_H-M "C M"
_symmetry_group_IT_number 8
_symmetry_cell_setting 'monoclinic'
loop_
_space_group_symop_operation_xyz
x,y,z
x,-y,z
1/2+x,1/2+y,z
1/2+x,1/2-y,z
loop_
_atom_site_type_symbol
_atom_site_label
_atom_site_fract_x
_atom_site_fract_y
_atom_site_fract_z
Si Si1 0.069658 0.500000 0.701908
Si Si2 0.239699 0.500000 0.702069
Si Si3 0.302693 0.000000 0.032593
Si Si4 0.821890 0.500000 0.228076
Si Si5 0.585586 0.000000 0.032845
Si Si6 0.704991 0.689254 0.494563
Si Si7 0.600131 0.693245 0.160100
Si Si8 0.877151 0.301317 0.482017
O O1 0.136959 0.500000 0.730015
O O2 0.102726 0.332384 0.606935
O O3 0.931078 0.500000 0.858558
O O4 0.321163 0.672421 0.613121
O O5 0.185803 0.500000 0.855904
O O6 0.231691 0.173100 0.070887
O O7 0.306841 0.000000 0.136661
O O8 0.758842 0.671649 0.337540
O O9 0.959180 0.500000 0.113424
O O10 0.602504 0.826538 0.074733
O O11 0.651863 0.500000 0.578571
O O12 0.814812 0.736616 0.448464
O O13 0.557171 0.500000 0.169686
O O14 0.515144 0.761762 0.326769
O O15 0.859746 0.500000 0.533419
#
# Coordination Sequence:
#
# PCOD8052694 Si02
#       8
#     2   2   2   2   2   4   4   4
#     4  10  18  36  55  81 116 154 174 233 298 330
#     4  10  21  30  61  88 113 140 195 247 285 310
#     4  10  23  38  55  87 124 147 183 243 289 340
#     4  10  18  39  61  89 110 142 204 243 264 339
#     4  12  20  39  64  87 111 155 196 246 280 331
#     4   8  17  31  60  81 107 143 194 231 272 337
#     4  10  21  37  61  81 120 158 190 226 298 352
#     4  10  16  34  59  88 109 148 193 235 283 343
#
# _framework density 17.326432
#
# number of rings (size 3 to 8) (size 9 to 14) (size 15 to 20)
#    1.091    1.091    4.545    0.000    0.000    0.727 
#    1.636    4.545    0.000    0.000    0.000    0.000 
#    0.000    0.000    0.000    0.000    0.000    0.000 
#
# Total GULP energy -136299.925561 kJ/mol
# GULP energy per Si atom -12390.902324 kJ/mol
# Density = 1.728700 g / cm^3
# Si number density = 17.326432 Si / 1000 Ang^3
#
#
#
# Elastic Constant Matrix: (Units=GPa)
#
#
# Indices 1 2 3 4 5 6 
#
# 1 60.3410 35.7258 40.4657 0.0005 -2.6842 -0.0001
# 2 35.7258 134.0636 68.4838 -0.0005 0.6198 -0.0005
# 3 40.4657 68.4838 153.2938 0.0000 -4.9174 -0.0001
# 4 0.0005 -0.0005 0.0000 24.4835 0.0000 -0.4577
# 5 -2.6842 0.6198 -4.9174 0.0000 30.2634 0.0001
# 6 -0.0001 -0.0005 -0.0001 -0.4577 0.0001 12.2212
#
#
#
# Elastic Compliance Matrix: (Units=1/GPa)
#
#
# Indices 1 2 3 4 5 6 
#
# 1 0.021490 -0.003702 -0.003976 -0.000001 0.001336 0.000000
# 2 -0.003702 0.010327 -0.003673 0.000000 -0.001137 0.000000
# 3 -0.003976 -0.003673 0.009253 0.000000 0.001226 0.000000
# 4 -0.000001 0.000000 0.000000 0.040872 0.000000 0.001531
# 5 0.001336 -0.001137 0.001226 0.000000 0.033384 0.000000
# 6 0.000000 0.000000 0.000000 0.001531 0.000000 0.081882
#
#
# Mechanical properties :
#
#
# Convention : Reuss Voigt Hill
#
# Bulk Modulus (GPa) = 54.44062 70.78320 62.61191
# Shear Modulus (GPa) = 22.12054 26.92849 24.52452
#
# Velocity S-wave (km/s) = 3.57696 3.94659 3.76631
# Velocity P-wave (km/s) = 6.96766 7.85550 7.42486
#
# Compressibility (1/GPa) = 0.01836864
#
# Stress axis : x y z
#
# Youngs Moduli (GPa) = 46.53309 96.83272 108.07019
#
# Poissons Ratio (x) = 0.35845 0.42971
# Poissons Ratio (y) = 0.17225 0.39693
# Poissons Ratio (z) = 0.18503 0.35566
#
# Static dielectric constant tensor:
#      x y z
#    x 2.912610 0.000000 -0.098650 
#    y 0.000000 3.363920 0.000000 
#    z -0.098650 0.000000 3.221810 
# 
# 
# High freq. dielectric constant tensor:
#      x y z
#    x 1.635410 0.000000 -0.007650 
#    y 0.000000 1.670720 0.000000 
#    z -0.007650 0.000000 1.671480 
# 
# From -- ./inp_files/27636.got.cif
#   From: 2010.03.12/outbox.cif.g09.slc.cpg/sg8_14_cif.got.tgz:27636.got - 2010.03.31 10:45:26.
