data_PCOD8052296
_publ_section_title
;
Structure prediction by ZEFSAII (Michael W. Deem and Ramdas Pophale) SiO2 
 PCOD8052296
Probable space group: P M
;
_chemical_formula_sum "Si O2"
_cell_formula_units_Z 16
_cell_length_a 12.210461
_cell_length_b 8.608837
_cell_length_c 9.857768
_cell_angle_alpha 90.000000
_cell_angle_beta 51.124068
_cell_angle_gamma 90.000000
_cell_volume 806.710270
_symmetry_space_group_name_H-M "P M"
_symmetry_group_IT_number 6
_symmetry_cell_setting 'monoclinic'
loop_
_space_group_symop_operation_xyz
x,y,z
x,-y,z
loop_
_atom_site_type_symbol
_atom_site_label
_atom_site_fract_x
_atom_site_fract_y
_atom_site_fract_z
Si Si1 0.583770 0.680529 0.885990
Si Si2 0.096514 0.173471 0.405434
Si Si3 0.114724 0.815681 0.914092
Si Si4 0.557844 0.316555 0.216850
Si Si5 0.811578 0.183162 0.513706
Si Si6 0.800167 0.815131 0.216697
Si Si7 0.260629 0.185441 0.527852
Si Si8 0.309382 0.825300 0.000622
O O1 0.621551 0.500000 0.851188
O O2 0.699467 0.775727 0.714402
O O3 0.577305 0.741708 0.046279
O O4 0.438604 0.710085 0.921132
O O5 0.158521 0.256370 0.491039
O O6 0.224275 0.167757 0.203974
O O7 0.960302 0.258378 0.447310
O O8 0.049152 0.000000 0.483223
O O9 0.189543 0.754673 0.720731
O O10 0.111382 0.000000 0.924652
O O11 0.209778 0.752403 0.962942
O O12 0.954813 0.755947 0.050979
O O13 0.544783 0.500000 0.228631
O O14 0.689765 0.263979 0.202906
O O15 0.418142 0.247314 0.392166
O O16 0.772499 0.243484 0.393003
O O17 0.829673 0.000000 0.486020
O O18 0.785272 0.000000 0.215570
O O19 0.268287 0.000000 0.514133
O O20 0.362134 0.000000 0.921414
#
# Coordination Sequence:
#
# PCOD8052296 Si02
#       8
#     2   2   2   2   2   2   2   2
#     4  11  25  41  56  82 119 158 198 238 282 338
#     4   9  17  33  60  88 112 141 187 243 292 337
#     4   9  19  35  60  92 117 140 183 241 293 341
#     4  11  25  42  56  79 120 162 197 236 281 338
#     4  10  21  38  62  91 117 147 190 240 291 343
#     4  10  21  39  62  88 118 151 189 237 290 345
#     4  10  20  36  60  89 116 147 189 237 288 342
#     4  10  18  36  62  85 113 146 187 242 291 338
#
# _framework density 19.833639000000002
#
# number of rings (size 3 to 8) (size 9 to 14) (size 15 to 20)
#    0.000    2.000    2.500    0.750    3.500    2.000 
#    0.000    2.500    0.000    0.000    0.000    0.000 
#    0.000    0.000    0.000    0.000    0.000    0.000 
#
# Total GULP energy -198356.833012 kJ/mol
# GULP energy per Si atom -12397.302063 kJ/mol
# Density = 1.978850 g / cm^3
# Si number density = 19.833639 Si / 1000 Ang^3
#
#
#
# Elastic Constant Matrix: (Units=GPa)
#
#
# Indices 1 2 3 4 5 6 
#
# 1 120.3968 15.5604 38.4810 0.0000 -4.3221 0.0000
# 2 15.5604 20.1017 16.8301 0.0000 3.2496 0.0000
# 3 38.4810 16.8301 124.7871 0.0000 0.0399 0.0000
# 4 0.0000 0.0000 0.0000 -19.7427 0.0000 61.3996
# 5 -4.3221 3.2496 0.0399 0.0000 33.8319 0.0000
# 6 0.0000 0.0000 0.0000 61.3996 0.0000 -80.8028
#
#
#
# Elastic Compliance Matrix: (Units=1/GPa)
#
#
# Indices 1 2 3 4 5 6 
#
# 1 0.009868 -0.006075 -0.002224 0.000000 0.001847 0.000000
# 2 -0.006075 0.060815 -0.006327 0.000000 -0.006610 0.000000
# 3 -0.002224 -0.006327 0.009553 0.000000 0.000312 0.000000
# 4 0.000000 0.000000 0.000000 0.037157 0.000000 0.028234
# 5 0.001847 -0.006610 0.000312 0.000000 0.030428 0.000000
# 6 0.000000 0.000000 0.000000 0.028234 0.000000 0.009079
#
#
# Mechanical properties :
#
#
# Convention : Reuss Voigt Hill
#
# Bulk Modulus (GPa) = 19.61402 45.22543 32.41972
# Shear Modulus (GPa) = 24.61273 -0.38178 12.11547
#
# Velocity S-wave (km/s) = 3.52655 -0.43922 2.47423
# Velocity P-wave (km/s) = 5.14711 4.75339 4.95416
#
# Compressibility (1/GPa) = 0.05098393
#
# Stress axis : x y z
#
# Youngs Moduli (GPa) = 101.33492 16.44328 104.68177
#
# Poissons Ratio (x) = 0.09989 0.23285
# Poissons Ratio (y) = 0.61562 0.66229
# Poissons Ratio (z) = 0.22540 0.10403
#
# Static dielectric constant tensor:
#      x y z
#    x 4.009010 0.000000 0.108380 
#    y 0.000000 3.223020 0.000000 
#    z 0.108380 0.000000 3.713780 
# 
# 
# High freq. dielectric constant tensor:
#      x y z
#    x 1.794080 0.000000 0.003760 
#    y 0.000000 1.728730 0.000000 
#    z 0.003760 0.000000 1.782530 
# 
# From -- ./inp_files/2722.got.cif
#   From: 2010.03.12/outbox.cif.g09.slc.cpg/sg6_2_cif.got.tgz:2722.got - 2010.03.30 10:24:59.
