data_PCOD8052340
_publ_section_title
;
Structure prediction by ZEFSAII (Michael W. Deem and Ramdas Pophale) SiO2 
 PCOD8052340
Probable space group: P M
;
_chemical_formula_sum "Si O2"
_cell_formula_units_Z 16
_cell_length_a 10.300872
_cell_length_b 8.572127
_cell_length_c 12.171976
_cell_angle_alpha 90.000000
_cell_angle_beta 128.276622
_cell_angle_gamma 90.000000
_cell_volume 843.741634
_symmetry_space_group_name_H-M "P M"
_symmetry_group_IT_number 6
_symmetry_cell_setting 'monoclinic'
loop_
_space_group_symop_operation_xyz
x,y,z
x,-y,z
loop_
_atom_site_type_symbol
_atom_site_label
_atom_site_fract_x
_atom_site_fract_y
_atom_site_fract_z
Si Si1 0.787060 0.681908 0.481680
Si Si2 0.091609 0.319025 0.037485
Si Si3 0.874807 0.182657 0.750196
Si Si4 0.307737 0.180445 0.497472
Si Si5 0.606344 0.317989 0.766722
Si Si6 0.949482 0.682605 0.338264
Si Si7 0.414692 0.320848 0.328928
Si Si8 0.827706 0.816838 0.060470
O O1 0.812745 0.500000 0.518820
O O2 0.881854 0.778311 0.625359
O O3 0.864460 0.732234 0.407071
O O4 0.593739 0.726268 0.377517
O O5 0.041158 0.500000 0.010353
O O6 0.286066 0.295350 0.161500
O O7 0.991048 0.234791 0.081088
O O8 0.043950 0.242691 0.895672
O O9 0.717292 0.268791 0.720623
O O10 0.855299 0.000000 0.760347
O O11 0.416933 0.276388 0.642193
O O12 0.366030 0.212958 0.404603
O O13 0.118423 0.224338 0.413856
O O14 0.333394 0.000000 0.535983
O O15 0.625409 0.500000 0.797650
O O16 0.664312 0.228938 0.906770
O O17 0.987287 0.500000 0.352613
O O18 0.824315 0.730157 0.175617
O O19 0.409973 0.500000 0.367316
O O20 0.832470 0.000000 0.082881
#
# Coordination Sequence:
#
# PCOD8052340 Si02
#       8
#     2   2   2   2   2   2   2   2
#     4  10  22  40  61  84 115 156 199 240 286 348
#     4  10  19  33  57  85 115 149 191 240 290 343
#     4  11  21  34  55  85 119 152 191 238 294 345
#     4  12  23  36  58  89 119 150 192 247 297 343
#     4  11  21  36  59  85 116 152 195 242 289 346
#     4  11  23  40  60  84 117 160 201 239 289 351
#     4  10  20  36  60  87 114 148 195 243 286 343
#     4  11  21  35  56  85 119 151 192 243 295 343
#
# _framework density 18.963152999999998
#
# number of rings (size 3 to 8) (size 9 to 14) (size 15 to 20)
#    0.000    1.250    2.500    6.750    0.000    1.500 
#    0.000    1.250    0.000    6.000    0.000    0.000 
#    0.000    0.000    0.000    0.000    0.000    0.000 
#
# Total GULP energy -198476.471431 kJ/mol
# GULP energy per Si atom -12404.779464 kJ/mol
# Density = 1.891999 g / cm^3
# Si number density = 18.963153 Si / 1000 Ang^3
#
#
#
# Elastic Constant Matrix: (Units=GPa)
#
#
# Indices 1 2 3 4 5 6 
#
# 1 81.4021 25.0374 46.5585 0.0000 -5.0680 0.0000
# 2 25.0374 79.8032 25.4746 0.0000 -0.3635 0.0000
# 3 46.5585 25.4746 134.2917 0.0000 -5.3830 0.0000
# 4 0.0000 0.0000 0.0000 29.1458 0.0000 0.3150
# 5 -5.0680 -0.3635 -5.3830 0.0000 26.5261 0.0000
# 6 0.0000 0.0000 0.0000 0.3150 0.0000 6.2806
#
#
#
# Elastic Compliance Matrix: (Units=1/GPa)
#
#
# Indices 1 2 3 4 5 6 
#
# 1 0.016305 -0.003543 -0.004898 0.000000 0.002073 0.000000
# 2 -0.003543 0.014111 -0.001480 0.000000 -0.000784 0.000000
# 3 -0.004898 -0.001480 0.009464 0.000000 0.000965 0.000000
# 4 0.000000 0.000000 0.000000 0.034329 0.000000 -0.001722
# 5 0.002073 -0.000784 0.000965 0.000000 0.038280 0.000000
# 6 0.000000 0.000000 0.000000 -0.001722 0.000000 0.159307
#
#
# Mechanical properties :
#
#
# Convention : Reuss Voigt Hill
#
# Bulk Modulus (GPa) = 49.90236 54.40422 52.15329
# Shear Modulus (GPa) = 16.76077 25.61892 21.18984
#
# Velocity S-wave (km/s) = 2.97620 3.67956 3.34641
# Velocity P-wave (km/s) = 6.17923 6.84134 6.51870
#
# Compressibility (1/GPa) = 0.02003913
#
# Stress axis : x y z
#
# Youngs Moduli (GPa) = 61.33236 70.86593 105.66462
#
# Poissons Ratio (x) = 0.25105 0.51751
# Poissons Ratio (y) = 0.21727 0.15639
# Poissons Ratio (z) = 0.30039 0.10489
#
# Static dielectric constant tensor:
#      x y z
#    x 3.242240 0.000000 0.106460 
#    y 0.000000 3.506900 0.000000 
#    z 0.106460 0.000000 3.791920 
# 
# 
# High freq. dielectric constant tensor:
#      x y z
#    x 1.699580 0.000000 0.008680 
#    y 0.000000 1.748290 0.000000 
#    z 0.008680 0.000000 1.756080 
# 
# From -- ./inp_files/4657.got.cif
#   From: 2010.03.12/outbox.cif.g09.slc.cpg/sg6_3_cif.got.tgz:4657.got - 2010.03.30 10:24:59.
