data_PCOD8052832
_publ_section_title
;
Structure prediction by ZEFSAII (Michael W. Deem and Ramdas Pophale) SiO2 
 PCOD8052832
Probable space group: C M
;
_chemical_formula_sum "Si O2"
_cell_formula_units_Z 24
_cell_length_a 18.143048
_cell_length_b 7.689128
_cell_length_c 16.555807
_cell_angle_alpha 90.000000
_cell_angle_beta 144.847207
_cell_angle_gamma 90.000000
_cell_volume 1329.775494
_symmetry_space_group_name_H-M "C M"
_symmetry_group_IT_number 8
_symmetry_cell_setting 'monoclinic'
loop_
_space_group_symop_operation_xyz
x,y,z
x,-y,z
1/2+x,1/2+y,z
1/2+x,1/2-y,z
loop_
_atom_site_type_symbol
_atom_site_label
_atom_site_fract_x
_atom_site_fract_y
_atom_site_fract_z
Si Si1 0.925360 0.500000 0.050341
Si Si2 0.572068 0.304018 0.245930
Si Si3 0.860773 0.500000 0.729683
Si Si4 0.188680 0.000000 0.732983
Si Si5 0.737931 0.311822 0.233477
Si Si6 0.599138 0.000000 0.047611
Si Si7 0.443327 0.691016 0.523090
Si Si8 0.804299 0.203261 0.555292
O O1 0.952564 0.672904 0.127908
O O2 0.013896 0.500000 0.051080
O O3 0.777356 0.500000 0.891689
O O4 0.521530 0.500000 0.217296
O O5 0.656042 0.297900 0.241048
O O6 0.658218 0.237776 0.397525
O O7 0.769452 0.500000 0.724815
O O8 0.833955 0.322345 0.658509
O O9 0.009323 0.500000 0.888862
O O10 0.097620 0.172502 0.654304
O O11 0.721092 0.500000 0.176816
O O12 0.691417 0.168738 0.127723
O O13 0.886393 0.293563 0.394979
O O14 0.376496 0.500000 0.460057
O O15 0.401830 0.769769 0.572422
O O16 0.824275 0.000000 0.595838
#
# Coordination Sequence:
#
# PCOD8052832 Si02
#       8
#     2   4   2   2   4   2   4   4
#     4   9  16  28  50  68 101 140 167 211 265 295
#     4   9  15  26  48  78  99 124 177 225 248 291
#     4  11  22  32  54  80 112 140 165 209 276 315
#     4   9  19  36  52  76 116 142 159 215 273 313
#     4   9  15  26  51  77  97 129 179 219 247 293
#     4   9  17  30  42  74 109 132 161 215 266 303
#     4   8  16  32  55  74 102 135 170 219 252 295
#     4  10  18  32  54  80 101 134 180 217 254 306
#
# _framework density 18.048158000000001
#
# number of rings (size 3 to 8) (size 9 to 14) (size 15 to 20)
#    0.500    2.333    2.500    0.000    1.167    0.667 
#    0.000    4.167    0.000    4.000    0.000    0.000 
#    0.000    0.000    0.000    0.000    0.000    0.000 
#
# Total GULP energy -148693.639567 kJ/mol
# GULP energy per Si atom -12391.136631 kJ/mol
# Density = 1.800708 g / cm^3
# Si number density = 18.048158 Si / 1000 Ang^3
#
#
#
# Elastic Constant Matrix: (Units=GPa)
#
#
# Indices 1 2 3 4 5 6 
#
# 1 35.6309 17.4032 34.4253 0.0000 0.1221 0.0000
# 2 17.4032 140.6867 78.4162 0.0000 -5.0986 0.0000
# 3 34.4253 78.4162 165.3340 0.0000 2.3940 0.0000
# 4 0.0000 0.0000 0.0000 16.3588 0.0000 -0.5112
# 5 0.1221 -5.0986 2.3940 0.0000 22.6589 0.0000
# 6 0.0000 0.0000 0.0000 -0.5112 0.0000 12.0801
#
#
#
# Elastic Compliance Matrix: (Units=1/GPa)
#
#
# Indices 1 2 3 4 5 6 
#
# 1 0.035153 -0.000336 -0.007167 0.000000 0.000492 0.000000
# 2 -0.000336 0.009829 -0.004631 0.000000 0.002703 0.000000
# 3 -0.007167 -0.004631 0.009767 0.000000 -0.002035 0.000000
# 4 0.000000 0.000000 0.000000 0.061210 0.000000 0.002590
# 5 0.000492 0.002703 -0.002035 0.000000 0.044953 0.000000
# 6 0.000000 0.000000 0.000000 0.002590 0.000000 0.082891
#
#
# Mechanical properties :
#
#
# Convention : Reuss Voigt Hill
#
# Bulk Modulus (GPa) = 32.80824 66.90454 49.85639
# Shear Modulus (GPa) = 17.97077 24.31333 21.14205
#
# Velocity S-wave (km/s) = 3.15891 3.67432 3.42632
# Velocity P-wave (km/s) = 5.61450 7.42639 6.58308
#
# Compressibility (1/GPa) = 0.03048014
#
# Stress axis : x y z
#
# Youngs Moduli (GPa) = 28.44738 101.74381 102.39039
#
# Poissons Ratio (x) = 0.03415 0.73386
# Poissons Ratio (y) = 0.00955 0.47415
# Poissons Ratio (z) = 0.20389 0.47116
#
# Static dielectric constant tensor:
#      x y z
#    x 2.738050 0.000000 -0.000710 
#    y 0.000000 3.474280 0.000000 
#    z -0.000710 0.000000 3.407330 
# 
# 
# High freq. dielectric constant tensor:
#      x y z
#    x 1.636720 0.000000 -0.002530 
#    y 0.000000 1.703310 0.000000 
#    z -0.002530 0.000000 1.698090 
# 
# From -- ./inp_files/22656.got.cif
#   From: 2010.03.12/outbox.cif.g09.slc.cpg/sg8_12_cif.got.tgz:22656.got - 2010.03.31 10:45:26.
