data_PCOD8052684
_publ_section_title
;
Structure prediction by ZEFSAII (Michael W. Deem and Ramdas Pophale) SiO2 
 PCOD8052684
Probable space group: P C
;
_chemical_formula_sum "Si O2"
_cell_formula_units_Z 14
_cell_length_a 7.830419
_cell_length_b 14.854530
_cell_length_c 5.068289
_cell_angle_alpha 90.000000
_cell_angle_beta 90.059483
_cell_angle_gamma 90.000000
_cell_volume 589.528837
_symmetry_space_group_name_H-M "P C"
_symmetry_group_IT_number 7
_symmetry_cell_setting 'monoclinic'
loop_
_space_group_symop_operation_xyz
x,y,z
x,-y,1/2+z
loop_
_atom_site_type_symbol
_atom_site_label
_atom_site_fract_x
_atom_site_fract_y
_atom_site_fract_z
Si Si1 0.338850 0.694291 0.584660
Si Si2 0.101422 0.444960 0.201571
Si Si3 0.588335 0.442745 0.146984
Si Si4 0.857617 0.193304 0.590533
Si Si5 0.252019 0.195600 0.587830
Si Si6 0.849749 0.308276 0.095288
Si Si7 0.553545 0.941011 0.106737
O O1 0.297647 0.586289 0.659527
O O2 0.538381 0.665521 0.587247
O O3 0.276535 0.723588 0.295666
O O4 0.298506 0.770550 0.797147
O O5 0.054176 0.478346 0.491346
O O6 0.046013 0.338710 0.151340
O O7 0.542679 0.483018 0.430256
O O8 0.787918 0.413505 0.135554
O O9 0.801054 0.232635 0.308288
O O10 0.730420 0.111919 0.656015
O O11 0.055734 0.160078 0.594947
O O12 0.828318 0.271802 0.802035
O O13 0.383685 0.116990 0.663633
O O14 0.549935 0.976052 0.808153
#
# Coordination Sequence:
#
# PCOD8052684 Si02
#       7
#     2   2   2   2   2   2   2
#     4  12  23  42  64  96 131 179 235 272 333 410
#     4  12  22  36  58  92 132 172 222 280 320 366
#     4  12  24  40  60  90 134 182 230 290 346 380
#     4  12  24  46  72 101 135 178 224 276 342 413
#     4  12  24  46  72 101 135 178 224 276 342 413
#     4  12  23  42  64  96 131 179 235 272 333 410
#     4  12  28  48  74 108 138 170 220 280 350 424
#
# _framework density 23.747779000000001
#
# number of rings (size 3 to 8) (size 9 to 14) (size 15 to 20)
#    0.000    0.000    2.857    8.571    0.000    1.143 
#    0.000    0.000    0.000    0.000    0.000    0.000 
#    0.000    0.000    0.000    0.000    0.000    0.000 
#
# Total GULP energy -173502.531235 kJ/mol
# GULP energy per Si atom -12393.037945 kJ/mol
# Density = 2.369373 g / cm^3
# Si number density = 23.747779 Si / 1000 Ang^3
#
#
#
# Elastic Constant Matrix: (Units=GPa)
#
#
# Indices 1 2 3 4 5 6 
#
# 1 81.6612 47.3842 17.7982 0.0000 0.2695 0.0000
# 2 47.3842 83.7418 7.7789 0.0000 -3.8157 0.0000
# 3 17.7982 7.7789 88.9991 0.0000 0.8726 0.0000
# 4 0.0000 0.0000 0.0000 53.3026 0.0000 4.0226
# 5 0.2695 -3.8157 0.8726 0.0000 31.3599 0.0000
# 6 0.0000 0.0000 0.0000 4.0226 0.0000 49.9925
#
#
#
# Elastic Compliance Matrix: (Units=1/GPa)
#
#
# Indices 1 2 3 4 5 6 
#
# 1 0.018991 -0.010542 -0.002863 0.000000 -0.001366 0.000000
# 2 -0.010542 0.017962 0.000516 0.000000 0.002262 0.000000
# 3 -0.002863 0.000516 0.011766 0.000000 -0.000240 0.000000
# 4 0.000000 0.000000 0.000000 0.018875 0.000000 -0.001519
# 5 -0.001366 0.002262 -0.000240 0.000000 0.032182 0.000000
# 6 0.000000 0.000000 0.000000 -0.001519 0.000000 0.020125
#
#
# Mechanical properties :
#
#
# Convention : Reuss Voigt Hill
#
# Bulk Modulus (GPa) = 43.59088 44.48050 44.03569
# Shear Modulus (GPa) = 32.61008 39.02704 35.81856
#
# Velocity S-wave (km/s) = 3.70967 4.05828 3.88789
# Velocity P-wave (km/s) = 6.06172 6.38205 6.22395
#
# Compressibility (1/GPa) = 0.02294058
#
# Stress axis : x y z
#
# Youngs Moduli (GPa) = 52.65515 55.67362 84.99160
#
# Poissons Ratio (x) = 0.58693 0.24334
# Poissons Ratio (y) = 0.55511 -0.04387
# Poissons Ratio (z) = 0.15076 -0.02874
#
# Static dielectric constant tensor:
#      x y z
#    x 4.948230 0.000000 -0.098290 
#    y 0.000000 3.813070 0.000000 
#    z -0.098290 0.000000 3.981290 
# 
# 
# High freq. dielectric constant tensor:
#      x y z
#    x 1.995110 0.000000 -0.004710 
#    y 0.000000 1.924430 0.000000 
#    z -0.004710 0.000000 1.944360 
# 
# From -- ./inp_files/575.got.cif
#   From: 2010.03.12/outbox.cif.g09.slc.cpg/sg7_cif.got.tgz:575.got - 2010.03.30 08:40:41.
