data_PCOD8052898
_publ_section_title
;
Structure prediction by ZEFSAII (Michael W. Deem and Ramdas Pophale) SiO2 
 PCOD8052898
Probable space group: C M
;
_chemical_formula_sum "Si O2"
_cell_formula_units_Z 22
_cell_length_a 19.282236
_cell_length_b 11.714875
_cell_length_c 15.392474
_cell_angle_alpha 90.000000
_cell_angle_beta 161.301099
_cell_angle_gamma 90.000000
_cell_volume 1114.705093
_symmetry_space_group_name_H-M "C M"
_symmetry_group_IT_number 8
_symmetry_cell_setting 'monoclinic'
loop_
_space_group_symop_operation_xyz
x,y,z
x,-y,z
1/2+x,1/2+y,z
1/2+x,1/2-y,z
loop_
_atom_site_type_symbol
_atom_site_label
_atom_site_fract_x
_atom_site_fract_y
_atom_site_fract_z
Si Si1 0.765130 0.274346 0.612270
Si Si2 0.811246 0.500000 0.594786
Si Si3 0.474117 0.251372 0.103459
Si Si4 0.892431 0.500000 0.491310
Si Si5 0.370710 0.500000 0.023427
Si Si6 0.072798 0.135949 0.559167
Si Si7 0.195816 0.774580 0.193753
O O1 0.905729 0.385305 0.746890
O O2 0.605903 0.227519 0.348897
O O3 0.622574 0.302238 0.527126
O O4 0.969021 0.193075 0.875666
O O5 0.793013 0.500000 0.468882
O O6 0.554067 0.500000 0.316095
O O7 0.634799 0.221009 0.215073
O O8 0.396912 0.383216 0.998829
O O9 0.264635 0.169294 0.854286
O O10 0.828064 0.390768 0.359133
O O11 0.147307 0.500000 0.809261
O O12 0.842694 0.181842 0.319129
O O13 0.061924 0.000000 0.536167
#
# Coordination Sequence:
#
# PCOD8052898 Si02
#       7
#     4   2   4   2   2   4   4
#     4  10  22  40  62  91 120 157 200 251 302 350
#     4  10  20  38  64  91 116 151 205 258 297 343
#     4  10  21  42  63  87 122 160 198 250 303 352
#     4  12  20  38  66  93 113 156 207 251 300 353
#     4  10  18  34  66  90 109 149 202 253 299 342
#     4  11  24  39  62  91 123 160 200 244 302 362
#     4  11  23  37  64  92 122 154 202 251 301 353
#
# _framework density 19.736163000000001
#
# number of rings (size 3 to 8) (size 9 to 14) (size 15 to 20)
#    0.000    1.455    6.364    0.000    1.273    5.091 
#    1.636    0.000    4.000    0.000    0.000    0.000 
#    0.000    0.000    0.000    0.000    0.000    0.000 
#
# Total GULP energy -136311.020541 kJ/mol
# GULP energy per Si atom -12391.910958 kJ/mol
# Density = 1.969124 g / cm^3
# Si number density = 19.736163 Si / 1000 Ang^3
#
#
#
# Elastic Constant Matrix: (Units=GPa)
#
#
# Indices 1 2 3 4 5 6 
#
# 1 92.6124 20.1503 65.4688 -0.0017 -5.1842 -0.0008
# 2 20.1503 44.8778 26.3134 -0.0002 11.0018 -0.0004
# 3 65.4688 26.3134 136.4674 -0.0020 0.2274 -0.0017
# 4 -0.0017 -0.0002 -0.0020 29.1296 -0.0022 3.7280
# 5 -5.1842 11.0018 0.2274 -0.0022 35.9767 -0.0012
# 6 -0.0008 -0.0004 -0.0017 3.7280 -0.0012 26.3658
#
#
#
# Elastic Compliance Matrix: (Units=1/GPa)
#
#
# Indices 1 2 3 4 5 6 
#
# 1 0.017201 -0.004311 -0.007427 0.000001 0.003844 0.000000
# 2 -0.004311 0.028503 -0.003412 -0.000001 -0.009316 0.000000
# 3 -0.007427 -0.003412 0.011549 0.000000 -0.000100 0.000000
# 4 0.000001 -0.000001 0.000000 0.034962 0.000002 -0.004943
# 5 0.003844 -0.009316 -0.000100 0.000002 0.031199 0.000001
# 6 0.000000 0.000000 0.000000 -0.004943 0.000001 0.038627
#
#
# Mechanical properties :
#
#
# Convention : Reuss Voigt Hill
#
# Bulk Modulus (GPa) = 37.10260 55.31362 46.20811
# Shear Modulus (GPa) = 24.83532 29.09609 26.96571
#
# Velocity S-wave (km/s) = 3.55119 3.84377 3.70037
# Velocity P-wave (km/s) = 5.97116 6.91280 6.45916
#
# Compressibility (1/GPa) = 0.02695229
#
# Stress axis : x y z
#
# Youngs Moduli (GPa) = 58.13536 35.08420 86.58728
#
# Poissons Ratio (x) = 0.15124 0.64311
# Poissons Ratio (y) = 0.25061 0.29546
# Poissons Ratio (z) = 0.43179 0.11972
#
# Static dielectric constant tensor:
#      x y z
#    x 3.498520 0.000000 0.028150 
#    y 0.000000 3.599500 0.000000 
#    z 0.028150 0.000000 3.697390 
# 
# 
# High freq. dielectric constant tensor:
#      x y z
#    x 1.763490 0.000000 0.007000 
#    y 0.000000 1.750820 0.000000 
#    z 0.007000 0.000000 1.783110 
# 
# From -- ./inp_files/3713.got.cif
#   From: 2010.03.12/outbox.cif.g09.slc.cpg/sg8_2_cif.got.tgz:3713.got - 2010.03.31 10:45:26.
