data_PCOD8052360
_publ_section_title
;
Structure prediction by ZEFSAII (Michael W. Deem and Ramdas Pophale) SiO2 
 PCOD8052360
Probable space group: P M
;
_chemical_formula_sum "Si O2"
_cell_formula_units_Z 16
_cell_length_a 15.433817
_cell_length_b 8.916656
_cell_length_c 20.503804
_cell_angle_alpha 90.000000
_cell_angle_beta 160.658526
_cell_angle_gamma 90.000000
_cell_volume 934.537707
_symmetry_space_group_name_H-M "P M"
_symmetry_group_IT_number 6
_symmetry_cell_setting 'monoclinic'
loop_
_space_group_symop_operation_xyz
x,y,z
x,-y,z
loop_
_atom_site_type_symbol
_atom_site_label
_atom_site_fract_x
_atom_site_fract_y
_atom_site_fract_z
Si Si1 0.831900 0.669589 0.208990
Si Si2 0.738254 0.677716 0.398801
Si Si3 0.292135 0.830349 0.161525
Si Si4 0.231407 0.323325 0.385558
Si Si5 0.272442 0.669457 0.840746
Si Si6 0.638474 0.823550 0.189704
Si Si7 0.086480 0.830903 0.149990
Si Si8 0.795256 0.676915 0.838983
O O1 0.925084 0.500000 0.290707
O O2 0.860801 0.767028 0.296114
O O3 0.007063 0.736698 0.275347
O O4 0.523169 0.671993 0.969267
O O5 0.730566 0.500000 0.385466
O O6 0.521212 0.729784 0.295610
O O7 0.692319 0.752202 0.297208
O O8 0.018702 0.734731 0.624622
O O9 0.315591 0.831028 0.257361
O O10 0.009694 0.755416 0.943389
O O11 0.304570 0.000000 0.142293
O O12 0.208004 0.500000 0.358327
O O13 0.199003 0.245203 0.293691
O O14 0.509054 0.276049 0.612258
O O15 0.217619 0.500000 0.826036
O O16 0.351288 0.769348 0.960073
O O17 0.645535 0.000000 0.201045
O O18 0.838981 0.738559 0.944177
O O19 0.995649 0.000000 0.101298
O O20 0.836987 0.500000 0.867346
#
# Coordination Sequence:
#
# PCOD8052360 Si02
#       8
#     2   2   2   2   2   2   2   2
#     4   8  17  37  55  77 108 138 180 222 257 310
#     4  11  20  35  60  80 102 142 179 219 267 309
#     4   9  20  37  53  78 110 140 174 218 267 316
#     4  10  19  34  60  81 102 141 180 221 267 306
#     4   8  18  37  56  77 106 138 177 220 260 309
#     4  10  20  35  54  80 111 140 173 219 264 316
#     4   9  20  36  53  77 110 141 172 216 265 318
#     4   9  18  35  55  80 107 136 179 223 259 310
#
# _framework density 17.120764999999999
#
# number of rings (size 3 to 8) (size 9 to 14) (size 15 to 20)
#    1.500    1.250    0.000    1.875    0.000    2.500 
#    4.500    0.000    0.000    0.000    0.000    0.000 
#    0.000    0.000    0.000    0.000    0.000    0.000 
#
# Total GULP energy -198217.719698 kJ/mol
# GULP energy per Si atom -12388.607481 kJ/mol
# Density = 1.708180 g / cm^3
# Si number density = 17.120765 Si / 1000 Ang^3
#
#
#
# Elastic Constant Matrix: (Units=GPa)
#
#
# Indices 1 2 3 4 5 6 
#
# 1 121.5710 64.6764 83.2312 0.0000 -1.1312 0.0000
# 2 64.6764 108.8270 72.9245 0.0000 -5.7075 0.0000
# 3 83.2312 72.9245 151.3016 0.0000 -1.4460 0.0000
# 4 0.0000 0.0000 0.0000 8.1265 0.0000 -2.6632
# 5 -1.1312 -5.7075 -1.4460 0.0000 31.9928 0.0000
# 6 0.0000 0.0000 0.0000 -2.6632 0.0000 24.2103
#
#
#
# Elastic Compliance Matrix: (Units=1/GPa)
#
#
# Indices 1 2 3 4 5 6 
#
# 1 0.014806 -0.004978 -0.005751 0.000000 -0.000625 0.000000
# 2 -0.004978 0.015392 -0.004658 0.000000 0.002359 0.000000
# 3 -0.005751 -0.004658 0.012013 0.000000 -0.000491 0.000000
# 4 0.000000 0.000000 0.000000 0.127657 0.000000 0.014043
# 5 -0.000625 0.002359 -0.000491 0.000000 0.031634 0.000000
# 6 0.000000 0.000000 0.000000 0.014043 0.000000 0.042849
#
#
# Mechanical properties :
#
#
# Convention : Reuss Voigt Hill
#
# Bulk Modulus (GPa) = 87.43438 91.48488 89.45963
# Shear Modulus (GPa) = 17.92514 23.59041 20.75778
#
# Velocity S-wave (km/s) = 3.23922 3.71601 3.48578
# Velocity P-wave (km/s) = 8.07280 8.48308 8.28048
#
# Compressibility (1/GPa) = 0.01143715
#
# Stress axis : x y z
#
# Youngs Moduli (GPa) = 67.54203 64.96782 83.24010
#
# Poissons Ratio (x) = 0.32340 0.47874
# Poissons Ratio (y) = 0.33621 0.38772
# Poissons Ratio (z) = 0.38846 0.30261
#
# Static dielectric constant tensor:
#      x y z
#    x 2.927890 0.000000 -0.084110 
#    y 0.000000 3.243020 0.000000 
#    z -0.084110 0.000000 2.953980 
# 
# 
# High freq. dielectric constant tensor:
#      x y z
#    x 1.644920 0.000000 0.000680 
#    y 0.000000 1.668610 0.000000 
#    z 0.000680 0.000000 1.645620 
# 
# From -- ./inp_files/5949.got.cif
#   From: 2010.03.12/outbox.cif.g09.slc.cpg/sg6_3_cif.got.tgz:5949.got - 2010.03.30 10:24:59.
