data_PCOD8052453
_publ_section_title
;
Structure prediction by ZEFSAII (Michael W. Deem and Ramdas Pophale) SiO2 
 PCOD8052453
Probable space group: P M
;
_chemical_formula_sum "Si O2"
_cell_formula_units_Z 16
_cell_length_a 19.081899
_cell_length_b 8.893203
_cell_length_c 7.671749
_cell_angle_alpha 90.000000
_cell_angle_beta 141.898552
_cell_angle_gamma 90.000000
_cell_volume 803.338529
_symmetry_space_group_name_H-M "P M"
_symmetry_group_IT_number 6
_symmetry_cell_setting 'monoclinic'
loop_
_space_group_symop_operation_xyz
x,y,z
x,-y,z
loop_
_atom_site_type_symbol
_atom_site_label
_atom_site_fract_x
_atom_site_fract_y
_atom_site_fract_z
Si Si1 0.597450 0.176129 0.368270
Si Si2 0.193921 0.329294 0.238940
Si Si3 0.744166 0.322206 0.355515
Si Si4 0.188117 0.671727 0.837591
Si Si5 0.968902 0.176938 0.904200
Si Si6 0.722872 0.823778 0.963388
Si Si7 0.357006 0.675762 0.870549
Si Si8 0.963362 0.822571 0.289481
O O1 0.677842 0.262107 0.392369
O O2 0.635058 0.216014 0.638067
O O3 0.611149 0.000000 0.358381
O O4 0.469036 0.225690 0.091425
O O5 0.151402 0.500000 0.188984
O O6 0.296219 0.290061 0.568596
O O7 0.240568 0.310651 0.133458
O O8 0.090917 0.215486 0.064752
O O9 0.742753 0.500000 0.356743
O O10 0.872714 0.261587 0.606332
O O11 0.684305 0.264976 0.060792
O O12 0.161680 0.500000 0.738094
O O13 0.277479 0.735059 0.872143
O O14 0.069731 0.758611 0.601884
O O15 0.946750 0.000000 0.845378
O O16 0.964498 0.235234 0.093568
O O17 0.722938 0.000000 0.004680
O O18 0.847893 0.767129 0.152867
O O19 0.387125 0.500000 0.951111
O O20 0.971966 0.000000 0.309871
#
# Coordination Sequence:
#
# PCOD8052453 Si02
#       8
#     2   2   2   2   2   2   2   2
#     4  11  24  44  66  89 120 160 207 257 306 361
#     4  10  21  38  60  89 122 159 200 244 299 359
#     4  12  25  40  63  94 125 160 202 250 306 369
#     4  10  21  37  59  86 119 156 196 242 295 355
#     4  11  21  37  61  90 124 161 201 247 301 361
#     4  10  22  42  64  89 123 161 200 251 307 362
#     4  10  22  40  59  85 121 159 202 254 302 351
#     4  10  20  36  60  88 120 156 196 243 300 358
#
# _framework density 19.916884
#
# number of rings (size 3 to 8) (size 9 to 14) (size 15 to 20)
#    0.000    1.500    2.500    2.625    0.000    6.500 
#    0.000    1.250    0.000    0.000    0.000    0.000 
#    0.000    0.000    0.000    0.000    0.000    0.000 
#
# Total GULP energy -198481.264917 kJ/mol
# GULP energy per Si atom -12405.079057 kJ/mol
# Density = 1.987155 g / cm^3
# Si number density = 19.916884 Si / 1000 Ang^3
#
#
#
# Elastic Constant Matrix: (Units=GPa)
#
#
# Indices 1 2 3 4 5 6 
#
# 1 64.0440 33.8966 47.8644 0.0000 -23.3495 0.0000
# 2 33.8966 77.9045 47.0842 0.0000 -8.6123 0.0000
# 3 47.8644 47.0842 128.8409 0.0000 -10.1871 0.0000
# 4 0.0000 0.0000 0.0000 31.5333 0.0000 3.0321
# 5 -23.3495 -8.6123 -10.1871 0.0000 37.3014 0.0000
# 6 0.0000 0.0000 0.0000 3.0321 0.0000 29.5298
#
#
#
# Elastic Compliance Matrix: (Units=1/GPa)
#
#
# Indices 1 2 3 4 5 6 
#
# 1 0.030666 -0.007040 -0.007594 0.000000 0.015496 0.000000
# 2 -0.007040 0.018271 -0.004167 0.000000 -0.001326 0.000000
# 3 -0.007594 -0.004167 0.011911 0.000000 -0.002463 0.000000
# 4 0.000000 0.000000 0.000000 0.032029 0.000000 -0.003289
# 5 0.015496 -0.001326 -0.002463 0.000000 0.035530 0.000000
# 6 0.000000 0.000000 0.000000 -0.003289 0.000000 0.034202
#
#
# Mechanical properties :
#
#
# Convention : Reuss Voigt Hill
#
# Bulk Modulus (GPa) = 43.01835 58.71998 50.86916
# Shear Modulus (GPa) = 24.04330 29.13586 26.58958
#
# Velocity S-wave (km/s) = 3.47822 3.82890 3.65777
# Velocity P-wave (km/s) = 6.14626 7.00670 6.59054
#
# Compressibility (1/GPa) = 0.02324590
#
# Stress axis : x y z
#
# Youngs Moduli (GPa) = 32.60958 54.73199 83.95769
#
# Poissons Ratio (x) = 0.38530 0.63761
# Poissons Ratio (y) = 0.22956 0.34982
# Poissons Ratio (z) = 0.24765 0.22804
#
# Static dielectric constant tensor:
#      x y z
#    x 3.753020 0.000000 -0.183400 
#    y 0.000000 3.525430 0.000000 
#    z -0.183400 0.000000 3.652930 
# 
# 
# High freq. dielectric constant tensor:
#      x y z
#    x 1.785220 0.000000 -0.015170 
#    y 0.000000 1.769900 0.000000 
#    z -0.015170 0.000000 1.778970 
# 
# From -- ./inp_files/4292.got.cif
#   From: 2010.03.12/outbox.cif.g09.slc.cpg/sg6_3_cif.got.tgz:4292.got - 2010.03.30 10:24:59.
