data_PCOD8052683
_publ_section_title
;
Structure prediction by ZEFSAII (Michael W. Deem and Ramdas Pophale) SiO2 
 PCOD8052683
Probable space group: P C
;
_chemical_formula_sum "Si O2"
_cell_formula_units_Z 10
_cell_length_a 5.002615
_cell_length_b 15.852140
_cell_length_c 5.151153
_cell_angle_alpha 90.000000
_cell_angle_beta 80.404331
_cell_angle_gamma 90.000000
_cell_volume 402.782089
_symmetry_space_group_name_H-M "P C"
_symmetry_group_IT_number 7
_symmetry_cell_setting 'monoclinic'
loop_
_space_group_symop_operation_xyz
x,y,z
x,-y,1/2+z
loop_
_atom_site_type_symbol
_atom_site_label
_atom_site_fract_x
_atom_site_fract_y
_atom_site_fract_z
Si Si1 0.184710 0.833498 0.461930
Si Si2 0.111472 0.553966 0.463139
Si Si3 0.453850 0.325038 0.657737
Si Si4 0.697083 0.944562 0.391530
Si Si5 0.018497 0.307161 0.330401
O O1 0.324922 0.763376 0.262658
O O2 0.400917 0.905769 0.489786
O O3 0.077965 0.789487 0.743548
O O4 0.924798 0.872746 0.364694
O O5 0.049342 0.515938 0.190860
O O6 0.411937 0.597217 0.370618
O O7 0.941943 0.636682 0.585626
O O8 0.286261 0.348168 0.421571
O O9 0.770265 0.311489 0.568884
O O10 0.733296 0.015484 0.603084
#
# Coordination Sequence:
#
# PCOD8052683 Si02
#       5
#     2   2   2   2   2
#     4  11  26  46  74 107 148 190 244 295 354 444
#     4  11  24  48  72 109 148 190 242 303 356 424
#     4  11  25  46  76 105 144 197 241 293 362 422
#     4  12  28  48  76 108 146 188 236 300 368 424
#     4  11  25  46  76 105 144 197 241 293 362 422
#
# _framework density 24.827321000000001
#
# number of rings (size 3 to 8) (size 9 to 14) (size 15 to 20)
#    0.000    0.800    2.000    3.600    8.400    6.400 
#    0.000    0.000    0.000    0.000    0.000    0.000 
#    0.000    0.000    0.000    0.000    0.000    0.000 
#
# Total GULP energy -123887.772531 kJ/mol
# GULP energy per Si atom -12388.777253 kJ/mol
# Density = 2.477081 g / cm^3
# Si number density = 24.827321 Si / 1000 Ang^3
#
#
#
# Elastic Constant Matrix: (Units=GPa)
#
#
# Indices 1 2 3 4 5 6 
#
# 1 72.5478 -8.0036 11.8337 0.0000 -10.3282 0.0000
# 2 -8.0036 75.3488 20.5994 0.0000 -0.7646 0.0000
# 3 11.8337 20.5994 94.0164 0.0000 -4.8861 0.0000
# 4 0.0000 0.0000 0.0000 43.8557 0.0000 -2.5680
# 5 -10.3282 -0.7646 -4.8861 0.0000 40.7667 0.0000
# 6 0.0000 0.0000 0.0000 -2.5680 0.0000 27.7495
#
#
#
# Elastic Compliance Matrix: (Units=1/GPa)
#
#
# Indices 1 2 3 4 5 6 
#
# 1 0.014888 0.002212 -0.002174 0.000000 0.003553 0.000000
# 2 0.002212 0.014446 -0.003422 0.000000 0.000421 0.000000
# 3 -0.002174 -0.003422 0.011701 0.000000 0.000787 0.000000
# 4 0.000000 0.000000 0.000000 0.022926 0.000000 0.002122
# 5 0.003553 0.000421 0.000787 0.000000 0.025532 0.000000
# 6 0.000000 0.000000 0.000000 0.002122 0.000000 0.036233
#
#
# Mechanical properties :
#
#
# Convention : Reuss Voigt Hill
#
# Bulk Modulus (GPa) = 29.18198 32.30800 30.74499
# Shear Modulus (GPa) = 34.74217 36.97328 35.85772
#
# Velocity S-wave (km/s) = 3.74485 3.86322 3.80450
# Velocity P-wave (km/s) = 5.52069 5.73940 5.63111
#
# Compressibility (1/GPa) = 0.03426772
#
# Stress axis : x y z
#
# Youngs Moduli (GPa) = 67.16619 69.22188 85.46479
#
# Poissons Ratio (x) = -0.15311 0.18580
# Poissons Ratio (y) = -0.14856 0.29244
# Poissons Ratio (z) = 0.14602 0.23686
#
# Static dielectric constant tensor:
#      x y z
#    x 4.210710 0.000000 -0.100510 
#    y 0.000000 4.757140 0.000000 
#    z -0.100510 0.000000 4.663660 
# 
# 
# High freq. dielectric constant tensor:
#      x y z
#    x 1.963570 0.000000 -0.013060 
#    y 0.000000 2.008200 0.000000 
#    z -0.013060 0.000000 2.006270 
# 
# From -- ./inp_files/115.got.cif
#   From: 2010.03.12/outbox.cif.g09.slc.cpg/sg7_cif.got.tgz:115.got - 2010.03.30 08:40:41.
