data_PCOD8052693
_publ_section_title
;
Structure prediction by ZEFSAII (Michael W. Deem and Ramdas Pophale) SiO2 
 PCOD8052693
Probable space group: C M
;
_chemical_formula_sum "Si O2"
_cell_formula_units_Z 32
_cell_length_a 16.071191
_cell_length_b 22.185605
_cell_length_c 9.014062
_cell_angle_alpha 90.000000
_cell_angle_beta 31.458791
_cell_angle_gamma 90.000000
_cell_volume 1677.315833
_symmetry_space_group_name_H-M "C M"
_symmetry_group_IT_number 8
_symmetry_cell_setting 'monoclinic'
loop_
_space_group_symop_operation_xyz
x,y,z
x,-y,z
1/2+x,1/2+y,z
1/2+x,1/2-y,z
loop_
_atom_site_type_symbol
_atom_site_label
_atom_site_fract_x
_atom_site_fract_y
_atom_site_fract_z
Si Si1 0.022370 0.273225 0.323470
Si Si2 0.106870 0.929916 0.588555
Si Si3 0.273792 0.734898 0.465962
Si Si4 0.025970 0.175251 0.904631
Si Si5 0.204733 0.347878 0.834143
Si Si6 0.414214 0.933281 0.302366
Si Si7 0.765848 0.360215 0.780181
Si Si8 0.554798 0.638299 0.363110
O O1 0.065244 0.211833 0.344330
O O2 0.915846 0.268307 0.336211
O O3 0.914009 0.315585 0.594992
O O4 0.181492 0.305664 0.017150
O O5 0.291730 0.928112 0.352447
O O6 0.091513 0.894107 0.459896
O O7 0.005337 0.891358 0.864342
O O8 0.046595 0.000000 0.672499
O O9 0.192732 0.687010 0.697970
O O10 0.135159 0.782602 0.629516
O O11 0.350148 0.703015 0.203503
O O12 0.120787 0.174379 0.917396
O O13 0.376393 0.379901 0.586384
O O14 0.070104 0.397044 0.027334
O O15 0.328721 0.914230 0.584087
O O16 0.474783 0.000000 0.235183
O O17 0.688671 0.386903 0.046994
#
# Coordination Sequence:
#
# PCOD8052693 Si02
#       8
#     4   4   4   4   4   4   4   4
#     4   9  16  31  51  84 121 144 166 223 294 338
#     4  10  24  41  54  75 119 160 188 228 284 336
#     4  10  16  29  56  89 115 135 179 230 284 335
#     4  10  18  34  56  84 111 150 181 230 281 339
#     4  10  18  32  60  90 112 139 182 245 280 326
#     4   9  20  39  58  76 107 155 197 228 277 338
#     4   9  17  31  58  82 111 144 190 227 275 339
#     4  11  19  33  57  86 110 145 185 231 283 327
#
# _framework density 19.078099999999999
#
# number of rings (size 3 to 8) (size 9 to 14) (size 15 to 20)
#    0.000    2.250    3.750    2.250    0.000    1.000 
#    4.500    0.625    2.750    0.000    0.000    0.000 
#    0.000    0.000    0.000    0.000    0.000    0.000 
#
# Total GULP energy -198268.973827 kJ/mol
# GULP energy per Si atom -12391.810864 kJ/mol
# Density = 1.903468 g / cm^3
# Si number density = 19.078100 Si / 1000 Ang^3
#
#
#
# Elastic Constant Matrix: (Units=GPa)
#
#
# Indices 1 2 3 4 5 6 
#
# 1 41.5827 39.2730 19.5058 -0.0002 9.0407 0.0003
# 2 39.2730 122.7564 54.8371 0.0002 3.1844 0.0001
# 3 19.5058 54.8371 122.7252 -0.0016 9.9230 0.0010
# 4 -0.0002 0.0002 -0.0016 13.6295 0.0016 -2.6875
# 5 9.0407 3.1844 9.9230 0.0016 15.3733 -0.0005
# 6 0.0003 0.0001 0.0010 -2.6875 -0.0005 27.6584
#
#
#
# Elastic Compliance Matrix: (Units=1/GPa)
#
#
# Indices 1 2 3 4 5 6 
#
# 1 0.040415 -0.012847 0.001080 0.000003 -0.021803 0.000000
# 2 -0.012847 0.014272 -0.004966 -0.000002 0.007804 0.000000
# 3 0.001080 -0.004966 0.010724 0.000002 -0.006528 0.000000
# 4 0.000003 -0.000002 0.000002 0.074803 -0.000011 0.007269
# 5 -0.021803 0.007804 -0.006528 -0.000011 0.080467 0.000001
# 6 0.000000 0.000000 0.000000 0.007269 0.000001 0.036862
#
#
# Mechanical properties :
#
#
# Convention : Reuss Voigt Hill
#
# Bulk Modulus (GPa) = 31.30438 57.14401 44.22420
# Shear Modulus (GPa) = 16.57502 22.89547 19.73525
#
# Velocity S-wave (km/s) = 2.95074 3.46799 3.21977
# Velocity P-wave (km/s) = 5.29654 6.78628 6.08716
#
# Compressibility (1/GPa) = 0.03194441
#
# Stress axis : x y z
#
# Youngs Moduli (GPa) = 24.74300 70.06560 93.25152
#
# Poissons Ratio (x) = 0.90011 -0.10067
# Poissons Ratio (y) = 0.31786 0.46313
# Poissons Ratio (z) = -0.02671 0.34798
#
# Static dielectric constant tensor:
#      x y z
#    x 3.008110 0.000000 0.018430 
#    y 0.000000 3.557200 0.000010 
#    z 0.018430 0.000010 3.706950 
# 
# 
# High freq. dielectric constant tensor:
#      x y z
#    x 1.691810 0.000000 0.005560 
#    y 0.000000 1.732760 0.000000 
#    z 0.005560 0.000000 1.755050 
# 
# From -- ./inp_files/13825.got.cif
#   From: 2010.03.12/outbox.cif.g09.slc.cpg/sg8_7_cif.got.tgz:13825.got - 2010.03.31 10:45:26.
