data_PCOD8052786
_publ_section_title
;
Structure prediction by ZEFSAII (Michael W. Deem and Ramdas Pophale) SiO2 
 PCOD8052786
Probable space group: C M
;
_chemical_formula_sum "Si O2"
_cell_formula_units_Z 32
_cell_length_a 19.098346
_cell_length_b 8.932102
_cell_length_c 25.632346
_cell_angle_alpha 90.000000
_cell_angle_beta 154.792580
_cell_angle_gamma 90.000000
_cell_volume 1862.266472
_symmetry_space_group_name_H-M "C M"
_symmetry_group_IT_number 8
_symmetry_cell_setting 'monoclinic'
loop_
_space_group_symop_operation_xyz
x,y,z
x,-y,z
1/2+x,1/2+y,z
1/2+x,1/2-y,z
loop_
_atom_site_type_symbol
_atom_site_label
_atom_site_fract_x
_atom_site_fract_y
_atom_site_fract_z
Si Si1 0.652110 0.677443 0.990170
Si Si2 0.112830 0.324429 0.074036
Si Si3 0.357233 0.325224 0.045115
Si Si4 0.259078 0.175680 0.878830
Si Si5 0.713258 0.324885 0.242126
Si Si6 0.011713 0.675313 0.516022
Si Si7 0.081574 0.165213 0.660315
Si Si8 0.828849 0.666265 0.742294
O O1 0.647765 0.500000 0.988957
O O2 0.492989 0.736219 0.851495
O O3 0.663806 0.739895 0.056149
O O4 0.811532 0.735258 0.066502
O O5 0.137626 0.500000 0.082106
O O6 0.229754 0.267500 0.199736
O O7 0.928725 0.280007 0.965494
O O8 0.328191 0.500000 0.034791
O O9 0.545719 0.286297 0.159585
O O10 0.239941 0.270242 0.918688
O O11 0.109179 0.220209 0.738492
O O12 0.254557 0.000000 0.889242
O O13 0.722434 0.500000 0.235102
O O14 0.862333 0.272456 0.379340
O O15 0.038411 0.500000 0.532301
O O16 0.973755 0.724184 0.551033
O O17 0.180305 0.754616 0.609551
O O18 0.266027 0.153496 0.759880
O O19 0.999482 0.000000 0.604628
O O20 0.864474 0.500000 0.743673
#
# Coordination Sequence:
#
# PCOD8052786 Si02
#       8
#     4   4   4   4   4   4   4   4
#     4  12  22  33  50  74 102 132 165 204 253 302
#     4  10  18  30  51  73  97 129 165 207 248 290
#     4  10  21  34  49  70 102 136 164 200 246 298
#     4   9  16  30  48  71  99 125 159 202 246 292
#     4   9  19  34  50  74 103 133 168 206 244 289
#     4   9  16  28  48  74 101 128 164 208 246 284
#     4   8  15  27  46  71  99 125 155 199 242 286
#     4   9  17  30  48  73  99 126 160 200 243 291
#
# _framework density 17.183363
#
# number of rings (size 3 to 8) (size 9 to 14) (size 15 to 20)
#    0.750    1.750    1.250    2.250    0.000    2.500 
#    0.000    0.000    0.000    1.500    0.000    3.500 
#    0.000    0.000    0.000    0.000    0.000    0.000 
#
# Total GULP energy -198280.243770 kJ/mol
# GULP energy per Si atom -12392.515236 kJ/mol
# Density = 1.714425 g / cm^3
# Si number density = 17.183363 Si / 1000 Ang^3
#
#
#
# Elastic Constant Matrix: (Units=GPa)
#
#
# Indices 1 2 3 4 5 6 
#
# 1 82.7176 50.4612 39.3854 0.0004 -11.7720 0.0004
# 2 50.4612 108.3027 50.9646 -0.0072 -11.8551 -0.0010
# 3 39.3854 50.9646 107.0728 -0.0184 -18.8608 -0.0032
# 4 0.0004 -0.0072 -0.0184 25.8533 -0.0057 -5.2146
# 5 -11.7720 -11.8551 -18.8608 -0.0057 19.0157 -0.0008
# 6 0.0004 -0.0010 -0.0032 -5.2146 -0.0008 28.1838
#
#
#
# Elastic Compliance Matrix: (Units=1/GPa)
#
#
# Indices 1 2 3 4 5 6 
#
# 1 0.018063 -0.006667 -0.002706 -0.000003 0.004342 -0.000001
# 2 -0.006667 0.014435 -0.004314 0.000001 0.000593 0.000000
# 3 -0.002706 -0.004314 0.014079 0.000012 0.009600 0.000004
# 4 -0.000003 0.000001 0.000012 0.040179 0.000023 0.007434
# 5 0.004342 0.000593 0.009600 0.000023 0.065167 0.000007
# 6 -0.000001 0.000000 0.000004 0.007434 0.000007 0.036857
#
#
# Mechanical properties :
#
#
# Convention : Reuss Voigt Hill
#
# Bulk Modulus (GPa) = 52.07589 64.41281 58.24435
# Shear Modulus (GPa) = 22.46634 25.09602 23.78118
#
# Velocity S-wave (km/s) = 3.61979 3.82577 3.72420
# Velocity P-wave (km/s) = 6.91681 7.55529 7.24309
#
# Compressibility (1/GPa) = 0.01920274
#
# Stress axis : x y z
#
# Youngs Moduli (GPa) = 55.36163 69.27719 71.02773
#
# Poissons Ratio (x) = 0.46191 0.19219
# Poissons Ratio (y) = 0.36912 0.30639
# Poissons Ratio (z) = 0.14980 0.29884
#
# Static dielectric constant tensor:
#      x y z
#    x 3.002380 0.000000 -0.184210 
#    y 0.000000 3.190010 0.000000 
#    z -0.184210 0.000000 3.105600 
# 
# 
# High freq. dielectric constant tensor:
#      x y z
#    x 1.634320 0.000000 -0.019720 
#    y 0.000000 1.671850 0.000000 
#    z -0.019720 0.000000 1.645080 
# 
# From -- ./inp_files/32106.got.cif
#   From: 2010.03.12/outbox.cif.g09.slc.cpg/sg8_17_cif.got.tgz:32106.got - 2010.03.31 10:45:26.
