data_PCOD8052097
_publ_section_title
;
Structure prediction by ZEFSAII (Michael W. Deem and Ramdas Pophale) SiO2 
 PCOD8052097
Probable space group: C 2
;
_chemical_formula_sum "Si O2"
_cell_formula_units_Z 20
_cell_length_a 13.055442
_cell_length_b 4.874015
_cell_length_c 31.770394
_cell_angle_alpha 90.000000
_cell_angle_beta 154.097089
_cell_angle_gamma 90.000000
_cell_volume 883.142709
_symmetry_space_group_name_H-M "C 2"
_symmetry_group_IT_number 5
_symmetry_cell_setting 'monoclinic'
loop_
_space_group_symop_operation_xyz
x,y,z
-x,y,-z
1/2+x,1/2+y,z
1/2-x,1/2+y,-z
loop_
_atom_site_type_symbol
_atom_site_label
_atom_site_fract_x
_atom_site_fract_y
_atom_site_fract_z
Si Si1 0.177206 0.439130 0.499903
Si Si2 0.235792 0.995791 0.890453
Si Si3 0.347974 0.978021 0.193523
Si Si4 0.778554 0.203145 0.398868
Si Si5 0.885179 0.808026 0.065775
O O1 0.222457 0.744387 0.500121
O O2 0.187480 0.888866 0.404994
O O3 0.895961 0.388994 0.404664
O O4 0.098645 0.268799 0.824953
O O5 0.099458 0.875588 0.879544
O O6 0.240661 0.771048 0.855365
O O7 0.500000 0.080571 0.000000
O O8 0.577166 0.009282 0.306856
O O9 0.147013 0.831080 0.145854
O O10 0.000000 0.023214 0.500000
O O11 0.704262 0.998872 0.973303
#
# Coordination Sequence:
#
# PCOD8052097 Si02
#       5
#     4   4   4   4   4
#     4   9  20  40  65  86 128 160 202 256 309 351
#     4  12  24  41  67  89 129 163 208 261 310 366
#     4  12  24  43  64  95 125 168 207 252 319 365
#     4   8  24  42  64  95 127 163 208 260 300 375
#     4  12  23  40  64  90 126 165 206 258 308 366
#
# _framework density 22.646395999999999
#
# number of rings (size 3 to 8) (size 9 to 14) (size 15 to 20)
#    1.200    0.000    4.000    1.800    0.000    9.600 
#    0.000    0.000    0.000    0.000    0.000    0.000 
#    0.000    0.000    0.000    0.000    0.000    0.000 
#
# Total GULP energy -123940.359389 kJ/mol
# GULP energy per Si atom -12394.035939 kJ/mol
# Density = 2.259485 g / cm^3
# Si number density = 22.646396 Si / 1000 Ang^3
#
#
#
# Elastic Constant Matrix: (Units=GPa)
#
#
# Indices 1 2 3 4 5 6 
#
# 1 98.5582 -6.7952 11.8240 0.0168 -4.3264 0.0057
# 2 -6.7952 61.9844 9.4017 -0.0115 -8.6048 0.0100
# 3 11.8240 9.4017 101.7722 0.0459 -9.1586 -0.0069
# 4 0.0168 -0.0115 0.0459 15.3511 -0.0013 -2.0186
# 5 -4.3264 -8.6048 -9.1586 -0.0013 28.3850 -0.0050
# 6 0.0057 0.0100 -0.0069 -2.0186 -0.0050 23.1341
#
#
#
# Elastic Compliance Matrix: (Units=1/GPa)
#
#
# Indices 1 2 3 4 5 6 
#
# 1 0.010473 0.001565 -0.001210 -0.000007 0.001680 -0.000004
# 2 0.001565 0.017203 -0.001319 0.000015 0.005028 -0.000006
# 3 -0.001210 -0.001319 0.010336 -0.000030 0.002751 0.000002
# 4 -0.000007 0.000015 -0.000030 0.065898 -0.000002 0.005750
# 5 0.001680 0.005028 0.002751 -0.000002 0.037898 0.000006
# 6 -0.000004 -0.000006 0.000002 0.005750 0.000006 0.043728
#
#
# Mechanical properties :
#
#
# Convention : Reuss Voigt Hill
#
# Bulk Modulus (GPa) = 27.71297 32.35286 30.03292
# Shear Modulus (GPa) = 25.06376 29.89965 27.48171
#
# Velocity S-wave (km/s) = 3.33039 3.63751 3.48733
# Velocity P-wave (km/s) = 5.20120 5.65324 5.43192
#
# Compressibility (1/GPa) = 0.03608418
#
# Stress axis : x y z
#
# Youngs Moduli (GPa) = 95.48253 58.13060 96.75083
#
# Poissons Ratio (x) = -0.09097 0.11708
# Poissons Ratio (y) = -0.14943 0.12757
# Poissons Ratio (z) = 0.11555 0.07665
#
# Static dielectric constant tensor:
#      x y z
#    x 4.366970 -0.000070 -0.192770 
#    y -0.000070 3.801580 0.000070 
#    z -0.192770 0.000070 3.815560 
# 
# 
# High freq. dielectric constant tensor:
#      x y z
#    x 1.908850 0.000000 -0.006770 
#    y 0.000000 1.886390 0.000000 
#    z -0.006770 0.000000 1.862730 
# 
# From -- ./inp_files/63680.got.cif
#   From: 2010.03.12/outbox.cif.g09.slc.cpg/sg5_32_cif.got.tgz:63680.got - 2010.03.31 09:47:26.
