data_PCOD8052092
_publ_section_title
;
Structure prediction by ZEFSAII (Michael W. Deem and Ramdas Pophale) SiO2 
 PCOD8052092
Probable space group: C 2
;
_chemical_formula_sum "Si O2"
_cell_formula_units_Z 28
_cell_length_a 15.663961
_cell_length_b 11.346533
_cell_length_c 8.822244
_cell_angle_alpha 90.000000
_cell_angle_beta 58.399901
_cell_angle_gamma 90.000000
_cell_volume 1335.499588
_symmetry_space_group_name_H-M "C 2"
_symmetry_group_IT_number 5
_symmetry_cell_setting 'monoclinic'
loop_
_space_group_symop_operation_xyz
x,y,z
-x,y,-z
1/2+x,1/2+y,z
1/2-x,1/2+y,-z
loop_
_atom_site_type_symbol
_atom_site_label
_atom_site_fract_x
_atom_site_fract_y
_atom_site_fract_z
Si Si1 0.000000 0.295300 0.500000
Si Si2 0.966512 0.664008 0.861731
Si Si3 0.880707 0.126802 0.395390
Si Si4 0.500000 0.571008 0.000000
Si Si5 0.610131 0.401099 0.417154
Si Si6 0.355423 0.410896 0.944275
Si Si7 0.334963 0.163852 0.522216
Si Si8 0.360149 0.979268 0.766645
O O1 0.921467 0.216431 0.481613
O O2 0.940984 0.377026 0.671484
O O3 0.900624 0.780881 0.907677
O O4 0.895566 0.557695 0.874748
O O5 0.066830 0.672580 0.670916
O O6 0.000000 0.638690 0.000000
O O7 0.762415 0.144228 0.489061
O O8 0.941195 0.147493 0.181434
O O9 0.894171 0.993273 0.441120
O O10 0.583251 0.493375 0.002226
O O11 0.500000 0.345910 0.500000
O O12 0.643062 0.462098 0.228761
O O13 0.682587 0.290570 0.381989
O O14 0.242050 0.411299 0.105138
O O15 0.348902 0.059144 0.628041
#
# Coordination Sequence:
#
# PCOD8052092 Si02
#       8
#     2   4   4   2   4   4   4   4
#     4  12  28  52  68 102 156 194 242 306 372 440
#     4  12  26  46  73 110 145 187 248 302 356 438
#     4  12  28  44  76 105 148 194 244 300 377 433
#     4  12  22  46  70 112 144 182 246 310 352 438
#     4  12  23  47  71 102 145 195 239 296 363 441
#     4  12  25  42  76 107 145 187 245 300 360 434
#     4  12  25  47  75 106 146 198 245 296 371 439
#     4  12  27  49  74 106 149 195 240 307 373 428
#
# _framework density 20.965935999999999
#
# number of rings (size 3 to 8) (size 9 to 14) (size 15 to 20)
#    0.000    0.000    8.571    0.000    6.000    2.286 
#    1.286    0.000    0.000    0.000    0.000    0.000 
#    0.000    0.000    0.000    0.000    0.000    0.000 
#
# Total GULP energy -173653.284767 kJ/mol
# GULP energy per Si atom -12403.806055 kJ/mol
# Density = 2.091822 g / cm^3
# Si number density = 20.965936 Si / 1000 Ang^3
#
#
#
# Elastic Constant Matrix: (Units=GPa)
#
#
# Indices 1 2 3 4 5 6 
#
# 1 141.2999 50.9786 48.1750 0.0000 -3.7252 0.0000
# 2 50.9786 95.7586 27.4475 0.0000 -0.9802 0.0000
# 3 48.1750 27.4475 114.5268 0.0000 -3.2860 0.0000
# 4 0.0000 0.0000 0.0000 37.0879 0.0000 1.4042
# 5 -3.7252 -0.9802 -3.2860 0.0000 46.1546 0.0000
# 6 0.0000 0.0000 0.0000 1.4042 0.0000 28.9328
#
#
#
# Elastic Compliance Matrix: (Units=1/GPa)
#
#
# Indices 1 2 3 4 5 6 
#
# 1 0.009663 -0.004272 -0.003027 0.000000 0.000474 0.000000
# 2 -0.004272 0.013102 -0.001348 0.000000 -0.000162 0.000000
# 3 -0.003027 -0.001348 0.010341 0.000000 0.000463 0.000000
# 4 0.000000 0.000000 0.000000 0.027013 0.000000 -0.001311
# 5 0.000474 -0.000162 0.000463 0.000000 0.021734 0.000000
# 6 0.000000 0.000000 0.000000 -0.001311 0.000000 0.034626
#
#
# Mechanical properties :
#
#
# Convention : Reuss Voigt Hill
#
# Bulk Modulus (GPa) = 63.24137 67.19861 65.21999
# Shear Modulus (GPa) = 35.96004 37.43400 36.69702
#
# Velocity S-wave (km/s) = 4.14595 4.23006 4.18822
# Velocity P-wave (km/s) = 7.29026 7.48190 7.38670
#
# Compressibility (1/GPa) = 0.01581243
#
# Stress axis : x y z
#
# Youngs Moduli (GPa) = 103.48854 76.32623 96.69957
#
# Poissons Ratio (x) = 0.32604 0.29274
# Poissons Ratio (y) = 0.44206 0.13033
# Poissons Ratio (z) = 0.31329 0.10287
#
# Static dielectric constant tensor:
#      x y z
#    x 3.959140 0.000000 0.148210 
#    y 0.000000 3.745940 0.000000 
#    z 0.148210 0.000000 4.386950 
# 
# 
# High freq. dielectric constant tensor:
#      x y z
#    x 1.837940 0.000000 0.002080 
#    y 0.000000 1.817240 0.000000 
#    z 0.002080 0.000000 1.831590 
# 
# From -- ./inp_files/23733.got.cif
#   From: 2010.03.12/outbox.cif.g09.slc.cpg/sg5_12_cif.got.tgz:23733.got - 2010.03.31 09:47:26.
