data_PCOD8052189
_publ_section_title
;
Structure prediction by ZEFSAII (Michael W. Deem and Ramdas Pophale) SiO2 
 PCOD8052189
Probable space group: C 2
;
_chemical_formula_sum "Si O2"
_cell_formula_units_Z 20
_cell_length_a 16.003712
_cell_length_b 9.386959
_cell_length_c 6.913851
_cell_angle_alpha 90.000000
_cell_angle_beta 63.767455
_cell_angle_gamma 90.000000
_cell_volume 931.669140
_symmetry_space_group_name_H-M "C 2"
_symmetry_group_IT_number 5
_symmetry_cell_setting 'monoclinic'
loop_
_space_group_symop_operation_xyz
x,y,z
-x,y,-z
1/2+x,1/2+y,z
1/2-x,1/2+y,-z
loop_
_atom_site_type_symbol
_atom_site_label
_atom_site_fract_x
_atom_site_fract_y
_atom_site_fract_z
Si Si1 0.435110 0.895910 0.884341
Si Si2 0.500000 0.111047 0.500000
Si Si3 0.646886 0.249482 0.592100
Si Si4 0.925121 0.089051 0.733414
Si Si5 0.500000 0.406206 0.000000
Si Si6 0.242086 0.493702 0.714862
O O1 0.432726 0.756875 0.755408
O O2 0.477887 0.021670 0.713527
O O3 0.500000 0.867865 0.000000
O O4 0.332240 0.932973 0.059229
O O5 0.589415 0.208395 0.457538
O O6 0.722392 0.368071 0.460413
O O7 0.700713 0.113272 0.617612
O O8 0.575768 0.305197 0.825282
O O9 0.000000 0.037093 0.500000
O O10 0.822808 0.058220 0.762510
O O11 0.944082 0.005484 0.910401
#
# Coordination Sequence:
#
# PCOD8052189 Si02
#       6
#     4   2   4   4   2   4
#     4  12  27  50  76 112 150 194 246 308 371 439
#     4  12  26  52  76 102 154 198 246 304 374 442
#     4  12  28  48  78 108 148 196 252 304 370 440
#     4  12  27  50  76 112 150 194 246 308 371 439
#     4  12  26  52  76 102 154 198 246 304 374 442
#     4  12  30  46  76 114 146 194 252 306 368 436
#
# _framework density 21.466844999999999
#
# number of rings (size 3 to 8) (size 9 to 14) (size 15 to 20)
#    0.000    0.000    6.000    2.400   14.000    0.000 
#    0.000    0.000    0.000    0.000    0.000    0.000 
#    0.000    0.000    0.000    0.000    0.000    0.000 
#
# Total GULP energy -124097.212773 kJ/mol
# GULP energy per Si atom -12409.721277 kJ/mol
# Density = 2.141799 g / cm^3
# Si number density = 21.466845 Si / 1000 Ang^3
#
#
#
# Elastic Constant Matrix: (Units=GPa)
#
#
# Indices 1 2 3 4 5 6 
#
# 1 151.1617 44.4591 40.1689 0.0000 9.4256 0.0000
# 2 44.4591 118.9083 34.3396 0.0000 2.6268 0.0000
# 3 40.1689 34.3396 91.4987 0.0000 -5.6873 0.0000
# 4 0.0000 0.0000 0.0000 16.2389 0.0000 -12.9892
# 5 9.4256 2.6268 -5.6873 0.0000 49.8903 0.0000
# 6 0.0000 0.0000 0.0000 -12.9892 0.0000 37.2511
#
#
#
# Elastic Compliance Matrix: (Units=1/GPa)
#
#
# Indices 1 2 3 4 5 6 
#
# 1 0.008123 -0.002173 -0.002859 0.000000 -0.001746 0.000000
# 2 -0.002173 0.010054 -0.002847 0.000000 -0.000443 0.000000
# 3 -0.002859 -0.002847 0.013391 0.000000 0.002217 0.000000
# 4 0.000000 0.000000 0.000000 0.085400 0.000000 0.029778
# 5 -0.001746 -0.000443 0.002217 0.000000 0.020650 0.000000
# 6 0.000000 0.000000 0.000000 0.029778 0.000000 0.037228
#
#
# Mechanical properties :
#
#
# Convention : Reuss Voigt Hill
#
# Bulk Modulus (GPa) = 63.25195 66.61154 64.93174
# Shear Modulus (GPa) = 25.52660 36.84946 31.18803
#
# Velocity S-wave (km/s) = 3.45210 4.14765 3.81576
# Velocity P-wave (km/s) = 6.73931 7.35083 7.05170
#
# Compressibility (1/GPa) = 0.01580979
#
# Stress axis : x y z
#
# Youngs Moduli (GPa) = 123.10423 99.46028 74.67931
#
# Poissons Ratio (x) = 0.21612 0.21352
# Poissons Ratio (y) = 0.26750 0.21261
# Poissons Ratio (z) = 0.35198 0.28316
#
# Static dielectric constant tensor:
#      x y z
#    x 4.074490 0.000000 -0.051150 
#    y 0.000000 4.084780 0.000000 
#    z -0.051150 0.000000 3.969680 
# 
# 
# High freq. dielectric constant tensor:
#      x y z
#    x 1.859260 0.000000 0.002170 
#    y 0.000000 1.865870 0.000000 
#    z 0.002170 0.000000 1.852570 
# 
# From -- ./inp_files/8020.got.cif
#   From: 2010.03.12/outbox.cif.g09.slc.cpg/sg5_5_cif.got.tgz:8020.got - 2010.03.31 09:47:26.
