data_PCOD8052891
_publ_section_title
;
Structure prediction by ZEFSAII (Michael W. Deem and Ramdas Pophale) SiO2 
 PCOD8052891
Probable space group: C M
;
_chemical_formula_sum "Si O2"
_cell_formula_units_Z 32
_cell_length_a 25.150748
_cell_length_b 8.576040
_cell_length_c 23.951008
_cell_angle_alpha 90.000000
_cell_angle_beta 161.997384
_cell_angle_gamma 90.000000
_cell_volume 1596.632209
_symmetry_space_group_name_H-M "C M"
_symmetry_group_IT_number 8
_symmetry_cell_setting 'monoclinic'
loop_
_space_group_symop_operation_xyz
x,y,z
x,-y,z
1/2+x,1/2+y,z
1/2+x,1/2-y,z
loop_
_atom_site_type_symbol
_atom_site_label
_atom_site_fract_x
_atom_site_fract_y
_atom_site_fract_z
Si Si1 0.707470 0.183425 0.952000
Si Si2 0.335913 0.182886 0.578916
Si Si3 0.353758 0.318445 0.981619
Si Si4 0.219179 0.678289 0.351871
Si Si5 0.724118 0.181397 0.230599
Si Si6 0.033841 0.317938 0.473248
Si Si7 0.328674 0.183259 0.842005
Si Si8 0.521935 0.312974 0.338606
O O1 0.520795 0.249262 0.784052
O O2 0.729331 0.224282 0.908487
O O3 0.714306 0.000000 0.966624
O O4 0.855772 0.252421 0.139511
O O5 0.316757 0.217209 0.494199
O O6 0.185078 0.251966 0.466590
O O7 0.332748 0.000000 0.582830
O O8 0.406439 0.500000 0.035015
O O9 0.266072 0.273556 0.835232
O O10 0.518114 0.211001 0.154005
O O11 0.253086 0.500000 0.401248
O O12 0.282795 0.715728 0.352747
O O13 0.850423 0.279205 0.317717
O O14 0.745853 0.000000 0.237559
O O15 0.524744 0.232494 0.021552
O O16 0.070261 0.500000 0.515282
O O17 0.195018 0.225918 0.660266
O O18 0.023243 0.268267 0.398999
O O19 0.322986 0.000000 0.848240
O O20 0.523040 0.500000 0.345795
#
# Coordination Sequence:
#
# PCOD8052891 Si02
#       8
#     4   4   4   4   4   4   4   4
#     4   9  19  35  58  89 117 150 198 242 293 354
#     4  10  20  36  60  87 117 156 199 246 299 355
#     4  10  18  34  59  90 125 157 195 245 298 356
#     4  10  20  35  57  88 124 159 197 244 300 359
#     4   9  21  41  62  87 120 161 205 248 300 362
#     4  12  26  41  62  91 122 161 206 257 307 361
#     4  10  22  41  63  90 123 161 203 249 303 366
#     4  10  21  41  61  82 118 163 207 249 294 357
#
# _framework density 20.042186000000001
#
# number of rings (size 3 to 8) (size 9 to 14) (size 15 to 20)
#    0.000    2.000    1.250    3.000    1.750    4.500 
#    0.000    3.750    0.000    0.000    0.000    0.000 
#    0.000    0.000    0.000    0.000    0.000    0.000 
#
# Total GULP energy -198367.140405 kJ/mol
# GULP energy per Si atom -12397.946275 kJ/mol
# Density = 1.999657 g / cm^3
# Si number density = 20.042186 Si / 1000 Ang^3
#
#
#
# Elastic Constant Matrix: (Units=GPa)
#
#
# Indices 1 2 3 4 5 6 
#
# 1 127.3836 25.2081 76.1954 0.0010 -5.4641 -0.0001
# 2 25.2081 28.5335 13.7683 0.0004 4.8087 -0.0001
# 3 76.1954 13.7683 136.3999 0.0036 4.7602 0.0006
# 4 0.0010 0.0004 0.0036 23.3653 0.0013 -5.4476
# 5 -5.4641 4.8087 4.7602 0.0013 21.2264 0.0001
# 6 -0.0001 -0.0001 0.0006 -5.4476 0.0001 31.6753
#
#
#
# Elastic Compliance Matrix: (Units=1/GPa)
#
#
# Indices 1 2 3 4 5 6 
#
# 1 0.014779 -0.010800 -0.007442 0.000000 0.007920 0.000000
# 2 -0.010800 0.045982 0.001867 0.000000 -0.013616 0.000000
# 3 -0.007442 0.001867 0.011471 -0.000001 -0.004911 0.000000
# 4 0.000000 0.000000 -0.000001 0.044586 -0.000003 0.007668
# 5 0.007920 -0.013616 -0.004911 -0.000003 0.053336 -0.000001
# 6 0.000000 0.000000 0.000000 0.007668 -0.000001 0.032889
#
#
# Mechanical properties :
#
#
# Convention : Reuss Voigt Hill
#
# Bulk Modulus (GPa) = 25.32818 58.07341 41.70079
# Shear Modulus (GPa) = 20.08405 27.06309 23.57357
#
# Velocity S-wave (km/s) = 3.16901 3.67864 3.43329
# Velocity P-wave (km/s) = 5.10442 6.86161 6.04718
#
# Compressibility (1/GPa) = 0.03948171
#
# Stress axis : x y z
#
# Youngs Moduli (GPa) = 67.66511 21.74777 87.17274
#
# Poissons Ratio (x) = 0.23488 0.64873
# Poissons Ratio (y) = 0.73079 -0.16274
# Poissons Ratio (z) = 0.50355 -0.04060
#
# Static dielectric constant tensor:
#      x y z
#    x 3.777340 0.000000 0.044750 
#    y 0.000000 3.452670 0.000000 
#    z 0.044750 0.000000 4.016550 
# 
# 
# High freq. dielectric constant tensor:
#      x y z
#    x 1.781550 0.000000 0.001160 
#    y 0.000000 1.763240 0.000000 
#    z 0.001160 0.000000 1.789730 
# 
# From -- ./inp_files/32435.got.cif
#   From: 2010.03.12/outbox.cif.g09.slc.cpg/sg8_17_cif.got.tgz:32435.got - 2010.03.31 10:45:26.
