data_PCOD8052177
_publ_section_title
;
Structure prediction by ZEFSAII (Michael W. Deem and Ramdas Pophale) SiO2 
 PCOD8052177
Probable space group: C 2
;
_chemical_formula_sum "Si O2"
_cell_formula_units_Z 28
_cell_length_a 29.078766
_cell_length_b 7.568292
_cell_length_c 6.309691
_cell_angle_alpha 90.000000
_cell_angle_beta 123.195800
_cell_angle_gamma 90.000000
_cell_volume 1161.999456
_symmetry_space_group_name_H-M "C 2"
_symmetry_group_IT_number 5
_symmetry_cell_setting 'monoclinic'
loop_
_space_group_symop_operation_xyz
x,y,z
-x,y,-z
1/2+x,1/2+y,z
1/2-x,1/2+y,-z
loop_
_atom_site_type_symbol
_atom_site_label
_atom_site_fract_x
_atom_site_fract_y
_atom_site_fract_z
Si Si1 0.252132 0.710850 0.229808
Si Si2 0.867404 0.322223 0.402301
Si Si3 0.683103 0.413282 0.397202
Si Si4 0.851138 0.706461 0.300868
Si Si5 0.057838 0.415911 0.034389
Si Si6 0.945691 0.752773 0.241827
Si Si7 0.095338 0.103725 0.888429
O O1 0.302689 0.832338 0.289639
O O2 0.275148 0.518729 0.347126
O O3 0.219135 0.787618 0.343472
O O4 0.211861 0.699349 0.928417
O O5 0.880401 0.515510 0.342135
O O6 0.899014 0.321023 0.703106
O O7 0.881648 0.152732 0.290878
O O8 0.645520 0.288262 0.454424
O O9 0.646808 0.551951 0.170384
O O10 0.891701 0.810108 0.245837
O O11 0.070524 0.616134 0.984979
O O12 0.061926 0.284656 0.847732
O O13 0.000000 0.422103 0.000000
O O14 0.000000 0.682429 0.500000
O O15 0.952955 0.956313 0.188600
#
# Coordination Sequence:
#
# PCOD8052177 Si02
#       7
#     4   4   4   4   4   4   4
#     4  12  27  42  74 110 155 202 259 312 384 463
#     4  12  27  47  78 110 155 203 254 322 389 463
#     4  12  27  46  74 115 156 207 263 314 392 462
#     4  12  26  47  75 107 158 199 256 325 384 459
#     4  12  29  51  78 113 152 200 261 326 397 465
#     4  12  28  51  78 110 152 201 263 326 393 469
#     4  12  28  50  78 114 153 203 263 319 397 465
#
# _framework density 24.096398000000001
#
# number of rings (size 3 to 8) (size 9 to 14) (size 15 to 20)
#    0.000    0.000    4.286    4.286   10.000    0.571 
#    0.000    0.000    0.000    0.000    0.000    0.000 
#    0.000    0.000    0.000    0.000    0.000    0.000 
#
# Total GULP energy -173463.915907 kJ/mol
# GULP energy per Si atom -12390.279708 kJ/mol
# Density = 2.404155 g / cm^3
# Si number density = 24.096398 Si / 1000 Ang^3
#
#
#
# Elastic Constant Matrix: (Units=GPa)
#
#
# Indices 1 2 3 4 5 6 
#
# 1 127.4490 37.4425 35.6446 0.0000 -9.5442 0.0000
# 2 37.4425 138.3517 43.7360 0.0000 -5.6383 0.0000
# 3 35.6446 43.7360 105.4492 0.0000 0.1749 0.0000
# 4 0.0000 0.0000 0.0000 46.7321 0.0000 -2.3129
# 5 -9.5442 -5.6383 0.1749 0.0000 30.0816 0.0000
# 6 0.0000 0.0000 0.0000 -2.3129 0.0000 47.1944
#
#
#
# Elastic Compliance Matrix: (Units=1/GPa)
#
#
# Indices 1 2 3 4 5 6 
#
# 1 0.009200 -0.001609 -0.002447 0.000000 0.002632 0.000000
# 2 -0.001609 0.008676 -0.003056 0.000000 0.001133 0.000000
# 3 -0.002447 -0.003056 0.011580 0.000000 -0.001417 0.000000
# 4 0.000000 0.000000 0.000000 0.021451 0.000000 0.001051
# 5 0.002632 0.001133 -0.001417 0.000000 0.034298 0.000000
# 6 0.000000 0.000000 0.000000 0.001051 0.000000 0.021240
#
#
# Mechanical properties :
#
#
# Convention : Reuss Voigt Hill
#
# Bulk Modulus (GPa) = 65.65221 67.21067 66.43144
# Shear Modulus (GPa) = 39.76198 41.76341 40.76270
#
# Velocity S-wave (km/s) = 4.06658 4.16767 4.11743
# Velocity P-wave (km/s) = 7.02525 7.14928 7.08754
#
# Compressibility (1/GPa) = 0.01523178
#
# Stress axis : x y z
#
# Youngs Moduli (GPa) = 108.69033 115.26317 86.35316
#
# Poissons Ratio (x) = 0.18548 0.21130
# Poissons Ratio (y) = 0.17490 0.26392
# Poissons Ratio (z) = 0.26596 0.35228
#
# Static dielectric constant tensor:
#      x y z
#    x 3.708020 0.000000 0.913020 
#    y 0.000000 4.535880 0.000000 
#    z 0.913020 0.000000 2.671610 
# 
# 
# High freq. dielectric constant tensor:
#      x y z
#    x 1.957240 0.000000 -0.003660 
#    y 0.000000 1.981890 0.000000 
#    z -0.003660 0.000000 1.953930 
# 
# From -- ./inp_files/11272.got.cif
#   From: 2010.03.12/outbox.cif.g09.slc.cpg/sg5_6_cif.got.tgz:11272.got - 2010.03.31 09:47:26.
