data_PCOD8052893
_publ_section_title
;
Structure prediction by ZEFSAII (Michael W. Deem and Ramdas Pophale) SiO2 
 PCOD8052893
Probable space group: C M
;
_chemical_formula_sum "Si O2"
_cell_formula_units_Z 32
_cell_length_a 15.502376
_cell_length_b 8.744500
_cell_length_c 26.089727
_cell_angle_alpha 90.000000
_cell_angle_beta 27.266739
_cell_angle_gamma 90.000000
_cell_volume 1620.298198
_symmetry_space_group_name_H-M "C M"
_symmetry_group_IT_number 8
_symmetry_cell_setting 'monoclinic'
loop_
_space_group_symop_operation_xyz
x,y,z
x,-y,z
1/2+x,1/2+y,z
1/2+x,1/2-y,z
loop_
_atom_site_type_symbol
_atom_site_label
_atom_site_fract_x
_atom_site_fract_y
_atom_site_fract_z
Si Si1 0.043440 0.178928 0.121530
Si Si2 0.621334 0.679932 0.896412
Si Si3 0.737085 0.179184 0.366593
Si Si4 0.928848 0.821550 0.896017
Si Si5 0.330569 0.318838 0.131557
Si Si6 0.496901 0.180270 0.751276
Si Si7 0.863408 0.681413 0.508627
Si Si8 0.414423 0.818488 0.367046
O O1 0.918161 0.219187 0.236797
O O2 0.929217 0.230551 0.131962
O O3 0.095917 0.000000 0.091288
O O4 0.230026 0.280478 0.026688
O O5 0.619473 0.500000 0.906997
O O6 0.588856 0.718714 0.853833
O O7 0.822279 0.743887 0.809569
O O8 0.452301 0.750454 0.020264
O O9 0.549742 0.244078 0.438524
O O10 0.757201 0.258704 0.411002
O O11 0.717826 0.000000 0.385406
O O12 0.964051 0.719438 0.827870
O O13 0.934720 0.000000 0.878401
O O14 0.317910 0.500000 0.135010
O O15 0.118971 0.251854 0.242652
O O16 0.683270 0.260963 0.633805
O O17 0.519170 0.000000 0.733695
O O18 0.865459 0.500000 0.507767
O O19 0.862032 0.743243 0.451188
O O20 0.416522 0.000000 0.365869
#
# Coordination Sequence:
#
# PCOD8052893 Si02
#       8
#     4   4   4   4   4   4   4   4
#     4  10  18  34  60  86 116 155 191 227 279 344
#     4   9  19  35  58  83 111 148 186 224 280 346
#     4  10  21  37  59  86 118 154 189 231 287 342
#     4  11  22  37  59  89 118 148 187 236 288 340
#     4   9  15  31  59  84 110 149 188 223 273 341
#     4  11  23  41  62  82 109 152 197 239 285 338
#     4  10  22  41  60  81 113 154 195 237 286 339
#     4  10  20  36  61  87 113 150 193 235 282 338
#
# _framework density 19.749452000000002
#
# number of rings (size 3 to 8) (size 9 to 14) (size 15 to 20)
#    0.000    2.000    2.500    1.500    0.000    3.500 
#    0.000    6.875    0.000    0.000    0.000    0.000 
#    0.000    0.000    0.000    0.000    0.000    0.000 
#
# Total GULP energy -198413.591745 kJ/mol
# GULP energy per Si atom -12400.849484 kJ/mol
# Density = 1.970450 g / cm^3
# Si number density = 19.749452 Si / 1000 Ang^3
#
#
#
# Elastic Constant Matrix: (Units=GPa)
#
#
# Indices 1 2 3 4 5 6 
#
# 1 153.2758 18.8681 51.2311 -0.0001 -0.3612 0.0002
# 2 18.8681 10.3060 6.7163 -0.0012 -4.6057 0.0004
# 3 51.2311 6.7163 105.5888 -0.0092 -9.4146 0.0007
# 4 -0.0001 -0.0012 -0.0092 28.2239 0.0010 0.9921
# 5 -0.3612 -4.6057 -9.4146 0.0010 16.0435 0.0000
# 6 0.0002 0.0004 0.0007 0.9921 0.0000 27.6399
#
#
#
# Elastic Compliance Matrix: (Units=1/GPa)
#
#
# Indices 1 2 3 4 5 6 
#
# 1 0.010463 -0.019826 -0.004539 -0.000002 -0.008120 0.000000
# 2 -0.019826 0.150909 0.004055 0.000006 0.045256 -0.000002
# 3 -0.004539 0.004055 0.012145 0.000004 0.008189 0.000000
# 4 -0.000002 0.000006 0.000004 0.035476 0.000002 -0.001273
# 5 -0.008120 0.045256 0.008189 0.000002 0.079945 -0.000001
# 6 0.000000 -0.000002 0.000000 -0.001273 -0.000001 0.036225
#
#
# Mechanical properties :
#
#
# Convention : Reuss Voigt Hill
#
# Bulk Modulus (GPa) = 7.52458 46.97796 27.25127
# Shear Modulus (GPa) = 12.19270 27.20515 19.69892
#
# Velocity S-wave (km/s) = 2.48739 3.71551 3.16166
# Velocity P-wave (km/s) = 3.47387 6.49964 5.21119
#
# Compressibility (1/GPa) = 0.13289783
#
# Stress axis : x y z
#
# Youngs Moduli (GPa) = 95.57653 6.62652 82.33556
#
# Poissons Ratio (x) = 0.13137 0.37376
# Poissons Ratio (y) = 1.89486 -0.33391
# Poissons Ratio (z) = 0.43386 -0.02687
#
# Static dielectric constant tensor:
#      x y z
#    x 3.817290 0.000000 -0.075320 
#    y 0.000000 3.175780 0.000000 
#    z -0.075320 0.000000 3.664830 
# 
# 
# High freq. dielectric constant tensor:
#      x y z
#    x 1.786690 0.000000 0.000570 
#    y 0.000000 1.734490 0.000000 
#    z 0.000570 0.000000 1.770830 
# 
# From -- ./inp_files/26531.got.cif
#   From: 2010.03.12/outbox.cif.g09.slc.cpg/sg8_14_cif.got.tgz:26531.got - 2010.03.31 10:45:26.
