data_PCOD8052924
_publ_section_title
;
Structure prediction by ZEFSAII (Michael W. Deem and Ramdas Pophale) SiO2 
 PCOD8052924
Probable space group: C M
;
_chemical_formula_sum "Si O2"
_cell_formula_units_Z 24
_cell_length_a 6.867735
_cell_length_b 29.517842
_cell_length_c 4.913217
_cell_angle_alpha 90.000000
_cell_angle_beta 97.374407
_cell_angle_gamma 90.000000
_cell_volume 987.772461
_symmetry_space_group_name_H-M "C M"
_symmetry_group_IT_number 8
_symmetry_cell_setting 'monoclinic'
loop_
_space_group_symop_operation_xyz
x,y,z
x,-y,z
1/2+x,1/2+y,z
1/2+x,1/2-y,z
loop_
_atom_site_type_symbol
_atom_site_label
_atom_site_fract_x
_atom_site_fract_y
_atom_site_fract_z
Si Si1 0.974900 0.179478 0.890920
Si Si2 0.964775 0.500000 0.375973
Si Si3 0.339257 0.813976 0.268087
Si Si4 0.238250 0.595545 0.042200
Si Si5 0.967434 0.403353 0.497363
Si Si6 0.222251 0.500000 0.922687
Si Si7 0.774884 0.217475 0.339266
O O1 0.901515 0.131975 0.998305
O O2 0.904038 0.188191 0.573151
O O3 0.884959 0.218602 0.068893
O O4 0.211637 0.181357 0.966779
O O5 0.855782 0.452057 0.427395
O O6 0.163998 0.500000 0.595057
O O7 0.022027 0.500000 0.069270
O O8 0.317340 0.861223 0.429775
O O9 0.568143 0.806580 0.248757
O O10 0.258185 0.770394 0.427194
O O11 0.045680 0.599850 0.817649
O O12 0.340020 0.546016 0.016536
O O13 0.157531 0.600893 0.333312
#
# Coordination Sequence:
#
# PCOD8052924 Si02
#       7
#     4   2   4   4   4   2   4
#     4  12  26  43  65  93 127 168 212 265 316 373
#     4   8  16  32  55  92 119 158 198 250 311 368
#     4  12  26  44  67  93 126 175 210 267 315 375
#     4  10  18  38  59  91 124 160 207 255 312 374
#     4  10  20  36  64  89 126 161 206 255 312 371
#     4   8  16  28  59  86 119 160 196 250 313 368
#     4  12  28  43  63  91 131 163 216 264 314 377
#
# _framework density 24.297094999999999
#
# number of rings (size 3 to 8) (size 9 to 14) (size 15 to 20)
#    0.000    1.333    5.000    0.000    2.333    4.000 
#    0.000    0.833    0.000    0.000    0.000   14.000 
#    0.000    0.000    0.000    0.000    0.000    0.000 
#
# Total GULP energy -148685.706879 kJ/mol
# GULP energy per Si atom -12390.475573 kJ/mol
# Density = 2.424179 g / cm^3
# Si number density = 24.297095 Si / 1000 Ang^3
#
#
#
# Elastic Constant Matrix: (Units=GPa)
#
#
# Indices 1 2 3 4 5 6 
#
# 1 58.0817 15.8450 25.6203 0.0000 35.0645 0.0000
# 2 15.8450 197.5617 3.6707 0.0000 19.2575 0.0000
# 3 25.6203 3.6707 83.1986 0.0000 13.9338 0.0000
# 4 0.0000 0.0000 0.0000 30.3272 0.0000 1.7148
# 5 35.0645 19.2575 13.9338 0.0000 35.8465 0.0000
# 6 0.0000 0.0000 0.0000 1.7148 0.0000 28.6542
#
#
#
# Elastic Compliance Matrix: (Units=1/GPa)
#
#
# Indices 1 2 3 4 5 6 
#
# 1 0.045656 0.000587 -0.007009 0.000000 -0.042251 0.000000
# 2 0.000587 0.005354 0.000172 0.000000 -0.003517 0.000000
# 3 -0.007009 0.000172 0.013945 0.000000 0.001343 0.000000
# 4 0.000000 0.000000 0.000000 0.033086 0.000000 -0.001980
# 5 -0.042251 -0.003517 0.001343 0.000000 0.070593 0.000000
# 6 0.000000 0.000000 0.000000 -0.001980 0.000000 0.035017
#
#
# Mechanical properties :
#
#
# Convention : Reuss Voigt Hill
#
# Bulk Modulus (GPa) = 19.06383 47.67935 33.37159
# Shear Modulus (GPa) = 21.40062 38.54597 29.97330
#
# Velocity S-wave (km/s) = 2.97103 3.98734 3.51610
# Velocity P-wave (km/s) = 4.43086 6.39254 5.49987
#
# Compressibility (1/GPa) = 0.05245536
#
# Stress axis : x y z
#
# Youngs Moduli (GPa) = 21.90279 186.76557 71.70857
#
# Poissons Ratio (x) = -0.10962 0.50263
# Poissons Ratio (y) = -0.01286 -0.01234
# Poissons Ratio (z) = 0.15352 -0.03215
#
# Static dielectric constant tensor:
#      x y z
#    x 3.705220 0.000000 0.099180 
#    y 0.000000 5.279060 0.000000 
#    z 0.099180 0.000000 4.206930 
# 
# 
# High freq. dielectric constant tensor:
#      x y z
#    x 1.897260 0.000000 0.002150 
#    y 0.000000 2.006340 0.000000 
#    z 0.002150 0.000000 1.963550 
# 
# From -- ./inp_files/1826.got.cif
#   From: 2010.03.12/outbox.cif.g09.slc.cpg/sg8_1_cif.got.tgz:1826.got - 2010.03.31 10:45:26.
