data_PCOD8052361
_publ_section_title
;
Structure prediction by ZEFSAII (Michael W. Deem and Ramdas Pophale) SiO2 
 PCOD8052361
Probable space group: P M
;
_chemical_formula_sum "Si O2"
_cell_formula_units_Z 16
_cell_length_a 12.315072
_cell_length_b 9.158333
_cell_length_c 12.271331
_cell_angle_alpha 90.000000
_cell_angle_beta 143.908724
_cell_angle_gamma 90.000000
_cell_volume 815.294313
_symmetry_space_group_name_H-M "P M"
_symmetry_group_IT_number 6
_symmetry_cell_setting 'monoclinic'
loop_
_space_group_symop_operation_xyz
x,y,z
x,-y,z
loop_
_atom_site_type_symbol
_atom_site_label
_atom_site_fract_x
_atom_site_fract_y
_atom_site_fract_z
Si Si1 0.828670 0.334189 0.379770
Si Si2 0.003697 0.333255 0.298807
Si Si3 0.366470 0.831600 0.530165
Si Si4 0.516532 0.167789 0.414163
Si Si5 0.885538 0.331625 0.672416
Si Si6 0.595795 0.671627 0.891602
Si Si7 0.496130 0.832357 0.019977
Si Si8 0.238904 0.832587 0.005532
O O1 0.751088 0.500000 0.306514
O O2 0.982368 0.309262 0.411455
O O3 0.915628 0.305759 0.568068
O O4 0.663688 0.221080 0.231048
O O5 0.058939 0.500000 0.317946
O O6 0.162029 0.227515 0.385507
O O7 0.811893 0.292910 0.083035
O O8 0.404947 0.811435 0.434544
O O9 0.523395 0.744184 0.722629
O O10 0.374027 0.000000 0.572107
O O11 0.699734 0.262285 0.566659
O O12 0.572272 0.000000 0.439498
O O13 0.389309 0.226444 0.213027
O O14 0.880204 0.500000 0.698949
O O15 0.055230 0.260083 0.873237
O O16 0.558627 0.500000 0.857164
O O17 0.478406 0.736255 0.896947
O O18 0.530941 0.000000 0.015622
O O19 0.311448 0.814890 0.940953
O O20 0.192145 0.000000 0.994324
#
# Coordination Sequence:
#
# PCOD8052361 Si02
#       8
#     2   2   2   2   2   2   2   2
#     4   9  19  36  57  86 123 160 194 240 303 357
#     4   9  20  39  60  85 119 160 196 239 302 358
#     4  11  24  40  63  90 117 157 208 252 295 354
#     4  10  23  45  63  82 120 163 203 251 301 349
#     4  11  23  37  60  92 121 156 202 247 298 360
#     4  10  22  40  61  87 124 161 195 244 304 357
#     4  10  19  34  60  91 121 156 200 245 294 356
#     4  10  22  39  60  87 119 159 200 244 303 357
#
# _framework density 19.624815000000002
#
# number of rings (size 3 to 8) (size 9 to 14) (size 15 to 20)
#    0.000    2.000    1.250    2.250    1.750    6.500 
#    0.000    3.750    0.000    0.000    0.000    0.000 
#    0.000    0.000    0.000    0.000    0.000    0.000 
#
# Total GULP energy -198455.514462 kJ/mol
# GULP energy per Si atom -12403.469654 kJ/mol
# Density = 1.958015 g / cm^3
# Si number density = 19.624815 Si / 1000 Ang^3
#
#
#
# Elastic Constant Matrix: (Units=GPa)
#
#
# Indices 1 2 3 4 5 6 
#
# 1 89.5144 52.9339 38.3750 0.0000 10.8339 0.0000
# 2 52.9339 110.6390 48.2035 0.0000 13.0329 0.0000
# 3 38.3750 48.2035 82.4549 0.0000 12.8626 0.0000
# 4 0.0000 0.0000 0.0000 30.4086 0.0000 -0.4879
# 5 10.8339 13.0329 12.8626 0.0000 29.7625 0.0000
# 6 0.0000 0.0000 0.0000 -0.4879 0.0000 28.3522
#
#
#
# Elastic Compliance Matrix: (Units=1/GPa)
#
#
# Indices 1 2 3 4 5 6 
#
# 1 0.016643 -0.006042 -0.003947 0.000000 -0.001707 0.000000
# 2 -0.006042 0.014484 -0.005371 0.000000 -0.001822 0.000000
# 3 -0.003947 -0.005371 0.017708 0.000000 -0.003864 0.000000
# 4 0.000000 0.000000 0.000000 0.032894 0.000000 0.000566
# 5 -0.001707 -0.001822 -0.003864 0.000000 0.036688 0.000000
# 6 0.000000 0.000000 0.000000 0.000566 0.000000 0.035280
#
#
# Mechanical properties :
#
#
# Convention : Reuss Voigt Hill
#
# Bulk Modulus (GPa) = 55.20696 62.40368 58.80532
# Shear Modulus (GPa) = 26.25272 27.24438 26.74855
#
# Velocity S-wave (km/s) = 3.66147 3.72998 3.69588
# Velocity P-wave (km/s) = 6.78730 7.10054 6.94569
#
# Compressibility (1/GPa) = 0.01811366
#
# Stress axis : x y z
#
# Youngs Moduli (GPa) = 60.08529 69.04287 56.47228
#
# Poissons Ratio (x) = 0.41714 0.22292
# Poissons Ratio (y) = 0.36302 0.30332
# Poissons Ratio (z) = 0.23719 0.37084
#
# Static dielectric constant tensor:
#      x y z
#    x 3.447180 0.000000 -0.104380 
#    y 0.000000 3.647320 0.000000 
#    z -0.104380 0.000000 3.508190 
# 
# 
# High freq. dielectric constant tensor:
#      x y z
#    x 1.760220 0.000000 -0.002370 
#    y 0.000000 1.770410 0.000000 
#    z -0.002370 0.000000 1.762560 
# 
# From -- ./inp_files/5039.got.cif
#   From: 2010.03.12/outbox.cif.g09.slc.cpg/sg6_3_cif.got.tgz:5039.got - 2010.03.30 10:24:59.
