data_PCOD8052798
_publ_section_title
;
Structure prediction by ZEFSAII (Michael W. Deem and Ramdas Pophale) SiO2 
 PCOD8052798
Probable space group: C M
;
_chemical_formula_sum "Si O2"
_cell_formula_units_Z 32
_cell_length_a 18.760660
_cell_length_b 22.910155
_cell_length_c 6.243111
_cell_angle_alpha 90.000000
_cell_angle_beta 48.083206
_cell_angle_gamma 90.000000
_cell_volume 1996.722459
_symmetry_space_group_name_H-M "C M"
_symmetry_group_IT_number 8
_symmetry_cell_setting 'monoclinic'
loop_
_space_group_symop_operation_xyz
x,y,z
x,-y,z
1/2+x,1/2+y,z
1/2+x,1/2-y,z
loop_
_atom_site_type_symbol
_atom_site_label
_atom_site_fract_x
_atom_site_fract_y
_atom_site_fract_z
Si Si1 0.777100 0.565423 0.483470
Si Si2 0.583294 0.822882 0.691014
Si Si3 0.944536 0.735563 0.287581
Si Si4 0.859662 0.372375 0.701596
Si Si5 0.105988 0.759735 0.268238
Si Si6 0.241391 0.264996 0.616975
Si Si7 0.214818 0.836877 0.337757
Si Si8 0.469589 0.934224 0.829299
O O1 0.737103 0.500000 0.575868
O O2 0.784470 0.591116 0.708439
O O3 0.701869 0.601174 0.485046
O O4 0.882213 0.568394 0.170166
O O5 0.596832 0.799578 0.423453
O O6 0.682832 0.818441 0.626331
O O7 0.552068 0.890366 0.747065
O O8 0.504063 0.780233 0.955757
O O9 0.913346 0.674068 0.448255
O O10 0.854725 0.778201 0.417275
O O11 0.011447 0.770916 0.318457
O O12 0.935760 0.416200 0.658472
O O13 0.805318 0.338650 0.998994
O O14 0.121653 0.816185 0.390646
O O15 0.198693 0.751260 0.933131
O O16 0.237508 0.209036 0.474867
O O17 0.511459 0.000000 0.735356
#
# Coordination Sequence:
#
# PCOD8052798 Si02
#       8
#     4   4   4   4   4   4   4   4
#     4  10  19  29  45  68  97 131 164 193 234 284
#     4  10  20  31  47  70  96 128 164 199 235 287
#     4  11  18  30  48  67  96 129 158 195 241 285
#     4  11  17  29  47  65  97 130 158 191 234 280
#     4  10  20  30  48  68  95 127 163 198 246 282
#     4  10  20  32  46  69  95 130 162 198 242 287
#     4  10  18  31  46  66  95 128 161 196 231 284
#     4  10  19  30  44  67  96 131 165 194 231 285
#
# _framework density 16.026264999999999
#
# number of rings (size 3 to 8) (size 9 to 14) (size 15 to 20)
#    0.000    1.750    5.000    1.125    0.000    0.500 
#    0.000    0.000    0.000    0.000    0.000    0.875 
#    0.000   12.000    0.000    0.250    0.000    0.375 
#
# Total GULP energy -198333.829122 kJ/mol
# GULP energy per Si atom -12395.864320 kJ/mol
# Density = 1.598979 g / cm^3
# Si number density = 16.026265 Si / 1000 Ang^3
#
#
#
# Elastic Constant Matrix: (Units=GPa)
#
#
# Indices 1 2 3 4 5 6 
#
# 1 112.3303 49.7011 28.4640 0.0000 -4.5913 0.0000
# 2 49.7011 95.8338 21.0344 0.0000 -0.0258 0.0000
# 3 28.4640 21.0344 63.3292 0.0000 9.6869 0.0000
# 4 0.0000 0.0000 0.0000 17.7187 0.0000 -1.0034
# 5 -4.5913 -0.0258 9.6869 0.0000 26.1232 0.0000
# 6 0.0000 0.0000 0.0000 -1.0034 0.0000 30.5472
#
#
#
# Elastic Compliance Matrix: (Units=1/GPa)
#
#
# Indices 1 2 3 4 5 6 
#
# 1 0.012654 -0.005591 -0.004420 0.000000 0.003858 0.000000
# 2 -0.005591 0.013780 -0.002031 0.000000 -0.000216 0.000000
# 3 -0.004420 -0.002031 0.019688 0.000000 -0.008079 0.000000
# 4 0.000000 0.000000 0.000000 0.056543 0.000000 0.001857
# 5 0.003858 -0.000216 -0.008079 0.000000 0.041954 0.000000
# 6 0.000000 0.000000 0.000000 0.001857 0.000000 0.032797
#
#
# Mechanical properties :
#
#
# Convention : Reuss Voigt Hill
#
# Bulk Modulus (GPa) = 45.37902 52.21027 48.79464
# Shear Modulus (GPa) = 23.94100 26.36406 25.15253
#
# Velocity S-wave (km/s) = 3.86924 4.06033 3.96594
# Velocity P-wave (km/s) = 6.95257 7.39123 7.17526
#
# Compressibility (1/GPa) = 0.02203662
#
# Stress axis : x y z
#
# Youngs Moduli (GPa) = 79.02625 72.56796 50.79314
#
# Poissons Ratio (x) = 0.40575 0.22453
# Poissons Ratio (y) = 0.44186 0.10315
# Poissons Ratio (z) = 0.34933 0.14738
#
# Static dielectric constant tensor:
#      x y z
#    x 3.304450 0.000000 0.182120 
#    y 0.000000 2.984790 0.000000 
#    z 0.182120 0.000000 3.073930 
# 
# 
# High freq. dielectric constant tensor:
#      x y z
#    x 1.615500 0.000000 0.030250 
#    y 0.000000 1.586540 0.000000 
#    z 0.030250 0.000000 1.612130 
# 
# From -- ./inp_files/3119.got.cif
#   From: 2010.03.12/outbox.cif.g09.slc.cpg/sg8_2_cif.got.tgz:3119.got - 2010.03.31 10:45:26.
