data_PCOD8052230
_publ_section_title
;
Structure prediction by ZEFSAII (Michael W. Deem and Ramdas Pophale) SiO2 
 PCOD8052230
Probable space group: P M
;
_chemical_formula_sum "Si O2"
_cell_formula_units_Z 16
_cell_length_a 12.315663
_cell_length_b 9.174399
_cell_length_c 18.852769
_cell_angle_alpha 90.000000
_cell_angle_beta 153.189951
_cell_angle_gamma 90.000000
_cell_volume 960.771092
_symmetry_space_group_name_H-M "P M"
_symmetry_group_IT_number 6
_symmetry_cell_setting 'monoclinic'
loop_
_space_group_symop_operation_xyz
x,y,z
x,-y,z
loop_
_atom_site_type_symbol
_atom_site_label
_atom_site_fract_x
_atom_site_fract_y
_atom_site_fract_z
Si Si1 0.108320 0.168524 0.125000
Si Si2 0.786754 0.832451 0.063152
Si Si3 0.988673 0.328333 0.306410
Si Si4 0.461924 0.169428 0.605206
Si Si5 0.896035 0.671305 0.412935
Si Si6 0.362525 0.831405 0.710791
Si Si7 0.901127 0.333333 0.884701
Si Si8 0.420492 0.333658 0.212348
O O1 0.366709 0.239971 0.253164
O O2 0.039380 0.185524 0.167294
O O3 0.105052 0.000000 0.100115
O O4 0.897716 0.253102 0.959369
O O5 0.794370 0.729875 0.136475
O O6 0.754729 0.000000 0.068066
O O7 0.564180 0.781758 0.884511
O O8 0.025826 0.500000 0.319466
O O9 0.891783 0.285862 0.327661
O O10 0.239289 0.246465 0.436501
O O11 0.445063 0.200205 0.679011
O O12 0.711314 0.246159 0.724337
O O13 0.464205 0.000000 0.586225
O O14 0.919824 0.500000 0.436133
O O15 0.648396 0.729929 0.303260
O O16 0.117920 0.743475 0.583770
O O17 0.303200 0.000000 0.685975
O O18 0.814547 0.500000 0.841748
O O19 0.181363 0.324613 0.021590
O O20 0.465792 0.500000 0.262290
#
# Coordination Sequence:
#
# PCOD8052230 Si02
#       8
#     2   2   2   2   2   2   2   2
#     4   9  16  28  47  71  94 120 154 194 237 281
#     4  10  19  33  48  69 101 129 154 192 244 291
#     4  10  21  32  47  71  99 130 162 194 234 286
#     4  10  17  30  48  69  97 125 156 197 241 281
#     4   9  18  33  48  69  98 126 158 197 238 279
#     4   9  17  29  47  69  92 122 160 198 236 277
#     4   9  16  26  45  71  95 119 150 193 237 277
#     4   8  16  29  46  69  96 123 154 199 241 274
#
# _framework density 16.653290999999999
#
# number of rings (size 3 to 8) (size 9 to 14) (size 15 to 20)
#    0.750    2.000    1.250    1.125    0.000    3.000 
#    0.000    0.000    0.000    1.500    0.000    5.250 
#    0.000    0.000    0.000    0.000    0.000    0.000 
#
# Total GULP energy -198220.107348 kJ/mol
# GULP energy per Si atom -12388.756709 kJ/mol
# Density = 1.661539 g / cm^3
# Si number density = 16.653291 Si / 1000 Ang^3
#
#
#
# Elastic Constant Matrix: (Units=GPa)
#
#
# Indices 1 2 3 4 5 6 
#
# 1 63.6318 33.7187 43.1744 0.0000 12.6795 0.0000
# 2 33.7187 80.8477 40.3166 0.0000 3.3689 0.0000
# 3 43.1744 40.3166 91.3856 0.0000 4.1692 0.0000
# 4 0.0000 0.0000 0.0000 30.9631 0.0000 0.9155
# 5 12.6795 3.3689 4.1692 0.0000 26.1987 0.0000
# 6 0.0000 0.0000 0.0000 0.9155 0.0000 21.2742
#
#
#
# Elastic Compliance Matrix: (Units=1/GPa)
#
#
# Indices 1 2 3 4 5 6 
#
# 1 0.028017 -0.006247 -0.009971 0.000000 -0.011169 0.000000
# 2 -0.006247 0.017273 -0.004740 0.000000 0.001557 0.000000
# 3 -0.009971 -0.004740 0.017624 0.000000 0.002630 0.000000
# 4 0.000000 0.000000 0.000000 0.032338 0.000000 -0.001392
# 5 -0.011169 0.001557 0.002630 0.000000 0.042957 0.000000
# 6 0.000000 0.000000 0.000000 -0.001392 0.000000 0.047065
#
#
# Mechanical properties :
#
#
# Convention : Reuss Voigt Hill
#
# Bulk Modulus (GPa) = 47.62237 52.25384 49.93810
# Shear Modulus (GPa) = 21.35031 23.59757 22.47394
#
# Velocity S-wave (km/s) = 3.58445 3.76838 3.67757
# Velocity P-wave (km/s) = 6.76680 7.09788 6.93431
#
# Compressibility (1/GPa) = 0.02099854
#
# Stress axis : x y z
#
# Youngs Moduli (GPa) = 35.69324 57.89281 56.73983
#
# Poissons Ratio (x) = 0.36167 0.56573
# Poissons Ratio (y) = 0.22298 0.26895
# Poissons Ratio (z) = 0.35588 0.27441
#
# Static dielectric constant tensor:
#      x y z
#    x 2.877740 0.000000 0.191470 
#    y 0.000000 3.124390 0.000000 
#    z 0.191470 0.000000 3.092120 
# 
# 
# High freq. dielectric constant tensor:
#      x y z
#    x 1.600530 0.000000 0.017100 
#    y 0.000000 1.650460 0.000000 
#    z 0.017100 0.000000 1.630460 
# 
# From -- ./inp_files/3549.got.cif
#   From: 2010.03.12/outbox.cif.g09.slc.cpg/sg6_2_cif.got.tgz:3549.got - 2010.03.30 10:24:59.
