data_PCOD8052062
_publ_section_title
;
Structure prediction by ZEFSAII (Michael W. Deem and Ramdas Pophale) SiO2 
 PCOD8052062
Probable space group: C 2
;
_chemical_formula_sum "Si O2"
_cell_formula_units_Z 22
_cell_length_a 27.988073
_cell_length_b 6.722576
_cell_length_c 8.208349
_cell_angle_alpha 90.000000
_cell_angle_beta 145.273744
_cell_angle_gamma 90.000000
_cell_volume 879.786657
_symmetry_space_group_name_H-M "C 2"
_symmetry_group_IT_number 5
_symmetry_cell_setting 'monoclinic'
loop_
_space_group_symop_operation_xyz
x,y,z
-x,y,-z
1/2+x,1/2+y,z
1/2-x,1/2+y,-z
loop_
_atom_site_type_symbol
_atom_site_label
_atom_site_fract_x
_atom_site_fract_y
_atom_site_fract_z
Si Si1 0.157396 0.826960 0.550173
Si Si2 0.716864 0.107014 0.191626
Si Si3 0.286364 0.555554 0.733356
Si Si4 0.500000 0.484837 0.000000
Si Si5 0.528098 0.709499 0.755703
Si Si6 0.935078 0.606308 0.429872
O O1 0.225258 0.669048 0.683584
O O2 0.113215 0.756554 0.590269
O O3 0.204770 0.040428 0.704806
O O4 0.083199 0.850134 0.208017
O O5 0.700105 0.341770 0.146192
O O6 0.738423 0.015990 0.428848
O O7 0.633556 0.003905 0.882997
O O8 0.371542 0.680017 0.944228
O O9 0.515303 0.604610 0.210279
O O10 0.500000 0.624530 0.500000
O O11 0.492222 0.935128 0.673212
O O12 0.000000 0.734094 0.500000
#
# Coordination Sequence:
#
# PCOD8052062 Si02
#       6
#     4   4   4   2   4   4
#     4  12  29  48  78 120 161 218 275 341 420 495
#     4  12  27  50  82 122 161 217 275 340 422 499
#     4  12  27  52  84 114 169 215 274 349 420 501
#     4  12  28  48  80 124 158 222 284 338 424 500
#     4  11  27  54  82 117 165 220 275 347 418 492
#     4  11  30  50  81 117 167 215 280 346 415 494
#
# _framework density 25.006062
#
# number of rings (size 3 to 8) (size 9 to 14) (size 15 to 20)
#    0.000    0.364    3.636    2.182   12.727    0.727 
#    0.000    0.000    0.000    0.000    0.000    0.000 
#    0.000    0.000    0.000    0.000    0.000    0.000 
#
# Total GULP energy -136291.719032 kJ/mol
# GULP energy per Si atom -12390.156276 kJ/mol
# Density = 2.494915 g / cm^3
# Si number density = 25.006062 Si / 1000 Ang^3
#
#
#
# Elastic Constant Matrix: (Units=GPa)
#
#
# Indices 1 2 3 4 5 6 
#
# 1 171.1350 51.5091 57.2239 0.0000 6.5397 0.0000
# 2 51.5091 111.8031 34.8423 0.0000 12.3937 0.0000
# 3 57.2239 34.8423 139.3194 0.0000 16.0938 0.0000
# 4 0.0000 0.0000 0.0000 35.3217 0.0000 7.6777
# 5 6.5397 12.3937 16.0938 0.0000 55.5155 0.0000
# 6 0.0000 0.0000 0.0000 7.6777 0.0000 39.2006
#
#
#
# Elastic Compliance Matrix: (Units=1/GPa)
#
#
# Indices 1 2 3 4 5 6 
#
# 1 0.007461 -0.002728 -0.002433 0.000000 0.000435 0.000000
# 2 -0.002728 0.010822 -0.001391 0.000000 -0.001691 0.000000
# 3 -0.002433 -0.001391 0.008749 0.000000 -0.001939 0.000000
# 4 0.000000 0.000000 0.000000 0.029570 0.000000 -0.005792
# 5 0.000435 -0.001691 -0.001939 0.000000 0.018902 0.000000
# 6 0.000000 0.000000 0.000000 -0.005792 0.000000 0.026644
#
#
# Mechanical properties :
#
#
# Convention : Reuss Voigt Hill
#
# Bulk Modulus (GPa) = 71.78880 78.82313 75.30597
# Shear Modulus (GPa) = 41.70398 44.58637 43.14518
#
# Velocity S-wave (km/s) = 4.08825 4.22717 4.15829
# Velocity P-wave (km/s) = 7.14534 7.44414 7.29627
#
# Compressibility (1/GPa) = 0.01392975
#
# Stress axis : x y z
#
# Youngs Moduli (GPa) = 134.02843 92.40594 114.30166
#
# Poissons Ratio (x) = 0.25204 0.27806
# Poissons Ratio (y) = 0.36557 0.15896
# Poissons Ratio (z) = 0.32605 0.12851
#
# Static dielectric constant tensor:
#      x y z
#    x 4.646300 0.000000 0.286190 
#    y 0.000000 4.461900 0.000000 
#    z 0.286190 0.000000 5.096220 
# 
# 
# High freq. dielectric constant tensor:
#      x y z
#    x 2.001520 0.000000 0.016070 
#    y 0.000000 1.991150 0.000000 
#    z 0.016070 0.000000 2.019840 
# 
# From -- ./inp_files/32445.got.cif
#   From: 2010.03.12/outbox.cif.g09.slc.cpg/sg5_17_cif.got.tgz:32445.got - 2010.03.31 09:47:26.
