data_PCOD8052567
_publ_section_title
;
Structure prediction by ZEFSAII (Michael W. Deem and Ramdas Pophale) SiO2 
 PCOD8052567
Probable space group: P M
;
_chemical_formula_sum "Si O2"
_cell_formula_units_Z 12
_cell_length_a 5.009140
_cell_length_b 24.796309
_cell_length_c 5.000026
_cell_angle_alpha 90.000000
_cell_angle_beta 60.046901
_cell_angle_gamma 90.000000
_cell_volume 538.094013
_symmetry_space_group_name_H-M "P M"
_symmetry_group_IT_number 6
_symmetry_cell_setting 'monoclinic'
loop_
_space_group_symop_operation_xyz
x,y,z
x,-y,z
loop_
_atom_site_type_symbol
_atom_site_label
_atom_site_fract_x
_atom_site_fract_y
_atom_site_fract_z
Si Si1 0.828510 0.562653 0.246350
Si Si2 0.347647 0.062565 0.050033
Si Si3 0.085090 0.270705 0.566157
Si Si4 0.749968 0.770979 0.234378
Si Si5 0.681372 0.104752 0.380621
Si Si6 0.160113 0.604785 0.578400
O O1 0.764416 0.500000 0.325300
O O2 0.517060 0.594977 0.460899
O O3 0.089850 0.584346 0.315425
O O4 0.944976 0.571875 0.888205
O O5 0.418956 0.084953 0.308855
O O6 0.988760 0.070888 0.169909
O O7 0.430197 0.000000 0.985178
O O8 0.559731 0.095320 0.739291
O O9 0.855460 0.264813 0.432352
O O10 0.416312 0.249139 0.307642
O O11 0.091072 0.332522 0.650167
O O12 0.978937 0.235529 0.871355
O O13 0.754031 0.832728 0.316441
#
# Coordination Sequence:
#
# PCOD8052567 Si02
#       6
#     2   2   2   2   2   2
#     4  12  25  44  67  96 130 170 214 264 319 380
#     4  12  24  42  66  96 129 168 213 264 319 380
#     4  12  24  43  67  96 130 169 213 264 319 380
#     4  12  25  44  67  96 130 170 214 264 319 380
#     4  12  25  44  67  96 130 170 214 264 319 380
#     4  12  25  43  66  96 129 169 214 264 319 380
#
# _framework density 22.300932
#
# number of rings (size 3 to 8) (size 9 to 14) (size 15 to 20)
#    0.000    0.000    0.000   12.000    0.000    0.000 
#    0.000    0.000    0.000    0.000    0.000    0.000 
#    0.000    0.000    0.000    0.000    0.000    0.000 
#
# Total GULP energy -148959.843138 kJ/mol
# GULP energy per Si atom -12413.320262 kJ/mol
# Density = 2.225017 g / cm^3
# Si number density = 22.300932 Si / 1000 Ang^3
#
#
#
# Elastic Constant Matrix: (Units=GPa)
#
#
# Indices 1 2 3 4 5 6 
#
# 1 86.5688 29.4626 25.2360 0.0000 -0.2367 0.0000
# 2 29.4626 72.1400 12.4245 0.0000 -0.3242 0.0000
# 3 25.2360 12.4245 87.1991 0.0000 -4.6940 0.0000
# 4 0.0000 0.0000 0.0000 32.0470 0.0000 2.2138
# 5 -0.2367 -0.3242 -4.6940 0.0000 30.1063 0.0000
# 6 0.0000 0.0000 0.0000 2.2138 0.0000 38.3989
#
#
#
# Elastic Compliance Matrix: (Units=1/GPa)
#
#
# Indices 1 2 3 4 5 6 
#
# 1 0.014342 -0.005270 -0.003426 0.000000 -0.000478 0.000000
# 2 -0.005270 0.016148 -0.000775 0.000000 0.000012 0.000000
# 3 -0.003426 -0.000775 0.012674 0.000000 0.001941 0.000000
# 4 0.000000 0.000000 0.000000 0.031329 0.000000 -0.001806
# 5 -0.000478 0.000012 0.001941 0.000000 0.033515 0.000000
# 6 0.000000 0.000000 0.000000 -0.001806 0.000000 0.026147
#
#
# Mechanical properties :
#
#
# Convention : Reuss Voigt Hill
#
# Bulk Modulus (GPa) = 41.28225 42.23932 41.76079
# Shear Modulus (GPa) = 31.02320 32.02942 31.52631
#
# Velocity S-wave (km/s) = 3.73381 3.79388 3.76397
# Velocity P-wave (km/s) = 6.09427 6.17844 6.13650
#
# Compressibility (1/GPa) = 0.02422348
#
# Stress axis : x y z
#
# Youngs Moduli (GPa) = 69.72385 61.92846 78.89968
#
# Poissons Ratio (x) = 0.32634 0.27028
# Poissons Ratio (y) = 0.36742 0.06115
# Poissons Ratio (z) = 0.23885 0.04800
#
# Static dielectric constant tensor:
#      x y z
#    x 4.160240 0.000000 0.006990 
#    y 0.000000 4.112780 0.000000 
#    z 0.006990 0.000000 4.000140 
# 
# 
# High freq. dielectric constant tensor:
#      x y z
#    x 1.891990 0.000000 0.000390 
#    y 0.000000 1.894740 0.000000 
#    z 0.000390 0.000000 1.888670 
# 
# From -- ./inp_files/650.got.cif
#   From: 2010.03.12/outbox.cif.g09.slc.cpg/sg6_1_cif.got.tgz:650.got - 2010.03.30 10:24:59.
