data_PCOD8052959
_publ_section_title
;
Structure prediction by ZEFSAII (Michael W. Deem and Ramdas Pophale) SiO2 
 PCOD8052959
Probable space group: C M
;
_chemical_formula_sum "Si O2"
_cell_formula_units_Z 32
_cell_length_a 20.102098
_cell_length_b 8.608977
_cell_length_c 10.386650
_cell_angle_alpha 90.000000
_cell_angle_beta 73.550911
_cell_angle_gamma 90.000000
_cell_volume 1723.929562
_symmetry_space_group_name_H-M "C M"
_symmetry_group_IT_number 8
_symmetry_cell_setting 'monoclinic'
loop_
_space_group_symop_operation_xyz
x,y,z
x,-y,z
1/2+x,1/2+y,z
1/2+x,1/2-y,z
loop_
_atom_site_type_symbol
_atom_site_label
_atom_site_fract_x
_atom_site_fract_y
_atom_site_fract_z
Si Si1 0.994050 0.318013 0.288950
Si Si2 0.768807 0.683210 0.547961
Si Si3 0.780370 0.683466 0.251232
Si Si4 0.479521 0.819749 0.768905
Si Si5 0.128190 0.678914 0.591282
Si Si6 0.627663 0.318243 0.315294
Si Si7 0.905098 0.181281 0.567295
Si Si8 0.422393 0.815483 0.069108
O O1 0.980609 0.500000 0.314955
O O2 0.952122 0.230546 0.421997
O O3 0.969070 0.259249 0.163250
O O4 0.075401 0.279441 0.255679
O O5 0.758198 0.500000 0.560144
O O6 0.787085 0.743479 0.394095
O O7 0.696588 0.763893 0.630123
O O8 0.830808 0.733251 0.607566
O O9 0.786084 0.500000 0.253751
O O10 0.706025 0.731802 0.232163
O O11 0.843860 0.749807 0.131474
O O12 0.562436 0.797939 0.720365
O O13 0.443463 0.722458 0.677421
O O14 0.459323 0.000000 0.762372
O O15 0.453207 0.750410 0.919298
O O16 0.135973 0.500000 0.545047
O O17 0.115960 0.782295 0.471590
O O18 0.614592 0.500000 0.300331
O O19 0.891476 0.000000 0.567586
O O20 0.422804 0.000000 0.063783
#
# Coordination Sequence:
#
# PCOD8052959 Si02
#       8
#     4   4   4   4   4   4   4   4
#     4  11  20  34  57  82 109 142 185 232 277 326
#     4  10  19  34  57  82 109 141 182 231 280 327
#     4   8  15  30  53  79 106 138 178 222 268 319
#     4  10  21  37  58  81 111 150 187 222 273 333
#     4  10  19  32  52  81 114 146 183 225 274 328
#     4  10  19  31  52  81 111 143 182 229 276 322
#     4  12  23  35  55  83 114 144 183 232 277 326
#     4   9  18  35  58  81 106 144 186 225 273 331
#
# _framework density 18.562241
#
# number of rings (size 3 to 8) (size 9 to 14) (size 15 to 20)
#    0.000    2.000    2.500    3.375    0.000    0.500 
#    0.000    2.500    0.000    3.000    0.000    0.000 
#    0.000    0.000    0.000    0.000    0.000    0.000 
#
# Total GULP energy -198390.526465 kJ/mol
# GULP energy per Si atom -12399.407904 kJ/mol
# Density = 1.851999 g / cm^3
# Si number density = 18.562241 Si / 1000 Ang^3
#
#
#
# Elastic Constant Matrix: (Units=GPa)
#
#
# Indices 1 2 3 4 5 6 
#
# 1 137.9646 23.6787 57.5211 0.0000 -15.2184 0.0000
# 2 23.6787 42.2103 23.4945 0.0000 -3.8306 0.0000
# 3 57.5211 23.4945 111.6436 0.0000 -7.9602 0.0000
# 4 0.0000 0.0000 0.0000 8.0933 0.0000 -6.2769
# 5 -15.2184 -3.8306 -7.9602 0.0000 29.2421 0.0000
# 6 0.0000 0.0000 0.0000 -6.2769 0.0000 29.3676
#
#
#
# Elastic Compliance Matrix: (Units=1/GPa)
#
#
# Indices 1 2 3 4 5 6 
#
# 1 0.009910 -0.002868 -0.004244 0.000000 0.003626 0.000000
# 2 -0.002868 0.027781 -0.004299 0.000000 0.000976 0.000000
# 3 -0.004244 -0.004299 0.012085 0.000000 0.000518 0.000000
# 4 0.000000 0.000000 0.000000 0.148110 0.000000 0.031657
# 5 0.003626 0.000976 0.000518 0.000000 0.036353 0.000000
# 6 0.000000 0.000000 0.000000 0.031657 0.000000 0.040817
#
#
# Mechanical properties :
#
#
# Convention : Reuss Voigt Hill
#
# Bulk Modulus (GPa) = 37.09915 55.68967 46.39441
# Shear Modulus (GPa) = 16.29390 25.81556 21.05473
#
# Velocity S-wave (km/s) = 2.96598 3.73333 3.37156
# Velocity P-wave (km/s) = 5.63552 6.97498 6.34072
#
# Compressibility (1/GPa) = 0.02695479
#
# Stress axis : x y z
#
# Youngs Moduli (GPa) = 100.91077 35.99553 82.74641
#
# Poissons Ratio (x) = 0.10323 0.35114
# Poissons Ratio (y) = 0.28941 0.35573
# Poissons Ratio (z) = 0.42822 0.15475
#
# Static dielectric constant tensor:
#      x y z
#    x 3.761470 0.000000 -0.216510 
#    y 0.000000 3.246030 0.000000 
#    z -0.216510 0.000000 3.448650 
# 
# 
# High freq. dielectric constant tensor:
#      x y z
#    x 1.736260 0.000000 -0.016250 
#    y 0.000000 1.706060 0.000000 
#    z -0.016250 0.000000 1.689960 
# 
# From -- ./inp_files/23692.got.cif
#   From: 2010.03.12/outbox.cif.g09.slc.cpg/sg8_12_cif.got.tgz:23692.got - 2010.03.31 10:45:26.
