data_PCOD8052675
_publ_section_title
;
Structure prediction by ZEFSAII (Michael W. Deem and Ramdas Pophale) SiO2 
 PCOD8052675
Probable space group: P C
;
_chemical_formula_sum "Si O2"
_cell_formula_units_Z 16
_cell_length_a 6.480089
_cell_length_b 26.437269
_cell_length_c 5.317384
_cell_angle_alpha 90.000000
_cell_angle_beta 47.594974
_cell_angle_gamma 90.000000
_cell_volume 672.643626
_symmetry_space_group_name_H-M "P C"
_symmetry_group_IT_number 7
_symmetry_cell_setting 'monoclinic'
loop_
_space_group_symop_operation_xyz
x,y,z
x,-y,1/2+z
loop_
_atom_site_type_symbol
_atom_site_label
_atom_site_fract_x
_atom_site_fract_y
_atom_site_fract_z
Si Si1 0.244270 0.900140 0.890720
Si Si2 0.295610 0.162491 0.840182
Si Si3 0.749504 0.968428 0.416450
Si Si4 0.811357 0.228745 0.353162
Si Si5 0.330499 0.532313 0.432852
Si Si6 0.115442 0.690997 0.897473
Si Si7 0.686844 0.680033 0.632836
Si Si8 0.806107 0.400904 0.389622
O O1 0.223922 0.868729 0.650352
O O2 0.431807 0.949295 0.679765
O O3 0.363475 0.869428 0.032763
O O4 0.939425 0.919013 0.223722
O O5 0.575240 0.194043 0.673950
O O6 0.021794 0.196505 0.003878
O O7 0.809853 0.993997 0.635610
O O8 0.638971 0.273124 0.357989
O O9 0.016900 0.253907 0.389470
O O10 0.378581 0.500656 0.644986
O O11 0.018943 0.553802 0.659595
O O12 0.558744 0.577105 0.264594
O O13 0.450720 0.685838 0.610570
O O14 0.974528 0.645872 0.862291
O O15 0.003981 0.684932 0.272869
O O16 0.655345 0.623381 0.769801
#
# Coordination Sequence:
#
# PCOD8052675 Si02
#       8
#     2   2   2   2   2   2   2   2
#     4  12  26  45  68 107 138 189 232 283 362 414
#     4  12  26  44  70  98 152 184 232 284 344 432
#     4  12  24  45  74 101 138 179 238 299 348 412
#     4  11  26  43  66 106 132 194 234 285 344 411
#     4  12  28  47  74 103 142 183 230 283 360 434
#     4  11  24  43  73  98 137 178 241 288 344 409
#     4  11  24  43  73  98 137 178 241 288 344 409
#     4  11  26  46  70 105 136 181 232 296 346 411
#
# _framework density 23.786740999999999
#
# number of rings (size 3 to 8) (size 9 to 14) (size 15 to 20)
#    0.000    0.500    0.000    7.500   10.500    4.000 
#    0.000    0.000    0.000    0.000    0.000    0.000 
#    0.000    0.000    0.000    0.000    0.000    0.000 
#
# Total GULP energy -198398.104042 kJ/mol
# GULP energy per Si atom -12399.881503 kJ/mol
# Density = 2.373260 g / cm^3
# Si number density = 23.786741 Si / 1000 Ang^3
#
#
#
# Elastic Constant Matrix: (Units=GPa)
#
#
# Indices 1 2 3 4 5 6 
#
# 1 88.3052 22.1403 22.2184 0.0000 0.0345 0.0000
# 2 22.1403 84.4106 27.9121 0.0000 5.4829 0.0000
# 3 22.2184 27.9121 101.7727 0.0000 4.0058 0.0000
# 4 0.0000 0.0000 0.0000 46.2530 0.0000 -8.1539
# 5 0.0345 5.4829 4.0058 0.0000 52.4601 0.0000
# 6 0.0000 0.0000 0.0000 -8.1539 0.0000 29.2050
#
#
#
# Elastic Compliance Matrix: (Units=1/GPa)
#
#
# Indices 1 2 3 4 5 6 
#
# 1 0.012494 -0.002636 -0.002021 0.000000 0.000422 0.000000
# 2 -0.002636 0.013647 -0.003121 0.000000 -0.001186 0.000000
# 3 -0.002021 -0.003121 0.011144 0.000000 -0.000523 0.000000
# 4 0.000000 0.000000 0.000000 0.022739 0.000000 0.006349
# 5 0.000422 -0.001186 -0.000523 0.000000 0.019226 0.000000
# 6 0.000000 0.000000 0.000000 0.006349 0.000000 0.036013
#
#
# Mechanical properties :
#
#
# Convention : Reuss Voigt Hill
#
# Bulk Modulus (GPa) = 46.02225 46.55889 46.29057
# Shear Modulus (GPa) = 36.21572 39.06482 37.64027
#
# Velocity S-wave (km/s) = 3.90618 4.05692 3.98226
# Velocity P-wave (km/s) = 6.30350 6.44676 6.37554
#
# Compressibility (1/GPa) = 0.02172862
#
# Stress axis : x y z
#
# Youngs Moduli (GPa) = 80.04058 73.27489 89.73805
#
# Poissons Ratio (x) = 0.19316 0.18138
# Poissons Ratio (y) = 0.21099 0.28005
# Poissons Ratio (z) = 0.16178 0.22867
#
# Static dielectric constant tensor:
#      x y z
#    x 4.140910 0.000000 -0.026020 
#    y 0.000000 4.438410 0.000000 
#    z -0.026020 0.000000 4.401600 
# 
# 
# High freq. dielectric constant tensor:
#      x y z
#    x 1.939740 0.000000 -0.009450 
#    y 0.000000 1.956510 0.000000 
#    z -0.009450 0.000000 1.955890 
# 
# From -- ./inp_files/410.got.cif
#   From: 2010.03.12/outbox.cif.g09.slc.cpg/sg7_cif.got.tgz:410.got - 2010.03.30 08:40:41.
