data_PCOD8052548
_publ_section_title
;
Structure prediction by ZEFSAII (Michael W. Deem and Ramdas Pophale) SiO2 
 PCOD8052548
Probable space group: P M
;
_chemical_formula_sum "Si O2"
_cell_formula_units_Z 12
_cell_length_a 5.345454
_cell_length_b 17.577296
_cell_length_c 5.220940
_cell_angle_alpha 90.000000
_cell_angle_beta 95.370049
_cell_angle_gamma 90.000000
_cell_volume 488.399332
_symmetry_space_group_name_H-M "P M"
_symmetry_group_IT_number 6
_symmetry_cell_setting 'monoclinic'
loop_
_space_group_symop_operation_xyz
x,y,z
x,-y,z
loop_
_atom_site_type_symbol
_atom_site_label
_atom_site_fract_x
_atom_site_fract_y
_atom_site_fract_z
Si Si1 0.027860 0.790519 0.012830
Si Si2 0.333603 0.587553 0.243965
Si Si3 0.116247 0.651148 0.742741
Si Si4 0.651928 0.151641 0.601484
Si Si5 0.726789 0.300630 0.358204
Si Si6 0.152824 0.912873 0.391179
O O1 0.185945 0.861132 0.139376
O O2 0.970494 0.726281 0.221274
O O3 0.183503 0.741590 0.813298
O O4 0.757723 0.822378 0.887147
O O5 0.410368 0.500000 0.271314
O O6 0.274993 0.617108 0.524141
O O7 0.564443 0.640671 0.174220
O O8 0.128853 0.598048 0.997784
O O9 0.827342 0.653942 0.619127
O O10 0.574830 0.225344 0.425956
O O11 0.398247 0.101118 0.596705
O O12 0.889695 0.106562 0.501248
O O13 0.150404 0.000000 0.303718
#
# Coordination Sequence:
#
# PCOD8052548 Si02
#       6
#     2   2   2   2   2   2
#     4  10  23  45  74 103 138 202 253 303 366 448
#     4  12  27  43  70 106 146 189 240 310 383 438
#     4  11  24  47  69 101 142 188 243 303 360 449
#     4  10  24  41  72 103 142 196 250 302 367 446
#     4  10  24  44  72 101 137 189 249 301 363 444
#     4  11  24  44  67 108 155 194 245 311 379 439
#
# _framework density 24.570058
#
# number of rings (size 3 to 8) (size 9 to 14) (size 15 to 20)
#    0.000    1.333    1.667    2.000    9.333    5.333 
#    0.000    0.000    0.000    0.000    0.000    0.000 
#    0.000    0.000    0.000    0.000    0.000    0.000 
#
# Total GULP energy -148661.732133 kJ/mol
# GULP energy per Si atom -12388.477678 kJ/mol
# Density = 2.451413 g / cm^3
# Si number density = 24.570058 Si / 1000 Ang^3
#
#
#
# Elastic Constant Matrix: (Units=GPa)
#
#
# Indices 1 2 3 4 5 6 
#
# 1 89.3942 60.2859 23.9908 0.0000 13.3037 0.0000
# 2 60.2859 174.2682 55.5286 0.0000 15.7741 0.0000
# 3 23.9908 55.5286 121.3442 0.0000 8.1570 0.0000
# 4 0.0000 0.0000 0.0000 31.2371 0.0000 3.2639
# 5 13.3037 15.7741 8.1570 0.0000 28.9967 0.0000
# 6 0.0000 0.0000 0.0000 3.2639 0.0000 36.4786
#
#
#
# Elastic Compliance Matrix: (Units=1/GPa)
#
#
# Indices 1 2 3 4 5 6 
#
# 1 0.015115 -0.004664 -0.000569 0.000000 -0.004238 0.000000
# 2 -0.004664 0.008395 -0.002810 0.000000 -0.001637 0.000000
# 3 -0.000569 -0.002810 0.009702 0.000000 -0.000940 0.000000
# 4 0.000000 0.000000 0.000000 0.032315 0.000000 -0.002891
# 5 -0.004238 -0.001637 -0.000940 0.000000 0.037586 0.000000
# 6 0.000000 0.000000 0.000000 -0.002891 0.000000 0.027672
#
#
# Mechanical properties :
#
#
# Convention : Reuss Voigt Hill
#
# Bulk Modulus (GPa) = 58.38698 73.84635 66.11666
# Shear Modulus (GPa) = 32.76967 35.68924 34.22946
#
# Velocity S-wave (km/s) = 3.65598 3.81537 3.73652
# Velocity P-wave (km/s) = 6.45265 7.03776 6.75154
#
# Compressibility (1/GPa) = 0.01712710
#
# Stress axis : x y z
#
# Youngs Moduli (GPa) = 66.15906 119.11714 103.06685
#
# Poissons Ratio (x) = 0.55555 0.05867
# Poissons Ratio (y) = 0.30856 0.28957
# Poissons Ratio (z) = 0.03766 0.33467
#
# Static dielectric constant tensor:
#      x y z
#    x 4.112140 0.000000 0.257440 
#    y 0.000000 4.412700 0.000000 
#    z 0.257440 0.000000 4.639200 
# 
# 
# High freq. dielectric constant tensor:
#      x y z
#    x 1.955820 0.000000 0.018210 
#    y 0.000000 1.968830 0.000000 
#    z 0.018210 0.000000 1.985910 
# 
# From -- ./inp_files/407.got.cif
#   From: 2010.03.12/outbox.cif.g09.slc.cpg/sg6_1_cif.got.tgz:407.got - 2010.03.30 10:24:59.
