data_PCOD8052726
_publ_section_title
;
Structure prediction by ZEFSAII (Michael W. Deem and Ramdas Pophale) SiO2 
 PCOD8052726
Probable space group: C M
;
_chemical_formula_sum "Si O2"
_cell_formula_units_Z 32
_cell_length_a 23.190101
_cell_length_b 9.135135
_cell_length_c 12.359681
_cell_angle_alpha 90.000000
_cell_angle_beta 132.581038
_cell_angle_gamma 90.000000
_cell_volume 1927.933692
_symmetry_space_group_name_H-M "C M"
_symmetry_group_IT_number 8
_symmetry_cell_setting 'monoclinic'
loop_
_space_group_symop_operation_xyz
x,y,z
x,-y,z
1/2+x,1/2+y,z
1/2+x,1/2-y,z
loop_
_atom_site_type_symbol
_atom_site_label
_atom_site_fract_x
_atom_site_fract_y
_atom_site_fract_z
Si Si1 0.383540 0.331128 0.753330
Si Si2 0.736252 0.668139 0.630768
Si Si3 0.018860 0.335926 0.828514
Si Si4 0.279154 0.171385 0.922750
Si Si5 0.648352 0.836251 0.152126
Si Si6 0.429704 0.668112 0.057380
Si Si7 0.165149 0.825764 0.967763
Si Si8 0.604502 0.669082 0.302001
O O1 0.380278 0.500000 0.716029
O O2 0.296571 0.265582 0.638784
O O3 0.436224 0.246782 0.732039
O O4 0.420477 0.307628 0.918062
O O5 0.763211 0.500000 0.654000
O O6 0.736413 0.716531 0.756419
O O7 0.649303 0.691102 0.472574
O O8 0.006374 0.500000 0.765622
O O9 0.079493 0.243367 0.830176
O O10 0.057742 0.344946 0.997760
O O11 0.225094 0.226389 0.951829
O O12 0.292147 0.000000 0.946598
O O13 0.364444 0.243502 0.040726
O O14 0.652104 0.758881 0.272518
O O15 0.684343 0.000000 0.206365
O O16 0.695456 0.740854 0.121255
O O17 0.418629 0.500000 0.075007
O O18 0.515492 0.725303 0.202357
O O19 0.157713 0.000000 0.966225
O O20 0.603355 0.500000 0.263449
#
# Coordination Sequence:
#
# PCOD8052726 Si02
#       8
#     4   4   4   4   4   4   4   4
#     4  10  17  28  46  69  96 122 155 196 232 275
#     4   9  19  32  47  68  99 130 155 187 231 283
#     4   9  17  27  44  70  93 117 148 193 238 272
#     4   9  18  31  47  69  93 122 158 195 232 272
#     4   9  18  28  45  71  94 118 150 195 235 274
#     4   9  17  27  44  67  90 119 156 193 231 273
#     4   9  16  28  46  68  92 120 157 197 234 275
#     4  10  18  31  49  70  97 128 155 186 235 288
#
# _framework density 16.598082000000002
#
# number of rings (size 3 to 8) (size 9 to 14) (size 15 to 20)
#    0.750    2.000    1.250    1.125    0.000    2.500 
#    0.000    0.000    0.000    1.500    0.000    5.250 
#    0.000    0.000    0.000    0.000    0.000    0.000 
#
# Total GULP energy -198294.417244 kJ/mol
# GULP energy per Si atom -12393.401078 kJ/mol
# Density = 1.656030 g / cm^3
# Si number density = 16.598082 Si / 1000 Ang^3
#
#
#
# Elastic Constant Matrix: (Units=GPa)
#
#
# Indices 1 2 3 4 5 6 
#
# 1 133.0080 58.3526 41.1134 0.0000 1.6839 0.0000
# 2 58.3526 87.9913 23.5427 0.0000 0.9358 0.0000
# 3 41.1134 23.5427 66.1360 0.0000 9.8090 0.0000
# 4 0.0000 0.0000 0.0000 16.8762 0.0000 3.7993
# 5 1.6839 0.9358 9.8090 0.0000 19.9999 0.0000
# 6 0.0000 0.0000 0.0000 3.7993 0.0000 28.4172
#
#
#
# Elastic Compliance Matrix: (Units=1/GPa)
#
#
# Indices 1 2 3 4 5 6 
#
# 1 0.012055 -0.006557 -0.005452 0.000000 0.001965 0.000000
# 2 -0.006557 0.016183 -0.001784 0.000000 0.000670 0.000000
# 3 -0.005452 -0.001784 0.020559 0.000000 -0.009541 0.000000
# 4 0.000000 0.000000 0.000000 0.061094 0.000000 -0.008168
# 5 0.001965 0.000670 -0.009541 0.000000 0.054483 0.000000
# 6 0.000000 0.000000 0.000000 -0.008168 0.000000 0.036282
#
#
# Mechanical properties :
#
#
# Convention : Reuss Voigt Hill
#
# Bulk Modulus (GPa) = 47.14116 59.23920 53.19018
# Shear Modulus (GPa) = 21.24836 24.00043 22.62440
#
# Velocity S-wave (km/s) = 3.58183 3.80672 3.69599
# Velocity P-wave (km/s) = 6.75050 7.42222 7.09432
#
# Compressibility (1/GPa) = 0.02121288
#
# Stress axis : x y z
#
# Youngs Moduli (GPa) = 82.95224 61.79230 48.63944
#
# Poissons Ratio (x) = 0.40516 0.26516
# Poissons Ratio (y) = 0.54390 0.08678
# Poissons Ratio (z) = 0.45221 0.11025
#
# Static dielectric constant tensor:
#      x y z
#    x 3.006400 0.000000 0.069370 
#    y 0.000000 3.153080 0.000000 
#    z 0.069370 0.000000 2.813880 
# 
# 
# High freq. dielectric constant tensor:
#      x y z
#    x 1.625640 0.000000 0.009500 
#    y 0.000000 1.648500 0.000000 
#    z 0.009500 0.000000 1.598660 
# 
# From -- ./inp_files/24313.got.cif
#   From: 2010.03.12/outbox.cif.g09.slc.cpg/sg8_13_cif.got.tgz:24313.got - 2010.03.31 10:45:26.
