data_PCOD8052172
_publ_section_title
;
Structure prediction by ZEFSAII (Michael W. Deem and Ramdas Pophale) SiO2 
 PCOD8052172
Probable space group: C 2
;
_chemical_formula_sum "Si O2"
_cell_formula_units_Z 16
_cell_length_a 16.158137
_cell_length_b 10.222062
_cell_length_c 4.835390
_cell_angle_alpha 90.000000
_cell_angle_beta 50.860993
_cell_angle_gamma 90.000000
_cell_volume 619.453266
_symmetry_space_group_name_H-M "C 2"
_symmetry_group_IT_number 5
_symmetry_cell_setting 'monoclinic'
loop_
_space_group_symop_operation_xyz
x,y,z
-x,y,-z
1/2+x,1/2+y,z
1/2-x,1/2+y,-z
loop_
_atom_site_type_symbol
_atom_site_label
_atom_site_fract_x
_atom_site_fract_y
_atom_site_fract_z
Si Si1 0.691537 0.724030 0.558476
Si Si2 0.620146 0.870994 0.222497
Si Si3 0.000000 0.031833 0.000000
Si Si4 0.500000 0.354554 0.500000
Si Si5 0.102392 0.630874 0.590476
O O1 0.703314 0.789300 0.233928
O O2 0.600430 0.617407 0.707241
O O3 0.797946 0.648376 0.417251
O O4 0.658350 0.845289 0.829037
O O5 0.500000 0.814513 0.500000
O O6 0.621258 0.021526 0.316005
O O7 0.956180 0.944197 0.839300
O O8 0.591313 0.263963 0.439897
O O9 0.000000 0.596902 0.000000
#
# Coordination Sequence:
#
# PCOD8052172 Si02
#       5
#     4   4   2   2   4
#     4  12  29  47  81 112 151 201 256 316 381 447
#     4  12  25  52  77 112 149 200 260 316 372 454
#     4  12  26  52  74 112 152 200 250 316 380 454
#     4  12  28  48  74 108 160 196 248 306 388 452
#     4  12  30  51  77 115 158 205 253 316 385 458
#
# _framework density 25.829225000000001
#
# number of rings (size 3 to 8) (size 9 to 14) (size 15 to 20)
#    0.000    0.000    5.000    3.000   10.500    0.000 
#    0.000    0.000    0.000    0.000    0.000    0.000 
#    0.000    0.000    0.000    0.000    0.000    0.000 
#
# Total GULP energy -99210.867740 kJ/mol
# GULP energy per Si atom -12401.358467 kJ/mol
# Density = 2.577044 g / cm^3
# Si number density = 25.829225 Si / 1000 Ang^3
#
#
#
# Elastic Constant Matrix: (Units=GPa)
#
#
# Indices 1 2 3 4 5 6 
#
# 1 134.7144 26.0123 12.2113 0.0000 -7.2593 0.0000
# 2 26.0123 125.1724 15.9137 0.0000 8.9307 0.0000
# 3 12.2113 15.9137 48.5316 0.0000 3.3495 0.0000
# 4 0.0000 0.0000 0.0000 2.8864 0.0000 -24.7382
# 5 -7.2593 8.9307 3.3495 0.0000 54.9136 0.0000
# 6 0.0000 0.0000 0.0000 -24.7382 0.0000 -48.5820
#
#
#
# Elastic Compliance Matrix: (Units=1/GPa)
#
#
# Indices 1 2 3 4 5 6 
#
# 1 0.007941 -0.001548 -0.001587 0.000000 0.001398 0.000000
# 2 -0.001548 0.008717 -0.002367 0.000000 -0.001478 0.000000
# 3 -0.001587 -0.002367 0.021860 0.000000 -0.001158 0.000000
# 4 0.000000 0.000000 0.000000 0.064586 0.000000 -0.032888
# 5 0.001398 -0.001478 -0.001158 0.000000 0.018706 0.000000
# 6 0.000000 0.000000 0.000000 -0.032888 0.000000 -0.003837
#
#
# Mechanical properties :
#
#
# Convention : Reuss Voigt Hill
#
# Bulk Modulus (GPa) = 36.34418 46.29921 41.32170
# Shear Modulus (GPa) = 36.19263 18.79566 27.49415
#
# Velocity S-wave (km/s) = 3.74736 2.70050 3.26614
# Velocity P-wave (km/s) = 5.72932 5.26190 5.50058
#
# Compressibility (1/GPa) = 0.02751472
#
# Stress axis : x y z
#
# Youngs Moduli (GPa) = 125.92420 114.71723 45.74465
#
# Poissons Ratio (x) = 0.17762 0.07260
# Poissons Ratio (y) = 0.19497 0.10827
# Poissons Ratio (z) = 0.19984 0.27151
#
# Static dielectric constant tensor:
#      x y z
#    x 5.158930 0.000000 0.193410 
#    y 0.000000 4.727550 0.000000 
#    z 0.193410 0.000000 4.417630 
# 
# 
# High freq. dielectric constant tensor:
#      x y z
#    x 2.058090 0.000000 0.016470 
#    y 0.000000 2.043360 0.000000 
#    z 0.016470 0.000000 2.017180 
# 
# From -- ./inp_files/6563.got.cif
#   From: 2010.03.12/outbox.cif.g09.slc.cpg/sg5_4_cif.got.tgz:6563.got - 2010.03.31 09:47:26.
