data_PCOD8052822
_publ_section_title
;
Structure prediction by ZEFSAII (Michael W. Deem and Ramdas Pophale) SiO2 
 PCOD8052822
Probable space group: C M
;
_chemical_formula_sum "Si O2"
_cell_formula_units_Z 32
_cell_length_a 25.394490
_cell_length_b 8.655389
_cell_length_c 24.199643
_cell_angle_alpha 90.000000
_cell_angle_beta 17.930445
_cell_angle_gamma 90.000000
_cell_volume 1637.538203
_symmetry_space_group_name_H-M "C M"
_symmetry_group_IT_number 8
_symmetry_cell_setting 'monoclinic'
loop_
_space_group_symop_operation_xyz
x,y,z
x,-y,z
1/2+x,1/2+y,z
1/2+x,1/2-y,z
loop_
_atom_site_type_symbol
_atom_site_label
_atom_site_fract_x
_atom_site_fract_y
_atom_site_fract_z
Si Si1 0.143930 0.321192 0.389430
Si Si2 0.786006 0.682931 0.869218
Si Si3 0.667562 0.179820 0.489614
Si Si4 0.478295 0.684854 0.250811
Si Si5 0.659356 0.819262 0.764697
Si Si6 0.782156 0.319005 0.146536
Si Si7 0.283973 0.319843 0.755724
Si Si8 0.969877 0.184002 0.383548
O O1 0.090099 0.500000 0.437626
O O2 0.225190 0.290891 0.368731
O O3 0.276869 0.273070 0.209489
O O4 0.980223 0.213172 0.545069
O O5 0.793546 0.500000 0.863110
O O6 0.723014 0.730664 0.871179
O O7 0.977104 0.750825 0.690412
O O8 0.651007 0.746420 0.048831
O O9 0.811062 0.253491 0.386376
O O10 0.657243 0.000000 0.513193
O O11 0.475919 0.500000 0.251435
O O12 0.476934 0.749820 0.314398
O O13 0.676625 0.757807 0.810260
O O14 0.800577 0.746469 0.582373
O O15 0.698605 0.000000 0.727164
O O16 0.467993 0.784144 0.934007
O O17 0.760470 0.500000 0.180636
O O18 0.637787 0.258470 0.248644
O O19 0.256425 0.500000 0.793762
O O20 0.966342 0.000000 0.384771
#
# Coordination Sequence:
#
# PCOD8052822 Si02
#       8
#     4   4   4   4   4   4   4   4
#     4  10  19  32  51  76 106 136 168 208 257 305
#     4   9  18  31  48  74 103 130 167 210 254 301
#     4   8  16  29  43  67 101 128 158 203 249 299
#     4   9  17  29  49  73 101 135 167 207 255 297
#     4   9  18  30  47  74 103 132 168 209 252 300
#     4  10  19  32  51  75 104 134 169 212 254 302
#     4  10  18  32  52  74 106 139 168 207 254 302
#     4   9  17  31  49  73 102 132 171 214 253 296
#
# _framework density 19.541528
#
# number of rings (size 3 to 8) (size 9 to 14) (size 15 to 20)
#    0.000    2.750    1.250    1.500    1.750    1.000 
#    0.000    5.625    0.000    0.750    0.000    0.000 
#    0.000    0.000    0.000    0.000    0.000    0.000 
#
# Total GULP energy -198316.959098 kJ/mol
# GULP energy per Si atom -12394.809944 kJ/mol
# Density = 1.949705 g / cm^3
# Si number density = 19.541528 Si / 1000 Ang^3
#
#
#
# Elastic Constant Matrix: (Units=GPa)
#
#
# Indices 1 2 3 4 5 6 
#
# 1 159.0726 12.5673 100.7840 -0.0121 4.4868 0.0012
# 2 12.5673 10.0452 10.5019 -0.0607 -1.0523 0.0164
# 3 100.7840 10.5019 158.2298 -0.0299 4.8660 0.0087
# 4 -0.0121 -0.0607 -0.0299 13.9041 0.0158 3.2734
# 5 4.4868 -1.0523 4.8660 0.0158 31.1386 -0.0017
# 6 0.0012 0.0164 0.0087 3.2734 -0.0017 19.0003
#
#
#
# Elastic Compliance Matrix: (Units=1/GPa)
#
#
# Indices 1 2 3 4 5 6 
#
# 1 0.010987 -0.007027 -0.006507 -0.000038 -0.000804 0.000015
# 2 -0.007027 0.112173 -0.003132 0.000514 0.005292 -0.000183
# 3 -0.006507 -0.003132 0.010698 0.000005 -0.000840 -0.000003
# 4 -0.000038 0.000514 0.000005 0.074964 -0.000017 -0.012915
# 5 -0.000804 0.005292 -0.000840 -0.000017 0.032540 0.000002
# 6 0.000015 -0.000183 -0.000003 -0.012915 0.000002 0.054856
#
#
# Mechanical properties :
#
#
# Convention : Reuss Voigt Hill
#
# Bulk Modulus (GPa) = 9.94760 63.89487 36.92124
# Shear Modulus (GPa) = 13.77184 26.37490 20.07337
#
# Velocity S-wave (km/s) = 2.65759 3.67779 3.20850
# Velocity P-wave (km/s) = 3.81032 7.12761 5.71495
#
# Compressibility (1/GPa) = 0.10052675
#
# Stress axis : x y z
#
# Youngs Moduli (GPa) = 91.01756 8.91477 93.47352
#
# Poissons Ratio (x) = 0.06264 0.60823
# Poissons Ratio (y) = 0.63958 0.29275
# Poissons Ratio (z) = 0.59225 0.02792
#
# Static dielectric constant tensor:
#      x y z
#    x 3.722560 0.000000 -0.016780 
#    y 0.000000 2.989820 0.000000 
#    z -0.016780 0.000000 3.776530 
# 
# 
# High freq. dielectric constant tensor:
#      x y z
#    x 1.760200 0.000000 -0.000650 
#    y 0.000000 1.701050 0.000000 
#    z -0.000650 0.000000 1.768020 
# 
# From -- ./inp_files/32333.got.cif
#   From: 2010.03.12/outbox.cif.g09.slc.cpg/sg8_17_cif.got.tgz:32333.got - 2010.03.31 10:45:26.
