data_PCOD8052365
_publ_section_title
;
Structure prediction by ZEFSAII (Michael W. Deem and Ramdas Pophale) SiO2 
 PCOD8052365
Probable space group: P M
;
_chemical_formula_sum "Si O2"
_cell_formula_units_Z 16
_cell_length_a 9.133323
_cell_length_b 8.697370
_cell_length_c 21.525467
_cell_angle_alpha 90.000000
_cell_angle_beta 151.459400
_cell_angle_gamma 90.000000
_cell_volume 816.955799
_symmetry_space_group_name_H-M "P M"
_symmetry_group_IT_number 6
_symmetry_cell_setting 'monoclinic'
loop_
_space_group_symop_operation_xyz
x,y,z
x,-y,z
loop_
_atom_site_type_symbol
_atom_site_label
_atom_site_fract_x
_atom_site_fract_y
_atom_site_fract_z
Si Si1 0.844250 0.174158 0.878600
Si Si2 0.416490 0.181316 0.425027
Si Si3 0.626171 0.678385 0.377079
Si Si4 0.266416 0.176335 0.592544
Si Si5 0.680448 0.680208 0.641759
Si Si6 0.733788 0.820711 0.182460
Si Si7 0.236323 0.674276 0.925175
Si Si8 0.338503 0.176710 0.154054
O O1 0.477376 0.194781 0.733711
O O2 0.003517 0.299966 0.895139
O O3 0.936496 0.000000 0.891208
O O4 0.980712 0.196870 0.999179
O O5 0.529598 0.217046 0.398419
O O6 0.635832 0.269335 0.554486
O O7 0.074207 0.249355 0.307225
O O8 0.435974 0.000000 0.444104
O O9 0.594885 0.500000 0.382316
O O10 0.400530 0.716195 0.235872
O O11 0.974611 0.714958 0.488794
O O12 0.456336 0.222193 0.602306
O O13 0.159012 0.000000 0.544682
O O14 0.612939 0.500000 0.626347
O O15 0.039351 0.716946 0.790425
O O16 0.559442 0.768535 0.179992
O O17 0.768809 0.000000 0.192868
O O18 0.544709 0.772156 0.050246
O O19 0.345803 0.500000 0.964852
O O20 0.408279 0.000000 0.197740
#
# Coordination Sequence:
#
# PCOD8052365 Si02
#       8
#     2   2   2   2   2   2   2   2
#     4   8  16  31  54  81 107 134 172 220 264 308
#     4  11  23  39  57  77 104 144 187 226 267 317
#     4  12  25  38  52  76 110 146 181 224 273 320
#     4  10  19  35  59  84 108 141 182 221 263 317
#     4  10  20  35  56  85 114 140 174 220 269 318
#     4   9  19  35  57  82 106 135 177 223 264 310
#     4   9  17  29  51  82 113 139 167 209 264 318
#     4   9  17  34  58  83 108 135 172 219 266 320
#
# _framework density 19.584904000000002
#
# number of rings (size 3 to 8) (size 9 to 14) (size 15 to 20)
#    0.000    2.250    0.000    4.125    0.000    6.000 
#    0.000    1.250    0.000    1.500    0.000    0.000 
#    0.000    0.000    0.000    0.000    0.000    0.000 
#
# Total GULP energy -198327.542948 kJ/mol
# GULP energy per Si atom -12395.471434 kJ/mol
# Density = 1.954033 g / cm^3
# Si number density = 19.584904 Si / 1000 Ang^3
#
#
#
# Elastic Constant Matrix: (Units=GPa)
#
#
# Indices 1 2 3 4 5 6 
#
# 1 49.6681 11.6417 31.1114 0.0000 -17.2168 0.0000
# 2 11.6417 46.9367 30.9075 0.0000 -7.5049 0.0000
# 3 31.1114 30.9075 130.9831 0.0000 -31.9847 0.0000
# 4 0.0000 0.0000 0.0000 30.9652 0.0000 -3.3411
# 5 -17.2168 -7.5049 -31.9847 0.0000 16.4361 0.0000
# 6 0.0000 0.0000 0.0000 -3.3411 0.0000 23.7914
#
#
#
# Elastic Compliance Matrix: (Units=1/GPa)
#
#
# Indices 1 2 3 4 5 6 
#
# 1 0.032182 -0.003529 0.001957 0.000000 0.035908 0.000000
# 2 -0.003529 0.025612 -0.006197 0.000000 -0.004062 0.000000
# 3 0.001957 -0.006197 0.016085 0.000000 0.030523 0.000000
# 4 0.000000 0.000000 0.000000 0.032791 0.000000 0.004605
# 5 0.035908 -0.004062 0.030523 0.000000 0.155998 0.000000
# 6 0.000000 0.000000 0.000000 0.004605 0.000000 0.042679
#
#
# Mechanical properties :
#
#
# Convention : Reuss Voigt Hill
#
# Bulk Modulus (GPa) = 17.14081 41.65658 29.39870
# Shear Modulus (GPa) = 14.69152 24.50035 19.59593
#
# Velocity S-wave (km/s) = 2.74185 3.54076 3.16660
# Velocity P-wave (km/s) = 4.33529 6.16700 5.33041
#
# Compressibility (1/GPa) = 0.05834029
#
# Stress axis : x y z
#
# Youngs Moduli (GPa) = 31.07344 39.04426 62.16831
#
# Poissons Ratio (x) = 0.13780 -0.12168
# Poissons Ratio (y) = 0.10967 0.38527
# Poissons Ratio (z) = -0.06082 0.24196
#
# Static dielectric constant tensor:
#      x y z
#    x 3.137380 0.000000 -0.042910 
#    y 0.000000 3.483830 0.000000 
#    z -0.042910 0.000000 4.099830 
# 
# 
# High freq. dielectric constant tensor:
#      x y z
#    x 1.711020 0.000000 -0.009970 
#    y 0.000000 1.761970 0.000000 
#    z -0.009970 0.000000 1.789590 
# 
# From -- ./inp_files/3781.got.cif
#   From: 2010.03.12/outbox.cif.g09.slc.cpg/sg6_2_cif.got.tgz:3781.got - 2010.03.30 10:24:59.
