data_PCOD8052082
_publ_section_title
;
Structure prediction by ZEFSAII (Michael W. Deem and Ramdas Pophale) SiO2 
 PCOD8052082
Probable space group: C 2
;
_chemical_formula_sum "Si O2"
_cell_formula_units_Z 26
_cell_length_a 30.385260
_cell_length_b 5.290554
_cell_length_c 8.578296
_cell_angle_alpha 90.000000
_cell_angle_beta 69.691716
_cell_angle_gamma 90.000000
_cell_volume 1293.282246
_symmetry_space_group_name_H-M "C 2"
_symmetry_group_IT_number 5
_symmetry_cell_setting 'monoclinic'
loop_
_space_group_symop_operation_xyz
x,y,z
-x,y,-z
1/2+x,1/2+y,z
1/2-x,1/2+y,-z
loop_
_atom_site_type_symbol
_atom_site_label
_atom_site_fract_x
_atom_site_fract_y
_atom_site_fract_z
Si Si1 0.873675 0.203600 0.484848
Si Si2 0.622955 0.247934 0.153604
Si Si3 0.000000 0.476508 0.500000
Si Si4 0.412838 0.203068 0.459170
Si Si5 0.270060 0.228304 0.048266
Si Si6 0.235143 0.202831 0.433069
Si Si7 0.415615 0.748456 0.768610
O O1 0.893264 0.464007 0.383855
O O2 0.820052 0.158962 0.511179
O O3 0.881498 0.225333 0.660585
O O4 0.904339 0.966689 0.378616
O O5 0.618436 0.224580 0.345663
O O6 0.590915 0.484336 0.131093
O O7 0.602346 0.986818 0.105874
O O8 0.675750 0.296761 0.038087
O O9 0.967312 0.658996 0.435687
O O10 0.969131 0.294060 0.648380
O O11 0.259719 0.160789 0.238296
O O12 0.240990 0.478234 0.038356
O O13 0.244876 0.486959 0.478337
#
# Coordination Sequence:
#
# PCOD8052082 Si02
#       7
#     4   4   2   4   4   4   4
#     4   9  17  31  45  65  99 143 170 217 274 318
#     4   9  17  28  43  69  98 135 169 217 263 319
#     4   8  16  26  44  76 110 144 162 218 292 348
#     4   9  16  27  47  72 106 133 174 219 280 334
#     4  12  22  37  60  81 108 152 201 236 290 349
#     4  12  25  39  56  82 116 153 201 247 280 331
#     4   9  17  28  47  72 108 134 174 220 281 335
#
# _framework density 20.103888000000001
#
# number of rings (size 3 to 8) (size 9 to 14) (size 15 to 20)
#    0.000    2.462    0.000    6.462    0.000    9.846 
#    0.000    0.000    0.000    0.000    0.000    0.000 
#    0.000  128.000    0.000    0.308    0.000    0.000 
#
# Total GULP energy -161069.936651 kJ/mol
# GULP energy per Si atom -12389.995127 kJ/mol
# Density = 2.005813 g / cm^3
# Si number density = 20.103888 Si / 1000 Ang^3
#
#
#
# Elastic Constant Matrix: (Units=GPa)
#
#
# Indices 1 2 3 4 5 6 
#
# 1 114.6730 43.7442 34.6412 0.0000 -37.0707 0.0000
# 2 43.7442 202.3542 18.1109 0.0000 -20.7242 0.0000
# 3 34.6412 18.1109 34.4681 0.0000 -14.2295 0.0000
# 4 0.0000 0.0000 0.0000 19.5756 0.0000 -2.9308
# 5 -37.0707 -20.7242 -14.2295 0.0000 29.7951 0.0000
# 6 0.0000 0.0000 0.0000 -2.9308 0.0000 39.2156
#
#
#
# Elastic Compliance Matrix: (Units=1/GPa)
#
#
# Indices 1 2 3 4 5 6 
#
# 1 0.017457 -0.001217 -0.010324 0.000000 0.015943 0.000000
# 2 -0.001217 0.005476 -0.000880 0.000000 0.001874 0.000000
# 3 -0.010324 -0.000880 0.042717 0.000000 0.006944 0.000000
# 4 0.000000 0.000000 0.000000 0.051662 0.000000 0.003861
# 5 0.015943 0.001874 0.006944 0.000000 0.058019 0.000000
# 6 0.000000 0.000000 0.000000 0.003861 0.000000 0.025789
#
#
# Mechanical properties :
#
#
# Convention : Reuss Voigt Hill
#
# Bulk Modulus (GPa) = 24.50502 60.49868 42.50185
# Shear Modulus (GPa) = 20.87120 34.71720 27.79420
#
# Velocity S-wave (km/s) = 3.22556 4.16009 3.72227
# Velocity P-wave (km/s) = 5.10764 7.29613 6.29768
#
# Compressibility (1/GPa) = 0.04080796
#
# Stress axis : x y z
#
# Youngs Moduli (GPa) = 57.28206 182.62696 23.40982
#
# Poissons Ratio (x) = 0.22227 0.24168
# Poissons Ratio (y) = 0.06972 0.02061
# Poissons Ratio (z) = 0.59137 0.16077
#
# Static dielectric constant tensor:
#      x y z
#    x 3.434580 0.000000 -0.276410 
#    y 0.000000 6.019820 0.000000 
#    z -0.276410 0.000000 3.049180 
# 
# 
# High freq. dielectric constant tensor:
#      x y z
#    x 1.766380 0.000000 -0.040140 
#    y 0.000000 1.829900 0.000000 
#    z -0.040140 0.000000 1.717280 
# 
# From -- ./inp_files/32035.got.cif
#   From: 2010.03.12/outbox.cif.g09.slc.cpg/sg5_17_cif.got.tgz:32035.got - 2010.03.31 09:47:26.
