data_PCOD8052728
_publ_section_title
;
Structure prediction by ZEFSAII (Michael W. Deem and Ramdas Pophale) SiO2 
 PCOD8052728
Probable space group: C M
;
_chemical_formula_sum "Si O2"
_cell_formula_units_Z 32
_cell_length_a 24.638477
_cell_length_b 9.021397
_cell_length_c 11.485633
_cell_angle_alpha 90.000000
_cell_angle_beta 47.682864
_cell_angle_gamma 90.000000
_cell_volume 1887.728467
_symmetry_space_group_name_H-M "C M"
_symmetry_group_IT_number 8
_symmetry_cell_setting 'monoclinic'
loop_
_space_group_symop_operation_xyz
x,y,z
x,-y,z
1/2+x,1/2+y,z
1/2+x,1/2-y,z
loop_
_atom_site_type_symbol
_atom_site_label
_atom_site_fract_x
_atom_site_fract_y
_atom_site_fract_z
Si Si1 0.469150 0.168797 0.609530
Si Si2 0.269854 0.334848 0.139649
Si Si3 0.431512 0.665269 0.882921
Si Si4 0.361014 0.175928 0.180731
Si Si5 0.030104 0.169430 0.309846
Si Si6 0.194552 0.829372 0.048645
Si Si7 0.818526 0.669764 0.696456
Si Si8 0.884837 0.173567 0.389247
O O1 0.480552 0.255680 0.714210
O O2 0.524393 0.232652 0.433866
O O3 0.385716 0.185370 0.688290
O O4 0.490641 0.000000 0.601649
O O5 0.243257 0.500000 0.213364
O O6 0.284418 0.237185 0.235589
O O7 0.347339 0.343929 0.958208
O O8 0.209507 0.261230 0.144555
O O9 0.462750 0.500000 0.861611
O O10 0.430164 0.758843 0.006067
O O11 0.366220 0.231166 0.304036
O O12 0.362309 0.000000 0.174137
O O13 0.968208 0.213455 0.305612
O O14 0.018545 0.000000 0.365449
O O15 0.109574 0.194618 0.136744
O O16 0.244620 0.776597 0.868554
O O17 0.212818 0.000000 0.049874
O O18 0.811637 0.500000 0.662890
O O19 0.829269 0.777327 0.571213
O O20 0.874613 0.000000 0.378042
#
# Coordination Sequence:
#
# PCOD8052728 Si02
#       8
#     4   4   4   4   4   4   4   4
#     4  10  17  28  47  72  99 127 161 203 245 283
#     4   9  18  29  47  74  99 124 155 198 245 286
#     4   9  17  28  46  72  98 122 153 196 244 289
#     4  10  18  30  49  72  96 124 162 205 245 287
#     4   9  20  33  48  70 102 138 163 194 242 293
#     4  10  18  32  51  73 101 132 164 197 241 295
#     4   9  17  28  46  69  93 123 162 203 240 282
#     4  10  19  32  48  70  98 128 164 202 242 287
#
# _framework density 16.951589999999999
#
# number of rings (size 3 to 8) (size 9 to 14) (size 15 to 20)
#    0.750    1.750    1.250    2.250    0.000    2.000 
#    0.000    0.000    0.000    1.500    0.000    3.500 
#    0.000    0.000    0.000    0.000    0.000    0.000 
#
# Total GULP energy -198312.268424 kJ/mol
# GULP energy per Si atom -12394.516777 kJ/mol
# Density = 1.691301 g / cm^3
# Si number density = 16.951590 Si / 1000 Ang^3
#
#
#
# Elastic Constant Matrix: (Units=GPa)
#
#
# Indices 1 2 3 4 5 6 
#
# 1 67.9926 42.6061 43.2874 0.0000 11.6018 0.0000
# 2 42.6061 124.3781 45.7886 0.0000 17.6489 0.0000
# 3 43.2874 45.7886 90.9370 0.0000 3.9753 0.0000
# 4 0.0000 0.0000 0.0000 28.5222 0.0000 7.8672
# 5 11.6018 17.6489 3.9753 0.0000 26.5149 0.0000
# 6 0.0000 0.0000 0.0000 7.8672 0.0000 23.8328
#
#
#
# Elastic Compliance Matrix: (Units=1/GPa)
#
#
# Indices 1 2 3 4 5 6 
#
# 1 0.024184 -0.003953 -0.009235 0.000000 -0.006566 0.000000
# 2 -0.003953 0.011512 -0.003680 0.000000 -0.005382 0.000000
# 3 -0.009235 -0.003680 0.017073 0.000000 0.003930 0.000000
# 4 0.000000 0.000000 0.000000 0.038572 0.000000 -0.012733
# 5 -0.006566 -0.005382 0.003930 0.000000 0.043581 0.000000
# 6 0.000000 0.000000 0.000000 -0.012733 0.000000 0.046162
#
#
# Mechanical properties :
#
#
# Convention : Reuss Voigt Hill
#
# Bulk Modulus (GPa) = 52.53396 60.74131 56.63764
# Shear Modulus (GPa) = 22.60755 25.88235 24.24495
#
# Velocity S-wave (km/s) = 3.65588 3.91172 3.78596
# Velocity P-wave (km/s) = 6.99132 7.50414 7.25226
#
# Compressibility (1/GPa) = 0.01903531
#
# Stress axis : x y z
#
# Youngs Moduli (GPa) = 41.34939 86.86264 58.57046
#
# Poissons Ratio (x) = 0.34337 0.54087
# Poissons Ratio (y) = 0.16346 0.21553
# Poissons Ratio (z) = 0.38184 0.31964
#
# Static dielectric constant tensor:
#      x y z
#    x 2.826130 0.000000 0.032120 
#    y 0.000000 3.250530 0.000000 
#    z 0.032120 0.000000 3.006190 
# 
# 
# High freq. dielectric constant tensor:
#      x y z
#    x 1.615250 0.000000 0.012490 
#    y 0.000000 1.667000 0.000000 
#    z 0.012490 0.000000 1.636960 
# 
# From -- ./inp_files/23598.got.cif
#   From: 2010.03.12/outbox.cif.g09.slc.cpg/sg8_12_cif.got.tgz:23598.got - 2010.03.31 10:45:26.
