data_PCOD8052816
_publ_section_title
;
Structure prediction by ZEFSAII (Michael W. Deem and Ramdas Pophale) SiO2 
 PCOD8052816
Probable space group: C M
;
_chemical_formula_sum "Si O2"
_cell_formula_units_Z 32
_cell_length_a 20.606351
_cell_length_b 8.831129
_cell_length_c 22.995739
_cell_angle_alpha 90.000000
_cell_angle_beta 156.274015
_cell_angle_gamma 90.000000
_cell_volume 1683.769898
_symmetry_space_group_name_H-M "C M"
_symmetry_group_IT_number 8
_symmetry_cell_setting 'monoclinic'
loop_
_space_group_symop_operation_xyz
x,y,z
x,-y,z
1/2+x,1/2+y,z
1/2+x,1/2-y,z
loop_
_atom_site_type_symbol
_atom_site_label
_atom_site_fract_x
_atom_site_fract_y
_atom_site_fract_z
Si Si1 0.842710 0.179716 0.187860
Si Si2 0.015940 0.677849 0.976091
Si Si3 0.080077 0.676215 0.158251
Si Si4 0.671838 0.821914 0.499176
Si Si5 0.446397 0.666475 0.151564
Si Si6 0.909170 0.321131 0.465225
Si Si7 0.296990 0.167191 0.494721
Si Si8 0.215442 0.179923 0.656582
O O1 0.992601 0.261554 0.340940
O O2 0.828984 0.219706 0.107619
O O3 0.866964 0.000000 0.216533
O O4 0.681472 0.244254 0.085375
O O5 0.020603 0.500000 0.970234
O O6 0.860813 0.744060 0.815657
O O7 0.002575 0.719551 0.032904
O O8 0.124219 0.500000 0.198576
O O9 0.946498 0.717403 0.097690
O O10 0.240986 0.772886 0.298472
O O11 0.795110 0.780956 0.547716
O O12 0.741492 0.747520 0.614296
O O13 0.665440 0.000000 0.501450
O O14 0.395673 0.500000 0.086917
O O15 0.621273 0.657473 0.323241
O O16 0.929863 0.500000 0.473552
O O17 0.913900 0.277990 0.538100
O O18 0.048705 0.232576 0.547389
O O19 0.348694 0.000000 0.559151
O O20 0.215094 0.000000 0.652351
#
# Coordination Sequence:
#
# PCOD8052816 Si02
#       8
#     4   4   4   4   4   4   4   4
#     4   9  17  34  57  77 100 133 173 212 253 304
#     4   9  20  36  53  73  98 134 178 215 248 300
#     4  10  18  31  54  80 104 133 169 209 256 308
#     4  11  21  33  53  82 109 133 170 216 259 306
#     4   8  15  28  49  77 105 131 163 208 256 302
#     4  10  20  35  55  81 108 133 170 216 258 305
#     4   8  16  32  53  76 104 136 169 209 256 305
#     4  11  22  37  54  72 102 143 180 213 256 306
#
# _framework density 19.004973
#
# number of rings (size 3 to 8) (size 9 to 14) (size 15 to 20)
#    0.000    2.500    0.000    4.500    0.000    6.000 
#    0.000    5.625    0.000    4.500    0.000    0.000 
#    0.000    0.000    0.000    0.000    0.000    0.000 
#
# Total GULP energy -198341.488092 kJ/mol
# GULP energy per Si atom -12396.343006 kJ/mol
# Density = 1.896172 g / cm^3
# Si number density = 19.004973 Si / 1000 Ang^3
#
#
#
# Elastic Constant Matrix: (Units=GPa)
#
#
# Indices 1 2 3 4 5 6 
#
# 1 106.6796 40.7184 38.1510 -0.0010 -36.5756 -0.0005
# 2 40.7184 82.0890 35.0491 -0.0009 -15.6441 -0.0005
# 3 38.1510 35.0491 79.7416 -0.0021 -25.3419 -0.0012
# 4 -0.0010 -0.0009 -0.0021 13.3776 -0.0011 -7.2937
# 5 -36.5756 -15.6441 -25.3419 -0.0011 19.7294 -0.0006
# 6 -0.0005 -0.0005 -0.0012 -7.2937 -0.0006 32.1557
#
#
#
# Elastic Compliance Matrix: (Units=1/GPa)
#
#
# Indices 1 2 3 4 5 6 
#
# 1 0.029431 -0.006577 0.007591 0.000010 0.059095 0.000004
# 2 -0.006577 0.016868 -0.006576 -0.000001 -0.007265 -0.000001
# 3 0.007591 -0.006576 0.024695 0.000010 0.040578 0.000004
# 4 0.000010 -0.000001 0.000010 0.085301 0.000036 0.019348
# 5 0.059095 -0.007265 0.040578 0.000036 0.206600 0.000014
# 6 0.000004 -0.000001 0.000004 0.019348 0.000014 0.035487
#
#
# Mechanical properties :
#
#
# Convention : Reuss Voigt Hill
#
# Bulk Modulus (GPa) = 16.70342 55.14968 35.92655
# Shear Modulus (GPa) = 11.64246 23.35865 17.50056
#
# Velocity S-wave (km/s) = 2.47776 3.50963 3.03783
# Velocity P-wave (km/s) = 4.12235 6.74573 5.59011
#
# Compressibility (1/GPa) = 0.05986798
#
# Stress axis : x y z
#
# Youngs Moduli (GPa) = 33.97801 59.28532 40.49444
#
# Poissons Ratio (x) = 0.38994 -0.30738
# Poissons Ratio (y) = 0.22349 0.26629
# Poissons Ratio (z) = -0.25792 0.38986
#
# Static dielectric constant tensor:
#      x y z
#    x 4.056530 0.000000 -0.128380 
#    y 0.000000 3.362550 0.000000 
#    z -0.128380 0.000000 3.246900 
# 
# 
# High freq. dielectric constant tensor:
#      x y z
#    x 1.759000 0.000000 -0.014550 
#    y 0.000000 1.726290 0.000000 
#    z -0.014550 0.000000 1.701410 
# 
# From -- ./inp_files/31347.got.cif
#   From: 2010.03.12/outbox.cif.g09.slc.cpg/sg8_16_cif.got.tgz:31347.got - 2010.03.31 10:45:26.
