data_PCOD8052866
_publ_section_title
;
Structure prediction by ZEFSAII (Michael W. Deem and Ramdas Pophale) SiO2 
 PCOD8052866
Probable space group: C M
;
_chemical_formula_sum "Si O2"
_cell_formula_units_Z 32
_cell_length_a 15.542854
_cell_length_b 8.888401
_cell_length_c 12.014342
_cell_angle_alpha 90.000000
_cell_angle_beta 90.092090
_cell_angle_gamma 90.000000
_cell_volume 1659.792648
_symmetry_space_group_name_H-M "C M"
_symmetry_group_IT_number 8
_symmetry_cell_setting 'monoclinic'
loop_
_space_group_symop_operation_xyz
x,y,z
x,-y,z
1/2+x,1/2+y,z
1/2+x,1/2-y,z
loop_
_atom_site_type_symbol
_atom_site_label
_atom_site_fract_x
_atom_site_fract_y
_atom_site_fract_z
Si Si1 0.032630 0.321022 0.936810
Si Si2 0.868097 0.321198 0.326272
Si Si3 0.934692 0.321575 0.559810
Si Si4 0.373844 0.822515 0.793951
Si Si5 0.181685 0.823428 0.794925
Si Si6 0.131164 0.675991 0.571212
Si Si7 0.030275 0.320972 0.188161
Si Si8 0.192230 0.676219 0.327519
O O1 0.034649 0.500000 0.934202
O O2 0.115824 0.263507 0.872507
O O3 0.945528 0.258361 0.878883
O O4 0.034741 0.259309 0.062432
O O5 0.863861 0.500000 0.324713
O O6 0.887452 0.257861 0.450234
O O7 0.777900 0.256321 0.283342
O O8 0.942746 0.261777 0.244426
O O9 0.929843 0.500000 0.556273
O O10 0.889835 0.254774 0.670435
O O11 0.033326 0.270078 0.558604
O O12 0.278301 0.781783 0.836016
O O13 0.385625 0.000000 0.785458
O O14 0.175134 0.773012 0.667289
O O15 0.163983 0.000000 0.803363
O O16 0.136073 0.500000 0.601873
O O17 0.179702 0.713350 0.457193
O O18 0.030769 0.500000 0.191066
O O19 0.112040 0.259151 0.256838
O O20 0.201287 0.500000 0.307237
#
# Coordination Sequence:
#
# PCOD8052866 Si02
#       8
#     4   4   4   4   4   4   4   4
#     4  10  20  38  60  77 101 146 194 223 256 321
#     4  10  19  34  57  82 107 142 184 223 264 320
#     4   9  15  29  55  79 101 137 181 216 253 313
#     4   9  18  32  53  77 103 138 177 216 264 320
#     4  11  22  35  54  84 115 137 171 230 283 317
#     4  10  18  33  58  80 107 147 184 213 259 330
#     4   9  19  36  58  80 104 143 192 226 255 314
#     4  10  20  35  55  83 114 142 175 223 274 317
#
# _framework density 19.279516999999998
#
# number of rings (size 3 to 8) (size 9 to 14) (size 15 to 20)
#    0.000    2.250    2.500    1.125    0.000    2.500 
#    0.000    5.000    0.000    0.000    0.000    0.000 
#    0.000    0.000    0.000    0.000    0.000    0.000 
#
# Total GULP energy -198392.807657 kJ/mol
# GULP energy per Si atom -12399.550479 kJ/mol
# Density = 1.923564 g / cm^3
# Si number density = 19.279517 Si / 1000 Ang^3
#
#
#
# Elastic Constant Matrix: (Units=GPa)
#
#
# Indices 1 2 3 4 5 6 
#
# 1 166.5068 22.0158 72.4942 0.0000 -3.0516 0.0000
# 2 22.0158 18.0943 21.2266 0.0000 0.3180 0.0000
# 3 72.4942 21.2266 141.5424 0.0000 -1.6904 0.0000
# 4 0.0000 0.0000 0.0000 11.0304 0.0000 -2.4824
# 5 -3.0516 0.3180 -1.6904 0.0000 15.7880 0.0000
# 6 0.0000 0.0000 0.0000 -2.4824 0.0000 28.1641
#
#
#
# Elastic Compliance Matrix: (Units=1/GPa)
#
#
# Indices 1 2 3 4 5 6 
#
# 1 0.008291 -0.006249 -0.003293 0.000000 0.001376 0.000000
# 2 -0.006249 0.071868 -0.007619 0.000000 -0.003471 0.000000
# 3 -0.003293 -0.007619 0.009901 0.000000 0.000577 0.000000
# 4 0.000000 0.000000 0.000000 0.092493 0.000000 0.008153
# 5 0.001376 -0.003471 0.000577 0.000000 0.063737 0.000000
# 6 0.000000 0.000000 0.000000 0.008153 0.000000 0.036225
#
#
# Mechanical properties :
#
#
# Convention : Reuss Voigt Hill
#
# Bulk Modulus (GPa) = 17.94084 61.95741 39.94913
# Shear Modulus (GPa) = 14.90691 25.02362 19.96526
#
# Velocity S-wave (km/s) = 2.78366 3.60660 3.22152
# Velocity P-wave (km/s) = 4.43368 7.03915 5.88248
#
# Compressibility (1/GPa) = 0.05573875
#
# Stress axis : x y z
#
# Youngs Moduli (GPa) = 120.61473 13.91442 101.00079
#
# Poissons Ratio (x) = 0.08695 0.33257
# Poissons Ratio (y) = 0.75373 0.76948
# Poissons Ratio (z) = 0.39716 0.10601
#
# Static dielectric constant tensor:
#      x y z
#    x 3.698330 0.000000 0.084390 
#    y 0.000000 3.006670 0.000000 
#    z 0.084390 0.000000 3.719880 
# 
# 
# High freq. dielectric constant tensor:
#      x y z
#    x 1.767250 0.000000 0.000080 
#    y 0.000000 1.700470 0.000000 
#    z 0.000080 0.000000 1.752380 
# 
# From -- ./inp_files/21529.got.cif
#   From: 2010.03.12/outbox.cif.g09.slc.cpg/sg8_11_cif.got.tgz:21529.got - 2010.03.31 10:45:26.
