data_PCOD8052226
_publ_section_title
;
Structure prediction by ZEFSAII (Michael W. Deem and Ramdas Pophale) SiO2 
 PCOD8052226
Probable space group: P M
;
_chemical_formula_sum "Si O2"
_cell_formula_units_Z 16
_cell_length_a 11.458588
_cell_length_b 8.914124
_cell_length_c 17.149504
_cell_angle_alpha 90.000000
_cell_angle_beta 147.978722
_cell_angle_gamma 90.000000
_cell_volume 928.814634
_symmetry_space_group_name_H-M "P M"
_symmetry_group_IT_number 6
_symmetry_cell_setting 'monoclinic'
loop_
_space_group_symop_operation_xyz
x,y,z
x,-y,z
loop_
_atom_site_type_symbol
_atom_site_label
_atom_site_fract_x
_atom_site_fract_y
_atom_site_fract_z
Si Si1 0.458120 0.324225 0.688920
Si Si2 0.695744 0.670341 0.354071
Si Si3 0.996584 0.828422 0.407105
Si Si4 0.846104 0.174495 0.988265
Si Si5 0.073706 0.170025 0.277194
Si Si6 0.521663 0.327206 0.550405
Si Si7 0.634947 0.824429 0.471060
Si Si8 0.262125 0.328093 0.181914
O O1 0.447319 0.500000 0.699650
O O2 0.213362 0.260375 0.555830
O O3 0.606938 0.244162 0.838111
O O4 0.568314 0.289794 0.667161
O O5 0.780729 0.500000 0.398333
O O6 0.776200 0.742088 0.482931
O O7 0.426147 0.677933 0.199468
O O8 0.786605 0.762487 0.333058
O O9 0.943712 0.813254 0.285413
O O10 0.030526 0.000000 0.450945
O O11 0.843573 0.000000 0.966170
O O12 0.905138 0.206348 0.111906
O O13 0.022721 0.257190 0.031248
O O14 0.269380 0.288321 0.389511
O O15 0.168496 0.000000 0.323223
O O16 0.561415 0.500000 0.553967
O O17 0.689557 0.232989 0.589735
O O18 0.376941 0.775826 0.313807
O O19 0.672198 0.000000 0.485027
O O20 0.239238 0.500000 0.197725
#
# Coordination Sequence:
#
# PCOD8052226 Si02
#       8
#     2   2   2   2   2   2   2   2
#     4  10  22  35  49  71 105 140 169 205 251 302
#     4   9  18  31  49  74 101 130 166 207 248 295
#     4  10  19  33  52  75 101 131 169 211 251 295
#     4  11  20  32  51  76 104 134 168 206 252 305
#     4   9  18  30  48  72  98 128 164 209 251 294
#     4  10  18  30  48  72  99 130 166 207 251 296
#     4  10  17  27  47  74  99 125 158 203 248 290
#     4   9  18  30  48  74 101 128 160 204 248 295
#
# _framework density 17.226258000000001
#
# number of rings (size 3 to 8) (size 9 to 14) (size 15 to 20)
#    0.750    1.500    1.250    3.000    0.000    2.500 
#    0.000    0.000    0.000    1.500    0.000    3.500 
#    0.000    0.000    0.000    0.000    0.000    0.000 
#
# Total GULP energy -198265.228985 kJ/mol
# GULP energy per Si atom -12391.576812 kJ/mol
# Density = 1.718705 g / cm^3
# Si number density = 17.226258 Si / 1000 Ang^3
#
#
#
# Elastic Constant Matrix: (Units=GPa)
#
#
# Indices 1 2 3 4 5 6 
#
# 1 90.6610 40.1975 23.9967 0.0000 -1.4549 0.0000
# 2 40.1975 105.2106 31.5240 0.0000 -3.8944 0.0000
# 3 23.9967 31.5240 72.2446 0.0000 -5.0097 0.0000
# 4 0.0000 0.0000 0.0000 23.9904 0.0000 2.4890
# 5 -1.4549 -3.8944 -5.0097 0.0000 16.9234 0.0000
# 6 0.0000 0.0000 0.0000 2.4890 0.0000 31.1995
#
#
#
# Elastic Compliance Matrix: (Units=1/GPa)
#
#
# Indices 1 2 3 4 5 6 
#
# 1 0.013700 -0.004465 -0.002646 0.000000 -0.000633 0.000000
# 2 -0.004465 0.012411 -0.003840 0.000000 0.001335 0.000000
# 3 -0.002646 -0.003840 0.016661 0.000000 0.003821 0.000000
# 4 0.000000 0.000000 0.000000 0.042031 0.000000 -0.003353
# 5 -0.000633 0.001335 0.003821 0.000000 0.060474 0.000000
# 6 0.000000 0.000000 0.000000 -0.003353 0.000000 0.032319
#
#
# Mechanical properties :
#
#
# Convention : Reuss Voigt Hill
#
# Bulk Modulus (GPa) = 47.91518 51.06140 49.48829
# Shear Modulus (GPa) = 24.21841 25.91586 25.06713
#
# Velocity S-wave (km/s) = 3.75360 3.88292 3.81881
# Velocity P-wave (km/s) = 6.83093 7.05753 6.94515
#
# Compressibility (1/GPa) = 0.02087021
#
# Stress axis : x y z
#
# Youngs Moduli (GPa) = 72.99265 80.57675 60.01943
#
# Poissons Ratio (x) = 0.35976 0.15883
# Poissons Ratio (y) = 0.32590 0.23046
# Poissons Ratio (z) = 0.19316 0.30939
#
# Static dielectric constant tensor:
#      x y z
#    x 3.252620 0.000000 -0.146170 
#    y 0.000000 3.288320 0.000000 
#    z -0.146170 0.000000 2.828140 
# 
# 
# High freq. dielectric constant tensor:
#      x y z
#    x 1.662040 0.000000 -0.009300 
#    y 0.000000 1.684590 0.000000 
#    z -0.009300 0.000000 1.613500 
# 
# From -- ./inp_files/4503.got.cif
#   From: 2010.03.12/outbox.cif.g09.slc.cpg/sg6_3_cif.got.tgz:4503.got - 2010.03.30 10:24:59.
