data_PCOD8052069
_publ_section_title
;
Structure prediction by ZEFSAII (Michael W. Deem and Ramdas Pophale) SiO2 
 PCOD8052069
Probable space group: C 2
;
_chemical_formula_sum "Si O2"
_cell_formula_units_Z 18
_cell_length_a 21.409777
_cell_length_b 5.724873
_cell_length_c 9.488379
_cell_angle_alpha 90.000000
_cell_angle_beta 140.670337
_cell_angle_gamma 90.000000
_cell_volume 737.071342
_symmetry_space_group_name_H-M "C 2"
_symmetry_group_IT_number 5
_symmetry_cell_setting 'monoclinic'
loop_
_space_group_symop_operation_xyz
x,y,z
-x,y,-z
1/2+x,1/2+y,z
1/2-x,1/2+y,-z
loop_
_atom_site_type_symbol
_atom_site_label
_atom_site_fract_x
_atom_site_fract_y
_atom_site_fract_z
Si Si1 0.320535 0.009470 0.935868
Si Si2 0.336650 0.181454 0.273694
Si Si3 0.780546 0.226399 0.485598
Si Si4 0.500000 0.538908 0.500000
Si Si5 0.470734 0.863359 0.697890
O O1 0.266664 0.217861 0.754901
O O2 0.259934 0.767470 0.808906
O O3 0.313198 0.041311 0.091155
O O4 0.432140 0.989588 0.068442
O O5 0.399218 0.401507 0.333464
O O6 0.401540 0.044308 0.497875
O O7 0.745349 0.471759 0.492735
O O8 0.900588 0.236934 0.690125
O O9 0.517740 0.686362 0.670387
#
# Coordination Sequence:
#
# PCOD8052069 Si02
#       5
#     4   4   4   2   4
#     4  12  24  46  79 106 150 204 238 312 396 436
#     4  12  23  44  73 121 150 179 244 318 394 459
#     4  12  30  54  74 106 156 210 265 305 350 456
#     4  12  20  42  76 114 154 174 230 328 384 444
#     4  12  25  49  74 113 152 187 249 318 384 455
#
# _framework density 24.420971999999999
#
# number of rings (size 3 to 8) (size 9 to 14) (size 15 to 20)
#    0.000    0.000    6.667    4.000    0.000    2.667 
#    0.000    6.667    0.000    0.000    0.000    0.000 
#    0.000    0.000    0.000    0.000    0.000    0.000 
#
# Total GULP energy -111535.330949 kJ/mol
# GULP energy per Si atom -12392.814550 kJ/mol
# Density = 2.436539 g / cm^3
# Si number density = 24.420972 Si / 1000 Ang^3
#
#
#
# Elastic Constant Matrix: (Units=GPa)
#
#
# Indices 1 2 3 4 5 6 
#
# 1 85.4719 37.1284 32.0875 0.0000 27.1773 0.0000
# 2 37.1284 124.6098 36.2263 0.0000 13.8698 0.0000
# 3 32.0875 36.2263 131.8472 0.0000 37.9298 0.0000
# 4 0.0000 0.0000 0.0000 56.6620 0.0000 -1.4157
# 5 27.1773 13.8698 37.9298 0.0000 32.6310 0.0000
# 6 0.0000 0.0000 0.0000 -1.4157 0.0000 53.2322
#
#
#
# Elastic Compliance Matrix: (Units=1/GPa)
#
#
# Indices 1 2 3 4 5 6 
#
# 1 0.017497 -0.003904 0.000795 0.000000 -0.013838 0.000000
# 2 -0.003904 0.009635 -0.002185 0.000000 0.001696 0.000000
# 3 0.000795 -0.002185 0.011891 0.000000 -0.013556 0.000000
# 4 0.000000 0.000000 0.000000 0.017660 0.000000 0.000470
# 5 -0.013838 0.001696 -0.013556 0.000000 0.057206 0.000000
# 6 0.000000 0.000000 0.000000 0.000470 0.000000 0.018798
#
#
# Mechanical properties :
#
#
# Convention : Reuss Voigt Hill
#
# Bulk Modulus (GPa) = 35.16827 61.42370 48.29598
# Shear Modulus (GPa) = 32.73229 44.27082 38.50156
#
# Velocity S-wave (km/s) = 3.66503 4.26234 3.97492
# Velocity P-wave (km/s) = 5.68701 7.03065 6.39422
#
# Compressibility (1/GPa) = 0.02843472
#
# Stress axis : x y z
#
# Youngs Moduli (GPa) = 57.15209 103.79026 84.09709
#
# Poissons Ratio (x) = 0.40524 -0.06689
# Poissons Ratio (y) = 0.22314 0.18376
# Poissons Ratio (z) = -0.04546 0.22679
#
# Static dielectric constant tensor:
#      x y z
#    x 4.552500 0.000000 0.376130 
#    y 0.000000 4.619870 0.000000 
#    z 0.376130 0.000000 4.379570 
# 
# 
# High freq. dielectric constant tensor:
#      x y z
#    x 1.967410 0.000000 0.017500 
#    y 0.000000 1.977070 0.000000 
#    z 0.017500 0.000000 1.980420 
# 
# From -- ./inp_files/46871.got.cif
#   From: 2010.03.12/outbox.cif.g09.slc.cpg/sg5_24_cif.got.tgz:46871.got - 2010.03.31 09:47:26.
