data_PCOD8052471
_publ_section_title
;
Structure prediction by ZEFSAII (Michael W. Deem and Ramdas Pophale) SiO2 
 PCOD8052471
Probable space group: P M
;
_chemical_formula_sum "Si O2"
_cell_formula_units_Z 16
_cell_length_a 8.754200
_cell_length_b 17.367659
_cell_length_c 9.784665
_cell_angle_alpha 90.000000
_cell_angle_beta 30.401872
_cell_angle_gamma 90.000000
_cell_volume 752.848152
_symmetry_space_group_name_H-M "P M"
_symmetry_group_IT_number 6
_symmetry_cell_setting 'monoclinic'
loop_
_space_group_symop_operation_xyz
x,y,z
x,-y,z
loop_
_atom_site_type_symbol
_atom_site_label
_atom_site_fract_x
_atom_site_fract_y
_atom_site_fract_z
Si Si1 0.223550 0.090486 0.221190
Si Si2 0.906749 0.656882 0.267202
Si Si3 0.948173 0.167536 0.182271
Si Si4 0.822345 0.667558 0.823112
Si Si5 0.300877 0.168447 0.630231
Si Si6 0.863584 0.156872 0.738363
Si Si7 0.469605 0.331541 0.375164
Si Si8 0.546840 0.590495 0.784366
O O1 0.148501 0.113718 0.123933
O O2 0.951820 0.118636 0.526848
O O3 0.263836 0.000000 0.199079
O O4 0.528439 0.130888 0.036767
O O5 0.899539 0.749084 0.288943
O O6 0.679638 0.625510 0.324331
O O7 0.818427 0.618723 0.478829
O O8 0.241793 0.630813 0.968913
O O9 0.620961 0.126239 0.411803
O O10 0.114950 0.179332 0.911314
O O11 0.870962 0.750930 0.716410
O O12 0.621809 0.613742 0.881690
O O13 0.149575 0.626245 0.593449
O O14 0.655836 0.679373 0.093930
O O15 0.385117 0.250001 0.502792
O O16 0.090679 0.125499 0.681253
O O17 0.507038 0.500000 0.806066
#
# Coordination Sequence:
#
# PCOD8052471 Si02
#       8
#     2   2   2   2   2   2   2   2
#     4  12  25  40  57  87 125 160 197 241 290 351
#     4  11  21  40  64  88 116 155 199 245 295 349
#     4  11  21  39  65  90 117 153 198 246 296 350
#     4  11  21  39  65  90 117 153 198 246 296 350
#     4  10  20  37  63  93 117 144 196 254 295 344
#     4  11  21  40  64  88 116 155 199 245 295 349
#     4  10  20  37  63  93 117 144 196 254 295 344
#     4  12  25  40  57  87 125 160 197 241 290 351
#
# _framework density 21.252627
#
# number of rings (size 3 to 8) (size 9 to 14) (size 15 to 20)
#    0.000    1.000    0.000   11.250    0.000    0.000 
#    0.000    7.500    0.000    0.000    0.000    0.000 
#    0.000    0.000    0.000    0.000    0.000    0.000 
#
# Total GULP energy -198449.138875 kJ/mol
# GULP energy per Si atom -12403.071180 kJ/mol
# Density = 2.120425 g / cm^3
# Si number density = 21.252627 Si / 1000 Ang^3
#
#
#
# Elastic Constant Matrix: (Units=GPa)
#
#
# Indices 1 2 3 4 5 6 
#
# 1 128.1845 15.3080 42.5229 0.0000 -11.0190 0.0000
# 2 15.3080 26.7828 10.3949 0.0000 -0.5842 0.0000
# 3 42.5229 10.3949 93.3771 0.0000 -11.2434 0.0000
# 4 0.0000 0.0000 0.0000 10.5832 0.0000 -2.8194
# 5 -11.0190 -0.5842 -11.2434 0.0000 47.3149 0.0000
# 6 0.0000 0.0000 0.0000 -2.8194 0.0000 5.2843
#
#
#
# Elastic Compliance Matrix: (Units=1/GPa)
#
#
# Indices 1 2 3 4 5 6 
#
# 1 0.009650 -0.004016 -0.003791 0.000000 0.001297 0.000000
# 2 -0.004016 0.040709 -0.002836 0.000000 -0.001107 0.000000
# 3 -0.003791 -0.002836 0.013013 0.000000 0.002174 0.000000
# 4 0.000000 0.000000 0.000000 0.110146 0.000000 0.058769
# 5 0.001297 -0.001107 0.002174 0.000000 0.021940 0.000000
# 6 0.000000 0.000000 0.000000 0.058769 0.000000 0.220597
#
#
# Mechanical properties :
#
#
# Convention : Reuss Voigt Hill
#
# Bulk Modulus (GPa) = 23.76094 42.75511 33.25802
# Shear Modulus (GPa) = 11.07735 24.64437 17.86086
#
# Velocity S-wave (km/s) = 2.28551 3.40897 2.90212
# Velocity P-wave (km/s) = 4.26254 5.97127 5.18774
#
# Compressibility (1/GPa) = 0.04208588
#
# Stress axis : x y z
#
# Youngs Moduli (GPa) = 103.62686 24.56434 76.84418
#
# Poissons Ratio (x) = 0.09865 0.29134
# Poissons Ratio (y) = 0.41614 0.21796
# Poissons Ratio (z) = 0.39288 0.06967
#
# Static dielectric constant tensor:
#      x y z
#    x 4.561540 0.000000 -0.450830 
#    y 0.000000 3.392870 0.000000 
#    z -0.450830 0.000000 4.040940 
# 
# 
# High freq. dielectric constant tensor:
#      x y z
#    x 1.856590 0.000000 -0.009240 
#    y 0.000000 1.785850 0.000000 
#    z -0.009240 0.000000 1.854600 
# 
# From -- ./inp_files/3244.got.cif
#   From: 2010.03.12/outbox.cif.g09.slc.cpg/sg6_2_cif.got.tgz:3244.got - 2010.03.30 10:24:59.
