data_PCOD8052752
_publ_section_title
;
Structure prediction by ZEFSAII (Michael W. Deem and Ramdas Pophale) SiO2 
 PCOD8052752
Probable space group: C M
;
_chemical_formula_sum "Si O2"
_cell_formula_units_Z 22
_cell_length_a 17.031047
_cell_length_b 7.616299
_cell_length_c 23.882929
_cell_angle_alpha 90.000000
_cell_angle_beta 23.800657
_cell_angle_gamma 90.000000
_cell_volume 1250.191382
_symmetry_space_group_name_H-M "C M"
_symmetry_group_IT_number 8
_symmetry_cell_setting 'monoclinic'
loop_
_space_group_symop_operation_xyz
x,y,z
x,-y,z
1/2+x,1/2+y,z
1/2+x,1/2-y,z
loop_
_atom_site_type_symbol
_atom_site_label
_atom_site_fract_x
_atom_site_fract_y
_atom_site_fract_z
Si Si1 0.433598 0.000000 0.654698
Si Si2 0.065903 0.000000 0.172373
Si Si3 0.520449 0.500000 0.978551
Si Si4 0.348061 0.500000 0.430768
Si Si5 0.919633 0.691468 0.969682
Si Si6 0.320315 0.500000 0.221934
Si Si7 0.950410 0.306133 0.446226
Si Si8 0.809577 0.200314 0.657712
O O1 0.248250 0.000000 0.816563
O O2 0.439783 0.828050 0.611177
O O3 0.615634 0.000000 0.577314
O O4 0.938642 0.000000 0.310765
O O5 0.206537 0.173468 0.079471
O O6 0.920985 0.000000 0.215813
O O7 0.412083 0.330942 0.024156
O O8 0.489176 0.500000 0.065284
O O9 0.416985 0.674444 0.417309
O O10 0.973623 0.500000 0.960808
O O11 0.082173 0.743517 0.817674
O O12 0.182805 0.326883 0.306182
O O13 0.864321 0.500000 0.487329
O O14 0.843728 0.232833 0.570392
O O15 0.863696 0.000000 0.637512
#
# Coordination Sequence:
#
# PCOD8052752 Si02
#       8
#     2   2   2   2   4   2   4   4
#     4  10  22  34  60  88 111 143 186 233 268 327
#     4  10  20  38  56  80 116 138 187 237 267 324
#     4  10  18  38  59  78 114 145 182 218 281 331
#     4  12  22  38  57  82 113 149 185 234 277 319
#     4   8  19  32  60  82 106 147 177 222 273 329
#     4  10  22  38  56  80 110 151 182 232 275 325
#     4  10  22  35  57  82 109 151 186 225 278 330
#     4  10  17  36  58  85 112 144 185 220 280 331
#
# _framework density 17.597306
#
# number of rings (size 3 to 8) (size 9 to 14) (size 15 to 20)
#    1.091    1.091    1.818    2.182    0.000    2.182 
#    0.000    0.909    0.000    0.000    0.000    0.000 
#    0.000    0.000    0.000    0.000    0.000    0.000 
#
# Total GULP energy -136326.191892 kJ/mol
# GULP energy per Si atom -12393.290172 kJ/mol
# Density = 1.755725 g / cm^3
# Si number density = 17.597306 Si / 1000 Ang^3
#
#
#
# Elastic Constant Matrix: (Units=GPa)
#
#
# Indices 1 2 3 4 5 6 
#
# 1 136.2320 58.7922 66.9532 -0.0028 -0.4775 0.0011
# 2 58.7922 120.2913 33.2976 0.0517 1.2583 0.0059
# 3 66.9532 33.2976 96.8489 0.0538 6.1956 0.0061
# 4 -0.0028 0.0517 0.0538 22.0938 -0.0021 -0.4202
# 5 -0.4775 1.2583 6.1956 -0.0021 38.6920 -0.0033
# 6 0.0011 0.0059 0.0061 -0.4202 -0.0033 20.5698
#
#
#
# Elastic Compliance Matrix: (Units=1/GPa)
#
#
# Indices 1 2 3 4 5 6 
#
# 1 0.012876 -0.004220 -0.007547 0.000030 0.001505 0.000004
# 2 -0.004220 0.010572 -0.000699 -0.000024 -0.000284 -0.000003
# 3 -0.007547 -0.000699 0.015951 -0.000039 -0.002625 -0.000005
# 4 0.000030 -0.000024 -0.000039 0.045279 0.000010 0.000925
# 5 0.001505 -0.000284 -0.002625 0.000010 0.026293 0.000005
# 6 0.000004 -0.000003 -0.000005 0.000925 0.000005 0.048634
#
#
# Mechanical properties :
#
#
# Convention : Reuss Voigt Hill
#
# Bulk Modulus (GPa) = 69.12277 74.60647 71.86462
# Shear Modulus (GPa) = 26.40488 29.22641 27.81565
#
# Velocity S-wave (km/s) = 3.87784 4.07977 3.98009
# Velocity P-wave (km/s) = 7.70816 8.04247 7.87709
#
# Compressibility (1/GPa) = 0.01446701
#
# Stress axis : x y z
#
# Youngs Moduli (GPa) = 77.66595 94.58827 62.69256
#
# Poissons Ratio (x) = 0.39914 0.47312
# Poissons Ratio (y) = 0.32773 0.04385
# Poissons Ratio (z) = 0.58612 0.06616
#
# Static dielectric constant tensor:
#      x y z
#    x 2.928150 0.000000 0.020670 
#    y 0.000000 3.405200 0.000010 
#    z 0.020670 0.000010 3.354080 
# 
# 
# High freq. dielectric constant tensor:
#      x y z
#    x 1.651030 0.000000 0.011610 
#    y 0.000000 1.681980 0.000000 
#    z 0.011610 0.000000 1.694420 
# 
# From -- ./inp_files/30618.got.cif
#   From: 2010.03.12/outbox.cif.g09.slc.cpg/sg8_16_cif.got.tgz:30618.got - 2010.03.31 10:45:26.
