data_PCOD8052800
_publ_section_title
;
Structure prediction by ZEFSAII (Michael W. Deem and Ramdas Pophale) SiO2 
 PCOD8052800
Probable space group: C M
;
_chemical_formula_sum "Si O2"
_cell_formula_units_Z 32
_cell_length_a 23.359607
_cell_length_b 8.681248
_cell_length_c 28.056780
_cell_angle_alpha 90.000000
_cell_angle_beta 18.913090
_cell_angle_gamma 90.000000
_cell_volume 1844.206360
_symmetry_space_group_name_H-M "C M"
_symmetry_group_IT_number 8
_symmetry_cell_setting 'monoclinic'
loop_
_space_group_symop_operation_xyz
x,y,z
x,-y,z
1/2+x,1/2+y,z
1/2+x,1/2-y,z
loop_
_atom_site_type_symbol
_atom_site_label
_atom_site_fract_x
_atom_site_fract_y
_atom_site_fract_z
Si Si1 0.955760 0.820144 0.904920
Si Si2 0.651768 0.317330 0.842603
Si Si3 0.063966 0.317471 0.195930
Si Si4 0.627002 0.681406 0.050162
Si Si5 0.232975 0.319619 0.499061
Si Si6 0.089040 0.672317 0.985704
Si Si7 0.948850 0.172150 0.659700
Si Si8 0.510628 0.320282 0.756264
O O1 0.067608 0.748237 0.860429
O O2 0.055413 0.786417 0.776588
O O3 0.940971 0.000000 0.925858
O O4 0.755523 0.754988 0.062074
O O5 0.660444 0.500000 0.835990
O O6 0.531388 0.258775 0.982124
O O7 0.852344 0.251292 0.690043
O O8 0.064690 0.500000 0.187947
O O9 0.015292 0.236162 0.183918
O O10 0.919917 0.267433 0.348218
O O11 0.656369 0.500000 0.027234
O O12 0.524181 0.732527 0.082978
O O13 0.811740 0.768920 0.904458
O O14 0.265162 0.500000 0.471933
O O15 0.112987 0.271485 0.548567
O O16 0.146657 0.274879 0.617230
O O17 0.008701 0.500000 0.050026
O O18 0.304424 0.664988 0.816224
O O19 0.013189 0.000000 0.595544
O O20 0.529386 0.500000 0.729111
#
# Coordination Sequence:
#
# PCOD8052800 Si02
#       8
#     4   4   4   4   4   4   4   4
#     4   8  17  32  52  75  98 128 168 204 244 295
#     4   9  15  28  49  75  99 123 162 213 249 282
#     4  10  21  36  52  71 102 140 166 197 247 308
#     4  11  19  30  48  75 102 127 163 210 250 287
#     4  12  22  33  49  76 104 131 166 209 254 296
#     4   9  17  28  45  71  98 127 160 196 243 293
#     4   9  18  30  47  72  98 129 162 198 245 296
#     4  10  18  31  50  71  97 133 169 203 244 297
#
# _framework density 17.351637
#
# number of rings (size 3 to 8) (size 9 to 14) (size 15 to 20)
#    0.750    1.500    1.250    4.500    0.000    0.000 
#    0.000    7.500    0.000    1.500    0.000    7.000 
#    0.000    0.000    0.000    0.000    0.000    0.000 
#
# Total GULP energy -198285.097638 kJ/mol
# GULP energy per Si atom -12392.818602 kJ/mol
# Density = 1.731214 g / cm^3
# Si number density = 17.351637 Si / 1000 Ang^3
#
#
#
# Elastic Constant Matrix: (Units=GPa)
#
#
# Indices 1 2 3 4 5 6 
#
# 1 114.6870 33.2833 26.5010 -0.0033 4.2555 -0.0127
# 2 33.2833 69.9022 -0.0570 0.0526 -3.5882 -0.0913
# 3 26.5010 -0.0570 57.7585 0.0184 1.8580 -0.0366
# 4 -0.0033 0.0526 0.0184 24.1836 -0.0132 4.3010
# 5 4.2555 -3.5882 1.8580 -0.0132 16.1402 0.0067
# 6 -0.0127 -0.0913 -0.0366 4.3010 0.0067 22.4464
#
#
#
# Elastic Compliance Matrix: (Units=1/GPa)
#
#
# Indices 1 2 3 4 5 6 
#
# 1 0.011763 -0.005799 -0.005281 0.000021 -0.003783 -0.000028
# 2 -0.005799 0.017331 0.002514 -0.000052 0.005092 0.000080
# 3 -0.005281 0.002514 0.019750 -0.000029 -0.000322 0.000045
# 4 0.000021 -0.000052 -0.000029 0.042809 0.000025 -0.008203
# 5 -0.003783 0.005092 -0.000322 0.000025 0.064124 -0.000006
# 6 -0.000028 0.000080 0.000045 -0.008203 -0.000006 0.046123
#
#
# Mechanical properties :
#
#
# Convention : Reuss Voigt Hill
#
# Bulk Modulus (GPa) = 31.53535 40.20024 35.86779
# Shear Modulus (GPa) = 21.77678 24.72873 23.25275
#
# Velocity S-wave (km/s) = 3.54648 3.77921 3.66470
# Velocity P-wave (km/s) = 5.91471 6.50089 6.21471
#
# Compressibility (1/GPa) = 0.03171045
#
# Stress axis : x y z
#
# Youngs Moduli (GPa) = 85.01122 57.70122 50.63413
#
# Poissons Ratio (x) = 0.33464 0.26741
# Poissons Ratio (y) = 0.49302 -0.12731
# Poissons Ratio (z) = 0.44897 -0.14508
#
# Static dielectric constant tensor:
#      x y z
#    x 3.403880 -0.000030 0.138130 
#    y -0.000030 3.151290 0.000090 
#    z 0.138130 0.000090 2.966660 
# 
# 
# High freq. dielectric constant tensor:
#      x y z
#    x 1.661910 0.000000 0.015680 
#    y 0.000000 1.676490 0.000010 
#    z 0.015680 0.000010 1.630140 
# 
# From -- ./inp_files/33102.got.cif
#   From: 2010.03.12/outbox.cif.g09.slc.cpg/sg8_17_cif.got.tgz:33102.got - 2010.03.31 10:45:26.
