data_PCOD8052818
_publ_section_title
;
Structure prediction by ZEFSAII (Michael W. Deem and Ramdas Pophale) SiO2 
 PCOD8052818
Probable space group: C M
;
_chemical_formula_sum "Si O2"
_cell_formula_units_Z 32
_cell_length_a 33.218714
_cell_length_b 9.235381
_cell_length_c 12.575199
_cell_angle_alpha 90.000000
_cell_angle_beta 153.690310
_cell_angle_gamma 90.000000
_cell_volume 1709.915275
_symmetry_space_group_name_H-M "C M"
_symmetry_group_IT_number 8
_symmetry_cell_setting 'monoclinic'
loop_
_space_group_symop_operation_xyz
x,y,z
x,-y,z
1/2+x,1/2+y,z
1/2+x,1/2-y,z
loop_
_atom_site_type_symbol
_atom_site_label
_atom_site_fract_x
_atom_site_fract_y
_atom_site_fract_z
Si Si1 0.066530 0.336706 0.952060
Si Si2 0.384005 0.671088 0.807810
Si Si3 0.578566 0.672189 0.337839
Si Si4 0.196917 0.333848 0.448628
Si Si5 0.891594 0.829106 0.589078
Si Si6 0.331617 0.169642 0.248237
Si Si7 0.636456 0.670462 0.706649
Si Si8 0.026826 0.665310 0.624483
O O1 0.026685 0.500000 0.873144
O O2 0.085656 0.313714 0.871852
O O3 0.995771 0.217534 0.823232
O O4 0.157177 0.316319 0.235349
O O5 0.393596 0.500000 0.828358
O O6 0.301679 0.717455 0.689914
O O7 0.362154 0.723341 0.636559
O O8 0.478441 0.735950 0.075620
O O9 0.581776 0.500000 0.338077
O O10 0.648616 0.732524 0.418312
O O11 0.606973 0.727440 0.521354
O O12 0.188733 0.500000 0.466998
O O13 0.828067 0.751636 0.352381
O O14 0.883260 0.000000 0.553549
O O15 0.422020 0.213884 0.396645
O O16 0.333465 0.000000 0.277063
O O17 0.241520 0.215985 0.971099
O O18 0.624518 0.500000 0.687601
O O19 0.569796 0.737314 0.635537
O O20 0.029855 0.500000 0.592776
#
# Coordination Sequence:
#
# PCOD8052818 Si02
#       8
#     4   4   4   4   4   4   4   4
#     4   9  18  33  54  79 114 148 175 219 276 325
#     4   9  19  34  54  80 110 142 177 221 275 324
#     4  10  21  40  57  77 112 148 183 227 274 318
#     4  10  20  35  56  81 109 145 185 222 269 327
#     4  10  18  31  56  83 110 143 180 222 271 326
#     4   9  20  38  54  77 112 148 179 221 277 324
#     4  10  22  38  58  79 108 149 187 225 271 321
#     4   9  19  35  55  78 109 143 180 225 271 321
#
# _framework density 18.714376999999999
#
# number of rings (size 3 to 8) (size 9 to 14) (size 15 to 20)
#    0.000    2.500    1.250    1.125    1.750    4.000 
#    0.000    1.875    0.000    0.000    0.000    0.000 
#    0.000    0.000    0.000    0.000    0.000    0.000 
#
# Total GULP energy -198364.709250 kJ/mol
# GULP energy per Si atom -12397.794328 kJ/mol
# Density = 1.867178 g / cm^3
# Si number density = 18.714377 Si / 1000 Ang^3
#
#
#
# Elastic Constant Matrix: (Units=GPa)
#
#
# Indices 1 2 3 4 5 6 
#
# 1 131.2438 32.8296 84.4715 0.0000 -6.3482 0.0000
# 2 32.8296 32.8856 35.1063 0.0000 -4.9382 0.0000
# 3 84.4715 35.1063 130.2127 0.0000 -3.9287 0.0000
# 4 0.0000 0.0000 0.0000 22.2440 0.0000 1.9983
# 5 -6.3482 -4.9382 -3.9287 0.0000 26.6381 0.0000
# 6 0.0000 0.0000 0.0000 1.9983 0.0000 33.8846
#
#
#
# Elastic Compliance Matrix: (Units=1/GPa)
#
#
# Indices 1 2 3 4 5 6 
#
# 1 0.013898 -0.005777 -0.007424 0.000000 0.001146 0.000000
# 2 -0.005777 0.046159 -0.008518 0.000000 0.005924 0.000000
# 3 -0.007424 -0.008518 0.014757 0.000000 -0.001172 0.000000
# 4 0.000000 0.000000 0.000000 0.045195 0.000000 -0.002665
# 5 0.001146 0.005924 -0.001172 0.000000 0.038739 0.000000
# 6 0.000000 0.000000 0.000000 -0.002665 0.000000 0.029669
#
#
# Mechanical properties :
#
#
# Convention : Reuss Voigt Hill
#
# Bulk Modulus (GPa) = 31.87211 66.57299 49.22255
# Shear Modulus (GPa) = 20.63436 26.01564 23.32500
#
# Velocity S-wave (km/s) = 3.32414 3.73251 3.53422
# Velocity P-wave (km/s) = 5.63923 7.36382 6.55846
#
# Compressibility (1/GPa) = 0.03137539
#
# Stress axis : x y z
#
# Youngs Moduli (GPa) = 71.95216 21.66429 67.76473
#
# Poissons Ratio (x) = 0.12516 0.50307
# Poissons Ratio (y) = 0.41568 0.57724
# Poissons Ratio (z) = 0.53416 0.18454
#
# Static dielectric constant tensor:
#      x y z
#    x 3.364090 0.000000 -0.110080 
#    y 0.000000 3.243570 0.000000 
#    z -0.110080 0.000000 3.769580 
# 
# 
# High freq. dielectric constant tensor:
#      x y z
#    x 1.721980 0.000000 -0.001610 
#    y 0.000000 1.707330 0.000000 
#    z -0.001610 0.000000 1.733620 
# 
# From -- ./inp_files/24822.got.cif
#   From: 2010.03.12/outbox.cif.g09.slc.cpg/sg8_13_cif.got.tgz:24822.got - 2010.03.31 10:45:26.
