data_PCOD8052586
_publ_section_title
;
Structure prediction by ZEFSAII (Michael W. Deem and Ramdas Pophale) SiO2 
 PCOD8052586
Probable space group: P C
;
_chemical_formula_sum "Si O2"
_cell_formula_units_Z 16
_cell_length_a 8.852654
_cell_length_b 18.478615
_cell_length_c 5.152127
_cell_angle_alpha 90.000000
_cell_angle_beta 62.674618
_cell_angle_gamma 90.000000
_cell_volume 748.763807
_symmetry_space_group_name_H-M "P C"
_symmetry_group_IT_number 7
_symmetry_cell_setting 'monoclinic'
loop_
_space_group_symop_operation_xyz
x,y,z
x,-y,1/2+z
loop_
_atom_site_type_symbol
_atom_site_label
_atom_site_fract_x
_atom_site_fract_y
_atom_site_fract_z
Si Si1 0.756900 0.805788 0.395700
Si Si2 0.259368 0.687980 0.362974
Si Si3 0.473871 0.310235 0.204985
Si Si4 0.056095 0.966340 0.689505
Si Si5 0.067250 0.455012 0.861410
Si Si6 0.977632 0.196662 0.228291
Si Si7 0.679096 0.029840 0.950014
Si Si8 0.671956 0.545721 0.679171
O O1 0.601147 0.751327 0.509210
O O2 0.836475 0.805107 0.617477
O O3 0.689993 0.885542 0.381422
O O4 0.892649 0.782392 0.069878
O O5 0.363162 0.670005 0.540929
O O6 0.177272 0.615385 0.318663
O O7 0.116660 0.744594 0.551735
O O8 0.368982 0.719659 0.036027
O O9 0.570249 0.380912 0.227655
O O10 0.070932 0.880212 0.672905
O O11 0.150004 0.002244 0.369691
O O12 0.861531 0.992814 0.867686
O O13 0.113382 0.485866 0.542676
O O14 0.869824 0.433619 0.023835
O O15 0.580188 0.988470 0.795513
O O16 0.622604 0.489681 0.492141
#
# Coordination Sequence:
#
# PCOD8052586 Si02
#       8
#     2   2   2   2   2   2   2   2
#     4  12  22  38  66  93 120 163 213 268 309 361
#     4  12  27  43  60  92 137 173 204 248 315 390
#     4  12  27  43  60  92 137 173 204 248 315 390
#     4  10  16  31  56  94 114 140 202 278 304 350
#     4  10  22  42  69  95 121 157 212 268 305 353
#     4  12  22  38  66  93 120 163 213 268 309 361
#     4  10  16  31  56  94 114 140 202 278 304 350
#     4  10  22  42  69  95 121 157 212 268 305 353
#
# _framework density 21.368554
#
# number of rings (size 3 to 8) (size 9 to 14) (size 15 to 20)
#    0.000    1.000    5.000    3.750    0.000    6.000 
#    0.000    0.000    0.000    4.500    0.000    0.000 
#    0.000    0.000    0.000    0.000    0.000    0.000 
#
# Total GULP energy -198412.627888 kJ/mol
# GULP energy per Si atom -12400.789243 kJ/mol
# Density = 2.131992 g / cm^3
# Si number density = 21.368554 Si / 1000 Ang^3
#
#
#
# Elastic Constant Matrix: (Units=GPa)
#
#
# Indices 1 2 3 4 5 6 
#
# 1 68.9321 44.1093 45.1736 0.0000 19.8539 0.0000
# 2 44.1093 101.1015 22.9008 0.0000 -15.2492 0.0000
# 3 45.1736 22.9008 98.8386 0.0000 26.0981 0.0000
# 4 0.0000 0.0000 0.0000 -93.5767 0.0000 142.4311
# 5 19.8539 -15.2492 26.0981 0.0000 35.9802 0.0000
# 6 0.0000 0.0000 0.0000 142.4311 0.0000 -137.3839
#
#
#
# Elastic Compliance Matrix: (Units=1/GPa)
#
#
# Indices 1 2 3 4 5 6 
#
# 1 0.037416 -0.018401 -0.006588 0.000000 -0.023666 0.000000
# 2 -0.018401 0.021518 -0.002059 0.000000 0.020767 0.000000
# 3 -0.006588 -0.002059 0.015926 0.000000 -0.008790 0.000000
# 4 0.000000 0.000000 0.000000 0.018489 0.000000 0.019168
# 5 -0.023666 0.020767 -0.008790 0.000000 0.056029 0.000000
# 6 0.000000 0.000000 0.000000 0.019168 0.000000 0.012593
#
#
# Mechanical properties :
#
#
# Convention : Reuss Voigt Hill
#
# Bulk Modulus (GPa) = 48.16153 54.80438 51.48296
# Shear Modulus (GPa) = 22.42260 -28.55018 -3.06379
#
# Velocity S-wave (km/s) = 3.24285 -3.65921 -1.19871
# Velocity P-wave (km/s) = 6.05052 2.80174 4.71480
#
# Compressibility (1/GPa) = 0.02076346
#
# Stress axis : x y z
#
# Youngs Moduli (GPa) = 26.72677 46.47263 62.78858
#
# Poissons Ratio (x) = 0.85516 0.41365
# Poissons Ratio (y) = 0.49181 0.12928
# Poissons Ratio (z) = 0.17608 0.09569
#
# Static dielectric constant tensor:
#      x y z
#    x 3.997340 0.000000 0.681530 
#    y 0.000000 3.805010 0.000000 
#    z 0.681530 0.000000 4.781230 
# 
# 
# High freq. dielectric constant tensor:
#      x y z
#    x 1.823790 0.000000 0.030340 
#    y 0.000000 1.844070 0.000000 
#    z 0.030340 0.000000 1.857220 
# 
# From -- ./inp_files/764.got.cif
#   From: 2010.03.12/outbox.cif.g09.slc.cpg/sg7_cif.got.tgz:764.got - 2010.03.30 08:40:41.
