data_PCOD8052984
_publ_section_title
;
Structure prediction by ZEFSAII (Michael W. Deem and Ramdas Pophale) SiO2 
 PCOD8052984
Probable space group: C M
;
_chemical_formula_sum "Si O2"
_cell_formula_units_Z 32
_cell_length_a 27.076026
_cell_length_b 8.758666
_cell_length_c 9.299489
_cell_angle_alpha 90.000000
_cell_angle_beta 49.725962
_cell_angle_gamma 90.000000
_cell_volume 1682.613998
_symmetry_space_group_name_H-M "C M"
_symmetry_group_IT_number 8
_symmetry_cell_setting 'monoclinic'
loop_
_space_group_symop_operation_xyz
x,y,z
x,-y,z
1/2+x,1/2+y,z
1/2+x,1/2-y,z
loop_
_atom_site_type_symbol
_atom_site_label
_atom_site_fract_x
_atom_site_fract_y
_atom_site_fract_z
Si Si1 0.862480 0.179802 0.298100
Si Si2 0.974140 0.678194 0.915783
Si Si3 0.098408 0.320226 0.868079
Si Si4 0.109997 0.181959 0.153248
Si Si5 0.383405 0.817272 0.563727
Si Si6 0.747872 0.333550 0.873977
Si Si7 0.501803 0.178650 0.536465
Si Si8 0.229727 0.831198 0.570068
O O1 0.891091 0.249651 0.390946
O O2 0.791289 0.241483 0.389333
O O3 0.857972 0.000000 0.323445
O O4 0.912020 0.225061 0.079623
O O5 0.958226 0.500000 0.964449
O O6 0.036969 0.725404 0.888125
O O7 0.987322 0.721389 0.726587
O O8 0.106371 0.500000 0.868873
O O9 0.162367 0.256414 0.668076
O O10 0.085197 0.251264 0.050256
O O11 0.065053 0.230055 0.369014
O O12 0.112993 0.000000 0.130130
O O13 0.182552 0.248129 0.054676
O O14 0.317483 0.751487 0.765431
O O15 0.442846 0.764435 0.548636
O O16 0.378544 0.000000 0.558995
O O17 0.751899 0.500000 0.939193
O O18 0.739229 0.348269 0.720436
O O19 0.514558 0.000000 0.491663
O O20 0.226254 0.000000 0.505839
#
# Coordination Sequence:
#
# PCOD8052984 Si02
#       8
#     4   4   4   4   4   4   4   4
#     4  11  21  33  54  82 108 136 174 216 260 314
#     4  10  22  38  52  71 106 147 181 217 262 309
#     4  10  19  33  55  80 106 138 177 218 260 308
#     4  10  19  32  52  77 105 134 167 213 266 315
#     4   9  17  33  56  77 100 133 174 216 258 306
#     4   7  13  27  48  73  97 123 157 201 250 299
#     4  10  21  36  53  73 101 140 180 217 260 309
#     4   9  17  32  54  79 107 135 168 214 266 314
#
# _framework density 19.018028000000001
#
# number of rings (size 3 to 8) (size 9 to 14) (size 15 to 20)
#    0.000    2.500    0.000    4.500    0.000    5.000 
#    0.000    1.875    0.000    1.500    0.000    0.000 
#    0.000    0.000    0.000    0.000    0.000    0.000 
#
# Total GULP energy -198311.226029 kJ/mol
# GULP energy per Si atom -12394.451627 kJ/mol
# Density = 1.897474 g / cm^3
# Si number density = 19.018028 Si / 1000 Ang^3
#
#
#
# Elastic Constant Matrix: (Units=GPa)
#
#
# Indices 1 2 3 4 5 6 
#
# 1 41.4812 21.2439 61.1301 0.0000 -18.9475 0.0000
# 2 21.2439 72.3763 42.1170 0.0000 -9.8766 0.0000
# 3 61.1301 42.1170 132.5616 0.0000 -27.0283 0.0000
# 4 0.0000 0.0000 0.0000 31.3210 0.0000 -7.9969
# 5 -18.9475 -9.8766 -27.0283 0.0000 32.2645 0.0000
# 6 0.0000 0.0000 0.0000 -7.9969 0.0000 18.8133
#
#
#
# Elastic Compliance Matrix: (Units=1/GPa)
#
#
# Indices 1 2 3 4 5 6 
#
# 1 0.085605 -0.002193 -0.034571 0.000000 0.020640 0.000000
# 2 -0.002193 0.017025 -0.004339 0.000000 0.000289 0.000000
# 3 -0.034571 -0.004339 0.024668 0.000000 -0.000966 0.000000
# 4 0.000000 0.000000 0.000000 0.035814 0.000000 0.015224
# 5 0.020640 0.000289 -0.000966 0.000000 0.042394 0.000000
# 6 0.000000 0.000000 0.000000 0.015224 0.000000 0.059625
#
#
# Mechanical properties :
#
#
# Convention : Reuss Voigt Hill
#
# Bulk Modulus (GPa) = 22.17710 55.04455 38.61082
# Shear Modulus (GPa) = 13.79816 24.60832 19.20324
#
# Velocity S-wave (km/s) = 2.69649 3.60105 3.18109
# Velocity P-wave (km/s) = 4.62398 6.80414 5.81710
#
# Compressibility (1/GPa) = 0.04509156
#
# Stress axis : x y z
#
# Youngs Moduli (GPa) = 11.68152 58.73851 40.53887
#
# Poissons Ratio (x) = 0.12879 1.40149
# Poissons Ratio (y) = 0.02561 0.17590
# Poissons Ratio (z) = 0.40385 0.25486
#
# Static dielectric constant tensor:
#      x y z
#    x 3.597430 0.000000 -0.463380 
#    y 0.000000 3.360700 0.000000 
#    z -0.463380 0.000000 3.554550 
# 
# 
# High freq. dielectric constant tensor:
#      x y z
#    x 1.729020 0.000000 -0.033680 
#    y 0.000000 1.725020 0.000000 
#    z -0.033680 0.000000 1.736270 
# 
# From -- ./inp_files/17327.got.cif
#   From: 2010.03.12/outbox.cif.g09.slc.cpg/sg8_9_cif.got.tgz:17327.got - 2010.03.31 10:45:26.
