data_PCOD8052649
_publ_section_title
;
Structure prediction by ZEFSAII (Michael W. Deem and Ramdas Pophale) SiO2 
 PCOD8052649
Probable space group: P C
;
_chemical_formula_sum "Si O2"
_cell_formula_units_Z 16
_cell_length_a 8.835525
_cell_length_b 14.917198
_cell_length_c 5.386437
_cell_angle_alpha 90.000000
_cell_angle_beta 95.198269
_cell_angle_gamma 90.000000
_cell_volume 707.019386
_symmetry_space_group_name_H-M "P C"
_symmetry_group_IT_number 7
_symmetry_cell_setting 'monoclinic'
loop_
_space_group_symop_operation_xyz
x,y,z
x,-y,1/2+z
loop_
_atom_site_type_symbol
_atom_site_label
_atom_site_fract_x
_atom_site_fract_y
_atom_site_fract_z
Si Si1 0.138920 0.054156 0.658570
Si Si2 0.677895 0.207410 0.133558
Si Si3 0.394329 0.168597 0.840441
Si Si4 0.958985 0.215037 0.449728
Si Si5 0.211608 0.707597 0.632621
Si Si6 0.482800 0.309782 0.475107
Si Si7 0.767447 0.350227 0.755802
Si Si8 0.054095 0.551313 0.367602
O O1 0.316952 0.084447 0.689604
O O2 0.034067 0.142632 0.643448
O O3 0.103159 0.000560 0.402243
O O4 0.836728 0.163943 0.249460
O O5 0.576388 0.231630 0.354054
O O6 0.567580 0.142914 0.951066
O O7 0.719590 0.298349 0.995598
O O8 0.397146 0.259703 0.684594
O O9 0.280956 0.197640 0.048653
O O10 0.868566 0.287559 0.594408
O O11 0.082819 0.268535 0.310942
O O12 0.350085 0.649826 0.780671
O O13 0.138983 0.647054 0.404300
O O14 0.609406 0.380913 0.594817
O O15 0.870689 0.435395 0.843487
O O16 0.102822 0.492371 0.613760
#
# Coordination Sequence:
#
# PCOD8052649 Si02
#       8
#     2   2   2   2   2   2   2   2
#     4  12  27  41  63  99 141 173 212 273 351 393
#     4   9  20  37  69  94 119 158 234 269 315 370
#     4  10  21  41  67  94 125 173 226 270 314 394
#     4  11  21  40  70  96 125 171 224 275 315 394
#     4  11  21  40  70  96 125 171 224 275 315 394
#     4   9  20  37  69  94 119 158 234 269 315 370
#     4  10  21  41  67  94 125 173 226 270 314 394
#     4  12  27  41  63  99 141 173 212 273 351 393
#
# _framework density 22.630213000000001
#
# number of rings (size 3 to 8) (size 9 to 14) (size 15 to 20)
#    0.000    1.500    2.500    2.250    7.000    0.000 
#    0.000    2.500    0.000    0.000    0.000    0.000 
#    0.000    0.000    0.000    0.000    0.000    0.000 
#
# Total GULP energy -198239.510325 kJ/mol
# GULP energy per Si atom -12389.969395 kJ/mol
# Density = 2.257871 g / cm^3
# Si number density = 22.630213 Si / 1000 Ang^3
#
#
#
# Elastic Constant Matrix: (Units=GPa)
#
#
# Indices 1 2 3 4 5 6 
#
# 1 125.9025 18.4897 34.8330 0.0000 31.6623 0.0000
# 2 18.4897 42.4508 19.9696 0.0000 2.7599 0.0000
# 3 34.8330 19.9696 100.5843 0.0000 15.3089 0.0000
# 4 0.0000 0.0000 0.0000 35.6145 0.0000 13.3795
# 5 31.6623 2.7599 15.3089 0.0000 48.3473 0.0000
# 6 0.0000 0.0000 0.0000 13.3795 0.0000 30.6466
#
#
#
# Elastic Compliance Matrix: (Units=1/GPa)
#
#
# Indices 1 2 3 4 5 6 
#
# 1 0.010508 -0.003204 -0.002084 0.000000 -0.006039 0.000000
# 2 -0.003204 0.026961 -0.004548 0.000000 0.001999 0.000000
# 3 -0.002084 -0.004548 0.011892 0.000000 -0.002141 0.000000
# 4 0.000000 0.000000 0.000000 0.033587 0.000000 -0.014663
# 5 -0.006039 0.001999 -0.002141 0.000000 0.025203 0.000000
# 6 0.000000 0.000000 0.000000 -0.014663 0.000000 0.039032
#
#
# Mechanical properties :
#
#
# Convention : Reuss Voigt Hill
#
# Bulk Modulus (GPa) = 33.67986 46.16913 39.92450
# Shear Modulus (GPa) = 28.28827 35.96471 32.12649
#
# Velocity S-wave (km/s) = 3.53940 3.99085 3.77188
# Velocity P-wave (km/s) = 5.62300 6.45613 6.05392
#
# Compressibility (1/GPa) = 0.02969133
#
# Stress axis : x y z
#
# Youngs Moduli (GPa) = 95.16114 37.08995 84.08795
#
# Poissons Ratio (x) = 0.11884 0.17523
# Poissons Ratio (y) = 0.30491 0.38239
# Poissons Ratio (z) = 0.19830 0.16867
#
# Static dielectric constant tensor:
#      x y z
#    x 4.700160 0.000000 0.544370 
#    y 0.000000 3.572270 0.000000 
#    z 0.544370 0.000000 4.387040 
# 
# 
# High freq. dielectric constant tensor:
#      x y z
#    x 1.917450 0.000000 0.018220 
#    y 0.000000 1.821600 0.000000 
#    z 0.018220 0.000000 1.914490 
# 
# From -- ./inp_files/711.got.cif
#   From: 2010.03.12/outbox.cif.g09.slc.cpg/sg7_cif.got.tgz:711.got - 2010.03.30 08:40:41.
