data_PCOD8052531
_publ_section_title
;
Structure prediction by ZEFSAII (Michael W. Deem and Ramdas Pophale) SiO2 
 PCOD8052531
Probable space group: P M
;
_chemical_formula_sum "Si O2"
_cell_formula_units_Z 16
_cell_length_a 12.727955
_cell_length_b 11.071065
_cell_length_c 9.715950
_cell_angle_alpha 90.000000
_cell_angle_beta 144.583567
_cell_angle_gamma 90.000000
_cell_volume 793.410486
_symmetry_space_group_name_H-M "P M"
_symmetry_group_IT_number 6
_symmetry_cell_setting 'monoclinic'
loop_
_space_group_symop_operation_xyz
x,y,z
x,-y,z
loop_
_atom_site_type_symbol
_atom_site_label
_atom_site_fract_x
_atom_site_fract_y
_atom_site_fract_z
Si Si1 0.801790 0.864303 0.934990
Si Si2 0.225743 0.636999 0.809499
Si Si3 0.902176 0.216640 0.585682
Si Si4 0.102725 0.863176 0.059485
Si Si5 0.696159 0.134111 0.114036
Si Si6 0.444938 0.636146 0.787970
Si Si7 0.569964 0.634859 0.340085
Si Si8 0.452051 0.283704 0.495337
O O1 0.606741 0.810632 0.696020
O O2 0.793572 0.000000 0.870231
O O3 0.836360 0.855973 0.135729
O O4 0.967306 0.803533 0.028557
O O5 0.202798 0.500000 0.834756
O O6 0.261916 0.646181 0.683565
O O7 0.039435 0.700858 0.646718
O O8 0.400468 0.693022 0.075880
O O9 0.805792 0.130372 0.372881
O O10 0.752413 0.291763 0.508597
O O11 0.011678 0.137505 0.812135
O O12 0.281221 0.783785 0.249230
O O13 0.155490 0.000000 0.154493
O O14 0.597591 0.000000 0.997971
O O15 0.570125 0.253139 0.973652
O O16 0.530080 0.500000 0.903533
O O17 0.397405 0.645351 0.575774
O O18 0.603877 0.500000 0.321763
O O19 0.526304 0.628399 0.456231
#
# Coordination Sequence:
#
# PCOD8052531 Si02
#       8
#     2   2   2   2   2   2   2   2
#     4   9  20  39  59  84 122 163 203 252 305 366
#     4  10  22  40  60  88 122 164 208 256 311 369
#     4  12  22  39  62  90 124 163 208 252 308 370
#     4  11  23  38  60  90 124 163 207 253 309 370
#     4  10  22  40  65  94 128 164 209 257 310 369
#     4  10  22  42  67  93 126 163 209 260 311 368
#     4  11  22  39  60  86 121 163 207 258 311 364
#     4  11  21  39  63  89 121 159 205 256 309 364
#
# _framework density 20.166105000000002
#
# number of rings (size 3 to 8) (size 9 to 14) (size 15 to 20)
#    0.000    1.500    3.750    1.500    1.750    1.000 
#    0.000    2.500    0.000    0.000    0.000    0.000 
#    0.000    0.000    0.000    0.000    0.000    0.000 
#
# Total GULP energy -198287.892666 kJ/mol
# GULP energy per Si atom -12392.993292 kJ/mol
# Density = 2.012021 g / cm^3
# Si number density = 20.166105 Si / 1000 Ang^3
#
#
#
# Elastic Constant Matrix: (Units=GPa)
#
#
# Indices 1 2 3 4 5 6 
#
# 1 132.3602 32.3646 33.1970 0.0000 -8.8753 0.0000
# 2 32.3646 98.0275 26.4385 0.0000 6.5525 0.0000
# 3 33.1970 26.4385 77.0355 0.0000 -8.8025 0.0000
# 4 0.0000 0.0000 0.0000 39.7653 0.0000 10.3250
# 5 -8.8753 6.5525 -8.8025 0.0000 37.7387 0.0000
# 6 0.0000 0.0000 0.0000 10.3250 0.0000 33.4845
#
#
#
# Elastic Compliance Matrix: (Units=1/GPa)
#
#
# Indices 1 2 3 4 5 6 
#
# 1 0.008960 -0.002311 -0.002858 0.000000 0.001842 0.000000
# 2 -0.002311 0.012162 -0.003577 0.000000 -0.003489 0.000000
# 3 -0.002858 -0.003577 0.015857 0.000000 0.003648 0.000000
# 4 0.000000 0.000000 0.000000 0.027336 0.000000 -0.008429
# 5 0.001842 -0.003489 0.003648 0.000000 0.028388 0.000000
# 6 0.000000 0.000000 0.000000 -0.008429 0.000000 0.032464
#
#
# Mechanical properties :
#
#
# Convention : Reuss Voigt Hill
#
# Bulk Modulus (GPa) = 51.31245 54.60260 52.95752
# Shear Modulus (GPa) = 33.52229 36.55922 35.04075
#
# Velocity S-wave (km/s) = 4.08156 4.26244 4.17298
# Velocity P-wave (km/s) = 6.90741 7.16657 7.03819
#
# Compressibility (1/GPa) = 0.01948845
#
# Stress axis : x y z
#
# Youngs Moduli (GPa) = 111.60179 82.22261 63.06371
#
# Poissons Ratio (x) = 0.18999 0.18023
# Poissons Ratio (y) = 0.25788 0.22558
# Poissons Ratio (z) = 0.31894 0.29411
#
# Static dielectric constant tensor:
#      x y z
#    x 3.966380 0.000000 -0.244440 
#    y 0.000000 3.520020 0.000000 
#    z -0.244440 0.000000 3.544580 
# 
# 
# High freq. dielectric constant tensor:
#      x y z
#    x 1.805970 0.000000 -0.017440 
#    y 0.000000 1.780110 0.000000 
#    z -0.017440 0.000000 1.771380 
# 
# From -- ./inp_files/3988.got.cif
#   From: 2010.03.12/outbox.cif.g09.slc.cpg/sg6_2_cif.got.tgz:3988.got - 2010.03.30 10:24:59.
