data_PCOD8052906
_publ_section_title
;
Structure prediction by ZEFSAII (Michael W. Deem and Ramdas Pophale) SiO2 
 PCOD8052906
Probable space group: C M
;
_chemical_formula_sum "Si O2"
_cell_formula_units_Z 32
_cell_length_a 11.485369
_cell_length_b 18.262147
_cell_length_c 9.580434
_cell_angle_alpha 90.000000
_cell_angle_beta 56.591160
_cell_angle_gamma 90.000000
_cell_volume 1677.432760
_symmetry_space_group_name_H-M "C M"
_symmetry_group_IT_number 8
_symmetry_cell_setting 'monoclinic'
loop_
_space_group_symop_operation_xyz
x,y,z
x,-y,z
1/2+x,1/2+y,z
1/2+x,1/2-y,z
loop_
_atom_site_type_symbol
_atom_site_label
_atom_site_fract_x
_atom_site_fract_y
_atom_site_fract_z
Si Si1 0.933070 0.416907 0.841400
Si Si2 0.745237 0.357448 0.726631
Si Si3 0.930078 0.414394 0.369473
Si Si4 0.233058 0.584260 0.271352
Si Si5 0.936813 0.825391 0.959431
Si Si6 0.290618 0.693370 0.775149
Si Si7 0.751689 0.084656 0.570078
Si Si8 0.982484 0.674513 0.060834
O O1 0.919804 0.500000 0.898219
O O2 0.820836 0.400948 0.798242
O O3 0.087404 0.399437 0.685517
O O4 0.897606 0.367855 0.997716
O O5 0.794886 0.392198 0.548159
O O6 0.580624 0.370252 0.855770
O O7 0.776137 0.270978 0.708735
O O8 0.921123 0.500000 0.329471
O O9 0.930892 0.359087 0.239333
O O10 0.067948 0.399654 0.370761
O O11 0.261256 0.500000 0.226165
O O12 0.292627 0.606357 0.384566
O O13 0.313087 0.624264 0.094934
O O14 0.904286 0.799151 0.822780
O O15 0.946672 0.759712 0.064906
O O16 0.335505 0.634904 0.625667
O O17 0.148140 0.663857 0.937605
O O18 0.786642 0.000000 0.579416
#
# Coordination Sequence:
#
# PCOD8052906 Si02
#       8
#     4   4   4   4   4   4   4   4
#     4  10  18  35  60  84 115 152 195 244 291 347
#     4  11  23  37  58  89 124 158 193 244 306 361
#     4  11  22  39  62  90 120 156 205 250 291 349
#     4  10  21  38  62  89 117 154 202 249 294 352
#     4  11  23  40  59  88 125 159 193 246 307 362
#     4  10  21  39  59  89 120 156 199 242 301 359
#     4   9  19  36  61  88 112 149 201 248 287 342
#     4  10  21  38  61  89 117 154 202 249 291 352
#
# _framework density 19.07677
#
# number of rings (size 3 to 8) (size 9 to 14) (size 15 to 20)
#    0.000    1.750    3.750    0.750    1.750    2.000 
#    0.000    1.250    0.000    1.500    0.000    0.000 
#    0.000    0.000    0.000    0.000    0.000    0.000 
#
# Total GULP energy -198400.445672 kJ/mol
# GULP energy per Si atom -12400.027854 kJ/mol
# Density = 1.903335 g / cm^3
# Si number density = 19.076770 Si / 1000 Ang^3
#
#
#
# Elastic Constant Matrix: (Units=GPa)
#
#
# Indices 1 2 3 4 5 6 
#
# 1 53.9158 19.2326 23.8976 0.0000 5.1947 0.0000
# 2 19.2326 65.3963 41.2946 0.0000 -0.9391 0.0000
# 3 23.8976 41.2946 86.9470 0.0000 8.2355 0.0000
# 4 0.0000 0.0000 0.0000 35.5985 0.0000 5.9491
# 5 5.1947 -0.9391 8.2355 0.0000 29.9318 0.0000
# 6 0.0000 0.0000 0.0000 5.9491 0.0000 30.8647
#
#
#
# Elastic Compliance Matrix: (Units=1/GPa)
#
#
# Indices 1 2 3 4 5 6 
#
# 1 0.021980 -0.004091 -0.003825 0.000000 -0.002891 0.000000
# 2 -0.004091 0.022995 -0.010198 0.000000 0.004237 0.000000
# 3 -0.003825 -0.010198 0.017828 0.000000 -0.004561 0.000000
# 4 0.000000 0.000000 0.000000 0.029026 0.000000 -0.005595
# 5 -0.002891 0.004237 -0.004561 0.000000 0.035299 0.000000
# 6 0.000000 0.000000 0.000000 -0.005595 0.000000 0.033478
#
#
# Mechanical properties :
#
#
# Convention : Reuss Voigt Hill
#
# Bulk Modulus (GPa) = 37.62769 41.67875 39.65322
# Shear Modulus (GPa) = 24.30814 27.40128 25.85471
#
# Velocity S-wave (km/s) = 3.57350 3.79406 3.68543
# Velocity P-wave (km/s) = 6.06579 6.41003 6.24028
#
# Compressibility (1/GPa) = 0.02657617
#
# Stress axis : x y z
#
# Youngs Moduli (GPa) = 45.49500 43.48778 56.09121
#
# Poissons Ratio (x) = 0.17789 0.21454
# Poissons Ratio (y) = 0.18610 0.57203
# Poissons Ratio (z) = 0.17401 0.44350
#
# Static dielectric constant tensor:
#      x y z
#    x 3.455290 0.000000 0.208800 
#    y 0.000000 3.523950 0.000000 
#    z 0.208800 0.000000 3.557920 
# 
# 
# High freq. dielectric constant tensor:
#      x y z
#    x 1.728020 0.000000 0.017300 
#    y 0.000000 1.747660 0.000000 
#    z 0.017300 0.000000 1.734790 
# 
# From -- ./inp_files/11142.got.cif
#   From: 2010.03.12/outbox.cif.g09.slc.cpg/sg8_6_cif.got.tgz:11142.got - 2010.03.31 10:45:26.
