data_PCOD8052655
_publ_section_title
;
Structure prediction by ZEFSAII (Michael W. Deem and Ramdas Pophale) SiO2 
 PCOD8052655
Probable space group: P C
;
_chemical_formula_sum "Si O2"
_cell_formula_units_Z 16
_cell_length_a 5.483772
_cell_length_b 24.687807
_cell_length_c 4.913182
_cell_angle_alpha 90.000000
_cell_angle_beta 76.476975
_cell_angle_gamma 90.000000
_cell_volume 646.717085
_symmetry_space_group_name_H-M "P C"
_symmetry_group_IT_number 7
_symmetry_cell_setting 'monoclinic'
loop_
_space_group_symop_operation_xyz
x,y,z
x,-y,1/2+z
loop_
_atom_site_type_symbol
_atom_site_label
_atom_site_fract_x
_atom_site_fract_y
_atom_site_fract_z
Si Si1 0.817800 0.381263 0.324550
Si Si2 0.677436 0.271572 0.491697
Si Si3 0.461050 0.535484 0.068434
Si Si4 0.386703 0.898338 0.578052
Si Si5 0.131021 0.364289 0.736496
Si Si6 0.994701 0.745639 0.411014
Si Si7 0.891155 0.036578 0.026587
Si Si8 0.339529 0.172158 0.604408
O O1 0.601127 0.334013 0.428406
O O2 0.742753 0.441399 0.451166
O O3 0.053548 0.362462 0.441436
O O4 0.893921 0.381987 0.988813
O O5 0.754152 0.269257 0.788306
O O6 0.478265 0.225973 0.468013
O O7 0.921026 0.255829 0.245246
O O8 0.399686 0.486166 0.283885
O O9 0.330369 0.588689 0.218136
O O10 0.627630 0.931330 0.628046
O O11 0.485041 0.861219 0.302420
O O12 0.147379 0.931271 0.524697
O O13 0.281085 0.864237 0.858843
O O14 0.207922 0.302299 0.804311
O O15 0.084348 0.805995 0.310651
O O16 0.893340 0.016286 0.716141
#
# Coordination Sequence:
#
# PCOD8052655 Si02
#       8
#     2   2   2   2   2   2   2   2
#     4  10  22  41  62  87 120 167 219 263 327 411
#     4  10  22  40  65  91 131 178 216 266 337 419
#     4  12  25  38  59  88 119 160 211 280 342 392
#     4  12  28  43  77 110 143 191 232 306 350 410
#     4  10  22  41  62  87 120 167 219 263 327 411
#     4  10  22  40  65  91 131 178 216 266 337 419
#     4  12  26  52  76 104 144 192 250 290 346 412
#     4  12  25  41  66 106 146 173 221 286 350 412
#
# _framework density 24.740338999999999
#
# number of rings (size 3 to 8) (size 9 to 14) (size 15 to 20)
#    0.000    1.000    0.000    6.000    5.250    3.000 
#    0.000   10.000    0.000    0.000    0.000    0.000 
#    0.000    0.000    0.000    0.000    0.000    0.000 
#
# Total GULP energy -198244.680327 kJ/mol
# GULP energy per Si atom -12390.292520 kJ/mol
# Density = 2.468403 g / cm^3
# Si number density = 24.740339 Si / 1000 Ang^3
#
#
#
# Elastic Constant Matrix: (Units=GPa)
#
#
# Indices 1 2 3 4 5 6 
#
# 1 77.3235 40.1605 4.2777 0.0000 9.5917 0.0000
# 2 40.1605 120.8784 38.0399 0.0000 -7.0504 0.0000
# 3 4.2777 38.0399 101.6484 0.0000 17.4682 0.0000
# 4 0.0000 0.0000 0.0000 44.9008 0.0000 3.4803
# 5 9.5917 -7.0504 17.4682 0.0000 24.0279 0.0000
# 6 0.0000 0.0000 0.0000 3.4803 0.0000 33.4130
#
#
#
# Elastic Compliance Matrix: (Units=1/GPa)
#
#
# Indices 1 2 3 4 5 6 
#
# 1 0.018735 -0.008478 0.004682 0.000000 -0.013370 0.000000
# 2 -0.008478 0.014055 -0.007077 0.000000 0.012654 0.000000
# 3 0.004682 -0.007077 0.014819 0.000000 -0.014719 0.000000
# 4 0.000000 0.000000 0.000000 0.022453 0.000000 -0.002339
# 5 -0.013370 0.012654 -0.014719 0.000000 0.061369 0.000000
# 6 0.000000 0.000000 0.000000 -0.002339 0.000000 0.030172
#
#
# Mechanical properties :
#
#
# Convention : Reuss Voigt Hill
#
# Bulk Modulus (GPa) = 38.66646 51.64520 45.15583
# Shear Modulus (GPa) = 26.04568 34.95981 30.50275
#
# Velocity S-wave (km/s) = 3.24815 3.76316 3.51510
# Velocity P-wave (km/s) = 5.45253 6.30889 5.89628
#
# Compressibility (1/GPa) = 0.02586221
#
# Stress axis : x y z
#
# Youngs Moduli (GPa) = 53.37471 71.15037 67.48173
#
# Poissons Ratio (x) = 0.60320 -0.31594
# Poissons Ratio (y) = 0.45250 0.47760
# Poissons Ratio (z) = -0.24990 0.50356
#
# Static dielectric constant tensor:
#      x y z
#    x 4.002870 0.000000 -0.151650 
#    y 0.000000 4.921000 0.000000 
#    z -0.151650 0.000000 4.564450 
# 
# 
# High freq. dielectric constant tensor:
#      x y z
#    x 1.954320 0.000000 -0.001450 
#    y 0.000000 2.003040 0.000000 
#    z -0.001450 0.000000 2.005550 
# 
# From -- ./inp_files/416.got.cif
#   From: 2010.03.12/outbox.cif.g09.slc.cpg/sg7_cif.got.tgz:416.got - 2010.03.30 08:40:41.
