data_PCOD8052430
_publ_section_title
;
Structure prediction by ZEFSAII (Michael W. Deem and Ramdas Pophale) SiO2 
 PCOD8052430
Probable space group: P M
;
_chemical_formula_sum "Si O2"
_cell_formula_units_Z 16
_cell_length_a 10.257847
_cell_length_b 8.876594
_cell_length_c 12.075166
_cell_angle_alpha 90.000000
_cell_angle_beta 51.962316
_cell_angle_gamma 90.000000
_cell_volume 865.973316
_symmetry_space_group_name_H-M "P M"
_symmetry_group_IT_number 6
_symmetry_cell_setting 'monoclinic'
loop_
_space_group_symop_operation_xyz
x,y,z
x,-y,z
loop_
_atom_site_type_symbol
_atom_site_label
_atom_site_fract_x
_atom_site_fract_y
_atom_site_fract_z
Si Si1 0.352600 0.323772 0.364820
Si Si2 0.025546 0.175416 0.948619
Si Si3 0.524238 0.173001 0.669553
Si Si4 0.730302 0.323665 0.205860
Si Si5 0.254636 0.173035 0.631238
Si Si6 0.301728 0.322438 0.953176
Si Si7 0.838270 0.826186 0.372839
Si Si8 0.214110 0.823671 0.219917
O O1 0.332674 0.500000 0.351754
O O2 0.541995 0.275454 0.284572
O O3 0.247931 0.280359 0.528519
O O4 0.283700 0.229346 0.299773
O O5 0.091456 0.205097 0.790221
O O6 0.141000 0.252962 0.979386
O O7 0.026185 0.000000 0.977078
O O8 0.841298 0.241189 0.054817
O O9 0.416068 0.214026 0.618450
O O10 0.469472 0.275257 0.801502
O O11 0.715361 0.204492 0.540498
O O12 0.491268 0.000000 0.720006
O O13 0.754947 0.500000 0.179026
O O14 0.787818 0.277415 0.297450
O O15 0.260641 0.000000 0.588770
O O16 0.284872 0.500000 0.961988
O O17 0.312951 0.262986 0.072252
O O18 0.020270 0.782993 0.318003
O O19 0.825504 0.000000 0.341585
O O20 0.244638 0.000000 0.189291
#
# Coordination Sequence:
#
# PCOD8052430 Si02
#       8
#     2   2   2   2   2   2   2   2
#     4  11  24  39  56  83 119 154 189 232 288 348
#     4  10  20  35  57  85 114 148 192 237 281 335
#     4   9  18  34  57  85 114 146 186 236 285 337
#     4  11  22  35  56  87 117 148 189 238 290 340
#     4   9  18  34  57  83 111 147 189 231 279 337
#     4  11  21  34  55  85 118 150 185 234 290 340
#     4  10  20  36  60  86 112 145 192 241 282 334
#     4  11  23  39  60  84 113 154 196 235 281 341
#
# _framework density 18.476322
#
# number of rings (size 3 to 8) (size 9 to 14) (size 15 to 20)
#    0.000    1.750    2.500    3.375    0.000    5.000 
#    0.000    1.250    0.000    1.500    0.000    0.000 
#    0.000    0.000    0.000    0.000    0.000    0.000 
#
# Total GULP energy -198461.663016 kJ/mol
# GULP energy per Si atom -12403.853938 kJ/mol
# Density = 1.843427 g / cm^3
# Si number density = 18.476322 Si / 1000 Ang^3
#
#
#
# Elastic Constant Matrix: (Units=GPa)
#
#
# Indices 1 2 3 4 5 6 
#
# 1 83.8509 46.4340 53.6540 0.0000 2.2508 0.0000
# 2 46.4340 101.4191 57.3493 0.0000 1.3943 0.0000
# 3 53.6540 57.3493 135.8573 0.0000 -1.0363 0.0000
# 4 0.0000 0.0000 0.0000 25.4473 0.0000 -0.8119
# 5 2.2508 1.3943 -1.0363 0.0000 23.5656 0.0000
# 6 0.0000 0.0000 0.0000 -0.8119 0.0000 25.0454
#
#
#
# Elastic Compliance Matrix: (Units=1/GPa)
#
#
# Indices 1 2 3 4 5 6 
#
# 1 0.018133 -0.005548 -0.004832 0.000000 -0.001616 0.000000
# 2 -0.005548 0.014673 -0.004007 0.000000 -0.000515 0.000000
# 3 -0.004832 -0.004007 0.010969 0.000000 0.001181 0.000000
# 4 0.000000 0.000000 0.000000 0.039338 0.000000 0.001275
# 5 -0.001616 -0.000515 0.001181 0.000000 0.042671 0.000000
# 6 0.000000 0.000000 0.000000 0.001275 0.000000 0.039969
#
#
# Mechanical properties :
#
#
# Convention : Reuss Voigt Hill
#
# Bulk Modulus (GPa) = 66.65471 70.66687 68.66079
# Shear Modulus (GPa) = 25.05929 25.72432 25.39180
#
# Velocity S-wave (km/s) = 3.68678 3.73538 3.71116
# Velocity P-wave (km/s) = 7.36731 7.54549 7.45693
#
# Compressibility (1/GPa) = 0.01500269
#
# Stress axis : x y z
#
# Youngs Moduli (GPa) = 55.14745 68.15310 91.16358
#
# Poissons Ratio (x) = 0.37809 0.44049
# Poissons Ratio (y) = 0.30594 0.36527
# Poissons Ratio (z) = 0.26646 0.27308
#
# Static dielectric constant tensor:
#      x y z
#    x 3.183780 0.000000 -0.198950 
#    y 0.000000 3.382290 0.000000 
#    z -0.198950 0.000000 3.629200 
# 
# 
# High freq. dielectric constant tensor:
#      x y z
#    x 1.685580 0.000000 -0.009190 
#    y 0.000000 1.722480 0.000000 
#    z -0.009190 0.000000 1.732930 
# 
# From -- ./inp_files/3796.got.cif
#   From: 2010.03.12/outbox.cif.g09.slc.cpg/sg6_2_cif.got.tgz:3796.got - 2010.03.30 10:24:59.
