data_PCOD8052174
_publ_section_title
;
Structure prediction by ZEFSAII (Michael W. Deem and Ramdas Pophale) SiO2 
 PCOD8052174
Probable space group: C 2
;
_chemical_formula_sum "Si O2"
_cell_formula_units_Z 26
_cell_length_a 25.143115
_cell_length_b 8.975400
_cell_length_c 11.062630
_cell_angle_alpha 90.000000
_cell_angle_beta 26.559013
_cell_angle_gamma 90.000000
_cell_volume 1116.232672
_symmetry_space_group_name_H-M "C 2"
_symmetry_group_IT_number 5
_symmetry_cell_setting 'monoclinic'
loop_
_space_group_symop_operation_xyz
x,y,z
-x,y,-z
1/2+x,1/2+y,z
1/2-x,1/2+y,-z
loop_
_atom_site_type_symbol
_atom_site_label
_atom_site_fract_x
_atom_site_fract_y
_atom_site_fract_z
Si Si1 0.149476 0.485870 0.069629
Si Si2 0.296877 0.520792 0.536452
Si Si3 0.228616 0.178676 0.000078
Si Si4 0.085585 0.563268 0.560541
Si Si5 0.741452 0.866487 0.399953
Si Si6 0.500000 0.482838 0.500000
Si Si7 0.490066 0.369376 0.779960
O O1 0.195919 0.353677 0.062763
O O2 0.006018 0.485062 0.347870
O O3 0.204453 0.467242 0.825631
O O4 0.193102 0.643350 0.038957
O O5 0.287365 0.693909 0.528373
O O6 0.266585 0.426928 0.480834
O O7 0.431366 0.486736 0.304972
O O8 0.108646 0.087684 0.248851
O O9 0.299066 0.128819 0.738869
O O10 0.125438 0.445049 0.579739
O O11 0.018884 0.700305 0.762404
O O12 0.852754 0.900178 0.086348
O O13 0.523115 0.380063 0.569979
#
# Coordination Sequence:
#
# PCOD8052174 Si02
#       7
#     4   4   4   4   4   2   4
#     4  12  29  47  79 114 153 197 252 309 388 458
#     4  12  27  52  77 110 152 203 261 313 380 451
#     4  12  27  48  74 110 157 191 250 310 383 447
#     4  12  27  47  79 108 152 201 248 314 385 447
#     4  12  29  50  78 108 155 202 259 320 375 450
#     4  12  26  44  82 108 156 198 248 316 382 452
#     4  12  26  52  75 112 153 201 253 317 387 449
#
# _framework density 23.292634
#
# number of rings (size 3 to 8) (size 9 to 14) (size 15 to 20)
#    0.000    0.000    6.154    1.846   10.769    0.615 
#    2.769    0.000    0.000    0.000    0.000    0.000 
#    0.000    0.000    0.000    0.000    0.000    0.000 
#
# Total GULP energy -161295.014527 kJ/mol
# GULP energy per Si atom -12407.308810 kJ/mol
# Density = 2.323962 g / cm^3
# Si number density = 23.292634 Si / 1000 Ang^3
#
#
#
# Elastic Constant Matrix: (Units=GPa)
#
#
# Indices 1 2 3 4 5 6 
#
# 1 163.0090 79.0283 38.2407 0.0000 -11.8007 0.0000
# 2 79.0283 156.4853 46.4898 0.0000 -10.7803 0.0000
# 3 38.2407 46.4898 67.3843 0.0000 -15.2763 0.0000
# 4 0.0000 0.0000 0.0000 35.3029 0.0000 -3.2427
# 5 -11.8007 -10.7803 -15.2763 0.0000 40.2552 0.0000
# 6 0.0000 0.0000 0.0000 -3.2427 0.0000 48.0264
#
#
#
# Elastic Compliance Matrix: (Units=1/GPa)
#
#
# Indices 1 2 3 4 5 6 
#
# 1 0.008419 -0.003561 -0.002164 0.000000 0.000693 0.000000
# 2 -0.003561 0.009544 -0.004618 0.000000 -0.000241 0.000000
# 3 -0.002164 -0.004618 0.020603 0.000000 0.005947 0.000000
# 4 0.000000 0.000000 0.000000 0.028503 0.000000 0.001925
# 5 0.000693 -0.000241 0.005947 0.000000 0.027237 0.000000
# 6 0.000000 0.000000 0.000000 0.001925 0.000000 0.020952
#
#
# Mechanical properties :
#
#
# Convention : Reuss Voigt Hill
#
# Bulk Modulus (GPa) = 55.92995 79.37738 67.65366
# Shear Modulus (GPa) = 35.23499 39.59154 37.41327
#
# Velocity S-wave (km/s) = 3.89358 4.12727 4.01212
# Velocity P-wave (km/s) = 6.65411 7.54087 7.11133
#
# Compressibility (1/GPa) = 0.01787951
#
# Stress axis : x y z
#
# Youngs Moduli (GPa) = 118.78072 104.77429 48.53720
#
# Poissons Ratio (x) = 0.37312 0.10502
# Poissons Ratio (y) = 0.42300 0.22416
# Poissons Ratio (z) = 0.25700 0.48389
#
# Static dielectric constant tensor:
#      x y z
#    x 4.231040 0.000000 -0.164780 
#    y 0.000000 4.334640 0.000000 
#    z -0.164780 0.000000 4.379250 
# 
# 
# High freq. dielectric constant tensor:
#      x y z
#    x 1.925160 0.000000 -0.012770 
#    y 0.000000 1.929390 0.000000 
#    z -0.012770 0.000000 1.931610 
# 
# From -- ./inp_files/47921.got.cif
#   From: 2010.03.12/outbox.cif.g09.slc.cpg/sg5_24_cif.got.tgz:47921.got - 2010.03.31 09:47:26.
