data_PCOD8052330
_publ_section_title
;
Structure prediction by ZEFSAII (Michael W. Deem and Ramdas Pophale) SiO2 
 PCOD8052330
Probable space group: P M
;
_chemical_formula_sum "Si O2"
_cell_formula_units_Z 16
_cell_length_a 12.158777
_cell_length_b 8.867183
_cell_length_c 10.350394
_cell_angle_alpha 90.000000
_cell_angle_beta 128.491937
_cell_angle_gamma 90.000000
_cell_volume 873.424609
_symmetry_space_group_name_H-M "P M"
_symmetry_group_IT_number 6
_symmetry_cell_setting 'monoclinic'
loop_
_space_group_symop_operation_xyz
x,y,z
x,-y,z
loop_
_atom_site_type_symbol
_atom_site_label
_atom_site_fract_x
_atom_site_fract_y
_atom_site_fract_z
Si Si1 0.700820 0.175872 0.959850
Si Si2 0.960360 0.676661 0.046021
Si Si3 0.122430 0.677126 0.421133
Si Si4 0.380302 0.327929 0.969198
Si Si5 0.950322 0.177523 0.527525
Si Si6 0.693141 0.324688 0.228096
Si Si7 0.384384 0.174202 0.705051
Si Si8 0.089172 0.673560 0.869654
O O1 0.546462 0.208851 0.788924
O O2 0.718977 0.000000 0.005317
O O3 0.814297 0.231399 0.938451
O O4 0.726798 0.270283 0.108315
O O5 0.926598 0.500000 0.024468
O O6 0.052966 0.726952 0.236087
O O7 0.045164 0.723205 0.980483
O O8 0.115985 0.500000 0.436749
O O9 0.284513 0.730814 0.537001
O O10 0.043776 0.752544 0.482975
O O11 0.380324 0.500000 0.916963
O O12 0.530470 0.292355 0.145337
O O13 0.353160 0.217847 0.830037
O O14 0.257310 0.301858 0.983124
O O15 0.789954 0.235109 0.399530
O O16 0.008006 0.223709 0.708759
O O17 0.954194 0.000000 0.516286
O O18 0.731534 0.500000 0.264125
O O19 0.347414 0.000000 0.660871
O O20 0.049886 0.500000 0.813206
#
# Coordination Sequence:
#
# PCOD8052330 Si02
#       8
#     2   2   2   2   2   2   2   2
#     4  10  20  34  54  81 114 149 185 229 281 330
#     4  10  22  38  58  82 112 149 190 231 279 335
#     4  11  21  35  56  83 112 146 188 234 276 326
#     4   9  18  33  56  81 109 144 183 228 281 329
#     4  12  23  35  55  85 114 147 186 230 281 333
#     4  10  19  33  55  83 111 144 186 232 279 329
#     4  10  20  33  53  83 114 143 183 231 278 330
#     4  10  21  39  59  82 112 148 187 233 281 332
#
# _framework density 18.318697
#
# number of rings (size 3 to 8) (size 9 to 14) (size 15 to 20)
#    0.000    1.750    2.500    2.625    0.000    3.000 
#    0.000    1.250    0.000    3.000    0.000    0.000 
#    0.000    0.000    0.000    0.000    0.000    0.000 
#
# Total GULP energy -198444.633577 kJ/mol
# GULP energy per Si atom -12402.789599 kJ/mol
# Density = 1.827700 g / cm^3
# Si number density = 18.318697 Si / 1000 Ang^3
#
#
#
# Elastic Constant Matrix: (Units=GPa)
#
#
# Indices 1 2 3 4 5 6 
#
# 1 136.0461 46.7483 64.7363 0.0000 10.0974 0.0000
# 2 46.7483 84.7168 47.3673 0.0000 7.0105 0.0000
# 3 64.7363 47.3673 105.4924 0.0000 11.2461 0.0000
# 4 0.0000 0.0000 0.0000 17.7964 0.0000 10.8770
# 5 10.0974 7.0105 11.2461 0.0000 30.0040 0.0000
# 6 0.0000 0.0000 0.0000 10.8770 0.0000 22.5852
#
#
#
# Elastic Compliance Matrix: (Units=1/GPa)
#
#
# Indices 1 2 3 4 5 6 
#
# 1 0.010971 -0.003026 -0.005266 0.000000 -0.001011 0.000000
# 2 -0.003026 0.016629 -0.005525 0.000000 -0.000796 0.000000
# 3 -0.005266 -0.005525 0.015484 0.000000 -0.002741 0.000000
# 4 0.000000 0.000000 0.000000 0.079630 0.000000 -0.038349
# 5 -0.001011 -0.000796 -0.002741 0.000000 0.034883 0.000000
# 6 0.000000 0.000000 0.000000 -0.038349 0.000000 0.062746
#
#
# Mechanical properties :
#
#
# Convention : Reuss Voigt Hill
#
# Bulk Modulus (GPa) = 64.72425 71.55101 68.13763
# Shear Modulus (GPa) = 19.75310 25.23735 22.49523
#
# Velocity S-wave (km/s) = 3.28731 3.71574 3.50807
# Velocity P-wave (km/s) = 7.05816 7.58635 7.32702
#
# Compressibility (1/GPa) = 0.01545016
#
# Stress axis : x y z
#
# Youngs Moduli (GPa) = 91.14879 60.13687 64.58419
#
# Poissons Ratio (x) = 0.18198 0.34010
# Poissons Ratio (y) = 0.27582 0.35681
# Poissons Ratio (z) = 0.47999 0.33224
#
# Static dielectric constant tensor:
#      x y z
#    x 3.495410 0.000000 0.332890 
#    y 0.000000 3.420830 0.000000 
#    z 0.332890 0.000000 3.380020 
# 
# 
# High freq. dielectric constant tensor:
#      x y z
#    x 1.707600 0.000000 0.027970 
#    y 0.000000 1.717050 0.000000 
#    z 0.027970 0.000000 1.694500 
# 
# From -- ./inp_files/3757.got.cif
#   From: 2010.03.12/outbox.cif.g09.slc.cpg/sg6_2_cif.got.tgz:3757.got - 2010.03.30 10:24:59.
