data_PCOD8052672
_publ_section_title
;
Structure prediction by ZEFSAII (Michael W. Deem and Ramdas Pophale) SiO2 
 PCOD8052672
Probable space group: P C
;
_chemical_formula_sum "Si O2"
_cell_formula_units_Z 16
_cell_length_a 6.696796
_cell_length_b 20.325851
_cell_length_c 5.282050
_cell_angle_alpha 90.000000
_cell_angle_beta 71.735640
_cell_angle_gamma 90.000000
_cell_volume 682.760592
_symmetry_space_group_name_H-M "P C"
_symmetry_group_IT_number 7
_symmetry_cell_setting 'monoclinic'
loop_
_space_group_symop_operation_xyz
x,y,z
x,-y,1/2+z
loop_
_atom_site_type_symbol
_atom_site_label
_atom_site_fract_x
_atom_site_fract_y
_atom_site_fract_z
Si Si1 0.805260 0.542171 0.757170
Si Si2 0.786720 0.285144 0.700348
Si Si3 0.228221 0.740073 0.761104
Si Si4 0.653565 0.139915 0.718642
Si Si5 0.468230 0.358825 0.479074
Si Si6 0.405659 0.121602 0.296147
Si Si7 0.009348 0.959483 0.990637
Si Si8 0.076429 0.647734 0.437006
O O1 0.821998 0.489478 0.526737
O O2 0.004818 0.592268 0.665012
O O3 0.581012 0.578651 0.806184
O O4 0.678061 0.215223 0.799395
O O5 0.629276 0.333595 0.625206
O O6 0.002964 0.273562 0.469439
O O7 0.853797 0.324132 0.925149
O O8 0.271717 0.817067 0.745091
O O9 0.208421 0.710475 0.488300
O O10 0.424176 0.701467 0.806406
O O11 0.515162 0.137309 0.519129
O O12 0.874953 0.106850 0.568474
O O13 0.557438 0.102120 0.001427
O O14 0.241048 0.383726 0.673103
O O15 0.253728 0.059940 0.404230
O O16 0.954754 0.992236 0.743547
#
# Coordination Sequence:
#
# PCOD8052672 Si02
#       8
#     2   2   2   2   2   2   2   2
#     4  12  29  50  72 104 147 199 250 297 361 451
#     4  11  23  45  73 110 149 182 240 307 380 443
#     4  11  24  43  75 111 143 185 241 308 384 431
#     4  12  27  45  76 110 146 193 246 301 370 447
#     4  11  25  47  74 106 141 191 235 309 373 435
#     4  12  27  46  74 114 147 189 247 310 369 439
#     4  12  28  50  74 103 152 203 250 302 360 433
#     4  11  27  44  76 106 149 188 243 306 375 443
#
# _framework density 23.434277999999999
#
# number of rings (size 3 to 8) (size 9 to 14) (size 15 to 20)
#    0.000    0.500    3.750    3.000   10.500    5.000 
#    0.000    0.000    0.000    0.000    0.000    0.000 
#    0.000    0.000    0.000    0.000    0.000    0.000 
#
# Total GULP energy -198397.785588 kJ/mol
# GULP energy per Si atom -12399.861599 kJ/mol
# Density = 2.338094 g / cm^3
# Si number density = 23.434278 Si / 1000 Ang^3
#
#
#
# Elastic Constant Matrix: (Units=GPa)
#
#
# Indices 1 2 3 4 5 6 
#
# 1 102.5605 23.6999 28.4414 0.0000 8.9179 0.0000
# 2 23.6999 81.0514 27.6354 0.0000 -2.7775 0.0000
# 3 28.4414 27.6354 98.2498 0.0000 12.2834 0.0000
# 4 0.0000 0.0000 0.0000 40.5113 0.0000 -3.7916
# 5 8.9179 -2.7775 12.2834 0.0000 38.0584 0.0000
# 6 0.0000 0.0000 0.0000 -3.7916 0.0000 33.6247
#
#
#
# Elastic Compliance Matrix: (Units=1/GPa)
#
#
# Indices 1 2 3 4 5 6 
#
# 1 0.011146 -0.002564 -0.002246 0.000000 -0.002074 0.000000
# 2 -0.002564 0.014438 -0.003674 0.000000 0.002840 0.000000
# 3 -0.002246 -0.003674 0.012327 0.000000 -0.003720 0.000000
# 4 0.000000 0.000000 0.000000 0.024948 0.000000 0.002813
# 5 -0.002074 0.002840 -0.003720 0.000000 0.028169 0.000000
# 6 0.000000 0.000000 0.000000 0.002813 0.000000 0.030057
#
#
# Mechanical properties :
#
#
# Convention : Reuss Voigt Hill
#
# Bulk Modulus (GPa) = 47.75040 49.04612 48.39826
# Shear Modulus (GPa) = 34.47469 35.91122 35.19295
#
# Velocity S-wave (km/s) = 3.83968 3.91886 3.87947
# Velocity P-wave (km/s) = 6.33073 6.43827 6.38472
#
# Compressibility (1/GPa) = 0.02094223
#
# Stress axis : x y z
#
# Youngs Moduli (GPa) = 89.71728 69.26339 81.12439
#
# Poissons Ratio (x) = 0.17762 0.18220
# Poissons Ratio (y) = 0.23008 0.29803
# Poissons Ratio (z) = 0.20150 0.25445
#
# Static dielectric constant tensor:
#      x y z
#    x 4.354580 0.000000 -0.131810 
#    y 0.000000 4.187490 0.000000 
#    z -0.131810 0.000000 4.376170 
# 
# 
# High freq. dielectric constant tensor:
#      x y z
#    x 1.939650 0.000000 -0.013010 
#    y 0.000000 1.922640 0.000000 
#    z -0.013010 0.000000 1.938990 
# 
# From -- ./inp_files/276.got.cif
#   From: 2010.03.12/outbox.cif.g09.slc.cpg/sg7_cif.got.tgz:276.got - 2010.03.30 08:40:41.
