data_PCOD8052724
_publ_section_title
;
Structure prediction by ZEFSAII (Michael W. Deem and Ramdas Pophale) SiO2 
 PCOD8052724
Probable space group: C M
;
_chemical_formula_sum "Si O2"
_cell_formula_units_Z 32
_cell_length_a 19.233919
_cell_length_b 8.738772
_cell_length_c 25.638168
_cell_angle_alpha 90.000000
_cell_angle_beta 24.991085
_cell_angle_gamma 90.000000
_cell_volume 1820.574671
_symmetry_space_group_name_H-M "C M"
_symmetry_group_IT_number 8
_symmetry_cell_setting 'monoclinic'
loop_
_space_group_symop_operation_xyz
x,y,z
x,-y,z
1/2+x,1/2+y,z
1/2+x,1/2-y,z
loop_
_atom_site_type_symbol
_atom_site_label
_atom_site_fract_x
_atom_site_fract_y
_atom_site_fract_z
Si Si1 0.696430 0.180188 0.125000
Si Si2 0.100573 0.677791 0.006350
Si Si3 0.632169 0.178855 0.382019
Si Si4 0.982107 0.820151 0.188254
Si Si5 0.240672 0.822910 0.206659
Si Si6 0.521688 0.175011 0.893066
Si Si7 0.872655 0.173980 0.631283
Si Si8 0.750253 0.679765 0.811690
O O1 0.532006 0.239703 0.208448
O O2 0.694824 0.231503 0.185904
O O3 0.705756 0.000000 0.114847
O O4 0.852170 0.253557 0.987376
O O5 0.135892 0.500000 0.990711
O O6 0.101899 0.760729 0.061128
O O7 0.927040 0.709270 0.096615
O O8 0.248759 0.750568 0.871038
O O9 0.794150 0.227172 0.304250
O O10 0.622637 0.266082 0.333529
O O11 0.472809 0.222278 0.523660
O O12 0.632302 0.000000 0.370200
O O13 0.003486 0.000000 0.179444
O O14 0.206162 0.000000 0.219820
O O15 0.677588 0.180991 0.747067
O O16 0.570455 0.277131 0.910417
O O17 0.491081 0.000000 0.932286
O O18 0.887427 0.240695 0.680686
O O19 0.938216 0.000000 0.585946
O O20 0.781615 0.500000 0.792217
#
# Coordination Sequence:
#
# PCOD8052724 Si02
#       8
#     4   4   4   4   4   4   4   4
#     4  12  22  33  52  78 106 137 173 212 258 310
#     4  10  18  31  50  75 104 133 170 212 256 303
#     4  10  20  34  53  77 103 134 175 217 254 300
#     4  10  22  36  51  73 107 142 171 209 259 311
#     4  10  19  31  51  73 101 135 169 212 257 303
#     4   9  18  31  49  75 102 132 166 207 255 300
#     4   9  18  31  50  75 103 134 170 213 257 299
#     4  10  17  27  48  76 102 129 164 208 252 296
#
# _framework density 17.576868000000001
#
# number of rings (size 3 to 8) (size 9 to 14) (size 15 to 20)
#    0.750    1.250    1.250    4.125    0.000    2.500 
#    0.000    0.000    0.000    1.500    0.000    1.750 
#    0.000    0.000    0.000    0.000    0.000    0.000 
#
# Total GULP energy -198290.269356 kJ/mol
# GULP energy per Si atom -12393.141835 kJ/mol
# Density = 1.753686 g / cm^3
# Si number density = 17.576868 Si / 1000 Ang^3
#
#
#
# Elastic Constant Matrix: (Units=GPa)
#
#
# Indices 1 2 3 4 5 6 
#
# 1 73.8663 31.2721 28.4658 0.0012 5.5282 0.0003
# 2 31.2721 95.8751 27.4833 0.0015 1.3970 0.0002
# 3 28.4658 27.4833 86.9672 0.0116 17.3346 -0.0025
# 4 0.0012 0.0015 0.0116 30.0008 -0.0029 5.9125
# 5 5.5282 1.3970 17.3346 -0.0029 19.5550 0.0010
# 6 0.0003 0.0002 -0.0025 5.9125 0.0010 28.7414
#
#
#
# Elastic Compliance Matrix: (Units=1/GPa)
#
#
# Indices 1 2 3 4 5 6 
#
# 1 0.017005 -0.004389 -0.003988 0.000001 -0.000959 -0.000001
# 2 -0.004389 0.012740 -0.003225 0.000001 0.003190 -0.000001
# 3 -0.003988 -0.003225 0.016461 -0.000008 -0.013234 0.000004
# 4 0.000001 0.000001 -0.000008 0.034741 0.000012 -0.007147
# 5 -0.000959 0.003190 -0.013234 0.000012 0.062912 -0.000006
# 6 -0.000001 -0.000001 0.000004 -0.007147 -0.000006 0.036263
#
#
# Mechanical properties :
#
#
# Convention : Reuss Voigt Hill
#
# Bulk Modulus (GPa) = 43.47609 47.90565 45.69087
# Shear Modulus (GPa) = 23.69738 26.95861 25.32800
#
# Velocity S-wave (km/s) = 3.67579 3.92057 3.80015
# Velocity P-wave (km/s) = 6.54246 6.91437 6.73099
#
# Compressibility (1/GPa) = 0.02300115
#
# Stress axis : x y z
#
# Youngs Moduli (GPa) = 58.80692 78.49295 60.75011
#
# Poissons Ratio (x) = 0.34454 0.24225
# Poissons Ratio (y) = 0.25813 0.19593
# Poissons Ratio (z) = 0.23450 0.25315
#
# Static dielectric constant tensor:
#      x y z
#    x 3.040400 0.000000 0.164320 
#    y 0.000000 3.295930 0.000000 
#    z 0.164320 0.000000 3.165860 
# 
# 
# High freq. dielectric constant tensor:
#      x y z
#    x 1.644510 0.000000 0.021640 
#    y 0.000000 1.698730 0.000000 
#    z 0.021640 0.000000 1.663230 
# 
# From -- ./inp_files/24307.got.cif
#   From: 2010.03.12/outbox.cif.g09.slc.cpg/sg8_13_cif.got.tgz:24307.got - 2010.03.31 10:45:26.
