data_PCOD8052146
_publ_section_title
;
Structure prediction by ZEFSAII (Michael W. Deem and Ramdas Pophale) SiO2 
 PCOD8052146
Probable space group: C 2
;
_chemical_formula_sum "Si O2"
_cell_formula_units_Z 18
_cell_length_a 17.078405
_cell_length_b 5.185829
_cell_length_c 9.173124
_cell_angle_alpha 90.000000
_cell_angle_beta 61.072698
_cell_angle_gamma 90.000000
_cell_volume 711.061253
_symmetry_space_group_name_H-M "C 2"
_symmetry_group_IT_number 5
_symmetry_cell_setting 'monoclinic'
loop_
_space_group_symop_operation_xyz
x,y,z
-x,y,-z
1/2+x,1/2+y,z
1/2-x,1/2+y,-z
loop_
_atom_site_type_symbol
_atom_site_label
_atom_site_fract_x
_atom_site_fract_y
_atom_site_fract_z
Si Si1 0.077358 0.631730 0.761260
Si Si2 0.075141 0.353811 0.216314
Si Si3 0.135988 0.153144 0.867773
Si Si4 0.838124 0.639927 0.613836
Si Si5 0.500000 0.512765 0.500000
O O1 0.074477 0.379782 0.863592
O O2 0.150316 0.585653 0.568465
O O3 0.974749 0.622371 0.790027
O O4 0.098462 0.881221 0.841185
O O5 0.142645 0.405852 0.290975
O O6 0.994464 0.182833 0.357356
O O7 0.128445 0.183827 0.049465
O O8 0.236287 0.217245 0.729896
O O9 0.907538 0.861868 0.590547
#
# Coordination Sequence:
#
# PCOD8052146 Si02
#       5
#     4   4   4   4   2
#     4  12  26  54  74 117 157 212 250 328 402 474
#     4  12  28  49  80 115 154 216 265 322 390 480
#     4  12  32  47  82 117 161 197 269 331 395 452
#     4  12  27  50  80 112 158 209 269 317 393 476
#     4  12  24  48  82 110 156 210 266 318 390 470
#
# _framework density 25.314276
#
# number of rings (size 3 to 8) (size 9 to 14) (size 15 to 20)
#    0.000    0.000    4.444    3.333    9.333    3.556 
#    0.000    0.000    0.000    0.000    0.000    0.000 
#    0.000    0.000    0.000    0.000    0.000    0.000 
#
# Total GULP energy -111534.814618 kJ/mol
# GULP energy per Si atom -12392.757180 kJ/mol
# Density = 2.525666 g / cm^3
# Si number density = 25.314276 Si / 1000 Ang^3
#
#
#
# Elastic Constant Matrix: (Units=GPa)
#
#
# Indices 1 2 3 4 5 6 
#
# 1 66.4665 22.4602 18.5255 0.0000 -5.4017 0.0000
# 2 22.4602 134.1035 41.9977 0.0000 19.9540 0.0000
# 3 18.5255 41.9977 197.3004 0.0000 16.5163 0.0000
# 4 0.0000 0.0000 0.0000 36.6225 0.0000 5.3279
# 5 -5.4017 19.9540 16.5163 0.0000 49.1585 0.0000
# 6 0.0000 0.0000 0.0000 5.3279 0.0000 18.7986
#
#
#
# Elastic Compliance Matrix: (Units=1/GPa)
#
#
# Indices 1 2 3 4 5 6 
#
# 1 0.016651 -0.002913 -0.001230 0.000000 0.003425 0.000000
# 2 -0.002913 0.008877 -0.001325 0.000000 -0.003478 0.000000
# 3 -0.001230 -0.001325 0.005589 0.000000 -0.001475 0.000000
# 4 0.000000 0.000000 0.000000 0.028480 0.000000 -0.008072
# 5 0.003425 -0.003478 -0.001475 0.000000 0.022626 0.000000
# 6 0.000000 0.000000 0.000000 -0.008072 0.000000 0.055483
#
#
# Mechanical properties :
#
#
# Convention : Reuss Voigt Hill
#
# Bulk Modulus (GPa) = 49.55109 62.64858 56.09984
# Shear Modulus (GPa) = 32.18112 41.90839 37.04475
#
# Velocity S-wave (km/s) = 3.56935 4.07323 3.82958
# Velocity P-wave (km/s) = 6.05011 6.85008 6.46249
#
# Compressibility (1/GPa) = 0.02018119
#
# Stress axis : x y z
#
# Youngs Moduli (GPa) = 60.05712 112.64640 178.90893
#
# Poissons Ratio (x) = 0.32816 0.22007
# Poissons Ratio (y) = 0.17496 0.23704
# Poissons Ratio (z) = 0.07387 0.14925
#
# Static dielectric constant tensor:
#      x y z
#    x 4.539710 0.000000 0.449150 
#    y 0.000000 4.511870 0.000000 
#    z 0.449150 0.000000 5.187900 
# 
# 
# High freq. dielectric constant tensor:
#      x y z
#    x 2.001670 0.000000 0.013090 
#    y 0.000000 2.006010 0.000000 
#    z 0.013090 0.000000 2.041420 
# 
# From -- ./inp_files/25919.got.cif
#   From: 2010.03.12/outbox.cif.g09.slc.cpg/sg5_13_cif.got.tgz:25919.got - 2010.03.31 09:47:26.
