data_PCOD8052542
_publ_section_title
;
Structure prediction by ZEFSAII (Michael W. Deem and Ramdas Pophale) SiO2 
 PCOD8052542
Probable space group: P M
;
_chemical_formula_sum "Si O2"
_cell_formula_units_Z 16
_cell_length_a 19.608132
_cell_length_b 8.446514
_cell_length_c 7.704566
_cell_angle_alpha 90.000000
_cell_angle_beta 142.825700
_cell_angle_gamma 90.000000
_cell_volume 771.032443
_symmetry_space_group_name_H-M "P M"
_symmetry_group_IT_number 6
_symmetry_cell_setting 'monoclinic'
loop_
_space_group_symop_operation_xyz
x,y,z
x,-y,z
loop_
_atom_site_type_symbol
_atom_site_label
_atom_site_fract_x
_atom_site_fract_y
_atom_site_fract_z
Si Si1 0.650610 0.686032 0.160710
Si Si2 0.253548 0.814272 0.716623
Si Si3 0.795166 0.313168 0.787185
Si Si4 0.017235 0.317351 0.720680
Si Si5 0.016490 0.186590 0.093231
Si Si6 0.789219 0.184662 0.130313
Si Si7 0.250862 0.184079 0.097125
Si Si8 0.395227 0.316172 0.698456
O O1 0.661117 0.500000 0.144714
O O2 0.716809 0.735607 0.467716
O O3 0.699937 0.781003 0.099387
O O4 0.521837 0.741096 0.920380
O O5 0.133470 0.746191 0.408678
O O6 0.351253 0.771632 0.780484
O O7 0.239961 0.000000 0.702860
O O8 0.282925 0.751792 0.969729
O O9 0.811338 0.500000 0.830691
O O10 0.736134 0.245349 0.841147
O O11 0.916221 0.227140 0.021296
O O12 0.050658 0.500000 0.765138
O O13 0.904731 0.281178 0.386517
O O14 0.990359 0.281024 0.865510
O O15 0.117989 0.207773 0.856794
O O16 0.022541 0.000000 0.067151
O O17 0.816287 0.000000 0.181274
O O18 0.320098 0.282297 0.378138
O O19 0.280045 0.000000 0.180689
O O20 0.390878 0.500000 0.732463
#
# Coordination Sequence:
#
# PCOD8052542 Si02
#       8
#     2   2   2   2   2   2   2   2
#     4  10  24  45  65  89 123 165 214 263 312 371
#     4  10  23  41  63  90 126 165 203 254 312 371
#     4  11  23  41  66  93 127 167 209 260 312 374
#     4  12  23  38  63  95 129 166 206 253 313 381
#     4  11  21  37  63  95 129 164 203 253 314 378
#     4  12  25  41  65  95 128 165 207 260 316 377
#     4  11  23  41  64  94 129 165 208 257 311 373
#     4  11  24  42  65  91 123 165 212 262 314 371
#
# _framework density 20.751397000000001
#
# number of rings (size 3 to 8) (size 9 to 14) (size 15 to 20)
#    0.000    1.000    2.500    4.500    0.000    5.000 
#    0.000    3.750    0.000    0.000    0.000    0.000 
#    0.000    0.000    0.000    0.000    0.000    0.000 
#
# Total GULP energy -198498.642991 kJ/mol
# GULP energy per Si atom -12406.165187 kJ/mol
# Density = 2.070417 g / cm^3
# Si number density = 20.751397 Si / 1000 Ang^3
#
#
#
# Elastic Constant Matrix: (Units=GPa)
#
#
# Indices 1 2 3 4 5 6 
#
# 1 136.4956 16.0222 69.4637 0.0000 -19.0637 0.0000
# 2 16.0222 46.1906 7.8701 0.0000 -4.3255 0.0000
# 3 69.4637 7.8701 65.7009 0.0000 14.4132 0.0000
# 4 0.0000 0.0000 0.0000 19.6704 0.0000 2.3172
# 5 -19.0637 -4.3255 14.4132 0.0000 36.4159 0.0000
# 6 0.0000 0.0000 0.0000 2.3172 0.0000 32.4549
#
#
#
# Elastic Compliance Matrix: (Units=1/GPa)
#
#
# Indices 1 2 3 4 5 6 
#
# 1 0.036203 -0.001196 -0.046278 0.000000 0.037127 0.000000
# 2 -0.001196 0.022691 -0.002089 0.000000 0.002896 0.000000
# 3 -0.046278 -0.002089 0.076402 0.000000 -0.054714 0.000000
# 4 0.000000 0.000000 0.000000 0.051269 0.000000 -0.003661
# 5 0.037127 0.002896 -0.054714 0.000000 0.068896 0.000000
# 6 0.000000 0.000000 0.000000 -0.003661 0.000000 0.031073
#
#
# Mechanical properties :
#
#
# Convention : Reuss Voigt Hill
#
# Bulk Modulus (GPa) = 27.64666 48.34435 37.99551
# Shear Modulus (GPa) = 12.57174 28.04364 20.30769
#
# Velocity S-wave (km/s) = 2.46402 3.68014 3.13168
# Velocity P-wave (km/s) = 4.63108 6.43470 5.60591
#
# Compressibility (1/GPa) = 0.03617073
#
# Stress axis : x y z
#
# Youngs Moduli (GPa) = 27.62188 44.06958 13.08867
#
# Poissons Ratio (x) = 0.05271 0.60572
# Poissons Ratio (y) = 0.03304 0.02734
# Poissons Ratio (z) = 1.27829 0.09205
#
# Static dielectric constant tensor:
#      x y z
#    x 3.921670 0.000000 -0.135200 
#    y 0.000000 3.638370 0.000000 
#    z -0.135200 0.000000 3.809790 
# 
# 
# High freq. dielectric constant tensor:
#      x y z
#    x 1.825820 0.000000 -0.009890 
#    y 0.000000 1.812040 0.000000 
#    z -0.009890 0.000000 1.809780 
# 
# From -- ./inp_files/4293.got.cif
#   From: 2010.03.12/outbox.cif.g09.slc.cpg/sg6_3_cif.got.tgz:4293.got - 2010.03.30 10:24:59.
