data_PCOD8052207
_publ_section_title
;
Structure prediction by ZEFSAII (Michael W. Deem and Ramdas Pophale) SiO2 
 PCOD8052207
Probable space group: C 2
;
_chemical_formula_sum "Si O2"
_cell_formula_units_Z 16
_cell_length_a 17.358582
_cell_length_b 5.320032
_cell_length_c 9.260944
_cell_angle_alpha 90.000000
_cell_angle_beta 44.259571
_cell_angle_gamma 90.000000
_cell_volume 596.874788
_symmetry_space_group_name_H-M "C 2"
_symmetry_group_IT_number 5
_symmetry_cell_setting 'monoclinic'
loop_
_space_group_symop_operation_xyz
x,y,z
-x,y,-z
1/2+x,1/2+y,z
1/2-x,1/2+y,-z
loop_
_atom_site_type_symbol
_atom_site_label
_atom_site_fract_x
_atom_site_fract_y
_atom_site_fract_z
Si Si1 0.230789 0.421280 0.114395
Si Si2 0.185653 0.615180 0.759402
Si Si3 0.500000 0.113185 0.500000
Si Si4 0.000000 0.243229 0.000000
Si Si5 0.594804 0.394987 0.625626
O O1 0.315529 0.358618 0.133018
O O2 0.107448 0.439164 0.344378
O O3 0.267055 0.686695 0.998822
O O4 0.309836 0.513104 0.601163
O O5 0.153188 0.674707 0.638748
O O6 0.097678 0.414129 0.935428
O O7 0.503917 0.284377 0.639100
O O8 0.960336 0.084483 0.189308
#
# Coordination Sequence:
#
# PCOD8052207 Si02
#       5
#     4   4   2   2   4
#     4  12  32  56  90 131 178 231 291 364 436 529
#     4  12  28  54  85 125 175 231 300 354 434 526
#     4  12  32  56  86 132 176 228 290 370 448 504
#     4  12  30  52  92 122 174 242 290 360 440 516
#     4  12  28  55  87 125 179 232 293 362 433 529
#
# _framework density 26.806294000000001
#
# number of rings (size 3 to 8) (size 9 to 14) (size 15 to 20)
#    0.000    0.000    2.500    3.750   10.500    6.000 
#    0.000    0.000    0.000    0.000    0.000    0.000 
#    0.000    0.000    0.000    0.000    0.000    0.000 
#
# Total GULP energy -99255.355013 kJ/mol
# GULP energy per Si atom -12406.919377 kJ/mol
# Density = 2.674528 g / cm^3
# Si number density = 26.806294 Si / 1000 Ang^3
#
#
#
# Elastic Constant Matrix: (Units=GPa)
#
#
# Indices 1 2 3 4 5 6 
#
# 1 157.1132 51.8718 47.3882 0.0001 20.4836 0.0001
# 2 51.8718 122.5904 54.2143 0.0004 -10.7868 0.0001
# 3 47.3882 54.2143 145.0911 0.0000 -20.5128 0.0000
# 4 0.0001 0.0004 0.0000 27.4155 0.0000 -14.5112
# 5 20.4836 -10.7868 -20.5128 0.0000 48.6658 0.0001
# 6 0.0001 0.0001 0.0000 -14.5112 0.0001 46.5374
#
#
#
# Elastic Compliance Matrix: (Units=1/GPa)
#
#
# Indices 1 2 3 4 5 6 
#
# 1 0.008866 -0.003127 -0.002502 0.000000 -0.005480 0.000000
# 2 -0.003127 0.010895 -0.002682 0.000000 0.002601 0.000000
# 3 -0.002502 -0.002682 0.009333 0.000000 0.004392 0.000000
# 4 0.000000 0.000000 0.000000 0.043686 0.000000 0.013622
# 5 -0.005480 0.002601 0.004392 0.000000 0.025283 0.000000
# 6 0.000000 0.000000 0.000000 0.013622 0.000000 0.025736
#
#
# Mechanical properties :
#
#
# Convention : Reuss Voigt Hill
#
# Bulk Modulus (GPa) = 80.18197 81.30483 80.74340
# Shear Modulus (GPa) = 34.58325 42.61178 38.59751
#
# Velocity S-wave (km/s) = 3.59572 3.99133 3.79868
# Velocity P-wave (km/s) = 6.87135 7.18591 7.03039
#
# Compressibility (1/GPa) = 0.01247163
#
# Stress axis : x y z
#
# Youngs Moduli (GPa) = 112.78525 91.78128 107.15165
#
# Poissons Ratio (x) = 0.28703 0.26810
# Poissons Ratio (y) = 0.35272 0.28739
# Poissons Ratio (z) = 0.28219 0.24616
#
# Static dielectric constant tensor:
#      x y z
#    x 5.065280 0.000000 0.089730 
#    y 0.000000 4.934920 0.000000 
#    z 0.089730 0.000000 5.097960 
# 
# 
# High freq. dielectric constant tensor:
#      x y z
#    x 2.090190 0.000000 -0.001830 
#    y 0.000000 2.082350 0.000000 
#    z -0.001830 0.000000 2.093840 
# 
# From -- ./inp_files/22342.got.cif
#   From: 2010.03.12/outbox.cif.g09.slc.cpg/sg5_12_cif.got.tgz:22342.got - 2010.03.31 09:47:26.
