data_PCOD8052012
_publ_section_title
;
Structure prediction by ZEFSAII (Michael W. Deem and Ramdas Pophale) SiO2 
 PCOD8052012
Probable space group: C 2
;
_chemical_formula_sum "Si O2"
_cell_formula_units_Z 20
_cell_length_a 13.229427
_cell_length_b 5.036420
_cell_length_c 13.100210
_cell_angle_alpha 90.000000
_cell_angle_beta 91.125117
_cell_angle_gamma 90.000000
_cell_volume 872.684961
_symmetry_space_group_name_H-M "C 2"
_symmetry_group_IT_number 5
_symmetry_cell_setting 'monoclinic'
loop_
_space_group_symop_operation_xyz
x,y,z
-x,y,-z
1/2+x,1/2+y,z
1/2-x,1/2+y,-z
loop_
_atom_site_type_symbol
_atom_site_label
_atom_site_fract_x
_atom_site_fract_y
_atom_site_fract_z
Si Si1 0.796670 0.206540 0.049702
Si Si2 0.506754 0.957846 0.381180
Si Si3 0.901656 0.960848 0.713418
Si Si4 0.461174 0.353265 0.098474
Si Si5 0.181529 0.512641 0.761392
O O1 0.787362 0.252254 0.172290
O O2 0.911308 0.105783 0.038756
O O3 0.781975 0.478075 0.986046
O O4 0.500000 0.012622 0.500000
O O5 0.586048 0.166672 0.333851
O O6 0.394300 0.975050 0.333234
O O7 0.539304 0.658647 0.359582
O O8 0.789463 0.088255 0.715118
O O9 0.948073 0.952786 0.828004
O O10 0.371316 0.213216 0.159888
O O11 0.500000 0.182688 0.000000
#
# Coordination Sequence:
#
# PCOD8052012 Si02
#       5
#     4   4   4   4   4
#     4  12  24  42  67  97 140 190 230 284 337 406
#     4  11  26  49  75 107 140 179 237 300 357 418
#     4  11  26  45  74 103 140 187 233 292 355 417
#     4  11  25  45  68 103 147 194 237 283 343 415
#     4  11  26  47  72 103 148 183 244 287 344 423
#
# _framework density 22.917777999999998
#
# number of rings (size 3 to 8) (size 9 to 14) (size 15 to 20)
#    0.000    0.800    4.000    1.800    2.800    2.400 
#    3.600    0.000    0.000    0.000    0.000    0.000 
#    0.000    0.000    0.000    0.000    0.000    0.000 
#
# Total GULP energy -123883.767113 kJ/mol
# GULP energy per Si atom -12388.376711 kJ/mol
# Density = 2.286562 g / cm^3
# Si number density = 22.917778 Si / 1000 Ang^3
#
#
#
# Elastic Constant Matrix: (Units=GPa)
#
#
# Indices 1 2 3 4 5 6 
#
# 1 163.7922 30.9999 64.0175 0.0000 7.9989 0.0000
# 2 30.9999 97.5708 37.1485 0.0000 10.3174 0.0000
# 3 64.0175 37.1485 161.5199 0.0000 19.5445 0.0000
# 4 0.0000 0.0000 0.0000 25.8861 0.0000 -6.1117
# 5 7.9989 10.3174 19.5445 0.0000 33.0007 0.0000
# 6 0.0000 0.0000 0.0000 -6.1117 0.0000 28.6401
#
#
#
# Elastic Compliance Matrix: (Units=1/GPa)
#
#
# Indices 1 2 3 4 5 6 
#
# 1 0.007384 -0.001363 -0.002637 0.000000 0.000198 0.000000
# 2 -0.001363 0.011626 -0.001868 0.000000 -0.002198 0.000000
# 3 -0.002637 -0.001868 0.008098 0.000000 -0.003573 0.000000
# 4 0.000000 0.000000 0.000000 0.040680 0.000000 0.008681
# 5 0.000198 -0.002198 -0.003573 0.000000 0.033058 0.000000
# 6 0.000000 0.000000 0.000000 0.008681 0.000000 0.036769
#
#
# Mechanical properties :
#
#
# Convention : Reuss Voigt Hill
#
# Bulk Modulus (GPa) = 65.05108 76.35721 70.70414
# Shear Modulus (GPa) = 32.36775 36.88651 34.62713
#
# Velocity S-wave (km/s) = 3.76219 4.01623 3.89128
# Velocity P-wave (km/s) = 6.87883 7.40925 7.14896
#
# Compressibility (1/GPa) = 0.01537253
#
# Stress axis : x y z
#
# Youngs Moduli (GPa) = 135.42174 86.01777 123.48221
#
# Poissons Ratio (x) = 0.11724 0.32565
# Poissons Ratio (y) = 0.18458 0.23061
# Poissons Ratio (z) = 0.35714 0.16065
#
# Static dielectric constant tensor:
#      x y z
#    x 4.333710 0.000000 0.151020 
#    y 0.000000 4.102500 0.000000 
#    z 0.151020 0.000000 4.105150 
# 
# 
# High freq. dielectric constant tensor:
#      x y z
#    x 1.918460 0.000000 0.009590 
#    y 0.000000 1.900680 0.000000 
#    z 0.009590 0.000000 1.900140 
# 
# From -- ./inp_files/41065.got.cif
#   From: 2010.03.12/outbox.cif.g09.slc.cpg/sg5_21_cif.got.tgz:41065.got - 2010.03.31 09:47:26.
