data_PCOD8052492
_publ_section_title
;
Structure prediction by ZEFSAII (Michael W. Deem and Ramdas Pophale) SiO2 
 PCOD8052492
Probable space group: P M
;
_chemical_formula_sum "Si O2"
_cell_formula_units_Z 12
_cell_length_a 13.332499
_cell_length_b 7.547372
_cell_length_c 8.739367
_cell_angle_alpha 90.000000
_cell_angle_beta 45.253515
_cell_angle_gamma 90.000000
_cell_volume 624.576196
_symmetry_space_group_name_H-M "P M"
_symmetry_group_IT_number 6
_symmetry_cell_setting 'monoclinic'
loop_
_space_group_symop_operation_xyz
x,y,z
x,-y,z
loop_
_atom_site_type_symbol
_atom_site_label
_atom_site_fract_x
_atom_site_fract_y
_atom_site_fract_z
Si Si1 0.613230 0.000000 0.555580
Si Si2 0.300351 0.000000 0.839777
Si Si3 0.820172 0.701616 0.366957
Si Si4 0.067000 0.703914 0.597530
Si Si5 0.113799 0.295466 0.900921
Si Si6 0.565759 0.000000 0.965306
Si Si7 0.773101 0.700494 0.771489
Si Si8 0.250900 0.000000 0.252676
O O1 0.701483 0.824555 0.417101
O O2 0.581246 0.000000 0.768152
O O3 0.466690 0.000000 0.621621
O O4 0.239400 0.177307 0.830584
O O5 0.271890 0.000000 0.049843
O O6 0.783705 0.500000 0.361045
O O7 0.826385 0.730104 0.541712
O O8 0.971386 0.758880 0.140599
O O9 0.098862 0.500000 0.520683
O O10 0.095361 0.745831 0.742841
O O11 0.167285 0.823267 0.386026
O O12 0.903486 0.748746 0.741116
O O13 0.152122 0.500000 0.889543
O O14 0.641231 0.826036 0.954003
O O15 0.400111 0.000000 0.183541
O O16 0.721099 0.500000 0.853258
#
# Coordination Sequence:
#
# PCOD8052492 Si02
#       8
#     1   1   2   2   2   1   2   1
#     4   9  19  33  50  76 106 135 170 215 264 310
#     4  11  22  35  54  80 110 143 178 217 262 314
#     4   9  17  32  55  79 102 132 173 219 264 311
#     4  10  21  37  56  79 108 141 178 220 264 312
#     4  10  21  37  56  79 108 141 178 220 264 312
#     4   9  19  33  50  76 106 135 170 215 264 310
#     4   9  17  32  55  79 102 132 173 219 264 311
#     4  11  22  35  54  80 110 143 178 217 262 314
#
# _framework density 19.213027
#
# number of rings (size 3 to 8) (size 9 to 14) (size 15 to 20)
#    0.000    2.333    0.000    2.500    0.000    4.667 
#    0.000    6.667    0.000    4.000    0.000    0.000 
#    0.000    0.000    0.000    0.000    0.000    0.000 
#
# Total GULP energy -148827.593411 kJ/mol
# GULP energy per Si atom -12402.299451 kJ/mol
# Density = 1.916930 g / cm^3
# Si number density = 19.213027 Si / 1000 Ang^3
#
#
#
# Elastic Constant Matrix: (Units=GPa)
#
#
# Indices 1 2 3 4 5 6 
#
# 1 124.9260 71.6343 44.1577 0.0000 -29.5163 0.0000
# 2 71.6343 125.1965 40.2730 0.0000 -28.2158 0.0000
# 3 44.1577 40.2730 26.1435 0.0000 -20.3925 0.0000
# 4 0.0000 0.0000 0.0000 13.3617 0.0000 0.4545
# 5 -29.5163 -28.2158 -20.3925 0.0000 34.2134 0.0000
# 6 0.0000 0.0000 0.0000 0.4545 0.0000 28.5996
#
#
#
# Elastic Compliance Matrix: (Units=1/GPa)
#
#
# Indices 1 2 3 4 5 6 
#
# 1 0.020452 -0.000898 -0.037333 0.000000 -0.005348 0.000000
# 2 -0.000898 0.016014 -0.025145 0.000000 -0.002556 0.000000
# 3 -0.037333 -0.025145 0.184544 0.000000 0.057050 0.000000
# 4 0.000000 0.000000 0.000000 0.074882 0.000000 -0.001190
# 5 -0.005348 -0.002556 0.057050 0.000000 0.056511 0.000000
# 6 0.000000 0.000000 0.000000 -0.001190 0.000000 0.034984
#
#
# Mechanical properties :
#
#
# Convention : Reuss Voigt Hill
#
# Bulk Modulus (GPa) = 10.60927 65.37734 37.99331
# Shear Modulus (GPa) = 9.16489 23.24832 16.20660
#
# Velocity S-wave (km/s) = 2.18643 3.48232 2.90750
# Velocity P-wave (km/s) = 3.45078 7.09015 5.57576
#
# Compressibility (1/GPa) = 0.09425718
#
# Stress axis : x y z
#
# Youngs Moduli (GPa) = 48.89390 62.44436 5.41876
#
# Poissons Ratio (x) = 0.05611 0.20230
# Poissons Ratio (y) = 0.04393 0.13626
# Poissons Ratio (z) = 1.82536 1.57018
#
# Static dielectric constant tensor:
#      x y z
#    x 3.567420 0.000000 -0.159580 
#    y 0.000000 3.676930 0.000000 
#    z -0.159580 0.000000 3.398730 
# 
# 
# High freq. dielectric constant tensor:
#      x y z
#    x 1.744170 0.000000 -0.006550 
#    y 0.000000 1.762110 0.000000 
#    z -0.006550 0.000000 1.730430 
# 
# From -- ./inp_files/2552.got.cif
#   From: 2010.03.12/outbox.cif.g09.slc.cpg/sg6_2_cif.got.tgz:2552.got - 2010.03.30 10:24:59.
