data_PCOD8052081
_publ_section_title
;
Structure prediction by ZEFSAII (Michael W. Deem and Ramdas Pophale) SiO2 
 PCOD8052081
Probable space group: C 2
;
_chemical_formula_sum "Si O2"
_cell_formula_units_Z 24
_cell_length_a 16.048029
_cell_length_b 17.254386
_cell_length_c 9.419920
_cell_angle_alpha 90.000000
_cell_angle_beta 27.465419
_cell_angle_gamma 90.000000
_cell_volume 1203.012462
_symmetry_space_group_name_H-M "C 2"
_symmetry_group_IT_number 5
_symmetry_cell_setting 'monoclinic'
loop_
_space_group_symop_operation_xyz
x,y,z
-x,y,-z
1/2+x,1/2+y,z
1/2-x,1/2+y,-z
loop_
_atom_site_type_symbol
_atom_site_label
_atom_site_fract_x
_atom_site_fract_y
_atom_site_fract_z
Si Si1 0.703022 0.484070 0.663347
Si Si2 0.203357 0.577218 0.211149
Si Si3 0.493197 0.862060 0.843210
Si Si4 0.794223 0.592223 0.276799
Si Si5 0.006945 0.203361 0.320310
Si Si6 0.709735 0.481054 0.170685
O O1 0.763858 0.552822 0.676322
O O2 0.714634 0.522729 0.491686
O O3 0.831657 0.409219 0.474690
O O4 0.500000 0.455383 0.000000
O O5 0.000000 0.607513 0.500000
O O6 0.332835 0.646394 0.967454
O O7 0.239189 0.497527 0.069801
O O8 0.468790 0.785333 0.789547
O O9 0.500000 0.843355 0.000000
O O10 0.314002 0.910159 0.081984
O O11 0.680034 0.670532 0.461304
O O12 0.769388 0.561275 0.155042
O O13 0.000000 0.612025 0.000000
O O14 0.000000 0.213212 0.500000
O O15 0.500000 0.462590 0.500000
#
# Coordination Sequence:
#
# PCOD8052081 Si02
#       6
#     4   4   4   4   4   4
#     4  12  23  40  72 104 129 171 231 275 327 402
#     4  12  23  40  72 104 129 171 231 275 327 402
#     4  12  28  47  66 101 143 176 220 285 343 393
#     4  12  21  44  72  98 129 180 229 276 326 398
#     4  12  28  47  66 101 143 176 220 285 343 393
#     4  12  21  44  72  98 129 180 229 276 326 398
#
# _framework density 19.949918
#
# number of rings (size 3 to 8) (size 9 to 14) (size 15 to 20)
#    0.000    0.000   10.000    0.000    4.667    1.333 
#    0.000    3.333    0.000    0.000    0.000    0.000 
#    0.000    0.000    0.000    0.000    0.000    0.000 
#
# Total GULP energy -148846.957307 kJ/mol
# GULP energy per Si atom -12403.913109 kJ/mol
# Density = 1.990451 g / cm^3
# Si number density = 19.949918 Si / 1000 Ang^3
#
#
#
# Elastic Constant Matrix: (Units=GPa)
#
#
# Indices 1 2 3 4 5 6 
#
# 1 91.0552 43.9360 55.7214 -0.0194 -13.4699 0.0053
# 2 43.9360 83.5371 40.2320 -0.0604 4.2871 0.0147
# 3 55.7214 40.2320 146.2185 -0.0501 -27.0712 0.0103
# 4 -0.0194 -0.0604 -0.0501 6.0524 0.0206 10.0500
# 5 -13.4699 4.2871 -27.0712 0.0206 44.3815 -0.0050
# 6 0.0053 0.0147 0.0103 10.0500 -0.0050 35.6655
#
#
#
# Elastic Compliance Matrix: (Units=1/GPa)
#
#
# Indices 1 2 3 4 5 6 
#
# 1 0.017571 -0.007527 -0.003949 -0.000127 0.003651 0.000038
# 2 -0.007527 0.017724 -0.003098 0.000296 -0.005886 -0.000090
# 3 -0.003949 -0.003098 0.010179 0.000043 0.005310 -0.000013
# 4 -0.000127 0.000296 0.000043 0.310526 -0.000195 -0.087501
# 5 0.003651 -0.005886 0.005310 -0.000195 0.027448 0.000059
# 6 0.000038 -0.000090 -0.000013 -0.087501 0.000059 0.052695
#
#
# Mechanical properties :
#
#
# Convention : Reuss Voigt Hill
#
# Bulk Modulus (GPa) = 61.25085 66.73219 63.99152
# Shear Modulus (GPa) = 10.62174 29.28128 19.95151
#
# Velocity S-wave (km/s) = 2.30993 3.83526 3.16583
# Velocity P-wave (km/s) = 6.15494 7.28936 6.74604
#
# Compressibility (1/GPa) = 0.01632631
#
# Stress axis : x y z
#
# Youngs Moduli (GPa) = 56.91198 56.42108 98.23671
#
# Poissons Ratio (x) = 0.42468 0.38794
# Poissons Ratio (y) = 0.42838 0.30434
# Poissons Ratio (z) = 0.22475 0.17479
#
# Static dielectric constant tensor:
#      x y z
#    x 3.901830 -0.000010 0.016970 
#    y -0.000010 3.395550 0.000010 
#    z 0.016970 0.000010 4.003710 
# 
# 
# High freq. dielectric constant tensor:
#      x y z
#    x 1.802370 0.000000 0.000530 
#    y 0.000000 1.754460 0.000000 
#    z 0.000530 0.000000 1.795750 
# 
# From -- ./inp_files/25138.got.cif
#   From: 2010.03.12/outbox.cif.g09.slc.cpg/sg5_13_cif.got.tgz:25138.got - 2010.03.31 09:47:26.
