data_PCOD8052061
_publ_section_title
;
Structure prediction by ZEFSAII (Michael W. Deem and Ramdas Pophale) SiO2 
 PCOD8052061
Probable space group: C 2
;
_chemical_formula_sum "Si O2"
_cell_formula_units_Z 24
_cell_length_a 21.890930
_cell_length_b 5.185836
_cell_length_c 8.807300
_cell_angle_alpha 90.000000
_cell_angle_beta 114.774192
_cell_angle_gamma 90.000000
_cell_volume 907.811167
_symmetry_space_group_name_H-M "C 2"
_symmetry_group_IT_number 5
_symmetry_cell_setting 'monoclinic'
loop_
_space_group_symop_operation_xyz
x,y,z
-x,y,-z
1/2+x,1/2+y,z
1/2-x,1/2+y,-z
loop_
_atom_site_type_symbol
_atom_site_label
_atom_site_fract_x
_atom_site_fract_y
_atom_site_fract_z
Si Si1 0.282324 0.744050 0.689284
Si Si2 0.524960 0.035203 0.794697
Si Si3 0.286986 0.470534 0.987625
Si Si4 0.897953 0.617580 0.823331
Si Si5 0.147708 0.974633 0.478971
Si Si6 0.421537 0.507312 0.289005
O O1 0.297472 0.502730 0.817391
O O2 0.201809 0.783271 0.614467
O O3 0.304763 0.703227 0.537072
O O4 0.327033 0.985308 0.789993
O O5 0.449729 0.953071 0.770013
O O6 0.524304 0.273709 0.672890
O O7 0.556536 0.778586 0.758032
O O8 0.565963 0.160521 0.978586
O O9 0.234829 0.244319 0.964908
O O10 0.356239 0.396195 0.138165
O O11 0.887925 0.873313 0.711458
O O12 0.093090 0.060212 0.547226
#
# Coordination Sequence:
#
# PCOD8052061 Si02
#       6
#     4   4   4   4   4   4
#     4  12  26  44  73 107 152 193 246 310 386 452
#     4  11  28  52  80 105 150 207 257 305 359 463
#     4  12  26  44  77 109 148 195 247 313 374 450
#     4  11  27  50  76 108 147 205 255 305 379 450
#     4  12  28  44  75 111 153 196 244 321 389 440
#     4  12  27  49  75 114 148 194 257 309 376 441
#
# _framework density 26.437218999999999
#
# number of rings (size 3 to 8) (size 9 to 14) (size 15 to 20)
#    0.000    0.333    5.000    2.000    9.333    2.000 
#    0.000    0.000    0.000    0.000    0.000    0.000 
#    0.000    0.000    0.000    0.000    0.000    0.000 
#
# Total GULP energy -148731.475007 kJ/mol
# GULP energy per Si atom -12394.289584 kJ/mol
# Density = 2.637705 g / cm^3
# Si number density = 26.437219 Si / 1000 Ang^3
#
#
#
# Elastic Constant Matrix: (Units=GPa)
#
#
# Indices 1 2 3 4 5 6 
#
# 1 105.2190 39.3508 40.7149 0.0000 -41.2652 0.0000
# 2 39.3508 94.5835 6.7582 0.0000 -21.1078 0.0000
# 3 40.7149 6.7582 72.5625 0.0000 -24.5969 0.0000
# 4 0.0000 0.0000 0.0000 30.5666 0.0000 -23.9870
# 5 -41.2652 -21.1078 -24.5969 0.0000 55.2877 0.0000
# 6 0.0000 0.0000 0.0000 -23.9870 0.0000 44.5876
#
#
#
# Elastic Compliance Matrix: (Units=1/GPa)
#
#
# Indices 1 2 3 4 5 6 
#
# 1 0.016854 -0.004789 -0.006319 0.000000 0.007940 0.000000
# 2 -0.004789 0.012933 0.002290 0.000000 0.002382 0.000000
# 3 -0.006319 0.002290 0.018619 0.000000 0.004441 0.000000
# 4 0.000000 0.000000 0.000000 0.056618 0.000000 0.030459
# 5 0.007940 0.002382 0.004441 0.000000 0.026898 0.000000
# 6 0.000000 0.000000 0.000000 0.030459 0.000000 0.038814
#
#
# Mechanical properties :
#
#
# Convention : Reuss Voigt Hill
#
# Bulk Modulus (GPa) = 32.49932 49.55698 41.02815
# Shear Modulus (GPa) = 25.17245 38.45777 31.81511
#
# Velocity S-wave (km/s) = 3.08906 3.81817 3.47280
# Velocity P-wave (km/s) = 5.00427 6.18253 5.62434
#
# Compressibility (1/GPa) = 0.03076988
#
# Stress axis : x y z
#
# Youngs Moduli (GPa) = 59.33300 77.32193 53.70791
#
# Poissons Ratio (x) = 0.37026 0.33940
# Poissons Ratio (y) = 0.28412 -0.12298
# Poissons Ratio (z) = 0.37495 -0.17706
#
# Static dielectric constant tensor:
#      x y z
#    x 5.278560 0.000000 -0.149970 
#    y 0.000000 4.283180 0.000000 
#    z -0.149970 0.000000 4.912630 
# 
# 
# High freq. dielectric constant tensor:
#      x y z
#    x 2.085350 0.000000 -0.012670 
#    y 0.000000 2.041800 0.000000 
#    z -0.012670 0.000000 2.069640 
# 
# From -- ./inp_files/30327.got.cif
#   From: 2010.03.12/outbox.cif.g09.slc.cpg/sg5_16_cif.got.tgz:30327.got - 2010.03.31 09:47:26.
