data_PCOD8052418
_publ_section_title
;
Structure prediction by ZEFSAII (Michael W. Deem and Ramdas Pophale) SiO2 
 PCOD8052418
Probable space group: P M
;
_chemical_formula_sum "Si O2"
_cell_formula_units_Z 16
_cell_length_a 12.631340
_cell_length_b 8.802887
_cell_length_c 12.466708
_cell_angle_alpha 90.000000
_cell_angle_beta 144.308862
_cell_angle_gamma 90.000000
_cell_volume 808.731532
_symmetry_space_group_name_H-M "P M"
_symmetry_group_IT_number 6
_symmetry_cell_setting 'monoclinic'
loop_
_space_group_symop_operation_xyz
x,y,z
x,-y,z
loop_
_atom_site_type_symbol
_atom_site_label
_atom_site_fract_x
_atom_site_fract_y
_atom_site_fract_z
Si Si1 0.314510 0.819391 0.901840
Si Si2 0.889254 0.826947 0.234669
Si Si3 0.794801 0.819220 0.740242
Si Si4 0.677437 0.677678 0.239944
Si Si5 0.416229 0.818699 0.526323
Si Si6 0.938943 0.320867 0.646596
Si Si7 0.036309 0.180317 0.134006
Si Si8 0.291330 0.172558 0.646510
O O1 0.331697 0.750522 0.794754
O O2 0.134292 0.757467 0.809688
O O3 0.303036 0.000000 0.894079
O O4 0.488793 0.762490 0.111565
O O5 0.743458 0.723781 0.175578
O O6 0.914177 0.763663 0.134145
O O7 0.078160 0.816053 0.451751
O O8 0.816712 0.000000 0.174844
O O9 0.600366 0.762215 0.623715
O O10 0.825788 0.734531 0.655268
O O11 0.798733 0.000000 0.727161
O O12 0.948419 0.764405 0.950771
O O13 0.641656 0.500000 0.216008
O O14 0.826382 0.729907 0.449288
O O15 0.399709 0.753242 0.634963
O O16 0.243442 0.759389 0.314674
O O17 0.409528 0.000000 0.527201
O O18 0.965480 0.500000 0.672443
O O19 0.037774 0.000000 0.141857
O O20 0.355707 0.000000 0.708593
#
# Coordination Sequence:
#
# PCOD8052418 Si02
#       8
#     2   2   2   2   2   2   2   2
#     4  11  22  37  63  92 114 146 198 249 294 345
#     4   9  16  32  58  86 118 150 188 237 289 345
#     4  10  20  34  58  84 109 148 198 240 282 339
#     4  11  24  39  56  83 120 161 196 234 293 354
#     4   8  15  29  50  82 117 142 172 228 292 338
#     4  11  25  44  59  77 119 165 200 240 290 347
#     4   8  16  30  52  85 117 143 179 238 296 336
#     4   8  15  29  54  87 118 143 177 234 292 338
#
# _framework density 19.784067
#
# number of rings (size 3 to 8) (size 9 to 14) (size 15 to 20)
#    0.000    2.500    1.250    2.625    1.750    2.500 
#    0.000    1.875    0.000    3.000    0.000    0.000 
#    0.000    0.000    0.000    0.000    0.000    0.000 
#
# Total GULP energy -198348.277890 kJ/mol
# GULP energy per Si atom -12396.767368 kJ/mol
# Density = 1.973904 g / cm^3
# Si number density = 19.784067 Si / 1000 Ang^3
#
#
#
# Elastic Constant Matrix: (Units=GPa)
#
#
# Indices 1 2 3 4 5 6 
#
# 1 124.3698 29.8361 42.9568 0.0000 13.2929 0.0000
# 2 29.8361 45.3992 28.0076 0.0000 3.0529 0.0000
# 3 42.9568 28.0076 75.0441 0.0000 12.6680 0.0000
# 4 0.0000 0.0000 0.0000 19.6055 0.0000 4.3134
# 5 13.2929 3.0529 12.6680 0.0000 32.1708 0.0000
# 6 0.0000 0.0000 0.0000 4.3134 0.0000 9.4135
#
#
#
# Elastic Compliance Matrix: (Units=1/GPa)
#
#
# Indices 1 2 3 4 5 6 
#
# 1 0.010773 -0.004371 -0.004128 0.000000 -0.002411 0.000000
# 2 -0.004371 0.030465 -0.009303 0.000000 0.002578 0.000000
# 3 -0.004128 -0.009303 0.020057 0.000000 -0.005309 0.000000
# 4 0.000000 0.000000 0.000000 0.056725 0.000000 -0.025992
# 5 -0.002411 0.002578 -0.005309 0.000000 0.033926 0.000000
# 6 0.000000 0.000000 0.000000 -0.025992 0.000000 0.118141
#
#
# Mechanical properties :
#
#
# Convention : Reuss Voigt Hill
#
# Bulk Modulus (GPa) = 38.92563 49.60156 44.26360
# Shear Modulus (GPa) = 15.91064 21.83879 18.87471
#
# Velocity S-wave (km/s) = 2.83894 3.32604 3.09210
# Velocity P-wave (km/s) = 5.51943 6.31474 5.93043
#
# Compressibility (1/GPa) = 0.02569002
#
# Stress axis : x y z
#
# Youngs Moduli (GPa) = 92.82765 32.82421 49.85785
#
# Poissons Ratio (x) = 0.14347 0.20583
# Poissons Ratio (y) = 0.40573 0.46385
# Poissons Ratio (z) = 0.38322 0.30538
#
# Static dielectric constant tensor:
#      x y z
#    x 3.680780 0.000000 -0.025340 
#    y 0.000000 3.109900 0.000000 
#    z -0.025340 0.000000 3.832270 
# 
# 
# High freq. dielectric constant tensor:
#      x y z
#    x 1.775590 0.000000 0.004330 
#    y 0.000000 1.721150 0.000000 
#    z 0.004330 0.000000 1.778810 
# 
# From -- ./inp_files/5049.got.cif
#   From: 2010.03.12/outbox.cif.g09.slc.cpg/sg6_3_cif.got.tgz:5049.got - 2010.03.30 10:24:59.
