data_PCOD8052991
_publ_section_title
;
Structure prediction by ZEFSAII (Michael W. Deem and Ramdas Pophale) SiO2 
 PCOD8052991
Probable space group: C M
;
_chemical_formula_sum "Si O2"
_cell_formula_units_Z 32
_cell_length_a 20.836856
_cell_length_b 8.907326
_cell_length_c 12.236635
_cell_angle_alpha 90.000000
_cell_angle_beta 128.515680
_cell_angle_gamma 90.000000
_cell_volume 1777.016039
_symmetry_space_group_name_H-M "C M"
_symmetry_group_IT_number 8
_symmetry_cell_setting 'monoclinic'
loop_
_space_group_symop_operation_xyz
x,y,z
x,-y,z
1/2+x,1/2+y,z
1/2+x,1/2-y,z
loop_
_atom_site_type_symbol
_atom_site_label
_atom_site_fract_x
_atom_site_fract_y
_atom_site_fract_z
Si Si1 0.102180 0.323327 0.600310
Si Si2 0.282652 0.322596 0.749923
Si Si3 0.579490 0.826447 0.016932
Si Si4 0.509006 0.824017 0.712823
Si Si5 0.429441 0.828037 0.006648
Si Si6 0.687517 0.677177 0.299636
Si Si7 0.335447 0.321915 0.566651
Si Si8 0.057829 0.326415 0.316452
O O1 0.108889 0.500000 0.623148
O O2 0.193898 0.255741 0.688403
O O3 0.051969 0.281665 0.437290
O O4 0.054226 0.258036 0.653660
O O5 0.279833 0.500000 0.746047
O O6 0.347931 0.270152 0.909504
O O7 0.307834 0.263197 0.656855
O O8 0.571217 0.796175 0.879457
O O9 0.494673 0.776961 0.984308
O O10 0.596970 0.000000 0.062587
O O11 0.654100 0.730467 0.145924
O O12 0.427096 0.730492 0.641310
O O13 0.486903 0.000000 0.679777
O O14 0.404486 0.000000 0.962880
O O15 0.468767 0.800235 0.168003
O O16 0.696296 0.500000 0.308757
O O17 0.776381 0.749669 0.413236
O O18 0.626293 0.727126 0.330601
O O19 0.330395 0.500000 0.552910
O O20 0.085433 0.500000 0.332144
#
# Coordination Sequence:
#
# PCOD8052991 Si02
#       8
#     4   4   4   4   4   4   4   4
#     4   9  18  35  57  78 105 144 182 214 262 325
#     4  10  19  32  53  78 104 137 176 217 261 314
#     4   9  18  33  52  77 109 141 175 219 274 322
#     4  10  20  36  58  81 108 144 183 220 263 323
#     4   9  17  29  50  77 105 135 170 217 263 307
#     4  11  21  32  53  82 107 137 183 230 267 311
#     4  11  21  35  55  79 110 143 178 222 273 320
#     4   9  17  34  54  76 108 145 177 213 271 324
#
# _framework density 18.007717
#
# number of rings (size 3 to 8) (size 9 to 14) (size 15 to 20)
#    0.000    2.250    2.500    2.250    0.000    3.000 
#    0.000    2.500    0.000    3.000    0.000    0.000 
#    0.000    0.000    0.000    0.000    0.000    0.000 
#
# Total GULP energy -198401.822837 kJ/mol
# GULP energy per Si atom -12400.113927 kJ/mol
# Density = 1.796673 g / cm^3
# Si number density = 18.007717 Si / 1000 Ang^3
#
#
#
# Elastic Constant Matrix: (Units=GPa)
#
#
# Indices 1 2 3 4 5 6 
#
# 1 105.2783 31.9548 59.8420 0.0000 -4.9611 0.0000
# 2 31.9548 59.8020 41.5511 0.0000 5.1773 0.0000
# 3 59.8420 41.5511 135.9320 0.0000 -0.8954 0.0000
# 4 0.0000 0.0000 0.0000 28.2483 0.0000 7.6295
# 5 -4.9611 5.1773 -0.8954 0.0000 29.8087 0.0000
# 6 0.0000 0.0000 0.0000 7.6295 0.0000 20.4077
#
#
#
# Elastic Compliance Matrix: (Units=1/GPa)
#
#
# Indices 1 2 3 4 5 6 
#
# 1 0.013573 -0.004268 -0.004652 0.000000 0.002861 0.000000
# 2 -0.004268 0.023032 -0.005193 0.000000 -0.004867 0.000000
# 3 -0.004652 -0.005193 0.010995 0.000000 0.000458 0.000000
# 4 0.000000 0.000000 0.000000 0.039376 0.000000 -0.014721
# 5 0.002861 -0.004867 0.000458 0.000000 0.034882 0.000000
# 6 0.000000 0.000000 0.000000 -0.014721 0.000000 0.054505
#
#
# Mechanical properties :
#
#
# Convention : Reuss Voigt Hill
#
# Bulk Modulus (GPa) = 51.61690 63.07868 57.34779
# Shear Modulus (GPa) = 23.69120 26.87055 25.28087
#
# Velocity S-wave (km/s) = 3.63107 3.86705 3.75092
# Velocity P-wave (km/s) = 6.80482 7.41913 7.11861
#
# Compressibility (1/GPa) = 0.01937350
#
# Stress axis : x y z
#
# Youngs Moduli (GPa) = 73.67493 43.41713 90.95005
#
# Poissons Ratio (x) = 0.18531 0.42308
# Poissons Ratio (y) = 0.31446 0.47235
# Poissons Ratio (z) = 0.34272 0.22549
#
# Static dielectric constant tensor:
#      x y z
#    x 3.225730 0.000000 -0.052300 
#    y 0.000000 3.100300 0.000000 
#    z -0.052300 0.000000 3.581300 
# 
# 
# High freq. dielectric constant tensor:
#      x y z
#    x 1.667690 0.000000 0.004150 
#    y 0.000000 1.678280 0.000000 
#    z 0.004150 0.000000 1.713960 
# 
# From -- ./inp_files/23700.got.cif
#   From: 2010.03.12/outbox.cif.g09.slc.cpg/sg8_12_cif.got.tgz:23700.got - 2010.03.31 10:45:26.
