data_PCOD8052545
_publ_section_title
;
Structure prediction by ZEFSAII (Michael W. Deem and Ramdas Pophale) SiO2 
 PCOD8052545
Probable space group: P M
;
_chemical_formula_sum "Si O2"
_cell_formula_units_Z 16
_cell_length_a 9.683982
_cell_length_b 8.483331
_cell_length_c 19.459113
_cell_angle_alpha 90.000000
_cell_angle_beta 151.635704
_cell_angle_gamma 90.000000
_cell_volume 759.462758
_symmetry_space_group_name_H-M "P M"
_symmetry_group_IT_number 6
_symmetry_cell_setting 'monoclinic'
loop_
_space_group_symop_operation_xyz
x,y,z
x,-y,z
loop_
_atom_site_type_symbol
_atom_site_label
_atom_site_fract_x
_atom_site_fract_y
_atom_site_fract_z
Si Si1 0.556060 0.815230 0.515990
Si Si2 0.913806 0.316841 0.547349
Si Si3 0.380522 0.183423 0.058336
Si Si4 0.495554 0.813540 0.263235
Si Si5 0.773228 0.682729 0.753111
Si Si6 0.923929 0.681848 0.057474
Si Si7 0.910149 0.183296 0.192527
Si Si8 0.504912 0.818698 0.768556
O O1 0.765865 0.778852 0.544173
O O2 0.669768 0.722073 0.631592
O O3 0.226653 0.759763 0.356463
O O4 0.567335 0.000000 0.536932
O O5 0.848578 0.500000 0.529229
O O6 0.801164 0.252615 0.424458
O O7 0.257763 0.287677 0.695493
O O8 0.113539 0.277486 0.909024
O O9 0.298248 0.000000 0.019905
O O10 0.442468 0.241088 0.162436
O O11 0.676973 0.220318 0.148754
O O12 0.260705 0.730091 0.209331
O O13 0.484646 0.000000 0.267127
O O14 0.728200 0.500000 0.748340
O O15 0.575239 0.776602 0.720724
O O16 0.877609 0.500000 0.018679
O O17 0.796957 0.720271 0.076828
O O18 0.790496 0.789328 0.939057
O O19 0.919669 0.000000 0.177016
O O20 0.410792 0.000000 0.730649
#
# Coordination Sequence:
#
# PCOD8052545 Si02
#       8
#     2   2   2   2   2   2   2   2
#     4  11  24  44  69  95 131 179 223 266 325 397
#     4  12  26  44  67 100 135 170 219 279 336 387
#     4  10  23  43  68  97 129 172 224 268 320 393
#     4  11  22  41  69  97 129 173 221 269 327 394
#     4  12  26  44  66  97 136 173 217 275 333 388
#     4  12  24  41  67  98 132 169 217 277 334 384
#     4  10  23  43  68  97 129 172 224 268 320 392
#     4  12  26  46  70  95 129 176 225 270 329 405
#
# _framework density 21.067523999999999
#
# number of rings (size 3 to 8) (size 9 to 14) (size 15 to 20)
#    0.000    0.750    2.500    5.250    3.500    1.500 
#    0.000    0.000    0.000    0.000    0.000    0.000 
#    0.000    0.000    0.000    0.000    0.000    0.000 
#
# Total GULP energy -198516.227688 kJ/mol
# GULP energy per Si atom -12407.264230 kJ/mol
# Density = 2.101957 g / cm^3
# Si number density = 21.067524 Si / 1000 Ang^3
#
#
#
# Elastic Constant Matrix: (Units=GPa)
#
#
# Indices 1 2 3 4 5 6 
#
# 1 86.2042 20.0030 38.5560 0.0000 5.3946 0.0000
# 2 20.0030 85.5230 26.7642 0.0000 -3.8060 0.0000
# 3 38.5560 26.7642 85.8093 0.0000 -6.3766 0.0000
# 4 0.0000 0.0000 0.0000 31.3265 0.0000 -0.2322
# 5 5.3946 -3.8060 -6.3766 0.0000 39.2381 0.0000
# 6 0.0000 0.0000 0.0000 -0.2322 0.0000 24.7270
#
#
#
# Elastic Compliance Matrix: (Units=1/GPa)
#
#
# Indices 1 2 3 4 5 6 
#
# 1 0.015103 -0.001639 -0.006520 0.000000 -0.003295 0.000000
# 2 -0.001639 0.013150 -0.003293 0.000000 0.000966 0.000000
# 3 -0.006520 -0.003293 0.015845 0.000000 0.003152 0.000000
# 4 0.000000 0.000000 0.000000 0.031924 0.000000 0.000300
# 5 -0.003295 0.000966 0.003152 0.000000 0.026544 0.000000
# 6 0.000000 0.000000 0.000000 0.000300 0.000000 0.040444
#
#
# Mechanical properties :
#
#
# Convention : Reuss Voigt Hill
#
# Bulk Modulus (GPa) = 47.18431 47.57590 47.38010
# Shear Modulus (GPa) = 28.90537 30.53919 29.72228
#
# Velocity S-wave (km/s) = 3.70812 3.81147 3.76015
# Velocity P-wave (km/s) = 6.38583 6.48085 6.43351
#
# Compressibility (1/GPa) = 0.02119349
#
# Stress axis : x y z
#
# Youngs Moduli (GPa) = 66.21264 76.04764 63.11275
#
# Poissons Ratio (x) = 0.12462 0.41148
# Poissons Ratio (y) = 0.10850 0.20785
# Poissons Ratio (z) = 0.43169 0.25045
#
# Static dielectric constant tensor:
#      x y z
#    x 3.786300 0.000000 -0.024050 
#    y 0.000000 3.715870 0.000000 
#    z -0.024050 0.000000 3.828360 
# 
# 
# High freq. dielectric constant tensor:
#      x y z
#    x 1.834360 0.000000 -0.002740 
#    y 0.000000 1.826820 0.000000 
#    z -0.002740 0.000000 1.834980 
# 
# From -- ./inp_files/3809.got.cif
#   From: 2010.03.12/outbox.cif.g09.slc.cpg/sg6_2_cif.got.tgz:3809.got - 2010.03.30 10:24:59.
