data_PCOD8052956
_publ_section_title
;
Structure prediction by ZEFSAII (Michael W. Deem and Ramdas Pophale) SiO2 
 PCOD8052956
Probable space group: C M
;
_chemical_formula_sum "Si O2"
_cell_formula_units_Z 32
_cell_length_a 28.030700
_cell_length_b 9.056738
_cell_length_c 21.403199
_cell_angle_alpha 90.000000
_cell_angle_beta 18.346601
_cell_angle_gamma 90.000000
_cell_volume 1710.291997
_symmetry_space_group_name_H-M "C M"
_symmetry_group_IT_number 8
_symmetry_cell_setting 'monoclinic'
loop_
_space_group_symop_operation_xyz
x,y,z
x,-y,z
1/2+x,1/2+y,z
1/2+x,1/2-y,z
loop_
_atom_site_type_symbol
_atom_site_label
_atom_site_fract_x
_atom_site_fract_y
_atom_site_fract_z
Si Si1 0.728360 0.330606 0.127690
Si Si2 0.749550 0.674816 0.619078
Si Si3 0.195142 0.172292 0.910141
Si Si4 0.985448 0.837765 0.864821
Si Si5 0.059333 0.168388 0.212681
Si Si6 0.805118 0.163032 0.217360
Si Si7 0.040005 0.326153 0.466030
Si Si8 0.061965 0.674684 0.959903
O O1 0.729974 0.500000 0.145593
O O2 0.684449 0.306950 0.110475
O O3 0.603851 0.251122 0.324983
O O4 0.899731 0.269610 0.923322
O O5 0.739254 0.500000 0.643806
O O6 0.652858 0.719019 0.677057
O O7 0.684367 0.754400 0.761274
O O8 0.920772 0.721885 0.395506
O O9 0.368633 0.224535 0.689410
O O10 0.094473 0.269466 0.988966
O O11 0.178103 0.000000 0.914548
O O12 0.139576 0.207852 0.048441
O O13 0.996050 0.000000 0.820625
O O14 0.891543 0.846863 0.044842
O O15 0.999328 0.000000 0.288114
O O16 0.635306 0.216949 0.410328
O O17 0.802790 0.000000 0.251800
O O18 0.889612 0.277457 0.157716
O O19 0.054105 0.500000 0.436924
O O20 0.075050 0.500000 0.939864
#
# Coordination Sequence:
#
# PCOD8052956 Si02
#       8
#     4   4   4   4   4   4   4   4
#     4  10  19  31  51  79 107 132 164 211 261 305
#     4  10  20  35  56  79 104 137 175 212 255 308
#     4  10  21  38  55  72 102 142 178 213 257 306
#     4   8  16  31  51  76 103 131 167 208 250 304
#     4  10  22  37  52  75 106 138 175 217 257 303
#     4   8  15  30  51  76 103 131 168 211 256 306
#     4   9  18  33  55  78  99 131 174 212 251 307
#     4  11  21  33  53  81 108 134 171 216 259 305
#
# _framework density 18.710253999999999
#
# number of rings (size 3 to 8) (size 9 to 14) (size 15 to 20)
#    0.000    2.500    0.000    4.125    0.000    9.000 
#    0.000    1.250    0.000    3.000    0.000    0.000 
#    0.000    0.000    0.000    0.000    0.000    0.000 
#
# Total GULP energy -198365.467070 kJ/mol
# GULP energy per Si atom -12397.841692 kJ/mol
# Density = 1.866767 g / cm^3
# Si number density = 18.710254 Si / 1000 Ang^3
#
#
#
# Elastic Constant Matrix: (Units=GPa)
#
#
# Indices 1 2 3 4 5 6 
#
# 1 129.6857 64.3492 53.6180 0.0000 -15.1592 0.0000
# 2 64.3492 91.4581 29.4449 -0.0006 -5.5095 -0.0001
# 3 53.6180 29.4449 32.5682 -0.0005 -7.8623 0.0000
# 4 0.0000 -0.0006 -0.0005 20.4689 0.0001 -7.4979
# 5 -15.1592 -5.5095 -7.8623 0.0001 26.8399 0.0000
# 6 0.0000 -0.0001 0.0000 -7.4979 0.0000 25.3314
#
#
#
# Elastic Compliance Matrix: (Units=1/GPa)
#
#
# Indices 1 2 3 4 5 6 
#
# 1 0.026843 -0.006641 -0.037510 -0.000001 0.002810 0.000000
# 2 -0.006641 0.017091 -0.004926 0.000000 -0.001685 0.000000
# 3 -0.037510 -0.004926 0.098521 0.000003 0.006663 0.000001
# 4 -0.000001 0.000000 0.000003 0.054796 0.000000 0.016219
# 5 0.002810 -0.001685 0.006663 0.000000 0.040451 0.000000
# 6 0.000000 0.000000 0.000001 0.016219 0.000000 0.044278
#
#
# Mechanical properties :
#
#
# Convention : Reuss Voigt Hill
#
# Bulk Modulus (GPa) = 22.57267 60.94848 41.76058
# Shear Modulus (GPa) = 12.66148 21.61469 17.13809
#
# Velocity S-wave (km/s) = 2.60419 3.40256 3.02979
# Velocity P-wave (km/s) = 4.59706 6.93413 5.88282
#
# Compressibility (1/GPa) = 0.04430136
#
# Stress axis : x y z
#
# Youngs Moduli (GPa) = 37.25379 58.51151 10.15015
#
# Poissons Ratio (x) = 0.38857 0.38073
# Poissons Ratio (y) = 0.24740 0.05000
# Poissons Ratio (z) = 1.39739 0.28820
#
# Static dielectric constant tensor:
#      x y z
#    x 3.559660 0.000000 -0.482320 
#    y 0.000000 3.421870 0.000000 
#    z -0.482320 0.000000 3.499460 
# 
# 
# High freq. dielectric constant tensor:
#      x y z
#    x 1.723180 0.000000 -0.030790 
#    y 0.000000 1.723240 0.000000 
#    z -0.030790 0.000000 1.709370 
# 
# From -- ./inp_files/31635.got.cif
#   From: 2010.03.12/outbox.cif.g09.slc.cpg/sg8_16_cif.got.tgz:31635.got - 2010.03.31 10:45:26.
