data_PCOD8052508
_publ_section_title
;
Structure prediction by ZEFSAII (Michael W. Deem and Ramdas Pophale) SiO2 
 PCOD8052508
Probable space group: P M
;
_chemical_formula_sum "Si O2"
_cell_formula_units_Z 16
_cell_length_a 9.179565
_cell_length_b 8.875213
_cell_length_c 11.096923
_cell_angle_alpha 90.000000
_cell_angle_beta 65.182142
_cell_angle_gamma 90.000000
_cell_volume 820.578797
_symmetry_space_group_name_H-M "P M"
_symmetry_group_IT_number 6
_symmetry_cell_setting 'monoclinic'
loop_
_space_group_symop_operation_xyz
x,y,z
x,-y,z
loop_
_atom_site_type_symbol
_atom_site_label
_atom_site_fract_x
_atom_site_fract_y
_atom_site_fract_z
Si Si1 0.293590 0.823962 0.135440
Si Si2 0.922904 0.674301 0.879364
Si Si3 0.874635 0.174121 0.645599
Si Si4 0.705890 0.826581 0.363346
Si Si5 0.531624 0.172940 0.662878
Si Si6 0.639989 0.826390 0.114888
Si Si7 0.004218 0.677516 0.366798
Si Si8 0.254266 0.674420 0.895019
O O1 0.472611 0.782549 0.113197
O O2 0.175395 0.734939 0.263433
O O3 0.258284 0.000000 0.160658
O O4 0.272028 0.777103 0.005400
O O5 0.908003 0.500000 0.849503
O O6 0.928321 0.771345 0.757026
O O7 0.082839 0.709159 0.897415
O O8 0.774081 0.719543 0.013522
O O9 0.684536 0.200304 0.695963
O O10 0.973934 0.263728 0.511396
O O11 0.918497 0.000000 0.615280
O O12 0.576515 0.782755 0.510266
O O13 0.626610 0.795792 0.262099
O O14 0.867532 0.730651 0.321128
O O15 0.756602 0.000000 0.363818
O O16 0.390242 0.283077 0.751505
O O17 0.473880 0.000000 0.691846
O O18 0.685141 0.000000 0.072910
O O19 0.005931 0.500000 0.368005
O O20 0.271777 0.500000 0.924767
#
# Coordination Sequence:
#
# PCOD8052508 Si02
#       8
#     2   2   2   2   2   2   2   2
#     4  11  23  39  59  84 114 150 193 237 282 335
#     4  11  24  39  56  83 117 150 188 236 288 339
#     4  10  21  39  62  86 113 149 192 233 279 336
#     4   9  19  38  61  85 115 151 192 234 278 332
#     4   9  19  36  59  86 113 146 189 234 279 334
#     4  10  22  39  60  85 112 148 194 239 282 333
#     4  11  22  37  59  88 119 150 186 229 282 339
#     4  11  24  39  56  83 117 152 190 234 286 340
#
# _framework density 19.498431
#
# number of rings (size 3 to 8) (size 9 to 14) (size 15 to 20)
#    0.000    1.750    0.000    4.875    0.000   12.000 
#    0.000    1.250    0.000    0.000    0.000    0.000 
#    0.000    0.000    0.000    0.000    0.000    0.000 
#
# Total GULP energy -198496.577694 kJ/mol
# GULP energy per Si atom -12406.036106 kJ/mol
# Density = 1.945405 g / cm^3
# Si number density = 19.498431 Si / 1000 Ang^3
#
#
#
# Elastic Constant Matrix: (Units=GPa)
#
#
# Indices 1 2 3 4 5 6 
#
# 1 113.5297 62.0604 61.6977 0.0000 0.7031 0.0000
# 2 62.0604 105.3900 48.8690 0.0000 -7.3157 0.0000
# 3 61.6977 48.8690 105.7173 0.0000 -5.6207 0.0000
# 4 0.0000 0.0000 0.0000 -0.0386 0.0000 3.4555
# 5 0.7031 -7.3157 -5.6207 0.0000 35.3368 0.0000
# 6 0.0000 0.0000 0.0000 3.4555 0.0000 27.7991
#
#
#
# Elastic Compliance Matrix: (Units=1/GPa)
#
#
# Indices 1 2 3 4 5 6 
#
# 1 0.015889 -0.006590 -0.006370 0.000000 -0.002694 0.000000
# 2 -0.006590 0.014904 -0.002897 0.000000 0.002756 0.000000
# 3 -0.006370 -0.002897 0.014614 0.000000 0.001852 0.000000
# 4 0.000000 0.000000 0.000000 -2.136123 0.000000 0.265525
# 5 -0.002694 0.002756 0.001852 0.000000 0.029218 0.000000
# 6 0.000000 0.000000 0.000000 0.265525 0.000000 0.002967
#
#
# Mechanical properties :
#
#
# Convention : Reuss Voigt Hill
#
# Bulk Modulus (GPa) = 73.02712 74.43234 73.72973
# Shear Modulus (GPa) = -2.47249 22.75345 10.14048
#
# Velocity S-wave (km/s) = -1.12730 3.41975 2.28297
# Velocity P-wave (km/s) = 5.98663 7.33821 6.69661
#
# Compressibility (1/GPa) = 0.01369354
#
# Stress axis : x y z
#
# Youngs Moduli (GPa) = 62.93697 67.09780 68.42552
#
# Poissons Ratio (x) = 0.44215 0.43587
# Poissons Ratio (y) = 0.41473 0.19823
# Poissons Ratio (z) = 0.40091 0.19439
#
# Static dielectric constant tensor:
#      x y z
#    x 3.565210 0.000000 0.037170 
#    y 0.000000 3.595850 0.000000 
#    z 0.037170 0.000000 3.670760 
# 
# 
# High freq. dielectric constant tensor:
#      x y z
#    x 1.759960 0.000000 0.003040 
#    y 0.000000 1.763920 0.000000 
#    z 0.003040 0.000000 1.772430 
# 
# From -- ./inp_files/3762.got.cif
#   From: 2010.03.12/outbox.cif.g09.slc.cpg/sg6_2_cif.got.tgz:3762.got - 2010.03.30 10:24:59.
