data_PCOD8052294
_publ_section_title
;
Structure prediction by ZEFSAII (Michael W. Deem and Ramdas Pophale) SiO2 
 PCOD8052294
Probable space group: P M
;
_chemical_formula_sum "Si O2"
_cell_formula_units_Z 16
_cell_length_a 10.326917
_cell_length_b 8.815945
_cell_length_c 12.062930
_cell_angle_alpha 90.000000
_cell_angle_beta 52.399214
_cell_angle_gamma 90.000000
_cell_volume 870.105186
_symmetry_space_group_name_H-M "P M"
_symmetry_group_IT_number 6
_symmetry_cell_setting 'monoclinic'
loop_
_space_group_symop_operation_xyz
x,y,z
x,-y,z
loop_
_atom_site_type_symbol
_atom_site_label
_atom_site_fract_x
_atom_site_fract_y
_atom_site_fract_z
Si Si1 0.623200 0.826397 0.613950
Si Si2 0.445600 0.176240 0.070877
Si Si3 0.787792 0.322651 0.930811
Si Si4 0.952319 0.820093 0.055573
Si Si5 0.891643 0.172158 0.658610
Si Si6 0.852215 0.677576 0.327416
Si Si7 0.315821 0.179712 0.904008
Si Si8 0.109692 0.174575 0.347788
O O1 0.731521 0.808748 0.667362
O O2 0.690280 0.723202 0.480011
O O3 0.440949 0.771271 0.741258
O O4 0.624432 0.000000 0.572553
O O5 0.303631 0.199129 0.236920
O O6 0.497203 0.000000 0.034002
O O7 0.599703 0.272793 0.028053
O O8 0.378398 0.241207 0.989639
O O9 0.798199 0.500000 0.947844
O O10 0.878615 0.284621 0.768477
O O11 0.880081 0.234529 0.978409
O O12 0.843550 0.757112 0.212786
O O13 0.949633 0.000000 0.060927
O O14 0.137095 0.755231 0.969902
O O15 0.051467 0.216794 0.502475
O O16 0.905063 0.000000 0.695824
O O17 0.853516 0.500000 0.308385
O O18 0.015818 0.725945 0.306315
O O19 0.308099 0.000000 0.917083
O O20 0.061275 0.000000 0.347587
#
# Coordination Sequence:
#
# PCOD8052294 Si02
#       8
#     2   2   2   2   2   2   2   2
#     4   9  17  33  57  84 111 142 184 234 278 326
#     4  10  18  36  61  86 110 142 192 241 276 322
#     4  12  25  38  53  82 120 155 185 225 285 345
#     4  11  22  40  62  82 108 150 194 235 278 331
#     4   9  17  33  57  83 110 146 187 230 274 328
#     4  11  21  33  52  84 120 149 180 225 284 340
#     4   9  17  33  61  88 107 135 191 245 276 315
#     4   9  18  34  59  85 110 143 191 237 275 323
#
# _framework density 18.388580999999999
#
# number of rings (size 3 to 8) (size 9 to 14) (size 15 to 20)
#    0.000    2.000    2.500    3.375    0.000    2.500 
#    0.000    2.500    0.000    3.000    0.000    0.000 
#    0.000    0.000    0.000    0.000    0.000    0.000 
#
# Total GULP energy -198415.701423 kJ/mol
# GULP energy per Si atom -12400.981339 kJ/mol
# Density = 1.834673 g / cm^3
# Si number density = 18.388581 Si / 1000 Ang^3
#
#
#
# Elastic Constant Matrix: (Units=GPa)
#
#
# Indices 1 2 3 4 5 6 
#
# 1 86.5361 28.0990 53.6922 0.0000 -4.8165 0.0000
# 2 28.0990 82.0143 41.7020 0.0000 2.6909 0.0000
# 3 53.6922 41.7020 131.4244 0.0000 -5.4140 0.0000
# 4 0.0000 0.0000 0.0000 9.6936 0.0000 1.5279
# 5 -4.8165 2.6909 -5.4140 0.0000 21.9479 0.0000
# 6 0.0000 0.0000 0.0000 1.5279 0.0000 16.9425
#
#
#
# Elastic Compliance Matrix: (Units=1/GPa)
#
#
# Indices 1 2 3 4 5 6 
#
# 1 0.016049 -0.002740 -0.005585 0.000000 0.002480 0.000000
# 2 -0.002740 0.015198 -0.003844 0.000000 -0.003413 0.000000
# 3 -0.005585 -0.003844 0.011193 0.000000 0.002007 0.000000
# 4 0.000000 0.000000 0.000000 0.104649 0.000000 -0.009437
# 5 0.002480 -0.003413 0.002007 0.000000 0.047020 0.000000
# 6 0.000000 0.000000 0.000000 -0.009437 0.000000 0.059874
#
#
# Mechanical properties :
#
#
# Convention : Reuss Voigt Hill
#
# Bulk Modulus (GPa) = 55.24097 60.77344 58.00720
# Shear Modulus (GPa) = 17.58367 21.48225 19.53296
#
# Velocity S-wave (km/s) = 3.09565 3.42166 3.26273
# Velocity P-wave (km/s) = 6.54855 6.98080 6.76813
#
# Compressibility (1/GPa) = 0.01810251
#
# Stress axis : x y z
#
# Youngs Moduli (GPa) = 62.30945 65.79756 89.34221
#
# Poissons Ratio (x) = 0.18029 0.49898
# Poissons Ratio (y) = 0.17073 0.34340
# Poissons Ratio (z) = 0.34800 0.25290
#
# Static dielectric constant tensor:
#      x y z
#    x 3.204320 0.000000 -0.162340 
#    y 0.000000 3.158270 0.000000 
#    z -0.162340 0.000000 3.653580 
# 
# 
# High freq. dielectric constant tensor:
#      x y z
#    x 1.684660 0.000000 -0.009920 
#    y 0.000000 1.693730 0.000000 
#    z -0.009920 0.000000 1.732030 
# 
# From -- ./inp_files/3747.got.cif
#   From: 2010.03.12/outbox.cif.g09.slc.cpg/sg6_2_cif.got.tgz:3747.got - 2010.03.30 10:24:59.
