data_PCOD8052648
_publ_section_title
;
Structure prediction by ZEFSAII (Michael W. Deem and Ramdas Pophale) SiO2 
 PCOD8052648
Probable space group: P C
;
_chemical_formula_sum "Si O2"
_cell_formula_units_Z 14
_cell_length_a 9.042065
_cell_length_b 13.619444
_cell_length_c 5.084768
_cell_angle_alpha 90.000000
_cell_angle_beta 72.452495
_cell_angle_gamma 90.000000
_cell_volume 597.040716
_symmetry_space_group_name_H-M "P C"
_symmetry_group_IT_number 7
_symmetry_cell_setting 'monoclinic'
loop_
_space_group_symop_operation_xyz
x,y,z
x,-y,1/2+z
loop_
_atom_site_type_symbol
_atom_site_label
_atom_site_fract_x
_atom_site_fract_y
_atom_site_fract_z
Si Si1 0.767140 0.557193 0.089600
Si Si2 0.549617 0.749680 0.768279
Si Si3 0.393137 0.940535 0.660391
Si Si4 0.108441 0.435393 0.043287
Si Si5 0.886141 0.267894 0.285531
Si Si6 0.452344 0.361705 0.815092
Si Si7 0.035619 0.064137 0.360234
O O1 0.832558 0.488308 0.281959
O O2 0.580562 0.555763 0.177776
O O3 0.830190 0.668836 0.071368
O O4 0.508296 0.857154 0.691690
O O5 0.736113 0.743305 0.679226
O O6 0.486055 0.673551 0.590851
O O7 0.466848 0.726179 0.092186
O O8 0.215397 0.905341 0.771410
O O9 0.425842 0.969055 0.341098
O O10 0.067928 0.480936 0.351275
O O11 0.019531 0.330064 0.062551
O O12 0.287420 0.412306 0.897523
O O13 0.940825 0.163138 0.361970
O O14 0.992366 0.016146 0.662481
#
# Coordination Sequence:
#
# PCOD8052648 Si02
#       7
#     2   2   2   2   2   2   2
#     4  11  22  40  63  92 129 173 215 261 316 377
#     4  11  24  41  66  97 129 174 218 267 332 389
#     4  10  21  41  66  93 124 164 217 275 324 384
#     4  12  26  44  67  99 133 177 224 271 324 388
#     4  11  26  43  67  99 139 173 213 272 334 395
#     4  11  23  42  66  93 129 176 225 268 312 384
#     4  10  24  43  67  95 129 171 216 268 330 389
#
# _framework density 23.448989000000001
#
# number of rings (size 3 to 8) (size 9 to 14) (size 15 to 20)
#    0.000    1.143    0.000    6.000    0.000   10.286 
#    0.000    0.000    0.000    0.000    0.000    0.000 
#    0.000    0.000    0.000    0.000    0.000    0.000 
#
# Total GULP energy -173607.643198 kJ/mol
# GULP energy per Si atom -12400.545943 kJ/mol
# Density = 2.339562 g / cm^3
# Si number density = 23.448989 Si / 1000 Ang^3
#
#
#
# Elastic Constant Matrix: (Units=GPa)
#
#
# Indices 1 2 3 4 5 6 
#
# 1 132.6434 63.1969 36.1138 0.0000 6.2372 0.0000
# 2 63.1969 123.7771 24.7256 0.0000 2.7259 0.0000
# 3 36.1138 24.7256 102.6103 0.0000 5.5651 0.0000
# 4 0.0000 0.0000 0.0000 20.2776 0.0000 6.0865
# 5 6.2372 2.7259 5.5651 0.0000 31.5112 0.0000
# 6 0.0000 0.0000 0.0000 6.0865 0.0000 45.4022
#
#
#
# Elastic Compliance Matrix: (Units=1/GPa)
#
#
# Indices 1 2 3 4 5 6 
#
# 1 0.010604 -0.004890 -0.002487 0.000000 -0.001237 0.000000
# 2 -0.004890 0.010747 -0.000879 0.000000 0.000193 0.000000
# 3 -0.002487 -0.000879 0.010906 0.000000 -0.001358 0.000000
# 4 0.000000 0.000000 0.000000 0.051383 0.000000 -0.006888
# 5 -0.001237 0.000193 -0.001358 0.000000 0.032203 0.000000
# 6 0.000000 0.000000 0.000000 -0.006888 0.000000 0.022949
#
#
# Mechanical properties :
#
#
# Convention : Reuss Voigt Hill
#
# Bulk Modulus (GPa) = 63.50964 67.45592 65.48278
# Shear Modulus (GPa) = 31.14249 35.10449 33.12349
#
# Velocity S-wave (km/s) = 3.64826 3.87338 3.76250
# Velocity P-wave (km/s) = 6.69995 6.98811 6.84555
#
# Compressibility (1/GPa) = 0.01574564
#
# Stress axis : x y z
#
# Youngs Moduli (GPa) = 94.30344 93.04789 91.69032
#
# Poissons Ratio (x) = 0.45502 0.22800
# Poissons Ratio (y) = 0.46116 0.08061
# Poissons Ratio (z) = 0.23450 0.08180
#
# Static dielectric constant tensor:
#      x y z
#    x 4.484740 0.000000 -0.003070 
#    y 0.000000 4.061480 0.000000 
#    z -0.003070 0.000000 4.402780 
# 
# 
# High freq. dielectric constant tensor:
#      x y z
#    x 1.953580 0.000000 0.000730 
#    y 0.000000 1.923400 0.000000 
#    z 0.000730 0.000000 1.932610 
# 
# From -- ./inp_files/532.got.cif
#   From: 2010.03.12/outbox.cif.g09.slc.cpg/sg7_cif.got.tgz:532.got - 2010.03.30 08:40:41.
