data_PCOD8052885
_publ_section_title
;
Structure prediction by ZEFSAII (Michael W. Deem and Ramdas Pophale) SiO2 
 PCOD8052885
Probable space group: C M
;
_chemical_formula_sum "Si O2"
_cell_formula_units_Z 32
_cell_length_a 19.560048
_cell_length_b 9.360015
_cell_length_c 11.946857
_cell_angle_alpha 90.000000
_cell_angle_beta 127.967368
_cell_angle_gamma 90.000000
_cell_volume 1724.349935
_symmetry_space_group_name_H-M "C M"
_symmetry_group_IT_number 8
_symmetry_cell_setting 'monoclinic'
loop_
_space_group_symop_operation_xyz
x,y,z
x,-y,z
1/2+x,1/2+y,z
1/2+x,1/2-y,z
loop_
_atom_site_type_symbol
_atom_site_label
_atom_site_fract_x
_atom_site_fract_y
_atom_site_fract_z
Si Si1 0.130850 0.169558 0.495330
Si Si2 0.290154 0.832482 0.806142
Si Si3 0.924418 0.829416 0.791938
Si Si4 0.354144 0.338868 0.483095
Si Si5 0.939331 0.164186 0.341517
Si Si6 0.192353 0.837456 0.320581
Si Si7 0.115622 0.162993 0.012305
Si Si8 0.787247 0.331582 0.065606
O O1 0.200497 0.220301 0.658047
O O2 0.158384 0.230231 0.401817
O O3 0.034951 0.230774 0.420687
O O4 0.125159 0.000000 0.489264
O O5 0.370441 0.745624 0.835735
O O6 0.305349 0.000000 0.798928
O O7 0.283964 0.798189 0.930790
O O8 0.887102 0.781519 0.635030
O O9 0.922298 0.000000 0.808788
O O10 0.022840 0.768275 0.889331
O O11 0.321017 0.500000 0.463175
O O12 0.427687 0.326818 0.463380
O O13 0.275723 0.244442 0.360160
O O14 0.869854 0.254402 0.202201
O O15 0.932626 0.000000 0.293490
O O16 0.121205 0.823455 0.152178
O O17 0.219957 0.000000 0.368812
O O18 0.198437 0.231721 0.031569
O O19 0.113776 0.000000 0.970478
O O20 0.796294 0.500000 0.099353
#
# Coordination Sequence:
#
# PCOD8052885 Si02
#       8
#     4   4   4   4   4   4   4   4
#     4   9  19  34  55  80 105 139 181 219 259 313
#     4  10  21  37  56  79 108 141 178 220 265 314
#     4  10  21  36  56  80 108 141 178 219 264 315
#     4  10  20  34  54  81 108 136 174 223 270 307
#     4  10  21  36  56  80 108 141 178 219 264 315
#     4  10  18  34  58  77 100 140 184 219 258 313
#     4   9  19  34  55  80 105 139 181 219 259 313
#     4  10  21  37  56  79 108 141 178 220 265 314
#
# _framework density 18.557718000000001
#
# number of rings (size 3 to 8) (size 9 to 14) (size 15 to 20)
#    0.000    2.250    2.500    0.000    3.500    0.500 
#    0.000    2.500    0.000    0.000    0.000    0.000 
#    0.000    0.000    0.000    0.000    0.000    0.000 
#
# Total GULP energy -198362.827055 kJ/mol
# GULP energy per Si atom -12397.676691 kJ/mol
# Density = 1.851548 g / cm^3
# Si number density = 18.557718 Si / 1000 Ang^3
#
#
#
# Elastic Constant Matrix: (Units=GPa)
#
#
# Indices 1 2 3 4 5 6 
#
# 1 133.1440 31.6737 61.3665 0.0000 11.2717 0.0000
# 2 31.6737 34.6002 29.5242 0.0000 3.1323 0.0000
# 3 61.3665 29.5242 100.0529 0.0000 4.3402 0.0000
# 4 0.0000 0.0000 0.0000 23.3568 0.0000 0.2786
# 5 11.2717 3.1323 4.3402 0.0000 41.1604 0.0000
# 6 0.0000 0.0000 0.0000 0.2786 0.0000 26.6903
#
#
#
# Elastic Compliance Matrix: (Units=1/GPa)
#
#
# Indices 1 2 3 4 5 6 
#
# 1 0.011498 -0.005871 -0.005227 0.000000 -0.002151 0.000000
# 2 -0.005871 0.041751 -0.008691 0.000000 -0.000653 0.000000
# 3 -0.005227 -0.008691 0.015746 0.000000 0.000432 0.000000
# 4 0.000000 0.000000 0.000000 0.042819 0.000000 -0.000447
# 5 -0.002151 -0.000653 0.000432 0.000000 0.024888 0.000000
# 6 0.000000 0.000000 0.000000 -0.000447 0.000000 0.037471
#
#
# Mechanical properties :
#
#
# Convention : Reuss Voigt Hill
#
# Bulk Modulus (GPa) = 33.99226 56.99177 45.49202
# Shear Modulus (GPa) = 22.36549 27.92369 25.14459
#
# Velocity S-wave (km/s) = 3.47534 3.88325 3.68494
# Velocity P-wave (km/s) = 5.87034 7.13326 6.53239
#
# Compressibility (1/GPa) = 0.02941846
#
# Stress axis : x y z
#
# Youngs Moduli (GPa) = 86.96823 23.95135 63.50748
#
# Poissons Ratio (x) = 0.14063 0.33193
# Poissons Ratio (y) = 0.51062 0.55193
# Poissons Ratio (z) = 0.45455 0.20816
#
# Static dielectric constant tensor:
#      x y z
#    x 3.605450 0.000000 0.006480 
#    y 0.000000 3.104640 0.000000 
#    z 0.006480 0.000000 3.472080 
# 
# 
# High freq. dielectric constant tensor:
#      x y z
#    x 1.731650 0.000000 -0.003800 
#    y 0.000000 1.681960 0.000000 
#    z -0.003800 0.000000 1.730970 
# 
# From -- ./inp_files/23126.got.cif
#   From: 2010.03.12/outbox.cif.g09.slc.cpg/sg8_12_cif.got.tgz:23126.got - 2010.03.31 10:45:26.
