data_PCOD8052381
_publ_section_title
;
Structure prediction by ZEFSAII (Michael W. Deem and Ramdas Pophale) SiO2 
 PCOD8052381
Probable space group: P M
;
_chemical_formula_sum "Si O2"
_cell_formula_units_Z 12
_cell_length_a 10.138127
_cell_length_b 8.867819
_cell_length_c 7.480355
_cell_angle_alpha 90.000000
_cell_angle_beta 112.984223
_cell_angle_gamma 90.000000
_cell_volume 619.118215
_symmetry_space_group_name_H-M "P M"
_symmetry_group_IT_number 6
_symmetry_cell_setting 'monoclinic'
loop_
_space_group_symop_operation_xyz
x,y,z
x,-y,z
loop_
_atom_site_type_symbol
_atom_site_label
_atom_site_fract_x
_atom_site_fract_y
_atom_site_fract_z
Si Si1 0.812390 0.674808 0.351900
Si Si2 0.348410 0.678779 0.463041
Si Si3 0.514536 0.176837 0.241966
Si Si4 0.312796 0.823260 0.810063
Si Si5 0.027066 0.326131 0.773334
Si Si6 0.038403 0.322067 0.182899
O O1 0.774761 0.500000 0.297181
O O2 0.671515 0.774413 0.264084
O O3 0.882555 0.695806 0.584303
O O4 0.919682 0.739742 0.257162
O O5 0.351759 0.500000 0.465371
O O6 0.473319 0.737745 0.401041
O O7 0.381356 0.738625 0.677864
O O8 0.194775 0.743399 0.315153
O O9 0.511002 0.000000 0.275865
O O10 0.403253 0.225292 0.030301
O O11 0.149410 0.774360 0.749871
O O12 0.320096 0.000000 0.778440
O O13 0.078512 0.500000 0.795174
O O14 0.996610 0.273216 0.959927
O O15 0.045102 0.500000 0.208248
#
# Coordination Sequence:
#
# PCOD8052381 Si02
#       6
#     2   2   2   2   2   2
#     4  10  21  38  59  88 122 157 198 248 300 352
#     4  11  21  38  66  92 116 156 204 254 300 347
#     4  11  25  42  58  87 129 165 197 243 301 363
#     4  11  23  38  59  89 125 162 199 243 299 362
#     4  10  19  36  62  90 118 151 201 253 295 351
#     4   9  18  34  60  90 116 145 195 251 295 345
#
# _framework density 19.382404999999999
#
# number of rings (size 3 to 8) (size 9 to 14) (size 15 to 20)
#    0.000    1.667    3.333    1.500    0.000    4.000 
#    0.000    2.500    0.000    0.000    0.000    0.000 
#    0.000    0.000    0.000    0.000    0.000    0.000 
#
# Total GULP energy -148858.368348 kJ/mol
# GULP energy per Si atom -12404.864029 kJ/mol
# Density = 1.933829 g / cm^3
# Si number density = 19.382405 Si / 1000 Ang^3
#
#
#
# Elastic Constant Matrix: (Units=GPa)
#
#
# Indices 1 2 3 4 5 6 
#
# 1 106.7352 29.6917 26.7741 0.0000 -12.0856 0.0000
# 2 29.6917 60.9511 37.0004 0.0000 -3.8411 0.0000
# 3 26.7741 37.0004 74.6964 0.0000 -17.3922 0.0000
# 4 0.0000 0.0000 0.0000 26.2454 0.0000 -1.4743
# 5 -12.0856 -3.8411 -17.3922 0.0000 39.1078 0.0000
# 6 0.0000 0.0000 0.0000 -1.4743 0.0000 24.0620
#
#
#
# Elastic Compliance Matrix: (Units=1/GPa)
#
#
# Indices 1 2 3 4 5 6 
#
# 1 0.011224 -0.004607 -0.001159 0.000000 0.002501 0.000000
# 2 -0.004607 0.025715 -0.012081 0.000000 -0.004271 0.000000
# 3 -0.001159 -0.012081 0.021672 0.000000 0.008093 0.000000
# 4 0.000000 0.000000 0.000000 0.038233 0.000000 0.002343
# 5 0.002501 -0.004271 0.008093 0.000000 0.029523 0.000000
# 6 0.000000 0.000000 0.000000 0.002343 0.000000 0.041703
#
#
# Mechanical properties :
#
#
# Convention : Reuss Voigt Hill
#
# Bulk Modulus (GPa) = 43.63430 47.70166 45.66798
# Shear Modulus (GPa) = 23.65146 27.81083 25.73114
#
# Velocity S-wave (km/s) = 3.49700 3.79205 3.64751
# Velocity P-wave (km/s) = 6.23431 6.62096 6.43054
#
# Compressibility (1/GPa) = 0.02291775
#
# Stress axis : x y z
#
# Youngs Moduli (GPa) = 89.09185 38.88733 46.14315
#
# Poissons Ratio (x) = 0.17914 0.05349
# Poissons Ratio (y) = 0.41041 0.55746
# Poissons Ratio (z) = 0.10327 0.46980
#
# Static dielectric constant tensor:
#      x y z
#    x 3.548680 0.000000 -0.169410 
#    y 0.000000 3.312560 0.000000 
#    z -0.169410 0.000000 3.704210 
# 
# 
# High freq. dielectric constant tensor:
#      x y z
#    x 1.755890 0.000000 -0.011840 
#    y 0.000000 1.736980 0.000000 
#    z -0.011840 0.000000 1.763000 
# 
# From -- ./inp_files/2430.got.cif
#   From: 2010.03.12/outbox.cif.g09.slc.cpg/sg6_2_cif.got.tgz:2430.got - 2010.03.30 10:24:59.
