data_PCOD8052570
_publ_section_title
;
Structure prediction by ZEFSAII (Michael W. Deem and Ramdas Pophale) SiO2 
 PCOD8052570
Probable space group: P M
;
_chemical_formula_sum "Si O2"
_cell_formula_units_Z 16
_cell_length_a 9.300948
_cell_length_b 9.839540
_cell_length_c 20.797495
_cell_angle_alpha 90.000000
_cell_angle_beta 153.435214
_cell_angle_gamma 90.000000
_cell_volume 851.185111
_symmetry_space_group_name_H-M "P M"
_symmetry_group_IT_number 6
_symmetry_cell_setting 'monoclinic'
loop_
_space_group_symop_operation_xyz
x,y,z
x,-y,z
loop_
_atom_site_type_symbol
_atom_site_label
_atom_site_fract_x
_atom_site_fract_y
_atom_site_fract_z
Si Si1 0.057950 0.156298 0.611060
Si Si2 0.870652 0.656298 0.215296
Si Si3 0.952178 0.843702 0.715295
Si Si4 0.790668 0.843702 0.925303
Si Si5 0.394908 0.656298 0.529539
Si Si6 0.347936 0.656298 0.111059
Si Si7 0.684896 0.843702 0.029539
Si Si8 0.872192 0.656298 0.425303
O O1 0.435698 0.188735 0.757620
O O2 0.929879 0.188895 0.630837
O O3 0.862031 0.249999 0.483834
O O4 0.992718 0.000000 0.567235
O O5 0.869088 0.500000 0.192656
O O6 0.555117 0.688895 0.130837
O O7 0.186415 0.688734 0.382979
O O8 0.880815 0.750000 0.156765
O O9 0.707891 0.750000 0.656764
O O10 0.307147 0.811265 0.882978
O O11 0.863184 0.000000 0.692656
O O12 0.812966 0.811105 0.009761
O O13 0.879664 0.000000 0.947943
O O14 0.034953 0.749999 0.983834
O O15 0.504978 0.500000 0.573366
O O16 0.187727 0.688895 0.509761
O O17 0.237867 0.500000 0.067233
O O18 0.556429 0.688734 0.257620
O O19 0.750127 0.000000 0.073364
O O20 0.873756 0.500000 0.447942
#
# Coordination Sequence:
#
# PCOD8052570 Si02
#       8
#     2   2   2   2   2   2   2   2
#     4   9  19  35  52  72 100 131 163 201 244 290
#     4   9  19  35  52  72 100 131 163 201 244 290
#     4   9  19  35  52  72 100 131 163 201 244 290
#     4   9  19  35  52  72 100 131 163 201 244 290
#     4   9  19  35  52  72 100 131 163 201 244 290
#     4   9  19  35  52  72 100 131 163 201 244 290
#     4   9  19  35  52  72 100 131 163 201 244 290
#     4   9  19  35  52  72 100 131 163 201 244 290
#
# _framework density 18.797322000000001
#
# number of rings (size 3 to 8) (size 9 to 14) (size 15 to 20)
#    0.000    3.000    0.000    3.000    0.000    6.000 
#    0.000   15.000    0.000    0.000    0.000    0.000 
#    0.000    0.000    0.000    0.000    0.000    0.000 
#
# Total GULP energy -198419.512980 kJ/mol
# GULP energy per Si atom -12401.219561 kJ/mol
# Density = 1.875454 g / cm^3
# Si number density = 18.797322 Si / 1000 Ang^3
#
#
#
# Elastic Constant Matrix: (Units=GPa)
#
#
# Indices 1 2 3 4 5 6 
#
# 1 17.2804 10.3961 -3.6130 0.0000 -0.5226 0.0000
# 2 10.3961 50.4492 10.3781 0.0000 0.0006 0.0000
# 3 -3.6130 10.3781 17.2618 0.0000 0.5230 0.0000
# 4 0.0000 0.0000 0.0000 4.6469 0.0000 0.0015
# 5 -0.5226 0.0006 0.5230 0.0000 37.7576 0.0000
# 6 0.0000 0.0000 0.0000 0.0015 0.0000 4.7891
#
#
#
# Elastic Compliance Matrix: (Units=1/GPa)
#
#
# Indices 1 2 3 4 5 6 
#
# 1 0.077230 -0.021951 0.029342 0.000000 0.000663 0.000000
# 2 -0.021951 0.028860 -0.021945 0.000000 0.000000 0.000000
# 3 0.029342 -0.021945 0.077287 0.000000 -0.000664 0.000000
# 4 0.000000 0.000000 0.000000 0.215199 0.000000 -0.000069
# 5 0.000663 0.000000 -0.000664 0.000000 0.026503 0.000000
# 6 0.000000 0.000000 0.000000 -0.000069 0.000000 0.208807
#
#
# Mechanical properties :
#
#
# Convention : Reuss Voigt Hill
#
# Bulk Modulus (GPa) = 6.48227 13.25710 9.86969
# Shear Modulus (GPa) = 6.99872 13.96073 10.47972
#
# Velocity S-wave (km/s) = 1.93167 2.72820 2.36373
# Velocity P-wave (km/s) = 2.90364 4.12215 3.56533
#
# Compressibility (1/GPa) = 0.15426691
#
# Stress axis : x y z
#
# Youngs Moduli (GPa) = 12.94842 34.65022 12.93882
#
# Poissons Ratio (x) = 0.76060 -0.37965
# Poissons Ratio (y) = 0.28423 0.28395
# Poissons Ratio (z) = -0.37993 0.76041
#
# Static dielectric constant tensor:
#      x y z
#    x 3.253800 0.000000 0.000000 
#    y 0.000000 3.293250 0.000000 
#    z 0.000000 0.000000 3.253780 
# 
# 
# High freq. dielectric constant tensor:
#      x y z
#    x 1.724420 0.000000 0.000000 
#    y 0.000000 1.727270 0.000000 
#    z 0.000000 0.000000 1.724410 
# 
# From -- ./inp_files/4277.got.cif
#   From: 2010.03.12/outbox.cif.g09.slc.cpg/sg6_3_cif.got.tgz:4277.got - 2010.03.30 10:24:59.
