data_PCOD8052022
_publ_section_title
;
Structure prediction by ZEFSAII (Michael W. Deem and Ramdas Pophale) SiO2 
 PCOD8052022
Probable space group: C 2
;
_chemical_formula_sum "Si O2"
_cell_formula_units_Z 18
_cell_length_a 7.121240
_cell_length_b 7.350876
_cell_length_c 17.958417
_cell_angle_alpha 90.000000
_cell_angle_beta 127.281823
_cell_angle_gamma 90.000000
_cell_volume 747.985885
_symmetry_space_group_name_H-M "C 2"
_symmetry_group_IT_number 5
_symmetry_cell_setting 'monoclinic'
loop_
_space_group_symop_operation_xyz
x,y,z
-x,y,-z
1/2+x,1/2+y,z
1/2-x,1/2+y,-z
loop_
_atom_site_type_symbol
_atom_site_label
_atom_site_fract_x
_atom_site_fract_y
_atom_site_fract_z
Si Si1 0.936236 0.372010 0.128378
Si Si2 0.872115 0.046604 0.395910
Si Si3 0.000000 0.614430 0.000000
Si Si4 0.709419 0.122300 0.604389
Si Si5 0.129781 0.616279 0.746802
O O1 0.842094 0.475593 0.178865
O O2 0.194391 0.285611 0.201558
O O3 0.963238 0.500349 0.064912
O O4 0.738726 0.225742 0.064068
O O5 0.788400 0.840283 0.388058
O O6 0.000000 0.125559 0.500000
O O7 0.646372 0.174849 0.323987
O O8 0.042504 0.054317 0.366637
O O9 0.500000 0.055522 0.500000
O O10 0.683607 0.026967 0.678881
#
# Coordination Sequence:
#
# PCOD8052022 Si02
#       5
#     4   4   2   4   4
#     4  12  28  48  83 104 152 178 257 302 384 446
#     4  11  25  46  70 107 156 205 245 295 353 418
#     4  12  28  56  74 112 138 194 226 330 396 438
#     4  11  25  46  70 107 156 205 245 295 353 418
#     4  12  26  49  75 120 140 204 247 303 346 458
#
# _framework density 24.064624999999999
#
# number of rings (size 3 to 8) (size 9 to 14) (size 15 to 20)
#    0.000    0.444    4.444    2.667    3.111    5.333 
#    0.000    0.000    0.000    0.000    0.000    0.000 
#    0.000    0.000    0.000    0.000    0.000    0.000 
#
# Total GULP energy -111600.421046 kJ/mol
# GULP energy per Si atom -12400.046783 kJ/mol
# Density = 2.400985 g / cm^3
# Si number density = 24.064625 Si / 1000 Ang^3
#
#
#
# Elastic Constant Matrix: (Units=GPa)
#
#
# Indices 1 2 3 4 5 6 
#
# 1 158.3576 26.5307 65.0895 0.0000 -34.2058 0.0000
# 2 26.5307 62.8155 33.7087 0.0000 -22.1344 0.0000
# 3 65.0895 33.7087 169.0818 0.0000 -33.2589 0.0000
# 4 0.0000 0.0000 0.0000 -13.7872 0.0000 -2.7538
# 5 -34.2058 -22.1344 -33.2589 0.0000 58.9967 0.0000
# 6 0.0000 0.0000 0.0000 -2.7538 0.0000 46.8839
#
#
#
# Elastic Compliance Matrix: (Units=1/GPa)
#
#
# Indices 1 2 3 4 5 6 
#
# 1 0.008094 -0.001136 -0.002306 0.000000 0.002967 0.000000
# 2 -0.001136 0.019572 -0.002418 0.000000 0.005321 0.000000
# 3 -0.002306 -0.002418 0.007696 0.000000 0.002095 0.000000
# 4 0.000000 0.000000 0.000000 -0.071690 0.000000 -0.004211
# 5 0.002967 0.005321 0.002095 0.000000 0.021847 0.000000
# 6 0.000000 0.000000 0.000000 -0.004211 0.000000 0.021082
#
#
# Mechanical properties :
#
#
# Convention : Reuss Voigt Hill
#
# Bulk Modulus (GPa) = 42.29633 71.21250 56.75441
# Shear Modulus (GPa) = 190.83484 36.08042 113.45763
#
# Velocity S-wave (km/s) = 8.91477 3.87630 6.87382
# Velocity P-wave (km/s) = 11.11659 7.04916 9.30777
#
# Compressibility (1/GPa) = 0.02364272
#
# Stress axis : x y z
#
# Youngs Moduli (GPa) = 123.55395 51.09338 129.93820
#
# Poissons Ratio (x) = 0.05803 0.29960
# Poissons Ratio (y) = 0.14032 0.31419
# Poissons Ratio (z) = 0.28488 0.12354
#
# Static dielectric constant tensor:
#      x y z
#    x 4.640220 0.000000 -0.016350 
#    y 0.000000 4.063940 0.000000 
#    z -0.016350 0.000000 5.035310 
# 
# 
# High freq. dielectric constant tensor:
#      x y z
#    x 1.980690 0.000000 -0.003210 
#    y 0.000000 1.940200 0.000000 
#    z -0.003210 0.000000 1.978660 
# 
# From -- ./inp_files/58492.got.cif
#   From: 2010.03.12/outbox.cif.g09.slc.cpg/sg5_30_cif.got.tgz:58492.got - 2010.03.31 09:47:26.
