data_PCOD8052513
_publ_section_title
;
Structure prediction by ZEFSAII (Michael W. Deem and Ramdas Pophale) SiO2 
 PCOD8052513
Probable space group: P M
;
_chemical_formula_sum "Si O2"
_cell_formula_units_Z 16
_cell_length_a 9.731665
_cell_length_b 8.982850
_cell_length_c 11.811629
_cell_angle_alpha 90.000000
_cell_angle_beta 128.554284
_cell_angle_gamma 90.000000
_cell_volume 807.472709
_symmetry_space_group_name_H-M "P M"
_symmetry_group_IT_number 6
_symmetry_cell_setting 'monoclinic'
loop_
_space_group_symop_operation_xyz
x,y,z
x,-y,z
loop_
_atom_site_type_symbol
_atom_site_label
_atom_site_fract_x
_atom_site_fract_y
_atom_site_fract_z
Si Si1 0.184880 0.170360 0.076190
Si Si2 0.658383 0.667796 0.548270
Si Si3 0.848785 0.670823 0.422858
Si Si4 0.542252 0.175767 0.873914
Si Si5 0.318714 0.168248 0.387619
Si Si6 0.826994 0.327837 0.875747
Si Si7 0.535528 0.825052 0.132520
Si Si8 0.237675 0.675707 0.572575
O O1 0.190816 0.181775 0.215083
O O2 0.361370 0.234296 0.107606
O O3 0.155830 0.000000 0.022924
O O4 0.021921 0.268582 0.953461
O O5 0.582729 0.500000 0.499436
O O6 0.813383 0.691410 0.537935
O O7 0.511354 0.788303 0.442223
O O8 0.723207 0.698487 0.707182
O O9 0.839675 0.500000 0.380189
O O10 0.710424 0.756239 0.274636
O O11 0.044508 0.733449 0.506115
O O12 0.726877 0.239731 0.923357
O O13 0.379113 0.243744 0.723093
O O14 0.543287 0.000000 0.856589
O O15 0.522608 0.220303 0.994718
O O16 0.263202 0.283813 0.454856
O O17 0.319993 0.000000 0.435949
O O18 0.835642 0.500000 0.914280
O O19 0.551424 0.000000 0.157055
O O20 0.261255 0.500000 0.600897
#
# Coordination Sequence:
#
# PCOD8052513 Si02
#       8
#     2   2   2   2   2   2   2   2
#     4  10  23  42  62  90 124 159 202 251 302 359
#     4  10  21  40  63  89 121 155 200 255 303 356
#     4  10  23  41  63  91 122 159 202 250 305 360
#     4  11  24  42  63  89 123 162 203 249 302 361
#     4  11  22  39  65  90 118 159 204 251 304 358
#     4  11  24  40  63  92 122 161 203 249 304 360
#     4  10  23  43  63  88 123 160 203 252 300 358
#     4  11  24  41  62  91 125 159 201 251 302 362
#
# _framework density 19.814912
#
# number of rings (size 3 to 8) (size 9 to 14) (size 15 to 20)
#    0.000    1.500    2.500    1.500    3.500    4.000 
#    0.000    0.000    0.000    0.000    0.000    0.000 
#    0.000    0.000    0.000    0.000    0.000    0.000 
#
# Total GULP energy -198458.417236 kJ/mol
# GULP energy per Si atom -12403.651077 kJ/mol
# Density = 1.976981 g / cm^3
# Si number density = 19.814912 Si / 1000 Ang^3
#
#
#
# Elastic Constant Matrix: (Units=GPa)
#
#
# Indices 1 2 3 4 5 6 
#
# 1 122.8954 34.8499 35.3869 0.0000 5.5710 0.0000
# 2 34.8499 71.2526 35.7589 0.0000 2.1359 0.0000
# 3 35.3869 35.7589 44.0358 0.0000 -0.3475 0.0000
# 4 0.0000 0.0000 0.0000 31.4932 0.0000 6.3435
# 5 5.5710 2.1359 -0.3475 0.0000 39.1686 0.0000
# 6 0.0000 0.0000 0.0000 6.3435 0.0000 30.4664
#
#
#
# Elastic Compliance Matrix: (Units=1/GPa)
#
#
# Indices 1 2 3 4 5 6 
#
# 1 0.010776 -0.001474 -0.007475 0.000000 -0.001519 0.000000
# 2 -0.001474 0.023974 -0.018293 0.000000 -0.001260 0.000000
# 3 -0.007475 -0.018293 0.043590 0.000000 0.002447 0.000000
# 4 0.000000 0.000000 0.000000 0.033143 0.000000 -0.006901
# 5 -0.001519 -0.001260 0.002447 0.000000 0.025837 0.000000
# 6 0.000000 0.000000 0.000000 -0.006901 0.000000 0.034260
#
#
# Mechanical properties :
#
#
# Convention : Reuss Voigt Hill
#
# Bulk Modulus (GPa) = 41.91854 50.01946 45.96900
# Shear Modulus (GPa) = 21.36609 29.03819 25.20214
#
# Velocity S-wave (km/s) = 3.28728 3.83230 3.57021
# Velocity P-wave (km/s) = 5.96735 6.69927 6.34387
#
# Compressibility (1/GPa) = 0.02385579
#
# Stress axis : x y z
#
# Youngs Moduli (GPa) = 92.79808 41.71189 22.94114
#
# Poissons Ratio (x) = 0.06148 0.17148
# Poissons Ratio (y) = 0.13677 0.41967
# Poissons Ratio (z) = 0.69364 0.76305
#
# Static dielectric constant tensor:
#      x y z
#    x 3.830100 0.000000 -0.019820 
#    y 0.000000 3.613280 0.000000 
#    z -0.019820 0.000000 3.530510 
# 
# 
# High freq. dielectric constant tensor:
#      x y z
#    x 1.786400 0.000000 -0.002360 
#    y 0.000000 1.773770 0.000000 
#    z -0.002360 0.000000 1.774810 
# 
# From -- ./inp_files/3716.got.cif
#   From: 2010.03.12/outbox.cif.g09.slc.cpg/sg6_2_cif.got.tgz:3716.got - 2010.03.30 10:24:59.
