data_PCOD8052135
_publ_section_title
;
Structure prediction by ZEFSAII (Michael W. Deem and Ramdas Pophale) SiO2 
 PCOD8052135
Probable space group: C 2
;
_chemical_formula_sum "Si O2"
_cell_formula_units_Z 20
_cell_length_a 7.830846
_cell_length_b 5.174747
_cell_length_c 17.362772
_cell_angle_alpha 90.000000
_cell_angle_beta 90.678574
_cell_angle_gamma 90.000000
_cell_volume 703.536134
_symmetry_space_group_name_H-M "C 2"
_symmetry_group_IT_number 5
_symmetry_cell_setting 'monoclinic'
loop_
_space_group_symop_operation_xyz
x,y,z
-x,y,-z
1/2+x,1/2+y,z
1/2-x,1/2+y,-z
loop_
_atom_site_type_symbol
_atom_site_label
_atom_site_fract_x
_atom_site_fract_y
_atom_site_fract_z
Si Si1 0.703515 0.155930 0.598496
Si Si2 0.008742 0.019900 0.696041
Si Si3 0.500000 0.793615 0.500000
Si Si4 0.280166 0.242687 0.799190
Si Si5 0.768544 0.745687 0.105073
Si Si6 0.000000 0.029037 0.000000
O O1 0.596142 0.415226 0.617270
O O2 0.828535 0.144726 0.524596
O O3 0.553938 0.952016 0.577551
O O4 0.818286 0.120327 0.675257
O O5 0.965899 0.804913 0.761722
O O6 0.133311 0.232336 0.732362
O O7 0.215950 0.464539 0.856603
O O8 0.306132 0.962439 0.837833
O O9 0.948924 0.849251 0.072931
O O10 0.648557 0.720163 0.029180
#
# Coordination Sequence:
#
# PCOD8052135 Si02
#       6
#     4   4   2   4   4   2
#     4  12  25  45  72 107 147 196 248 308 372 444
#     4  12  27  47  74 109 151 198 252 312 376 450
#     4  12  24  44  72 104 148 196 248 308 372 444
#     4  12  29  51  78 113 155 202 254 316 382 454
#     4  12  30  52  80 114 154 202 254 316 382 454
#     4  12  30  52  80 114 154 200 256 316 380 456
#
# _framework density 28.427821000000002
#
# number of rings (size 3 to 8) (size 9 to 14) (size 15 to 20)
#    0.000    0.000    0.000    8.400    0.000   21.600 
#    0.000    0.000    0.000    0.000    0.000    0.000 
#    0.000    0.000    0.000    0.000    0.000    0.000 
#
# Total GULP energy -124012.313171 kJ/mol
# GULP energy per Si atom -12401.231317 kJ/mol
# Density = 2.836312 g / cm^3
# Si number density = 28.427821 Si / 1000 Ang^3
#
#
#
# Elastic Constant Matrix: (Units=GPa)
#
#
# Indices 1 2 3 4 5 6 
#
# 1 104.7877 12.7565 2.8166 0.0000 -17.6102 0.0000
# 2 12.7565 79.2321 -10.4868 0.0000 9.8793 0.0000
# 3 2.8166 -10.4868 82.0130 0.0000 -20.1088 0.0000
# 4 0.0000 0.0000 0.0000 35.3130 0.0000 1.6387
# 5 -17.6102 9.8793 -20.1088 0.0000 50.3638 0.0000
# 6 0.0000 0.0000 0.0000 1.6387 0.0000 40.1666
#
#
#
# Elastic Compliance Matrix: (Units=1/GPa)
#
#
# Indices 1 2 3 4 5 6 
#
# 1 0.010513 -0.002170 0.000407 0.000000 0.004264 0.000000
# 2 -0.002170 0.013483 0.001069 0.000000 -0.002977 0.000000
# 3 0.000407 0.001069 0.013634 0.000000 0.005376 0.000000
# 4 0.000000 0.000000 0.000000 0.028372 0.000000 -0.001158
# 5 0.004264 -0.002977 0.005376 0.000000 0.024077 0.000000
# 6 0.000000 0.000000 0.000000 -0.001158 0.000000 0.024944
#
#
# Mechanical properties :
#
#
# Convention : Reuss Voigt Hill
#
# Bulk Modulus (GPa) = 27.59327 30.68948 29.14138
# Shear Modulus (GPa) = 38.91269 42.56512 40.73891
#
# Velocity S-wave (km/s) = 3.70378 3.87370 3.78969
# Velocity P-wave (km/s) = 5.29321 5.55216 5.42423
#
# Compressibility (1/GPa) = 0.03624072
#
# Stress axis : x y z
#
# Youngs Moduli (GPa) = 95.12024 74.16612 73.34551
#
# Poissons Ratio (x) = 0.16097 -0.02985
# Poissons Ratio (y) = 0.20645 -0.07838
# Poissons Ratio (z) = -0.03871 -0.07926
#
# Static dielectric constant tensor:
#      x y z
#    x 5.126840 0.000000 0.174950 
#    y 0.000000 4.829350 0.000000 
#    z 0.174950 0.000000 5.203660 
# 
# 
# High freq. dielectric constant tensor:
#      x y z
#    x 2.170370 0.000000 0.009220 
#    y 0.000000 2.137770 0.000000 
#    z 0.009220 0.000000 2.170490 
# 
# From -- ./inp_files/59146.got.cif
#   From: 2010.03.12/outbox.cif.g09.slc.cpg/sg5_30_cif.got.tgz:59146.got - 2010.03.31 09:47:26.
