data_PCOD8052605
_publ_section_title
;
Structure prediction by ZEFSAII (Michael W. Deem and Ramdas Pophale) SiO2 
 PCOD8052605
Probable space group: P C
;
_chemical_formula_sum "Si O2"
_cell_formula_units_Z 14
_cell_length_a 11.490390
_cell_length_b 13.290729
_cell_length_c 5.229794
_cell_angle_alpha 90.000000
_cell_angle_beta 114.280880
_cell_angle_gamma 90.000000
_cell_volume 728.021405
_symmetry_space_group_name_H-M "P C"
_symmetry_group_IT_number 7
_symmetry_cell_setting 'monoclinic'
loop_
_space_group_symop_operation_xyz
x,y,z
x,-y,1/2+z
loop_
_atom_site_type_symbol
_atom_site_label
_atom_site_fract_x
_atom_site_fract_y
_atom_site_fract_z
Si Si1 0.538290 0.059421 0.086110
Si Si2 0.414812 0.457346 0.727987
Si Si3 0.128133 0.544901 0.829118
Si Si4 0.194017 0.235323 0.231273
Si Si5 0.835751 0.101178 0.358193
Si Si6 0.356553 0.760102 0.361705
Si Si7 0.944035 0.881341 0.456069
O O1 0.689664 0.070291 0.219576
O O2 0.492436 0.002565 0.298578
O O3 0.473742 0.167636 0.028205
O O4 0.482375 0.474148 0.511099
O O5 0.271664 0.494411 0.523303
O O6 0.419377 0.343437 0.826510
O O7 0.060469 0.479156 0.541851
O O8 0.123302 0.662031 0.750732
O O9 0.275419 0.197231 0.548761
O O10 0.274979 0.254369 0.046928
O O11 0.092203 0.148166 0.080794
O O12 0.870750 0.164656 0.642828
O O13 0.925271 0.001693 0.443490
O O14 0.874881 0.165537 0.144343
#
# Coordination Sequence:
#
# PCOD8052605 Si02
#       7
#     2   2   2   2   2   2   2
#     4  12  22  41  58  75 107 143 189 231 258 317
#     4   9  16  30  52  74 106 144 176 210 251 318
#     4   9  16  28  49  73 105 146 172 202 250 317
#     4  11  21  35  50  83 119 135 173 215 272 334
#     4  10  19  38  58  72  92 129 200 223 248 294
#     4  11  23  35  51  86 117 142 174 213 280 334
#     4  10  19  35  56  75  98 135 172 234 249 300
#
# _framework density 19.230205999999999
#
# number of rings (size 3 to 8) (size 9 to 14) (size 15 to 20)
#    0.000    1.714    2.857    6.000    0.000    0.000 
#   15.429    0.000    0.000    0.000    0.000    6.000 
#    0.000    0.000    0.000    0.000    0.000    0.000 
#
# Total GULP energy -173451.479331 kJ/mol
# GULP energy per Si atom -12389.391381 kJ/mol
# Density = 1.918644 g / cm^3
# Si number density = 19.230206 Si / 1000 Ang^3
#
#
#
# Elastic Constant Matrix: (Units=GPa)
#
#
# Indices 1 2 3 4 5 6 
#
# 1 46.9631 39.8431 59.8826 0.0000 -18.1428 0.0000
# 2 39.8431 88.8783 52.9983 0.0000 4.7224 0.0000
# 3 59.8826 52.9983 144.0499 0.0000 -50.6768 0.0000
# 4 0.0000 0.0000 0.0000 21.5544 0.0000 -8.9455
# 5 -18.1428 4.7224 -50.6768 0.0000 38.8675 0.0000
# 6 0.0000 0.0000 0.0000 -8.9455 0.0000 8.8840
#
#
#
# Elastic Compliance Matrix: (Units=1/GPa)
#
#
# Indices 1 2 3 4 5 6 
#
# 1 0.059599 -0.019987 -0.012526 0.000000 0.013916 0.000000
# 2 -0.019987 0.029730 -0.013268 0.000000 -0.030242 0.000000
# 3 -0.012526 -0.013268 0.028710 0.000000 0.033198 0.000000
# 4 0.000000 0.000000 0.000000 0.079701 0.000000 0.080253
# 5 0.013916 -0.030242 0.033198 0.000000 0.079184 0.000000
# 6 0.000000 0.000000 0.000000 0.080253 0.000000 0.193372
#
#
# Mechanical properties :
#
#
# Convention : Reuss Voigt Hill
#
# Bulk Modulus (GPa) = 37.77151 65.03770 51.40460
# Shear Modulus (GPa) = 8.76140 22.33900 15.55020
#
# Velocity S-wave (km/s) = 2.13681 3.41201 2.84673
# Velocity P-wave (km/s) = 5.07665 7.02968 6.13143
#
# Compressibility (1/GPa) = 0.02647498
#
# Stress axis : x y z
#
# Youngs Moduli (GPa) = 16.77888 33.63571 34.83092
#
# Poissons Ratio (x) = 0.67229 0.43630
# Poissons Ratio (y) = 0.33537 0.46215
# Poissons Ratio (z) = 0.21018 0.44629
#
# Static dielectric constant tensor:
#      x y z
#    x 3.689260 0.000000 -1.161310 
#    y 0.000000 3.183610 0.000000 
#    z -1.161310 0.000000 4.851190 
# 
# 
# High freq. dielectric constant tensor:
#      x y z
#    x 1.709680 0.000000 -0.050110 
#    y 0.000000 1.719030 0.000000 
#    z -0.050110 0.000000 1.773860 
# 
# From -- ./inp_files/781.got.cif
#   From: 2010.03.12/outbox.cif.g09.slc.cpg/sg7_cif.got.tgz:781.got - 2010.03.30 08:40:41.
