data_PCOD8052603
_publ_section_title
;
Structure prediction by ZEFSAII (Michael W. Deem and Ramdas Pophale) SiO2 
 PCOD8052603
Probable space group: P C
;
_chemical_formula_sum "Si O2"
_cell_formula_units_Z 14
_cell_length_a 7.396669
_cell_length_b 15.921900
_cell_length_c 5.520654
_cell_angle_alpha 90.000000
_cell_angle_beta 121.418199
_cell_angle_gamma 90.000000
_cell_volume 554.838700
_symmetry_space_group_name_H-M "P C"
_symmetry_group_IT_number 7
_symmetry_cell_setting 'monoclinic'
loop_
_space_group_symop_operation_xyz
x,y,z
x,-y,1/2+z
loop_
_atom_site_type_symbol
_atom_site_label
_atom_site_fract_x
_atom_site_fract_y
_atom_site_fract_z
Si Si1 0.185320 0.816702 0.179080
Si Si2 0.911231 0.050475 0.723102
Si Si3 0.842108 0.728774 0.639495
Si Si4 0.375457 0.523636 0.741497
Si Si5 0.849619 0.539913 0.592763
Si Si6 0.552667 0.839266 0.118014
Si Si7 0.445663 0.290009 0.175974
O O1 0.387191 0.868824 0.210492
O O2 0.272155 0.728389 0.347555
O O3 0.075268 0.872895 0.309148
O O4 0.025756 0.790505 0.856599
O O5 0.667918 0.083221 0.563662
O O6 0.949653 0.994536 0.508628
O O7 0.919223 0.637066 0.605881
O O8 0.734093 0.777823 0.345216
O O9 0.684801 0.712079 0.750971
O O10 0.250315 0.497894 0.405274
O O11 0.412833 0.622031 0.781476
O O12 0.592789 0.469477 0.916813
O O13 0.941073 0.494834 0.414305
O O14 0.410544 0.786045 0.835908
#
# Coordination Sequence:
#
# PCOD8052603 Si02
#       7
#     2   2   2   2   2   2   2
#     4  11  28  47  75 116 150 196 255 310 379 466
#     4  12  29  53  81 113 153 195 243 315 392 468
#     4  11  22  44  72 103 153 204 254 314 373 447
#     4  10  19  35  63  99 142 198 250 309 373 411
#     4  10  19  34  64  99 141 202 254 308 374 413
#     4  11  26  47  79 110 146 200 254 301 385 464
#     4  11  23  42  74 104 149 203 252 313 372 449
#
# _framework density 25.232561
#
# number of rings (size 3 to 8) (size 9 to 14) (size 15 to 20)
#    0.000    1.143    4.286    2.571    8.000    1.143 
#    0.000    1.429    0.000    0.000    0.000    0.000 
#    0.000    0.000    0.000    0.000    0.000    0.000 
#
# Total GULP energy -173574.500368 kJ/mol
# GULP energy per Si atom -12398.178598 kJ/mol
# Density = 2.517513 g / cm^3
# Si number density = 25.232561 Si / 1000 Ang^3
#
#
#
# Elastic Constant Matrix: (Units=GPa)
#
#
# Indices 1 2 3 4 5 6 
#
# 1 130.2387 43.9710 31.8941 0.0000 -24.2152 0.0000
# 2 43.9710 86.4464 18.6359 0.0000 -0.8476 0.0000
# 3 31.8941 18.6359 129.0909 0.0000 -22.0221 0.0000
# 4 0.0000 0.0000 0.0000 41.1973 0.0000 -13.0516
# 5 -24.2152 -0.8476 -22.0221 0.0000 33.0212 0.0000
# 6 0.0000 0.0000 0.0000 -13.0516 0.0000 8.8593
#
#
#
# Elastic Compliance Matrix: (Units=1/GPa)
#
#
# Indices 1 2 3 4 5 6 
#
# 1 0.011070 -0.005413 -0.000669 0.000000 0.007533 0.000000
# 2 -0.005413 0.014613 -0.001563 0.000000 -0.004637 0.000000
# 3 -0.000669 -0.001563 0.009080 0.000000 0.005525 0.000000
# 4 0.000000 0.000000 0.000000 0.045517 0.000000 0.067057
# 5 0.007533 -0.004637 0.005525 0.000000 0.039373 0.000000
# 6 0.000000 0.000000 0.000000 0.067057 0.000000 0.211665
#
#
# Mechanical properties :
#
#
# Convention : Reuss Voigt Hill
#
# Bulk Modulus (GPa) = 51.35195 59.41977 55.38586
# Shear Modulus (GPa) = 14.16037 33.36722 23.76379
#
# Velocity S-wave (km/s) = 2.37152 3.64041 3.07219
# Velocity P-wave (km/s) = 5.28152 6.42418 5.88067
#
# Compressibility (1/GPa) = 0.01947346
#
# Stress axis : x y z
#
# Youngs Moduli (GPa) = 90.33416 68.43410 110.13397
#
# Poissons Ratio (x) = 0.37042 0.07363
# Poissons Ratio (y) = 0.48896 0.17216
# Poissons Ratio (z) = 0.06039 0.10698
#
# Static dielectric constant tensor:
#      x y z
#    x 4.749050 0.000000 -0.263600 
#    y 0.000000 4.344040 0.000000 
#    z -0.263600 0.000000 4.727810 
# 
# 
# High freq. dielectric constant tensor:
#      x y z
#    x 2.028400 0.000000 -0.009790 
#    y 0.000000 1.989150 0.000000 
#    z -0.009790 0.000000 2.016150 
# 
# From -- ./inp_files/777.got.cif
#   From: 2010.03.12/outbox.cif.g09.slc.cpg/sg7_cif.got.tgz:777.got - 2010.03.30 08:40:41.
