data_PCOD8052756
_publ_section_title
;
Structure prediction by ZEFSAII (Michael W. Deem and Ramdas Pophale) SiO2 
 PCOD8052756
Probable space group: C M
;
_chemical_formula_sum "Si O2"
_cell_formula_units_Z 32
_cell_length_a 12.755812
_cell_length_b 23.155720
_cell_length_c 13.555292
_cell_angle_alpha 90.000000
_cell_angle_beta 30.022940
_cell_angle_gamma 90.000000
_cell_volume 2003.301492
_symmetry_space_group_name_H-M "C M"
_symmetry_group_IT_number 8
_symmetry_cell_setting 'monoclinic'
loop_
_space_group_symop_operation_xyz
x,y,z
x,-y,z
1/2+x,1/2+y,z
1/2+x,1/2-y,z
loop_
_atom_site_type_symbol
_atom_site_label
_atom_site_fract_x
_atom_site_fract_y
_atom_site_fract_z
Si Si1 0.442910 0.384388 0.082500
Si Si2 0.870620 0.564967 0.806752
Si Si3 0.127894 0.772487 0.564046
Si Si4 0.232290 0.271370 0.780596
Si Si5 0.676970 0.343418 0.714134
Si Si6 0.524746 0.725620 0.137344
Si Si7 0.951618 0.321521 0.844482
Si Si8 0.011746 0.435242 0.478283
O O1 0.410356 0.328111 0.177551
O O2 0.240420 0.423861 0.249465
O O3 0.634814 0.422073 0.965732
O O4 0.479904 0.367205 0.937610
O O5 0.884461 0.500000 0.838862
O O6 0.946582 0.610040 0.827616
O O7 0.018137 0.572141 0.591229
O O8 0.112350 0.822040 0.659155
O O9 0.362958 0.763053 0.333535
O O10 0.969638 0.793898 0.606567
O O11 0.050220 0.711105 0.670256
O O12 0.269875 0.209284 0.701164
O O13 0.096254 0.313282 0.822364
O O14 0.114613 0.267962 0.980757
O O15 0.851010 0.392063 0.557486
O O16 0.715260 0.703269 0.052391
O O17 0.942957 0.500000 0.506009
#
# Coordination Sequence:
#
# PCOD8052756 Si02
#       8
#     4   4   4   4   4   4   4   4
#     4   9  16  29  45  65  92 118 143 178 225 272
#     4   9  17  29  45  67  93 118 147 183 221 265
#     4  10  18  30  47  66  91 121 149 182 224 267
#     4   9  18  30  44  66  92 118 150 184 219 267
#     4   9  19  30  44  66  92 117 147 184 221 264
#     4   9  17  28  45  66  89 117 146 181 225 268
#     4   9  18  30  44  67  94 118 149 184 221 268
#     4  10  18  28  45  67  90 117 148 182 222 267
#
# _framework density 15.973632
#
# number of rings (size 3 to 8) (size 9 to 14) (size 15 to 20)
#    0.000    2.750    0.000    4.125    0.000    6.500 
#    0.000    0.000    0.000    0.750    0.000    0.875 
#    0.000    0.000    0.000    0.000    0.000    0.000 
#
# Total GULP energy -198347.689483 kJ/mol
# GULP energy per Si atom -12396.730593 kJ/mol
# Density = 1.593728 g / cm^3
# Si number density = 15.973632 Si / 1000 Ang^3
#
#
#
# Elastic Constant Matrix: (Units=GPa)
#
#
# Indices 1 2 3 4 5 6 
#
# 1 97.7295 49.7368 42.3028 0.0093 -6.5038 0.0010
# 2 49.7368 102.9921 39.7036 0.0087 -4.2978 -0.0024
# 3 42.3028 39.7036 92.6468 0.0857 -8.7617 -0.0298
# 4 0.0093 0.0087 0.0857 20.0388 -0.0135 -2.5054
# 5 -6.5038 -4.2978 -8.7617 -0.0135 15.1652 0.0035
# 6 0.0010 -0.0024 -0.0298 -2.5054 0.0035 19.6082
#
#
#
# Elastic Compliance Matrix: (Units=1/GPa)
#
#
# Indices 1 2 3 4 5 6 
#
# 1 0.015055 -0.005519 -0.004280 0.000015 0.002420 -0.000006
# 2 -0.005519 0.013657 -0.003375 0.000011 -0.000446 -0.000002
# 3 -0.004280 -0.003375 0.014735 -0.000054 0.005721 0.000014
# 4 0.000015 0.000011 -0.000054 0.050713 0.000022 0.006480
# 5 0.002420 -0.000446 0.005721 0.000022 0.070157 -0.000001
# 6 -0.000006 -0.000002 0.000014 0.006480 -0.000001 0.051827
#
#
# Mechanical properties :
#
#
# Convention : Reuss Voigt Hill
#
# Bulk Modulus (GPa) = 58.48275 61.87277 60.17776
# Shear Modulus (GPa) = 20.14558 21.73745 20.94152
#
# Velocity S-wave (km/s) = 3.55516 3.69295 3.62471
# Velocity P-wave (km/s) = 7.31736 7.54998 7.43458
#
# Compressibility (1/GPa) = 0.01709906
#
# Stress axis : x y z
#
# Youngs Moduli (GPa) = 66.42347 73.22097 67.86399
#
# Poissons Ratio (x) = 0.40414 0.29046
# Poissons Ratio (y) = 0.36662 0.22903
# Poissons Ratio (z) = 0.28429 0.24711
#
# Static dielectric constant tensor:
#      x y z
#    x 2.895090 0.000010 -0.043630 
#    y 0.000010 2.942160 0.000010 
#    z -0.043630 0.000010 3.049290 
# 
# 
# High freq. dielectric constant tensor:
#      x y z
#    x 1.589000 0.000000 -0.008340 
#    y 0.000000 1.596000 0.000000 
#    z -0.008340 0.000000 1.617750 
# 
# From -- ./inp_files/3120.got.cif
#   From: 2010.03.12/outbox.cif.g09.slc.cpg/sg8_2_cif.got.tgz:3120.got - 2010.03.31 10:45:26.
