data_PCOD8052795
_publ_section_title
;
Structure prediction by ZEFSAII (Michael W. Deem and Ramdas Pophale) SiO2 
 PCOD8052795
Probable space group: C M
;
_chemical_formula_sum "Si O2"
_cell_formula_units_Z 32
_cell_length_a 20.561059
_cell_length_b 8.551728
_cell_length_c 23.103417
_cell_angle_alpha 90.000000
_cell_angle_beta 22.945080
_cell_angle_gamma 90.000000
_cell_volume 1583.695085
_symmetry_space_group_name_H-M "C M"
_symmetry_group_IT_number 8
_symmetry_cell_setting 'monoclinic'
loop_
_space_group_symop_operation_xyz
x,y,z
x,-y,z
1/2+x,1/2+y,z
1/2+x,1/2-y,z
loop_
_atom_site_type_symbol
_atom_site_label
_atom_site_fract_x
_atom_site_fract_y
_atom_site_fract_z
Si Si1 0.074240 0.318561 0.076040
Si Si2 0.315592 0.681343 0.724811
Si Si3 0.970814 0.816695 0.050511
Si Si4 0.945049 0.819198 0.738294
Si Si5 0.873924 0.681518 0.018847
Si Si6 0.717741 0.682184 0.693031
Si Si7 0.557604 0.180377 0.220988
Si Si8 0.263288 0.680269 0.532696
O O1 0.057740 0.500000 0.074458
O O2 0.017914 0.278824 0.187012
O O3 0.945474 0.227406 0.138833
O O4 0.266028 0.265987 0.909877
O O5 0.291742 0.500000 0.729419
O O6 0.149278 0.747682 0.888902
O O7 0.456516 0.704986 0.658805
O O8 0.347439 0.773346 0.638603
O O9 0.961595 0.000000 0.048599
O O10 0.840042 0.736451 0.113200
O O11 0.079181 0.710814 0.659252
O O12 0.979712 0.000000 0.725709
O O13 0.918654 0.500000 0.979801
O O14 0.709041 0.712460 0.117466
O O15 0.028772 0.777433 0.865762
O O16 0.730909 0.500000 0.668200
O O17 0.772380 0.779325 0.592632
O O18 0.392737 0.212622 0.392471
O O19 0.609951 0.000000 0.184845
O O20 0.310310 0.500000 0.485427
#
# Coordination Sequence:
#
# PCOD8052795 Si02
#       8
#     4   4   4   4   4   4   4   4
#     4   9  19  36  59  84 110 142 181 227 278 329
#     4   9  17  32  55  83 113 141 177 227 280 328
#     4  10  18  30  53  84 115 144 179 223 272 326
#     4   9  18  35  59  85 112 143 180 224 275 332
#     4  11  21  36  59  86 115 145 183 229 278 330
#     4  11  21  36  59  85 113 146 187 230 276 329
#     4  11  23  40  59  80 111 149 188 230 279 332
#     4  12  25  39  55  79 113 150 189 232 278 328
#
# _framework density 20.205911
#
# number of rings (size 3 to 8) (size 9 to 14) (size 15 to 20)
#    0.000    1.750    0.000    8.250    0.000    4.500 
#    0.000    1.250    0.000    4.500    0.000    0.000 
#    0.000    0.000    0.000    0.000    0.000    0.000 
#
# Total GULP energy -198383.592608 kJ/mol
# GULP energy per Si atom -12398.974538 kJ/mol
# Density = 2.015992 g / cm^3
# Si number density = 20.205911 Si / 1000 Ang^3
#
#
#
# Elastic Constant Matrix: (Units=GPa)
#
#
# Indices 1 2 3 4 5 6 
#
# 1 99.7122 30.2937 27.2824 -0.0012 35.3889 0.0007
# 2 30.2937 88.6278 2.0471 0.0019 3.4931 -0.0006
# 3 27.2824 2.0471 55.5865 0.0017 19.0103 -0.0010
# 4 -0.0012 0.0019 0.0017 23.6177 -0.0010 1.9124
# 5 35.3889 3.4931 19.0103 -0.0010 18.4826 0.0002
# 6 0.0007 -0.0006 -0.0010 1.9124 0.0002 37.7979
#
#
#
# Elastic Compliance Matrix: (Units=1/GPa)
#
#
# Indices 1 2 3 4 5 6 
#
# 1 0.042526 -0.011231 0.010278 -0.000002 -0.089873 0.000000
# 2 -0.011231 0.014342 -0.002226 -0.000001 0.021083 0.000000
# 3 0.010278 -0.002226 0.030257 -0.000004 -0.050379 0.000001
# 4 -0.000002 -0.000001 -0.000004 0.042515 0.000009 -0.002151
# 5 -0.089873 0.021083 -0.050379 0.000009 0.274020 -0.000001
# 6 0.000000 0.000000 0.000001 -0.002151 -0.000001 0.026565
#
#
# Mechanical properties :
#
#
# Convention : Reuss Voigt Hill
#
# Bulk Modulus (GPa) = 12.38139 40.35255 26.36697
# Shear Modulus (GPa) = 10.78734 28.26652 19.52693
#
# Velocity S-wave (km/s) = 2.31307 3.74428 3.11206
# Velocity P-wave (km/s) = 3.64344 6.22148 5.09811
#
# Compressibility (1/GPa) = 0.08076639
#
# Stress axis : x y z
#
# Youngs Moduli (GPa) = 23.51521 69.72327 33.05018
#
# Poissons Ratio (x) = 0.78305 -0.33968
# Poissons Ratio (y) = 0.26410 0.07358
# Poissons Ratio (z) = -0.24169 0.15523
#
# Static dielectric constant tensor:
#      x y z
#    x 4.317440 0.000000 0.288510 
#    y 0.000000 3.623570 0.000000 
#    z 0.288510 0.000000 3.271160 
# 
# 
# High freq. dielectric constant tensor:
#      x y z
#    x 1.812380 0.000000 0.018680 
#    y 0.000000 1.794630 0.000000 
#    z 0.018680 0.000000 1.743420 
# 
# From -- ./inp_files/32342.got.cif
#   From: 2010.03.12/outbox.cif.g09.slc.cpg/sg8_17_cif.got.tgz:32342.got - 2010.03.31 10:45:26.
