data_PCOD8052445
_publ_section_title
;
Structure prediction by ZEFSAII (Michael W. Deem and Ramdas Pophale) SiO2 
 PCOD8052445
Probable space group: P M
;
_chemical_formula_sum "Si O2"
_cell_formula_units_Z 16
_cell_length_a 11.136017
_cell_length_b 8.790072
_cell_length_c 9.252496
_cell_angle_alpha 90.000000
_cell_angle_beta 114.775266
_cell_angle_gamma 90.000000
_cell_volume 822.332030
_symmetry_space_group_name_H-M "P M"
_symmetry_group_IT_number 6
_symmetry_cell_setting 'monoclinic'
loop_
_space_group_symop_operation_xyz
x,y,z
x,-y,z
loop_
_atom_site_type_symbol
_atom_site_label
_atom_site_fract_x
_atom_site_fract_y
_atom_site_fract_z
Si Si1 0.717070 0.679006 0.348410
Si Si2 0.193542 0.178987 0.591411
Si Si3 0.419736 0.679148 0.201560
Si Si4 0.426666 0.319865 0.882344
Si Si5 0.958618 0.825571 0.987429
Si Si6 0.701939 0.175796 0.039546
Si Si7 0.939540 0.822683 0.643531
Si Si8 0.184075 0.678984 0.277655
O O1 0.726115 0.500000 0.326258
O O2 0.568398 0.726678 0.320821
O O3 0.756142 0.760332 0.218775
O O4 0.814656 0.728997 0.523753
O O5 0.326708 0.255253 0.714846
O O6 0.165344 0.230887 0.415498
O O7 0.070661 0.232052 0.626926
O O8 0.212188 0.000000 0.606761
O O9 0.403765 0.500000 0.191612
O O10 0.314908 0.745054 0.263257
O O11 0.388524 0.739703 0.023883
O O12 0.425122 0.500000 0.873065
O O13 0.573567 0.264312 0.918220
O O14 0.812757 0.798938 0.975051
O O15 0.058596 0.711083 0.114394
O O16 0.003937 0.000000 0.035033
O O17 0.957990 0.782921 0.819483
O O18 0.666083 0.000000 0.041943
O O19 0.911855 0.000000 0.603328
O O20 0.194574 0.500000 0.314550
#
# Coordination Sequence:
#
# PCOD8052445 Si02
#       8
#     2   2   2   2   2   2   2   2
#     4  10  20  36  58  83 112 145 184 226 269 321
#     4  11  23  38  56  80 112 147 183 224 273 327
#     4   8  18  36  56  81 111 142 177 223 274 321
#     4  10  20  37  60  84 111 142 182 227 270 322
#     4  10  22  39  57  80 111 145 183 227 274 326
#     4  10  20  36  58  83 113 146 180 221 273 329
#     4  10  22  39  57  79 110 147 185 226 273 325
#     4  11  22  37  58  82 110 144 184 228 274 323
#
# _framework density 19.456859999999999
#
# number of rings (size 3 to 8) (size 9 to 14) (size 15 to 20)
#    0.000    2.000    0.000    4.125    0.000    6.500 
#    0.000    9.375    0.000    0.000    0.000    0.000 
#    0.000    0.000    0.000    0.000    0.000    0.000 
#
# Total GULP energy -198460.715106 kJ/mol
# GULP energy per Si atom -12403.794694 kJ/mol
# Density = 1.941258 g / cm^3
# Si number density = 19.456860 Si / 1000 Ang^3
#
#
#
# Elastic Constant Matrix: (Units=GPa)
#
#
# Indices 1 2 3 4 5 6 
#
# 1 125.7923 40.2411 67.5907 0.0000 -12.3447 0.0000
# 2 40.2411 65.4316 35.0258 0.0000 1.5232 0.0000
# 3 67.5907 35.0258 120.1922 0.0000 3.4915 0.0000
# 4 0.0000 0.0000 0.0000 37.6475 0.0000 5.2425
# 5 -12.3447 1.5232 3.4915 0.0000 34.3827 0.0000
# 6 0.0000 0.0000 0.0000 5.2425 0.0000 27.9058
#
#
#
# Elastic Compliance Matrix: (Units=1/GPa)
#
#
# Indices 1 2 3 4 5 6 
#
# 1 0.013512 -0.005079 -0.006284 0.000000 0.005714 0.000000
# 2 -0.005079 0.020019 -0.002908 0.000000 -0.002415 0.000000
# 3 -0.006284 -0.002908 0.012801 0.000000 -0.003427 0.000000
# 4 0.000000 0.000000 0.000000 0.027276 0.000000 -0.005124
# 5 0.005714 -0.002415 -0.003427 0.000000 0.031591 0.000000
# 6 0.000000 0.000000 0.000000 -0.005124 0.000000 0.036797
#
#
# Mechanical properties :
#
#
# Convention : Reuss Voigt Hill
#
# Bulk Modulus (GPa) = 56.21028 66.34793 61.27910
# Shear Modulus (GPa) = 28.33364 31.22445 29.77905
#
# Velocity S-wave (km/s) = 3.82020 4.01035 3.91643
# Velocity P-wave (km/s) = 6.95780 7.45774 7.21210
#
# Compressibility (1/GPa) = 0.01779034
#
# Stress axis : x y z
#
# Youngs Moduli (GPa) = 74.00884 49.95153 78.11905
#
# Poissons Ratio (x) = 0.25370 0.49093
# Poissons Ratio (y) = 0.37588 0.22714
# Poissons Ratio (z) = 0.46510 0.14524
#
# Static dielectric constant tensor:
#      x y z
#    x 3.773040 0.000000 -0.062050 
#    y 0.000000 3.482090 0.000000 
#    z -0.062050 0.000000 3.510250 
# 
# 
# High freq. dielectric constant tensor:
#      x y z
#    x 1.768590 0.000000 0.001930 
#    y 0.000000 1.753630 0.000000 
#    z 0.001930 0.000000 1.760130 
# 
# From -- ./inp_files/3519.got.cif
#   From: 2010.03.12/outbox.cif.g09.slc.cpg/sg6_2_cif.got.tgz:3519.got - 2010.03.30 10:24:59.
