data_PCOD8052550
_publ_section_title
;
Structure prediction by ZEFSAII (Michael W. Deem and Ramdas Pophale) SiO2 
 PCOD8052550
Probable space group: P M
;
_chemical_formula_sum "Si O2"
_cell_formula_units_Z 16
_cell_length_a 12.221197
_cell_length_b 9.127049
_cell_length_c 12.425185
_cell_angle_alpha 90.000000
_cell_angle_beta 36.019851
_cell_angle_gamma 90.000000
_cell_volume 815.028324
_symmetry_space_group_name_H-M "P M"
_symmetry_group_IT_number 6
_symmetry_cell_setting 'monoclinic'
loop_
_space_group_symop_operation_xyz
x,y,z
x,-y,z
loop_
_atom_site_type_symbol
_atom_site_label
_atom_site_fract_x
_atom_site_fract_y
_atom_site_fract_z
Si Si1 0.067680 0.173105 0.556360
Si Si2 0.226563 0.331240 0.026742
Si Si3 0.859036 0.168415 0.268835
Si Si4 0.329488 0.668034 0.187919
Si Si5 0.748234 0.327820 0.909586
Si Si6 0.737376 0.829692 0.130035
Si Si7 0.344913 0.827314 0.518410
Si Si8 0.445312 0.172331 0.668113
O O1 0.180752 0.228272 0.363686
O O2 0.170732 0.220021 0.585275
O O3 0.867979 0.251996 0.719414
O O4 0.042454 0.000000 0.566653
O O5 0.211379 0.500000 0.007101
O O6 0.315627 0.308200 0.072171
O O7 0.019751 0.265821 0.192220
O O8 0.366090 0.254666 0.833456
O O9 0.860301 0.192589 0.139064
O O10 0.661767 0.213231 0.478052
O O11 0.902464 0.000000 0.260499
O O12 0.289139 0.500000 0.252031
O O13 0.534792 0.715809 0.060767
O O14 0.781478 0.500000 0.878597
O O15 0.820212 0.264180 0.966268
O O16 0.531752 0.765086 0.315457
O O17 0.736712 0.000000 0.096120
O O18 0.328478 0.774814 0.655446
O O19 0.373071 0.000000 0.499141
O O20 0.421161 0.000000 0.706339
#
# Coordination Sequence:
#
# PCOD8052550 Si02
#       8
#     2   2   2   2   2   2   2   2
#     4  11  22  37  62  91 116 150 198 245 293 348
#     4  11  24  40  60  85 117 159 202 241 289 349
#     4   9  20  38  61  88 118 153 193 243 296 343
#     4  10  24  45  60  78 118 164 200 242 292 343
#     4  11  23  38  58  86 120 157 195 237 294 354
#     4   9  17  35  60  86 119 154 191 238 293 347
#     4   8  16  33  58  86 117 149 184 235 291 341
#     4   9  19  38  61  86 117 154 193 237 294 349
#
# _framework density 19.631221
#
# number of rings (size 3 to 8) (size 9 to 14) (size 15 to 20)
#    0.000    2.250    1.250    2.625    1.750    3.500 
#    0.000    6.250    0.000    0.000    0.000    0.000 
#    0.000    0.000    0.000    0.000    0.000    0.000 
#
# Total GULP energy -198401.843119 kJ/mol
# GULP energy per Si atom -12400.115195 kJ/mol
# Density = 1.958654 g / cm^3
# Si number density = 19.631221 Si / 1000 Ang^3
#
#
#
# Elastic Constant Matrix: (Units=GPa)
#
#
# Indices 1 2 3 4 5 6 
#
# 1 62.1242 32.0327 26.6528 0.0000 8.9967 0.0000
# 2 32.0327 76.2148 48.3146 0.0000 5.7563 0.0000
# 3 26.6528 48.3146 113.5215 0.0000 10.4004 0.0000
# 4 0.0000 0.0000 0.0000 27.8660 0.0000 -3.0168
# 5 8.9967 5.7563 10.4004 0.0000 21.8406 0.0000
# 6 0.0000 0.0000 0.0000 -3.0168 0.0000 25.1736
#
#
#
# Elastic Compliance Matrix: (Units=1/GPa)
#
#
# Indices 1 2 3 4 5 6 
#
# 1 0.021545 -0.007860 -0.001140 0.000000 -0.006261 0.000000
# 2 -0.007860 0.020864 -0.007138 0.000000 0.001138 0.000000
# 3 -0.001140 -0.007138 0.012442 0.000000 -0.003574 0.000000
# 4 0.000000 0.000000 0.000000 0.036358 0.000000 0.004357
# 5 -0.006261 0.001138 -0.003574 0.000000 0.049767 0.000000
# 6 0.000000 0.000000 0.000000 0.004357 0.000000 0.040246
#
#
# Mechanical properties :
#
#
# Convention : Reuss Voigt Hill
#
# Bulk Modulus (GPa) = 44.29742 51.76230 48.02986
# Shear Modulus (GPa) = 22.62206 24.63339 23.62773
#
# Velocity S-wave (km/s) = 3.39831 3.54617 3.47303
# Velocity P-wave (km/s) = 6.16537 6.57204 6.37195
#
# Compressibility (1/GPa) = 0.02257468
#
# Stress axis : x y z
#
# Youngs Moduli (GPa) = 46.41398 47.93032 80.37297
#
# Poissons Ratio (x) = 0.37674 0.09159
# Poissons Ratio (y) = 0.36482 0.57373
# Poissons Ratio (z) = 0.05289 0.34215
#
# Static dielectric constant tensor:
#      x y z
#    x 3.584320 0.000000 -0.022810 
#    y 0.000000 3.399880 0.000000 
#    z -0.022810 0.000000 3.542990 
# 
# 
# High freq. dielectric constant tensor:
#      x y z
#    x 1.760260 0.000000 -0.000730 
#    y 0.000000 1.748860 0.000000 
#    z -0.000730 0.000000 1.774590 
# 
# From -- ./inp_files/5048.got.cif
#   From: 2010.03.12/outbox.cif.g09.slc.cpg/sg6_3_cif.got.tgz:5048.got - 2010.03.30 10:24:59.
