data_PCOD8052552
_publ_section_title
;
Structure prediction by ZEFSAII (Michael W. Deem and Ramdas Pophale) SiO2 
 PCOD8052552
Probable space group: P M
;
_chemical_formula_sum "Si O2"
_cell_formula_units_Z 16
_cell_length_a 10.149430
_cell_length_b 8.511674
_cell_length_c 12.192587
_cell_angle_alpha 90.000000
_cell_angle_beta 52.640562
_cell_angle_gamma 90.000000
_cell_volume 837.210411
_symmetry_space_group_name_H-M "P M"
_symmetry_group_IT_number 6
_symmetry_cell_setting 'monoclinic'
loop_
_space_group_symop_operation_xyz
x,y,z
x,-y,z
loop_
_atom_site_type_symbol
_atom_site_label
_atom_site_fract_x
_atom_site_fract_y
_atom_site_fract_z
Si Si1 0.623200 0.814114 0.613950
Si Si2 0.437698 0.318927 0.050061
Si Si3 0.788478 0.182793 0.913956
Si Si4 0.954222 0.320196 0.037401
Si Si5 0.907151 0.185919 0.623143
Si Si6 0.843941 0.818902 0.310504
Si Si7 0.307122 0.182949 0.895854
Si Si8 0.147629 0.181415 0.320892
O O1 0.744145 0.742179 0.646115
O O2 0.685519 0.760001 0.462136
O O3 0.434332 0.764925 0.734872
O O4 0.640158 0.000000 0.611585
O O5 0.426841 0.500000 0.021096
O O6 0.308338 0.284734 0.213181
O O7 0.619750 0.280813 0.002890
O O8 0.394536 0.210473 0.968210
O O9 0.902089 0.236855 0.752852
O O10 0.743403 0.000000 0.926595
O O11 0.894327 0.211731 0.968765
O O12 0.929600 0.500000 0.016527
O O13 0.847267 0.284673 0.199646
O O14 0.145772 0.287791 0.965139
O O15 0.072319 0.243356 0.475272
O O16 0.903706 0.000000 0.611647
O O17 0.011519 0.795373 0.294658
O O18 0.824693 0.000000 0.285664
O O19 0.258867 0.000000 0.911776
O O20 0.201470 0.000000 0.301204
#
# Coordination Sequence:
#
# PCOD8052552 Si02
#       8
#     2   2   2   2   2   2   2   2
#     4   8  15  30  57  89 111 134 184 245 279 317
#     4  12  23  35  54  87 122 149 184 233 284 331
#     4  11  22  40  63  83 109 151 196 232 279 341
#     4  12  25  39  54  82 122 154 186 232 286 337
#     4   8  15  31  57  87 110 137 186 241 279 321
#     4   9  17  33  58  84 111 147 191 232 277 331
#     4  11  20  36  61  86 111 148 195 235 276 331
#     4   9  17  32  58  86 112 144 188 236 278 327
#
# _framework density 19.111087000000001
#
# number of rings (size 3 to 8) (size 9 to 14) (size 15 to 20)
#    0.000    2.000    2.500    4.500    0.000    0.000 
#    0.000    3.750    0.000    3.000    0.000    0.000 
#    0.000    0.000    0.000    0.000    0.000    0.000 
#
# Total GULP energy -198372.620687 kJ/mol
# GULP energy per Si atom -12398.288793 kJ/mol
# Density = 1.906759 g / cm^3
# Si number density = 19.111087 Si / 1000 Ang^3
#
#
#
# Elastic Constant Matrix: (Units=GPa)
#
#
# Indices 1 2 3 4 5 6 
#
# 1 57.6748 7.7863 41.9922 0.0000 6.1573 0.0000
# 2 7.7863 54.2722 27.2100 0.0000 -3.1258 0.0000
# 3 41.9922 27.2100 164.4885 0.0000 -0.0895 0.0000
# 4 0.0000 0.0000 0.0000 4.5492 0.0000 -0.1419
# 5 6.1573 -3.1258 -0.0895 0.0000 24.5431 0.0000
# 6 0.0000 0.0000 0.0000 -0.1419 0.0000 19.6178
#
#
#
# Elastic Compliance Matrix: (Units=1/GPa)
#
#
# Indices 1 2 3 4 5 6 
#
# 1 0.022053 -0.000725 -0.005513 0.000000 -0.005645 0.000000
# 2 -0.000725 0.020276 -0.003168 0.000000 0.002753 0.000000
# 3 -0.005513 -0.003168 0.008011 0.000000 0.001009 0.000000
# 4 0.000000 0.000000 0.000000 0.219871 0.000000 0.001590
# 5 -0.005645 0.002753 0.001009 0.000000 0.042515 0.000000
# 6 0.000000 0.000000 0.000000 0.001590 0.000000 0.050986
#
#
# Mechanical properties :
#
#
# Convention : Reuss Voigt Hill
#
# Bulk Modulus (GPa) = 31.71622 47.82361 39.76991
# Shear Modulus (GPa) = 12.72157 23.03847 17.88002
#
# Velocity S-wave (km/s) = 2.58285 3.47580 3.06205
# Velocity P-wave (km/s) = 5.05238 6.41768 5.77551
#
# Compressibility (1/GPa) = 0.03152961
#
# Stress axis : x y z
#
# Youngs Moduli (GPa) = 45.34500 49.31866 124.82176
#
# Poissons Ratio (x) = 0.03575 0.68815
# Poissons Ratio (y) = 0.03287 0.39538
# Poissons Ratio (z) = 0.24999 0.15622
#
# Static dielectric constant tensor:
#      x y z
#    x 3.135360 0.000000 -0.128530 
#    y 0.000000 3.150240 0.000000 
#    z -0.128530 0.000000 4.018530 
# 
# 
# High freq. dielectric constant tensor:
#      x y z
#    x 1.707540 0.000000 -0.007680 
#    y 0.000000 1.717560 0.000000 
#    z -0.007680 0.000000 1.765680 
# 
# From -- ./inp_files/4591.got.cif
#   From: 2010.03.12/outbox.cif.g09.slc.cpg/sg6_3_cif.got.tgz:4591.got - 2010.03.30 10:24:59.
