data_PCOD8052775
_publ_section_title
;
Structure prediction by ZEFSAII (Michael W. Deem and Ramdas Pophale) SiO2 
 PCOD8052775
Probable space group: C M
;
_chemical_formula_sum "Si O2"
_cell_formula_units_Z 32
_cell_length_a 27.129824
_cell_length_b 8.523866
_cell_length_c 20.700635
_cell_angle_alpha 90.000000
_cell_angle_beta 19.948831
_cell_angle_gamma 90.000000
_cell_volume 1633.246885
_symmetry_space_group_name_H-M "C M"
_symmetry_group_IT_number 8
_symmetry_cell_setting 'monoclinic'
loop_
_space_group_symop_operation_xyz
x,y,z
x,-y,z
1/2+x,1/2+y,z
1/2+x,1/2-y,z
loop_
_atom_site_type_symbol
_atom_site_label
_atom_site_fract_x
_atom_site_fract_y
_atom_site_fract_z
Si Si1 0.076080 0.681197 0.801010
Si Si2 0.288507 0.186050 0.099093
Si Si3 0.661889 0.314922 0.389930
Si Si4 0.835032 0.318613 0.541400
Si Si5 0.434988 0.682489 0.098741
Si Si6 0.332049 0.683971 0.804999
Si Si7 0.191584 0.317060 0.843486
Si Si8 0.641970 0.316227 0.150380
O O1 0.117235 0.500000 0.741513
O O2 0.224183 0.780842 0.618786
O O3 0.958849 0.736479 0.891505
O O4 0.996741 0.705825 0.966828
O O5 0.202571 0.247894 0.267973
O O6 0.216059 0.254310 0.123809
O O7 0.279855 0.000000 0.109031
O O8 0.683716 0.500000 0.367828
O O9 0.766382 0.230172 0.314208
O O10 0.498791 0.266678 0.606315
O O11 0.826936 0.500000 0.568610
O O12 0.791954 0.223078 0.658464
O O13 0.992542 0.272684 0.322861
O O14 0.449889 0.500000 0.063143
O O15 0.537661 0.723648 0.033359
O O16 0.309494 0.500000 0.845935
O O17 0.278544 0.731969 0.799978
O O18 0.245185 0.785279 0.963296
O O19 0.157685 0.500000 0.885030
O O20 0.611713 0.500000 0.194695
#
# Coordination Sequence:
#
# PCOD8052775 Si02
#       8
#     4   4   4   4   4   4   4   4
#     4   9  16  31  54  78 104 135 173 215 264 314
#     4   8  16  32  56  81 101 131 175 215 254 311
#     4   9  17  34  57  77 102 137 175 214 261 316
#     4  11  21  34  54  82 111 137 175 220 261 311
#     4  10  18  29  49  81 112 133 166 216 264 311
#     4  10  22  38  55  77 106 140 180 223 264 311
#     4  10  19  35  58  80 105 139 177 217 266 316
#     4  11  22  37  55  76 107 144 179 216 264 316
#
# _framework density 19.592874999999999
#
# number of rings (size 3 to 8) (size 9 to 14) (size 15 to 20)
#    0.000    2.250    0.000    6.375    0.000    3.500 
#    0.000   10.000    0.000    3.000    0.000    0.000 
#    0.000    0.000    0.000    0.000    0.000    0.000 
#
# Total GULP energy -198339.757422 kJ/mol
# GULP energy per Si atom -12396.234839 kJ/mol
# Density = 1.954828 g / cm^3
# Si number density = 19.592875 Si / 1000 Ang^3
#
#
#
# Elastic Constant Matrix: (Units=GPa)
#
#
# Indices 1 2 3 4 5 6 
#
# 1 44.8568 24.6845 61.5035 -0.0015 -21.2668 -0.0003
# 2 24.6845 52.8480 31.7235 -0.0026 -11.0210 -0.0006
# 3 61.5035 31.7235 135.5801 -0.0028 -32.3379 -0.0004
# 4 -0.0015 -0.0026 -0.0028 27.9263 0.0001 -0.1446
# 5 -21.2668 -11.0210 -32.3379 0.0001 35.4248 0.0001
# 6 -0.0003 -0.0006 -0.0004 -0.1446 0.0001 15.5282
#
#
#
# Elastic Compliance Matrix: (Units=1/GPa)
#
#
# Indices 1 2 3 4 5 6 
#
# 1 0.074668 -0.015718 -0.026422 0.000000 0.015817 0.000000
# 2 -0.015718 0.025533 0.001022 0.000002 -0.000559 0.000001
# 3 -0.026422 0.001022 0.019705 0.000001 0.002444 0.000000
# 4 0.000000 0.000002 0.000001 0.035810 0.000001 0.000333
# 5 0.015817 -0.000559 0.002444 0.000001 0.039782 0.000000
# 6 0.000000 0.000001 0.000000 0.000333 0.000000 0.064402
#
#
# Mechanical properties :
#
#
# Convention : Reuss Voigt Hill
#
# Bulk Modulus (GPa) = 26.54431 52.12310 39.33370
# Shear Modulus (GPa) = 14.09670 23.46743 18.78206
#
# Velocity S-wave (km/s) = 2.68522 3.46461 3.09951
# Velocity P-wave (km/s) = 4.81573 6.53189 5.73833
#
# Compressibility (1/GPa) = 0.03767286
#
# Stress axis : x y z
#
# Youngs Moduli (GPa) = 13.39255 39.16433 50.74783
#
# Poissons Ratio (x) = 0.61557 1.34085
# Poissons Ratio (y) = 0.21050 -0.05188
# Poissons Ratio (z) = 0.35385 -0.04004
#
# Static dielectric constant tensor:
#      x y z
#    x 3.784260 0.000000 -0.581620 
#    y 0.000000 3.370350 0.000000 
#    z -0.581620 0.000000 3.681260 
# 
# 
# High freq. dielectric constant tensor:
#      x y z
#    x 1.748230 0.000000 -0.039970 
#    y 0.000000 1.753130 0.000000 
#    z -0.039970 0.000000 1.757750 
# 
# From -- ./inp_files/31636.got.cif
#   From: 2010.03.12/outbox.cif.g09.slc.cpg/sg8_16_cif.got.tgz:31636.got - 2010.03.31 10:45:26.
