data_PCOD8052327
_publ_section_title
;
Structure prediction by ZEFSAII (Michael W. Deem and Ramdas Pophale) SiO2 
 PCOD8052327
Probable space group: P M
;
_chemical_formula_sum "Si O2"
_cell_formula_units_Z 16
_cell_length_a 9.182430
_cell_length_b 8.939549
_cell_length_c 21.741805
_cell_angle_alpha 90.000000
_cell_angle_beta 151.771141
_cell_angle_gamma 90.000000
_cell_volume 844.160483
_symmetry_space_group_name_H-M "P M"
_symmetry_group_IT_number 6
_symmetry_cell_setting 'monoclinic'
loop_
_space_group_symop_operation_xyz
x,y,z
x,-y,z
loop_
_atom_site_type_symbol
_atom_site_label
_atom_site_fract_x
_atom_site_fract_y
_atom_site_fract_z
Si Si1 0.602730 0.671613 0.248610
Si Si2 0.667946 0.820518 0.514899
Si Si3 0.248039 0.822836 0.470745
Si Si4 0.201938 0.836208 0.792809
Si Si5 0.706120 0.179441 0.065139
Si Si6 0.358900 0.323145 0.289444
Si Si7 0.770606 0.834760 0.750121
Si Si8 0.281199 0.672465 0.004590
O O1 0.704012 0.500000 0.291252
O O2 0.455238 0.727352 0.257267
O O3 0.905024 0.763735 0.345480
O O4 0.344864 0.695468 0.100489
O O5 0.403389 0.770472 0.464560
O O6 0.618219 0.737643 0.432149
O O7 0.001681 0.759370 0.664108
O O8 0.670723 0.000000 0.507952
O O9 0.446081 0.767200 0.604149
O O10 0.244575 0.000000 0.471378
O O11 0.986282 0.850556 0.771595
O O12 0.291363 0.000000 0.801847
O O13 0.517790 0.758557 0.934449
O O14 0.043635 0.244435 0.190001
O O15 0.715208 0.000000 0.069436
O O16 0.537218 0.233246 0.063791
O O17 0.322004 0.500000 0.281846
O O18 0.933219 0.728493 0.861027
O O19 0.723175 0.000000 0.761812
O O20 0.308538 0.500000 0.995149
#
# Coordination Sequence:
#
# PCOD8052327 Si02
#       8
#     2   2   2   2   2   2   2   2
#     4  10  23  38  49  67 103 142 174 208 249 295
#     4   9  17  33  56  80 102 128 162 205 253 302
#     4   9  18  33  56  81 103 128 165 209 254 301
#     4   7  13  28  51  76 102 125 153 198 251 299
#     4  10  19  34  56  80 102 129 165 209 256 302
#     4  11  23  37  49  69 103 140 174 210 248 295
#     4   8  15  30  51  78 106 129 158 205 254 298
#     4  10  19  33  54  79 103 133 169 206 249 300
#
# _framework density 18.953744
#
# number of rings (size 3 to 8) (size 9 to 14) (size 15 to 20)
#    0.000    2.750    0.000    4.125    0.000    5.000 
#    0.000    6.875    0.000    6.000    0.000    0.000 
#    0.000    0.000    0.000    0.000    0.000    0.000 
#
# Total GULP energy -198264.053967 kJ/mol
# GULP energy per Si atom -12391.503373 kJ/mol
# Density = 1.891060 g / cm^3
# Si number density = 18.953744 Si / 1000 Ang^3
#
#
#
# Elastic Constant Matrix: (Units=GPa)
#
#
# Indices 1 2 3 4 5 6 
#
# 1 58.2677 22.1721 27.8836 0.0000 -26.3709 0.0000
# 2 22.1721 56.3070 31.4996 0.0000 -13.3433 0.0000
# 3 27.8836 31.4996 115.2969 0.0000 -34.0241 0.0000
# 4 0.0000 0.0000 0.0000 23.3796 0.0000 -8.3572
# 5 -26.3709 -13.3433 -34.0241 0.0000 22.4915 0.0000
# 6 0.0000 0.0000 0.0000 -8.3572 0.0000 14.3551
#
#
#
# Elastic Compliance Matrix: (Units=1/GPa)
#
#
# Indices 1 2 3 4 5 6 
#
# 1 0.042602 -0.007950 0.009425 0.000000 0.059491 0.000000
# 2 -0.007950 0.023042 -0.005580 0.000000 -0.004093 0.000000
# 3 0.009425 -0.005580 0.018430 0.000000 0.035620 0.000000
# 4 0.000000 0.000000 0.000000 0.054013 0.000000 0.031445
# 5 0.059491 -0.004093 0.035620 0.000000 0.165670 0.000000
# 6 0.000000 0.000000 0.000000 0.031445 0.000000 0.087969
#
#
# Mechanical properties :
#
#
# Convention : Reuss Voigt Hill
#
# Bulk Modulus (GPa) = 13.18169 43.66470 28.42320
# Shear Modulus (GPa) = 11.75851 21.93297 16.84574
#
# Velocity S-wave (km/s) = 2.49344 3.40543 2.98448
# Velocity P-wave (km/s) = 3.90633 6.20888 5.18698
#
# Compressibility (1/GPa) = 0.07586279
#
# Stress axis : x y z
#
# Youngs Moduli (GPa) = 23.47325 43.39873 54.25940
#
# Poissons Ratio (x) = 0.34502 -0.51139
# Poissons Ratio (y) = 0.18661 0.30279
# Poissons Ratio (z) = -0.22123 0.24218
#
# Static dielectric constant tensor:
#      x y z
#    x 3.152440 0.000000 -0.162670 
#    y 0.000000 3.328540 0.000000 
#    z -0.162670 0.000000 4.057850 
# 
# 
# High freq. dielectric constant tensor:
#      x y z
#    x 1.696550 0.000000 -0.013020 
#    y 0.000000 1.718160 0.000000 
#    z -0.013020 0.000000 1.762330 
# 
# From -- ./inp_files/4287.got.cif
#   From: 2010.03.12/outbox.cif.g09.slc.cpg/sg6_3_cif.got.tgz:4287.got - 2010.03.30 10:24:59.
