data_PCOD8052437
_publ_section_title
;
Structure prediction by ZEFSAII (Michael W. Deem and Ramdas Pophale) SiO2 
 PCOD8052437
Probable space group: P M
;
_chemical_formula_sum "Si O2"
_cell_formula_units_Z 16
_cell_length_a 9.921000
_cell_length_b 8.483744
_cell_length_c 19.595963
_cell_angle_alpha 90.000000
_cell_angle_beta 150.280060
_cell_angle_gamma 90.000000
_cell_volume 817.677261
_symmetry_space_group_name_H-M "P M"
_symmetry_group_IT_number 6
_symmetry_cell_setting 'monoclinic'
loop_
_space_group_symop_operation_xyz
x,y,z
x,-y,z
loop_
_atom_site_type_symbol
_atom_site_label
_atom_site_fract_x
_atom_site_fract_y
_atom_site_fract_z
Si Si1 0.345520 0.682675 0.931680
Si Si2 0.429532 0.683107 0.687849
Si Si3 0.277592 0.818256 0.757471
Si Si4 0.824608 0.815202 0.228604
Si Si5 0.408982 0.314560 0.451792
Si Si6 0.838199 0.684643 0.376881
Si Si7 0.791343 0.817182 0.733070
Si Si8 0.675618 0.815345 0.443082
O O1 0.285676 0.500000 0.917929
O O2 0.368366 0.714211 0.861212
O O3 0.109154 0.783366 0.863504
O O4 0.629134 0.731411 0.089233
O O5 0.424144 0.500000 0.703366
O O6 0.463123 0.776854 0.773601
O O7 0.680677 0.721454 0.749246
O O8 0.151147 0.733688 0.527847
O O9 0.967577 0.776965 0.603672
O O10 0.314717 0.000000 0.793209
O O11 0.728163 0.779952 0.263265
O O12 0.118724 0.739499 0.349889
O O13 0.832405 0.000000 0.217537
O O14 0.439190 0.500000 0.474806
O O15 0.641112 0.230280 0.597744
O O16 0.447139 0.264011 0.390021
O O17 0.807926 0.500000 0.349855
O O18 0.652182 0.735752 0.358721
O O19 0.744699 0.000000 0.726948
O O20 0.621051 0.000000 0.412570
#
# Coordination Sequence:
#
# PCOD8052437 Si02
#       8
#     2   2   2   2   2   2   2   2
#     4  12  25  42  63  88 123 163 203 248 303 363
#     4  10  20  35  59  90 123 157 199 249 301 353
#     4  10  20  36  59  88 123 159 200 246 300 358
#     4  12  25  42  63  88 123 163 203 248 303 363
#     4  12  23  38  61  91 123 158 203 252 301 353
#     4  10  20  36  59  88 123 159 200 246 300 358
#     4  12  23  38  61  91 123 158 203 252 301 353
#     4  10  20  35  59  90 123 157 199 249 301 353
#
# _framework density 19.567623999999999
#
# number of rings (size 3 to 8) (size 9 to 14) (size 15 to 20)
#    0.000    1.000    2.500    6.000    0.000    2.000 
#    0.000    1.250    0.000    0.000    0.000    0.000 
#    0.000    0.000    0.000    0.000    0.000    0.000 
#
# Total GULP energy -198519.927542 kJ/mol
# GULP energy per Si atom -12407.495471 kJ/mol
# Density = 1.952309 g / cm^3
# Si number density = 19.567624 Si / 1000 Ang^3
#
#
#
# Elastic Constant Matrix: (Units=GPa)
#
#
# Indices 1 2 3 4 5 6 
#
# 1 117.2945 16.9087 11.3773 0.0000 -17.1372 0.0000
# 2 16.9087 87.7015 20.8388 0.0000 -10.1655 0.0000
# 3 11.3773 20.8388 45.8702 0.0000 -11.2463 0.0000
# 4 0.0000 0.0000 0.0000 26.5536 0.0000 -1.9738
# 5 -17.1372 -10.1655 -11.2463 0.0000 25.7812 0.0000
# 6 0.0000 0.0000 0.0000 -1.9738 0.0000 39.2496
#
#
#
# Elastic Compliance Matrix: (Units=1/GPa)
#
#
# Indices 1 2 3 4 5 6 
#
# 1 0.009563 -0.001065 -0.000484 0.000000 0.005725 0.000000
# 2 -0.001065 0.013085 -0.005138 0.000000 0.002210 0.000000
# 3 -0.000484 -0.005138 0.026515 0.000000 0.009219 0.000000
# 4 0.000000 0.000000 0.000000 0.037801 0.000000 0.001901
# 5 0.005725 0.002210 0.009219 0.000000 0.047486 0.000000
# 6 0.000000 0.000000 0.000000 0.001901 0.000000 0.025574
#
#
# Mechanical properties :
#
#
# Convention : Reuss Voigt Hill
#
# Bulk Modulus (GPa) = 27.94298 38.79066 33.36682
# Shear Modulus (GPa) = 26.97921 31.76629 29.37275
#
# Velocity S-wave (km/s) = 3.71720 4.03353 3.87859
# Velocity P-wave (km/s) = 5.72142 6.44666 6.09484
#
# Compressibility (1/GPa) = 0.03578716
#
# Stress axis : x y z
#
# Youngs Moduli (GPa) = 104.57493 76.42500 37.71404
#
# Poissons Ratio (x) = 0.08139 0.01827
# Poissons Ratio (y) = 0.11137 0.19379
# Poissons Ratio (z) = 0.05065 0.39270
#
# Static dielectric constant tensor:
#      x y z
#    x 3.730980 0.000000 -0.086110 
#    y 0.000000 3.631320 0.000000 
#    z -0.086110 0.000000 3.324740 
# 
# 
# High freq. dielectric constant tensor:
#      x y z
#    x 1.778810 0.000000 -0.009270 
#    y 0.000000 1.779410 0.000000 
#    z -0.009270 0.000000 1.728000 
# 
# From -- ./inp_files/3815.got.cif
#   From: 2010.03.12/outbox.cif.g09.slc.cpg/sg6_2_cif.got.tgz:3815.got - 2010.03.30 10:24:59.
