data_PCOD8052235
_publ_section_title
;
Structure prediction by ZEFSAII (Michael W. Deem and Ramdas Pophale) SiO2 
 PCOD8052235
Probable space group: P M
;
_chemical_formula_sum "Si O2"
_cell_formula_units_Z 16
_cell_length_a 12.431797
_cell_length_b 8.561484
_cell_length_c 10.433831
_cell_angle_alpha 90.000000
_cell_angle_beta 51.939784
_cell_angle_gamma 90.000000
_cell_volume 874.383419
_symmetry_space_group_name_H-M "P M"
_symmetry_group_IT_number 6
_symmetry_cell_setting 'monoclinic'
loop_
_space_group_symop_operation_xyz
x,y,z
x,-y,z
loop_
_atom_site_type_symbol
_atom_site_label
_atom_site_fract_x
_atom_site_fract_y
_atom_site_fract_z
Si Si1 0.768590 0.313909 0.940280
Si Si2 0.048127 0.684952 0.839310
Si Si3 0.625226 0.685041 0.302838
Si Si4 0.640408 0.685044 0.775120
Si Si5 0.787738 0.818012 0.421723
Si Si6 0.344266 0.314571 0.614630
Si Si7 0.356049 0.314811 0.891721
Si Si8 0.054170 0.683974 0.129771
O O1 0.770542 0.500000 0.932856
O O2 0.708644 0.242506 0.852909
O O3 0.922392 0.247074 0.848440
O O4 0.674462 0.258691 0.127608
O O5 0.043991 0.500000 0.834668
O O6 0.194764 0.746766 0.677413
O O7 0.030510 0.734378 0.000002
O O8 0.641997 0.500000 0.308401
O O9 0.715331 0.765229 0.344952
O O10 0.466673 0.738729 0.431529
O O11 0.639691 0.500000 0.785924
O O12 0.725390 0.730276 0.588484
O O13 0.483719 0.748185 0.881471
O O14 0.948255 0.776394 0.296491
O O15 0.767760 0.000000 0.457329
O O16 0.338135 0.500000 0.626528
O O17 0.373111 0.247303 0.735449
O O18 0.361888 0.500000 0.879088
O O19 0.208580 0.266352 0.058281
O O20 0.030392 0.500000 0.165320
#
# Coordination Sequence:
#
# PCOD8052235 Si02
#       8
#     2   2   2   2   2   2   2   2
#     4   9  17  28  49  78 103 129 160 201 251 303
#     4   8  13  24  45  76 104 123 154 198 247 296
#     4  10  17  31  53  76 100 128 165 209 254 293
#     4  10  19  34  53  75 105 135 166 204 251 302
#     4  12  23  33  48  75 104 134 174 211 247 294
#     4   8  13  22  44  74 100 125 154 197 248 291
#     4   8  14  26  49  77  99 127 164 203 250 298
#     4   9  16  30  53  75  99 129 165 211 254 291
#
# _framework density 18.298608000000002
#
# number of rings (size 3 to 8) (size 9 to 14) (size 15 to 20)
#    0.000    2.750    2.500    2.625    0.000    0.000 
#    0.000    2.500    0.000    6.000    0.000    1.750 
#    0.000    0.000    0.000    0.000    0.000    0.000 
#
# Total GULP energy -198263.466563 kJ/mol
# GULP energy per Si atom -12391.466660 kJ/mol
# Density = 1.825696 g / cm^3
# Si number density = 18.298608 Si / 1000 Ang^3
#
#
#
# Elastic Constant Matrix: (Units=GPa)
#
#
# Indices 1 2 3 4 5 6 
#
# 1 176.4425 7.9198 79.0505 0.0000 -18.6319 0.0000
# 2 7.9198 7.9125 -2.2287 0.0000 -1.1581 0.0000
# 3 79.0505 -2.2287 90.7428 0.0000 -15.1950 0.0000
# 4 0.0000 0.0000 0.0000 2.3710 0.0000 -0.1207
# 5 -18.6319 -1.1581 -15.1950 0.0000 36.3366 0.0000
# 6 0.0000 0.0000 0.0000 -0.1207 0.0000 2.8926
#
#
#
# Elastic Compliance Matrix: (Units=1/GPa)
#
#
# Indices 1 2 3 4 5 6 
#
# 1 0.010544 -0.013019 -0.009322 0.000000 0.001093 0.000000
# 2 -0.013019 0.144472 0.015638 0.000000 0.004468 0.000000
# 3 -0.009322 0.015638 0.020224 0.000000 0.004176 0.000000
# 4 0.000000 0.000000 0.000000 0.422663 0.000000 0.017641
# 5 0.001093 0.004468 0.004176 0.000000 0.029970 0.000000
# 6 0.000000 0.000000 0.000000 0.017641 0.000000 0.346450
#
#
# Mechanical properties :
#
#
# Convention : Reuss Voigt Hill
#
# Bulk Modulus (GPa) = 6.17918 49.39792 27.78855
# Shear Modulus (GPa) = 4.79997 21.01046 12.90521
#
# Velocity S-wave (km/s) = 1.62137 3.39219 2.65855
# Velocity P-wave (km/s) = 2.62475 6.51127 4.96417
#
# Compressibility (1/GPa) = 0.16183373
#
# Stress axis : x y z
#
# Youngs Moduli (GPa) = 94.84183 6.92178 49.44550
#
# Poissons Ratio (x) = 0.09012 0.46093
# Poissons Ratio (y) = 1.23477 -0.77324
# Poissons Ratio (z) = 0.88411 -0.10824
#
# Static dielectric constant tensor:
#      x y z
#    x 3.993290 0.000000 -0.331220 
#    y 0.000000 2.784100 0.000000 
#    z -0.331220 0.000000 3.468510 
# 
# 
# High freq. dielectric constant tensor:
#      x y z
#    x 1.716390 0.000000 -0.027680 
#    y 0.000000 1.649220 0.000000 
#    z -0.027680 0.000000 1.698320 
# 
# From -- ./inp_files/3755.got.cif
#   From: 2010.03.12/outbox.cif.g09.slc.cpg/sg6_2_cif.got.tgz:3755.got - 2010.03.30 10:24:59.
