data_PCOD8052888
_publ_section_title
;
Structure prediction by ZEFSAII (Michael W. Deem and Ramdas Pophale) SiO2 
 PCOD8052888
Probable space group: C M
;
_chemical_formula_sum "Si O2"
_cell_formula_units_Z 32
_cell_length_a 20.708581
_cell_length_b 9.047672
_cell_length_c 25.562738
_cell_angle_alpha 90.000000
_cell_angle_beta 158.034410
_cell_angle_gamma 90.000000
_cell_volume 1791.529055
_symmetry_space_group_name_H-M "C M"
_symmetry_group_IT_number 8
_symmetry_cell_setting 'monoclinic'
loop_
_space_group_symop_operation_xyz
x,y,z
x,-y,z
1/2+x,1/2+y,z
1/2+x,1/2-y,z
loop_
_atom_site_type_symbol
_atom_site_label
_atom_site_fract_x
_atom_site_fract_y
_atom_site_fract_z
Si Si1 0.125000 0.172812 0.135180
Si Si2 0.356699 0.174981 0.109934
Si Si3 0.419627 0.329460 0.554905
Si Si4 0.575637 0.669735 0.820208
Si Si5 0.777000 0.332440 0.865519
Si Si6 0.415369 0.825642 0.270760
Si Si7 0.672456 0.828507 0.278604
Si Si8 0.266737 0.175072 0.538286
O O1 0.258744 0.216576 0.190732
O O2 0.188987 0.244658 0.236815
O O3 0.115589 0.000000 0.137161
O O4 0.937735 0.226931 0.975846
O O5 0.366134 0.234841 0.176056
O O6 0.515717 0.238000 0.195278
O O7 0.373458 0.000000 0.122811
O O8 0.174424 0.221867 0.946989
O O9 0.393720 0.500000 0.553246
O O10 0.622574 0.288919 0.709512
O O11 0.350045 0.303978 0.444170
O O12 0.311715 0.230810 0.514046
O O13 0.514259 0.500000 0.777827
O O14 0.711100 0.688959 0.874947
O O15 0.409213 0.771804 0.687188
O O16 0.837872 0.500000 0.902023
O O17 0.583738 0.741473 0.418179
O O18 0.452715 0.000000 0.298265
O O19 0.640143 0.000000 0.241787
O O20 0.258425 0.000000 0.532487
#
# Coordination Sequence:
#
# PCOD8052888 Si02
#       8
#     4   4   4   4   4   4   4   4
#     4  11  23  35  52  80 114 146 174 219 273 318
#     4   9  16  32  59  81  97 134 190 227 250 306
#     4   9  18  34  57  80 104 141 182 219 262 317
#     4   9  17  32  55  80 103 135 179 223 264 316
#     4   9  17  32  54  79 105 138 180 217 261 319
#     4  10  21  39  57  75 106 148 186 215 261 327
#     4  10  18  34  59  81 103 139 185 226 259 310
#     4  11  21  32  51  82 112 139 172 222 276 313
#
# _framework density 17.861836
#
# number of rings (size 3 to 8) (size 9 to 14) (size 15 to 20)
#    0.000    2.250    2.500    2.250    0.000    3.500 
#    0.000    1.875    0.000    4.500    0.000    0.000 
#    0.000    0.000    0.000    0.000    0.000    0.000 
#
# Total GULP energy -198402.992094 kJ/mol
# GULP energy per Si atom -12400.187006 kJ/mol
# Density = 1.782118 g / cm^3
# Si number density = 17.861836 Si / 1000 Ang^3
#
#
#
# Elastic Constant Matrix: (Units=GPa)
#
#
# Indices 1 2 3 4 5 6 
#
# 1 102.4752 44.4439 67.5255 0.0003 -4.6106 -0.0010
# 2 44.4439 73.9484 55.6599 0.0021 7.9733 0.0019
# 3 67.5255 55.6599 146.1325 0.0125 -3.3854 0.0011
# 4 0.0003 0.0021 0.0125 25.8652 0.0050 3.5311
# 5 -4.6106 7.9733 -3.3854 0.0050 23.1761 0.0000
# 6 -0.0010 0.0019 0.0011 3.5311 0.0000 21.4282
#
#
#
# Elastic Compliance Matrix: (Units=1/GPa)
#
#
# Indices 1 2 3 4 5 6 
#
# 1 0.015934 -0.006482 -0.004785 0.000002 0.004701 0.000001
# 2 -0.006482 0.023031 -0.006011 0.000003 -0.010091 -0.000003
# 3 -0.004785 -0.006011 0.011408 -0.000006 0.002782 0.000001
# 4 0.000002 0.000003 -0.000006 0.039552 -0.000010 -0.006518
# 5 0.004701 -0.010091 0.002782 -0.000010 0.047961 0.000003
# 6 0.000001 -0.000003 0.000001 -0.006518 0.000003 0.047742
#
#
# Mechanical properties :
#
#
# Convention : Reuss Voigt Hill
#
# Bulk Modulus (GPa) = 63.22044 73.09052 68.15548
# Shear Modulus (GPa) = 22.17727 24.42235 23.29981
#
# Velocity S-wave (km/s) = 3.52746 3.70170 3.61563
# Velocity P-wave (km/s) = 7.21537 7.69928 7.46125
#
# Compressibility (1/GPa) = 0.01581767
#
# Stress axis : x y z
#
# Youngs Moduli (GPa) = 62.75734 43.42015 87.65645
#
# Poissons Ratio (x) = 0.28144 0.41946
# Poissons Ratio (y) = 0.40678 0.52688
# Poissons Ratio (z) = 0.30031 0.26099
#
# Static dielectric constant tensor:
#      x y z
#    x 3.125950 0.000000 -0.165350 
#    y 0.000000 3.086310 0.000000 
#    z -0.165350 0.000000 3.542190 
# 
# 
# High freq. dielectric constant tensor:
#      x y z
#    x 1.663540 0.000000 -0.013350 
#    y 0.000000 1.671210 0.000000 
#    z -0.013350 0.000000 1.708600 
# 
# From -- ./inp_files/31320.got.cif
#   From: 2010.03.12/outbox.cif.g09.slc.cpg/sg8_16_cif.got.tgz:31320.got - 2010.03.31 10:45:26.
