data_PCOD8052464
_publ_section_title
;
Structure prediction by ZEFSAII (Michael W. Deem and Ramdas Pophale) SiO2 
 PCOD8052464
Probable space group: P M
;
_chemical_formula_sum "Si O2"
_cell_formula_units_Z 12
_cell_length_a 12.182180
_cell_length_b 8.952111
_cell_length_c 9.327017
_cell_angle_alpha 90.000000
_cell_angle_beta 142.167830
_cell_angle_gamma 90.000000
_cell_volume 623.881401
_symmetry_space_group_name_H-M "P M"
_symmetry_group_IT_number 6
_symmetry_cell_setting 'monoclinic'
loop_
_space_group_symop_operation_xyz
x,y,z
x,-y,z
loop_
_atom_site_type_symbol
_atom_site_label
_atom_site_fract_x
_atom_site_fract_y
_atom_site_fract_z
Si Si1 0.304660 0.326434 0.232820
Si Si2 0.073515 0.828941 0.492799
Si Si3 0.640446 0.324886 0.774424
Si Si4 0.376140 0.674586 0.980455
Si Si5 0.004020 0.173923 0.096378
Si Si6 0.664574 0.825810 0.097215
O O1 0.255425 0.500000 0.197710
O O2 0.478755 0.284848 0.502928
O O3 0.138275 0.229401 0.113713
O O4 0.339729 0.280795 0.105885
O O5 0.206263 0.718900 0.710148
O O6 0.087143 0.793775 0.338243
O O7 0.873387 0.795430 0.341605
O O8 0.127493 0.000000 0.580023
O O9 0.664854 0.500000 0.821694
O O10 0.598131 0.252064 0.883668
O O11 0.818121 0.259825 0.885411
O O12 0.411487 0.500000 0.998911
O O13 0.554088 0.761143 0.116009
O O14 0.964040 0.000000 0.035126
O O15 0.625678 0.000000 0.038906
#
# Coordination Sequence:
#
# PCOD8052464 Si02
#       6
#     2   2   2   2   2   2
#     4  10  23  39  54  79 114 149 184 223 270 325
#     4   9  20  38  58  82 110 141 180 227 275 324
#     4  10  20  37  61  84 109 143 183 227 273 323
#     4  11  23  37  55  81 113 148 184 224 272 325
#     4  10  21  37  59  85 111 141 181 229 276 323
#     4  10  21  38  59  83 111 142 182 230 274 322
#
# _framework density 19.234423
#
# number of rings (size 3 to 8) (size 9 to 14) (size 15 to 20)
#    0.000    2.000    0.000    4.000    0.000   10.667 
#    0.000    5.000    0.000    0.000    0.000    0.000 
#    0.000    0.000    0.000    0.000    0.000    0.000 
#
# Total GULP energy -148866.852026 kJ/mol
# GULP energy per Si atom -12405.571002 kJ/mol
# Density = 1.919064 g / cm^3
# Si number density = 19.234423 Si / 1000 Ang^3
#
#
#
# Elastic Constant Matrix: (Units=GPa)
#
#
# Indices 1 2 3 4 5 6 
#
# 1 145.0732 52.2434 32.9543 0.0000 8.5963 0.0000
# 2 52.2434 75.0918 11.8972 0.0000 6.8409 0.0000
# 3 32.9543 11.8972 23.6152 0.0000 8.1808 0.0000
# 4 0.0000 0.0000 0.0000 22.1824 0.0000 6.5919
# 5 8.5963 6.8409 8.1808 0.0000 20.0488 0.0000
# 6 0.0000 0.0000 0.0000 6.5919 0.0000 35.2093
#
#
#
# Elastic Compliance Matrix: (Units=1/GPa)
#
#
# Indices 1 2 3 4 5 6 
#
# 1 0.012553 -0.006597 -0.015268 0.000000 0.003098 0.000000
# 2 -0.006597 0.018030 0.001484 0.000000 -0.003929 0.000000
# 3 -0.015268 0.001484 0.070822 0.000000 -0.022859 0.000000
# 4 0.000000 0.000000 0.000000 0.047737 0.000000 -0.008937
# 5 0.003098 -0.003929 -0.022859 0.000000 0.059218 0.000000
# 6 0.000000 0.000000 0.000000 -0.008937 0.000000 0.030075
#
#
# Mechanical properties :
#
#
# Convention : Reuss Voigt Hill
#
# Bulk Modulus (GPa) = 16.48979 48.66333 32.57656
# Shear Modulus (GPa) = 16.69947 25.26712 20.98330
#
# Velocity S-wave (km/s) = 2.94973 3.62835 3.30650
# Velocity P-wave (km/s) = 4.49365 6.55044 5.61699
#
# Compressibility (1/GPa) = 0.06064360
#
# Stress axis : x y z
#
# Youngs Moduli (GPa) = 79.66024 55.46437 14.11983
#
# Poissons Ratio (x) = 0.36590 0.21558
# Poissons Ratio (y) = 0.52552 -0.02095
# Poissons Ratio (z) = 1.21622 -0.08230
#
# Static dielectric constant tensor:
#      x y z
#    x 3.643550 0.000000 0.055280 
#    y 0.000000 3.549930 0.000000 
#    z 0.055280 0.000000 3.414970 
# 
# 
# High freq. dielectric constant tensor:
#      x y z
#    x 1.757850 0.000000 0.008990 
#    y 0.000000 1.757870 0.000000 
#    z 0.008990 0.000000 1.744750 
# 
# From -- ./inp_files/2490.got.cif
#   From: 2010.03.12/outbox.cif.g09.slc.cpg/sg6_2_cif.got.tgz:2490.got - 2010.03.30 10:24:59.
