data_PCOD8052145
_publ_section_title
;
Structure prediction by ZEFSAII (Michael W. Deem and Ramdas Pophale) SiO2 
 PCOD8052145
Probable space group: C 2
;
_chemical_formula_sum "Si O2"
_cell_formula_units_Z 22
_cell_length_a 16.782253
_cell_length_b 8.953099
_cell_length_c 11.128883
_cell_angle_alpha 90.000000
_cell_angle_beta 148.803708
_cell_angle_gamma 90.000000
_cell_volume 866.126286
_symmetry_space_group_name_H-M "C 2"
_symmetry_group_IT_number 5
_symmetry_cell_setting 'monoclinic'
loop_
_space_group_symop_operation_xyz
x,y,z
-x,y,-z
1/2+x,1/2+y,z
1/2-x,1/2+y,-z
loop_
_atom_site_type_symbol
_atom_site_label
_atom_site_fract_x
_atom_site_fract_y
_atom_site_fract_z
Si Si1 0.332968 0.311210 0.846164
Si Si2 0.500000 0.884235 0.000000
Si Si3 0.941393 0.117125 0.556287
Si Si4 0.548702 0.087863 0.832314
Si Si5 0.734995 0.583618 0.088843
Si Si6 0.323651 0.280062 0.397220
O O1 0.200488 0.230207 0.594102
O O2 0.287663 0.478120 0.824221
O O3 0.500000 0.305615 0.000000
O O4 0.341019 0.221048 0.981016
O O5 0.354657 0.778803 0.796021
O O6 0.510430 0.983491 0.893988
O O7 0.000000 0.160901 0.500000
O O8 0.890552 0.945188 0.494180
O O9 0.072438 0.137830 0.825466
O O10 0.653519 0.005909 0.866218
O O11 0.396577 0.160097 0.581039
O O12 0.829600 0.726030 0.264954
#
# Coordination Sequence:
#
# PCOD8052145 Si02
#       6
#     4   2   4   4   4   4
#     4  12  27  51  75 114 159 200 252 322 382 452
#     4  12  28  50  76 116 160 208 244 320 398 446
#     4  12  24  48  82 110 153 201 255 314 382 455
#     4  12  25  51  79 112 155 202 258 318 378 461
#     4  12  29  49  80 112 153 202 263 313 384 454
#     4  12  28  48  79 115 156 202 259 318 379 463
#
# _framework density 25.400452999999999
#
# number of rings (size 3 to 8) (size 9 to 14) (size 15 to 20)
#    0.000    0.000    6.364    1.636    3.818    7.273 
#    0.000    0.000    0.000    0.000    0.000    0.000 
#    0.000    0.000    0.000    0.000    0.000    0.000 
#
# Total GULP energy -136397.602052 kJ/mol
# GULP energy per Si atom -12399.782005 kJ/mol
# Density = 2.534264 g / cm^3
# Si number density = 25.400453 Si / 1000 Ang^3
#
#
#
# Elastic Constant Matrix: (Units=GPa)
#
#
# Indices 1 2 3 4 5 6 
#
# 1 120.5101 40.9243 35.2971 0.0000 8.6994 0.0000
# 2 40.9243 74.2048 59.0505 0.0000 -5.2420 0.0000
# 3 35.2971 59.0505 175.8477 0.0000 -13.7981 0.0000
# 4 0.0000 0.0000 0.0000 33.6424 0.0000 12.2720
# 5 8.6994 -5.2420 -13.7981 0.0000 37.5665 0.0000
# 6 0.0000 0.0000 0.0000 12.2720 0.0000 19.7704
#
#
#
# Elastic Compliance Matrix: (Units=1/GPa)
#
#
# Indices 1 2 3 4 5 6 
#
# 1 0.010631 -0.005722 -0.000482 0.000000 -0.003437 0.000000
# 2 -0.005722 0.021474 -0.005893 0.000000 0.002157 0.000000
# 3 -0.000482 -0.005893 0.007935 0.000000 0.002204 0.000000
# 4 0.000000 0.000000 0.000000 0.038425 0.000000 -0.023851
# 5 -0.003437 0.002157 0.002204 0.000000 0.028526 0.000000
# 6 0.000000 0.000000 0.000000 -0.023851 0.000000 0.065386
#
#
# Mechanical properties :
#
#
# Convention : Reuss Voigt Hill
#
# Bulk Modulus (GPa) = 63.11009 71.23406 67.17208
# Shear Modulus (GPa) = 24.77049 33.88191 29.32620
#
# Velocity S-wave (km/s) = 3.12621 3.65624 3.40156
# Velocity P-wave (km/s) = 6.15880 6.77712 6.47535
#
# Compressibility (1/GPa) = 0.01584533
#
# Stress axis : x y z
#
# Youngs Moduli (GPa) = 94.06876 46.56780 126.01707
#
# Poissons Ratio (x) = 0.26646 0.06075
# Poissons Ratio (y) = 0.53826 0.74266
# Poissons Ratio (z) = 0.04535 0.27444
#
# Static dielectric constant tensor:
#      x y z
#    x 4.476860 0.000000 0.095940 
#    y 0.000000 4.517770 0.000000 
#    z 0.095940 0.000000 4.979050 
# 
# 
# High freq. dielectric constant tensor:
#      x y z
#    x 2.013690 0.000000 0.005390 
#    y 0.000000 2.009020 0.000000 
#    z 0.005390 0.000000 2.037860 
# 
# From -- ./inp_files/44362.got.cif
#   From: 2010.03.12/outbox.cif.g09.slc.cpg/sg5_23_cif.got.tgz:44362.got - 2010.03.31 09:47:26.
