data_PCOD8052659
_publ_section_title
;
Structure prediction by ZEFSAII (Michael W. Deem and Ramdas Pophale) SiO2 
 PCOD8052659
Probable space group: P C
;
_chemical_formula_sum "Si O2"
_cell_formula_units_Z 12
_cell_length_a 6.844612
_cell_length_b 13.409866
_cell_length_c 5.347785
_cell_angle_alpha 90.000000
_cell_angle_beta 103.606897
_cell_angle_gamma 90.000000
_cell_volume 477.071420
_symmetry_space_group_name_H-M "P C"
_symmetry_group_IT_number 7
_symmetry_cell_setting 'monoclinic'
loop_
_space_group_symop_operation_xyz
x,y,z
x,-y,1/2+z
loop_
_atom_site_type_symbol
_atom_site_label
_atom_site_fract_x
_atom_site_fract_y
_atom_site_fract_z
Si Si1 0.322810 0.452136 0.498500
Si Si2 0.967027 0.139051 0.093059
Si Si3 0.797697 0.551885 0.099467
Si Si4 0.306263 0.770535 0.941937
Si Si5 0.773869 0.782661 0.039596
Si Si6 0.263928 0.032985 0.673555
O O1 0.228701 0.509179 0.709025
O O2 0.560320 0.467033 0.545969
O O3 0.263008 0.338550 0.531515
O O4 0.170877 0.207088 0.155774
O O5 0.846137 0.166330 0.306898
O O6 0.047306 0.024434 0.122539
O O7 0.837113 0.157216 0.806876
O O8 0.889539 0.504414 0.382652
O O9 0.849169 0.668730 0.088767
O O10 0.535508 0.786220 0.943122
O O11 0.231158 0.848224 0.137100
O O12 0.385426 0.993050 0.464306
#
# Coordination Sequence:
#
# PCOD8052659 Si02
#       6
#     2   2   2   2   2   2
#     4   9  19  35  61  96 131 172 218 267 323 389
#     4  11  24  44  65  99 136 169 230 288 328 392
#     4   9  17  34  59  91 131 171 219 274 326 390
#     4  10  24  46  71  97 139 181 222 274 339 400
#     4  11  24  42  70  98 132 185 225 271 345 407
#     4  10  22  43  66  91 129 172 214 276 335 380
#
# _framework density 25.153466999999999
#
# number of rings (size 3 to 8) (size 9 to 14) (size 15 to 20)
#    0.000    2.000    0.000    3.000    0.000   12.000 
#    0.000   25.000    0.000    0.000    0.000    0.000 
#    0.000    0.000    0.000    0.000    0.000    0.000 
#
# Total GULP energy -148679.979974 kJ/mol
# GULP energy per Si atom -12389.998331 kJ/mol
# Density = 2.509622 g / cm^3
# Si number density = 25.153467 Si / 1000 Ang^3
#
#
#
# Elastic Constant Matrix: (Units=GPa)
#
#
# Indices 1 2 3 4 5 6 
#
# 1 90.2401 35.0666 48.6986 0.0000 -7.8890 0.0000
# 2 35.0666 179.1571 57.4238 0.0000 -34.7371 0.0000
# 3 48.6986 57.4238 192.1504 0.0000 -43.9302 0.0000
# 4 0.0000 0.0000 0.0000 -55.8946 0.0000 197.3288
# 5 -7.8890 -34.7371 -43.9302 0.0000 44.8130 0.0000
# 6 0.0000 0.0000 0.0000 197.3288 0.0000 -386.7817
#
#
#
# Elastic Compliance Matrix: (Units=1/GPa)
#
#
# Indices 1 2 3 4 5 6 
#
# 1 0.013481 -0.002044 -0.003384 0.000000 -0.002529 0.000000
# 2 -0.002044 0.007041 -0.000542 0.000000 0.004567 0.000000
# 3 -0.003384 -0.000542 0.007722 0.000000 0.006554 0.000000
# 4 0.000000 0.000000 0.000000 0.022332 0.000000 0.011393
# 5 -0.002529 0.004567 0.006554 0.000000 0.031835 0.000000
# 6 0.000000 0.000000 0.000000 0.011393 0.000000 0.003227
#
#
# Mechanical properties :
#
#
# Convention : Reuss Voigt Hill
#
# Bulk Modulus (GPa) = 61.33461 82.65839 71.99650
# Shear Modulus (GPa) = 48.53748 -58.21540 -4.83896
#
# Velocity S-wave (km/s) = 4.39755 -4.81605 -1.38851
# Velocity P-wave (km/s) = 7.08672 1.41676 5.11023
#
# Compressibility (1/GPa) = 0.01630401
#
# Stress axis : x y z
#
# Youngs Moduli (GPa) = 74.17866 142.02539 129.49521
#
# Poissons Ratio (x) = 0.29035 0.43818
# Poissons Ratio (y) = 0.15165 0.07019
# Poissons Ratio (z) = 0.25100 0.07698
#
# Static dielectric constant tensor:
#      x y z
#    x 4.577530 0.000000 -0.109720 
#    y 0.000000 4.766650 0.000000 
#    z -0.109720 0.000000 5.066120 
# 
# 
# High freq. dielectric constant tensor:
#      x y z
#    x 1.999850 0.000000 -0.006540 
#    y 0.000000 2.008190 0.000000 
#    z -0.006540 0.000000 2.016260 
# 
# From -- ./inp_files/677.got.cif
#   From: 2010.03.12/outbox.cif.g09.slc.cpg/sg7_cif.got.tgz:677.got - 2010.03.30 08:40:41.
