data_PCOD8052054
_publ_section_title
;
Structure prediction by ZEFSAII (Michael W. Deem and Ramdas Pophale) SiO2 
 PCOD8052054
Probable space group: C 2
;
_chemical_formula_sum "Si O2"
_cell_formula_units_Z 18
_cell_length_a 17.628714
_cell_length_b 7.711997
_cell_length_c 6.638601
_cell_angle_alpha 90.000000
_cell_angle_beta 56.142460
_cell_angle_gamma 90.000000
_cell_volume 749.487971
_symmetry_space_group_name_H-M "C 2"
_symmetry_group_IT_number 5
_symmetry_cell_setting 'monoclinic'
loop_
_space_group_symop_operation_xyz
x,y,z
-x,y,-z
1/2+x,1/2+y,z
1/2-x,1/2+y,-z
loop_
_atom_site_type_symbol
_atom_site_label
_atom_site_fract_x
_atom_site_fract_y
_atom_site_fract_z
Si Si1 0.599342 0.325480 0.360028
Si Si2 0.238995 0.790209 0.813522
Si Si3 0.330921 0.069042 0.420023
Si Si4 0.500000 0.849091 0.000000
Si Si5 0.580506 0.709996 0.265519
O O1 0.500000 0.236020 0.500000
O O2 0.649208 0.242912 0.479526
O O3 0.587781 0.532275 0.383729
O O4 0.646811 0.294842 0.075900
O O5 0.226256 0.621778 0.693385
O O6 0.320801 0.793737 0.854454
O O7 0.257201 0.957920 0.651530
O O8 0.424159 0.967456 0.224557
O O9 0.553580 0.717208 0.070351
O O10 0.500000 0.816772 0.500000
#
# Coordination Sequence:
#
# PCOD8052054 Si02
#       5
#     4   4   4   2   4
#     4  11  27  47  75 106 155 197 253 310 377 443
#     4  12  27  45  78 110 156 196 256 309 380 449
#     4  12  28  46  77 114 153 200 253 311 382 449
#     4  12  28  48  82 112 154 200 254 310 384 448
#     4  11  26  48  75 110 154 199 252 309 379 448
#
# _framework density 24.016397000000001
#
# number of rings (size 3 to 8) (size 9 to 14) (size 15 to 20)
#    0.000    0.444    2.222    4.000   15.556    3.556 
#    0.000    0.000    0.000    0.000    0.000    0.000 
#    0.000    0.000    0.000    0.000    0.000    0.000 
#
# Total GULP energy -111500.983692 kJ/mol
# GULP energy per Si atom -12388.998188 kJ/mol
# Density = 2.396174 g / cm^3
# Si number density = 24.016397 Si / 1000 Ang^3
#
#
#
# Elastic Constant Matrix: (Units=GPa)
#
#
# Indices 1 2 3 4 5 6 
#
# 1 151.2985 34.5527 69.3535 0.0000 0.5529 0.0000
# 2 34.5527 71.4776 29.1478 0.0000 -5.0009 0.0000
# 3 69.3535 29.1478 160.6166 0.0000 -24.9185 0.0000
# 4 0.0000 0.0000 0.0000 37.9686 0.0000 6.8582
# 5 0.5529 -5.0009 -24.9185 0.0000 35.9421 0.0000
# 6 0.0000 0.0000 0.0000 6.8582 0.0000 26.8085
#
#
#
# Elastic Compliance Matrix: (Units=1/GPa)
#
#
# Indices 1 2 3 4 5 6 
#
# 1 0.009094 -0.003042 -0.003880 0.000000 -0.003253 0.000000
# 2 -0.003042 0.016128 -0.001410 0.000000 0.001314 0.000000
# 3 -0.003880 -0.001410 0.009116 0.000000 0.006184 0.000000
# 4 0.000000 0.000000 0.000000 0.027614 0.000000 -0.007064
# 5 -0.003253 0.001314 0.006184 0.000000 0.032343 0.000000
# 6 0.000000 0.000000 0.000000 -0.007064 0.000000 0.039109
#
#
# Mechanical properties :
#
#
# Convention : Reuss Voigt Hill
#
# Bulk Modulus (GPa) = 56.57229 72.16674 64.36952
# Shear Modulus (GPa) = 32.06012 36.83308 34.44660
#
# Velocity S-wave (km/s) = 3.65763 3.92045 3.79132
# Velocity P-wave (km/s) = 6.43774 7.11389 6.78424
#
# Compressibility (1/GPa) = 0.01767650
#
# Stress axis : x y z
#
# Youngs Moduli (GPa) = 109.95844 62.00585 109.69305
#
# Poissons Ratio (x) = 0.18861 0.42556
# Poissons Ratio (y) = 0.33447 0.15461
# Poissons Ratio (z) = 0.42659 0.08740
#
# Static dielectric constant tensor:
#      x y z
#    x 4.827400 0.000000 -0.266480 
#    y 0.000000 4.175910 0.000000 
#    z -0.266480 0.000000 4.486490 
# 
# 
# High freq. dielectric constant tensor:
#      x y z
#    x 1.969410 0.000000 -0.008930 
#    y 0.000000 1.937450 0.000000 
#    z -0.008930 0.000000 1.969870 
# 
# From -- ./inp_files/7878.got.cif
#   From: 2010.03.12/outbox.cif.g09.slc.cpg/sg5_4_cif.got.tgz:7878.got - 2010.03.31 09:47:26.
