data_PCOD8052269
_publ_section_title
;
Structure prediction by ZEFSAII (Michael W. Deem and Ramdas Pophale) SiO2 
 PCOD8052269
Probable space group: P M
;
_chemical_formula_sum "Si O2"
_cell_formula_units_Z 16
_cell_length_a 10.392502
_cell_length_b 8.923515
_cell_length_c 12.331077
_cell_angle_alpha 90.000000
_cell_angle_beta 128.678597
_cell_angle_gamma 90.000000
_cell_volume 892.732178
_symmetry_space_group_name_H-M "P M"
_symmetry_group_IT_number 6
_symmetry_cell_setting 'monoclinic'
loop_
_space_group_symop_operation_xyz
x,y,z
x,-y,z
loop_
_atom_site_type_symbol
_atom_site_label
_atom_site_fract_x
_atom_site_fract_y
_atom_site_fract_z
Si Si1 0.410620 0.824196 0.085460
Si Si2 0.372386 0.324746 0.405838
Si Si3 0.478527 0.177848 0.670887
Si Si4 0.152220 0.671784 0.095912
Si Si5 0.322955 0.177444 0.809040
Si Si6 0.959431 0.173248 0.673088
Si Si7 0.824746 0.326820 0.813473
Si Si8 0.628869 0.827588 0.392042
O O1 0.244599 0.766985 0.053789
O O2 0.571754 0.778439 0.240682
O O3 0.390138 0.000000 0.067545
O O4 0.420618 0.762167 0.967406
O O5 0.382858 0.500000 0.434862
O O6 0.360729 0.239331 0.513715
O O7 0.213184 0.281518 0.248649
O O8 0.539415 0.274946 0.433551
O O9 0.408061 0.244432 0.746614
O O10 0.665609 0.229866 0.755902
O O11 0.474629 0.000000 0.665192
O O12 0.201370 0.500000 0.100912
O O13 0.956244 0.696436 0.980649
O O14 0.132639 0.229170 0.715907
O O15 0.332262 0.000000 0.806179
O O16 0.910194 0.274658 0.748197
O O17 0.824536 0.193730 0.506325
O O18 0.968530 0.000000 0.715588
O O19 0.773541 0.500000 0.775176
O O20 0.577014 0.000000 0.386600
#
# Coordination Sequence:
#
# PCOD8052269 Si02
#       8
#     2   2   2   2   2   2   2   2
#     4   9  16  30  51  76 103 133 168 208 256 311
#     4  10  19  33  52  75 105 138 173 216 264 310
#     4  11  22  36  52  75 109 145 179 215 257 308
#     4   9  19  33  51  77 106 133 168 219 266 307
#     4   9  19  34  52  74 105 141 174 214 260 307
#     4  10  18  32  53  78 105 133 169 215 261 307
#     4  11  21  34  53  79 106 136 176 220 262 309
#     4   9  17  28  50  80 105 129 165 211 260 313
#
# _framework density 17.922509000000002
#
# number of rings (size 3 to 8) (size 9 to 14) (size 15 to 20)
#    0.000    2.250    2.500    1.125    0.000    1.000 
#    0.000    3.750    0.000    3.000    0.000    0.000 
#    0.000    0.000    0.000    0.000    0.000    0.000 
#
# Total GULP energy -198346.315027 kJ/mol
# GULP energy per Si atom -12396.644689 kJ/mol
# Density = 1.788172 g / cm^3
# Si number density = 17.922509 Si / 1000 Ang^3
#
#
#
# Elastic Constant Matrix: (Units=GPa)
#
#
# Indices 1 2 3 4 5 6 
#
# 1 89.7120 22.9537 62.3219 0.0000 -15.2573 0.0000
# 2 22.9537 47.2868 31.7066 0.0000 -7.1041 0.0000
# 3 62.3219 31.7066 146.5731 0.0000 -13.7573 0.0000
# 4 0.0000 0.0000 0.0000 22.8129 0.0000 3.4272
# 5 -15.2573 -7.1041 -13.7573 0.0000 29.7419 0.0000
# 6 0.0000 0.0000 0.0000 3.4272 0.0000 0.0806
#
#
#
# Elastic Compliance Matrix: (Units=1/GPa)
#
#
# Indices 1 2 3 4 5 6 
#
# 1 0.017108 -0.003482 -0.006037 0.000000 0.005152 0.000000
# 2 -0.003482 0.025816 -0.003860 0.000000 0.002594 0.000000
# 3 -0.006037 -0.003860 0.010294 0.000000 0.000743 0.000000
# 4 0.000000 0.000000 0.000000 -0.008141 0.000000 0.345979
# 5 0.005152 0.002594 0.000743 0.000000 0.037229 0.000000
# 6 0.000000 0.000000 0.000000 0.345979 0.000000 -2.303006
#
#
# Mechanical properties :
#
#
# Convention : Reuss Voigt Hill
#
# Bulk Modulus (GPa) = 37.79523 57.50405 47.64964
# Shear Modulus (GPa) = -2.28820 21.63306 9.67243
#
# Velocity S-wave (km/s) = -1.13115 3.47801 2.32562
# Velocity P-wave (km/s) = 4.40771 6.94861 5.81855
#
# Compressibility (1/GPa) = 0.02645837
#
# Stress axis : x y z
#
# Youngs Moduli (GPa) = 58.45205 38.73543 97.14070
#
# Poissons Ratio (x) = 0.13489 0.58647
# Poissons Ratio (y) = 0.20355 0.37500
# Poissons Ratio (z) = 0.35290 0.14953
#
# Static dielectric constant tensor:
#      x y z
#    x 3.153540 0.000000 -0.042340 
#    y 0.000000 3.222500 0.000000 
#    z -0.042340 0.000000 3.883810 
# 
# 
# High freq. dielectric constant tensor:
#      x y z
#    x 1.656150 0.000000 0.006390 
#    y 0.000000 1.684130 0.000000 
#    z 0.006390 0.000000 1.717740 
# 
# From -- ./inp_files/3748.got.cif
#   From: 2010.03.12/outbox.cif.g09.slc.cpg/sg6_2_cif.got.tgz:3748.got - 2010.03.30 10:24:59.
