data_PCOD8052799
_publ_section_title
;
Structure prediction by ZEFSAII (Michael W. Deem and Ramdas Pophale) SiO2 
 PCOD8052799
Probable space group: C M
;
_chemical_formula_sum "Si O2"
_cell_formula_units_Z 32
_cell_length_a 19.222919
_cell_length_b 8.882889
_cell_length_c 25.466550
_cell_angle_alpha 90.000000
_cell_angle_beta 25.316843
_cell_angle_gamma 90.000000
_cell_volume 1859.539317
_symmetry_space_group_name_H-M "C M"
_symmetry_group_IT_number 8
_symmetry_cell_setting 'monoclinic'
loop_
_space_group_symop_operation_xyz
x,y,z
x,-y,z
1/2+x,1/2+y,z
1/2+x,1/2-y,z
loop_
_atom_site_type_symbol
_atom_site_label
_atom_site_fract_x
_atom_site_fract_y
_atom_site_fract_z
Si Si1 0.897080 0.672187 0.681750
Si Si2 0.217116 0.674594 0.720604
Si Si3 0.155656 0.326850 0.045672
Si Si4 0.364433 0.174693 0.986365
Si Si5 0.264036 0.674599 0.859553
Si Si6 0.312889 0.823193 0.231099
Si Si7 0.525510 0.172007 0.487170
Si Si8 0.431743 0.678438 0.049842
O O1 0.847549 0.500000 0.724444
O O2 0.744226 0.764415 0.761467
O O3 0.922320 0.751957 0.721626
O O4 0.044821 0.683984 0.538343
O O5 0.262982 0.500000 0.684633
O O6 0.342176 0.768361 0.597570
O O7 0.026445 0.703977 0.840169
O O8 0.162646 0.500000 0.058583
O O9 0.211320 0.224363 0.055951
O O10 0.275145 0.299257 0.914333
O O11 0.973165 0.279095 0.154746
O O12 0.349377 0.000000 0.011184
O O13 0.364109 0.267597 0.040126
O O14 0.250066 0.500000 0.855870
O O15 0.107531 0.757089 0.943096
O O16 0.157248 0.777712 0.371104
O O17 0.307434 0.736037 0.179638
O O18 0.310994 0.000000 0.220705
O O19 0.544338 0.000000 0.455366
O O20 0.437237 0.500000 0.046540
#
# Coordination Sequence:
#
# PCOD8052799 Si02
#       8
#     4   4   4   4   4   4   4   4
#     4   9  17  27  46  75 100 126 160 203 247 292
#     4   9  17  29  48  73 100 129 162 205 249 294
#     4   9  21  35  49  72 104 137 167 205 252 303
#     4  11  21  33  51  76 104 135 169 206 251 304
#     4  10  18  31  49  73 102 131 168 208 250 300
#     4  10  20  35  53  74 101 134 171 210 250 298
#     4   9  18  30  48  76 102 127 167 212 250 294
#     4  11  20  30  50  73  99 131 166 211 253 295
#
# _framework density 17.208563000000002
#
# number of rings (size 3 to 8) (size 9 to 14) (size 15 to 20)
#    0.750    1.500    1.250    3.750    0.000    4.500 
#    0.000    0.000    0.000    1.500    0.000    3.500 
#    0.000    0.000    0.000    0.000    0.000    0.000 
#
# Total GULP energy -198211.559611 kJ/mol
# GULP energy per Si atom -12388.222476 kJ/mol
# Density = 1.716940 g / cm^3
# Si number density = 17.208563 Si / 1000 Ang^3
#
#
#
# Elastic Constant Matrix: (Units=GPa)
#
#
# Indices 1 2 3 4 5 6 
#
# 1 70.0291 34.8389 26.8825 -0.0030 6.6145 0.0005
# 2 34.8389 87.8444 26.1869 -0.0052 6.4029 -0.0002
# 3 26.8825 26.1869 77.9954 -0.0120 11.6717 0.0010
# 4 -0.0030 -0.0052 -0.0120 30.0233 -0.0013 5.5221
# 5 6.6145 6.4029 11.6717 -0.0013 17.5581 0.0002
# 6 0.0005 -0.0002 0.0010 5.5221 0.0002 26.5233
#
#
#
# Elastic Compliance Matrix: (Units=1/GPa)
#
#
# Indices 1 2 3 4 5 6 
#
# 1 0.019182 -0.006195 -0.004206 -0.000001 -0.002171 0.000000
# 2 -0.006195 0.014714 -0.002611 0.000001 -0.001296 0.000000
# 3 -0.004206 -0.002611 0.016399 0.000006 -0.008365 -0.000002
# 4 -0.000001 0.000001 0.000006 0.034634 -0.000001 -0.007211
# 5 -0.002171 -0.001296 -0.008365 -0.000001 0.063805 0.000000
# 6 0.000000 0.000000 -0.000002 -0.007211 0.000000 0.039204
#
#
# Mechanical properties :
#
#
# Convention : Reuss Voigt Hill
#
# Bulk Modulus (GPa) = 41.20362 45.74285 43.47323
# Shear Modulus (GPa) = 22.51730 24.68499 23.60115
#
# Velocity S-wave (km/s) = 3.62124 3.79154 3.70736
# Velocity P-wave (km/s) = 6.44051 6.76807 6.60632
#
# Compressibility (1/GPa) = 0.02426971
#
# Stress axis : x y z
#
# Youngs Moduli (GPa) = 52.13327 67.96453 60.97786
#
# Poissons Ratio (x) = 0.42106 0.25650
# Poissons Ratio (y) = 0.32298 0.15920
# Poissons Ratio (z) = 0.21929 0.17744
#
# Static dielectric constant tensor:
#      x y z
#    x 2.950970 0.000000 0.281510 
#    y 0.000000 3.287620 0.000000 
#    z 0.281510 0.000000 3.177160 
# 
# 
# High freq. dielectric constant tensor:
#      x y z
#    x 1.625320 0.000000 0.026270 
#    y 0.000000 1.683230 0.000000 
#    z 0.026270 0.000000 1.651270 
# 
# From -- ./inp_files/32113.got.cif
#   From: 2010.03.12/outbox.cif.g09.slc.cpg/sg8_17_cif.got.tgz:32113.got - 2010.03.31 10:45:26.
