data_PCOD8052784
_publ_section_title
;
Structure prediction by ZEFSAII (Michael W. Deem and Ramdas Pophale) SiO2 
 PCOD8052784
Probable space group: C M
;
_chemical_formula_sum "Si O2"
_cell_formula_units_Z 32
_cell_length_a 20.977656
_cell_length_b 8.773142
_cell_length_c 9.451499
_cell_angle_alpha 90.000000
_cell_angle_beta 88.188030
_cell_angle_gamma 90.000000
_cell_volume 1738.583682
_symmetry_space_group_name_H-M "C M"
_symmetry_group_IT_number 8
_symmetry_cell_setting 'monoclinic'
loop_
_space_group_symop_operation_xyz
x,y,z
x,-y,z
1/2+x,1/2+y,z
1/2+x,1/2-y,z
loop_
_atom_site_type_symbol
_atom_site_label
_atom_site_fract_x
_atom_site_fract_y
_atom_site_fract_z
Si Si1 0.754840 0.181392 0.377500
Si Si2 0.001103 0.666511 0.548035
Si Si3 0.126980 0.681871 0.886121
Si Si4 0.359647 0.320577 0.856525
Si Si5 0.743816 0.819068 0.058627
Si Si6 0.364175 0.817577 0.552319
Si Si7 0.488123 0.832111 0.882619
Si Si8 0.136429 0.682612 0.568531
O O1 0.747981 0.241168 0.218260
O O2 0.817565 0.256328 0.436780
O O3 0.694006 0.242657 0.468735
O O4 0.760870 0.000000 0.386567
O O5 0.002312 0.500000 0.476308
O O6 0.997988 0.649370 0.716170
O O7 0.068915 0.748622 0.509002
O O8 0.935131 0.747774 0.504909
O O9 0.127423 0.500000 0.884486
O O10 0.055434 0.735813 0.937734
O O11 0.146033 0.741848 0.728169
O O12 0.179260 0.746975 0.991892
O O13 0.356590 0.500000 0.832837
O O14 0.344831 0.241650 0.708263
O O15 0.428273 0.277188 0.919026
O O16 0.305560 0.262882 0.968287
O O17 0.741025 0.000000 0.058192
O O18 0.364695 0.000000 0.557353
O O19 0.474082 0.000000 0.948785
O O20 0.132865 0.500000 0.566979
#
# Coordination Sequence:
#
# PCOD8052784 Si02
#       8
#     4   4   4   4   4   4   4   4
#     4  10  19  31  48  70  96 125 158 195 233 275
#     4   7  12  24  43  67  90 113 145 188 233 272
#     4   8  13  25  46  69  91 118 155 197 235 270
#     4  10  18  30  50  72  95 124 158 193 229 275
#     4   9  18  30  45  69  98 127 160 195 228 268
#     4  10  19  32  50  71  96 123 154 194 237 281
#     4   8  14  26  46  70  94 118 149 194 240 276
#     4   8  13  24  46  70  88 112 151 194 231 269
#
# _framework density 18.405787
#
# number of rings (size 3 to 8) (size 9 to 14) (size 15 to 20)
#    0.000    3.250    0.000    3.750    0.000    2.000 
#    0.000    2.500    0.000   17.250    0.000    0.000 
#    0.000    0.000    0.000    0.000    0.000    0.000 
#
# Total GULP energy -198212.498506 kJ/mol
# GULP energy per Si atom -12388.281157 kJ/mol
# Density = 1.836389 g / cm^3
# Si number density = 18.405787 Si / 1000 Ang^3
#
#
#
# Elastic Constant Matrix: (Units=GPa)
#
#
# Indices 1 2 3 4 5 6 
#
# 1 188.5880 21.6727 79.8340 0.0000 27.8286 0.0000
# 2 21.6727 28.3006 15.6386 0.0000 4.9445 0.0000
# 3 79.8340 15.6386 102.0389 0.0000 18.6803 0.0000
# 4 0.0000 0.0000 0.0000 12.4127 0.0000 3.6166
# 5 27.8286 4.9445 18.6803 0.0000 11.9715 0.0000
# 6 0.0000 0.0000 0.0000 3.6166 0.0000 23.9817
#
#
#
# Elastic Compliance Matrix: (Units=1/GPa)
#
#
# Indices 1 2 3 4 5 6 
#
# 1 0.009598 -0.002351 -0.004539 0.000000 -0.014258 0.000000
# 2 -0.002351 0.039950 -0.003168 0.000000 -0.006092 0.000000
# 3 -0.004539 -0.003168 0.016331 0.000000 -0.013623 0.000000
# 4 0.000000 0.000000 0.000000 0.084265 0.000000 -0.012708
# 5 -0.014258 -0.006092 -0.013623 0.000000 0.140450 0.000000
# 6 0.000000 0.000000 0.000000 -0.012708 0.000000 0.043615
#
#
# Mechanical properties :
#
#
# Convention : Reuss Voigt Hill
#
# Bulk Modulus (GPa) = 21.85162 61.46868 41.66015
# Shear Modulus (GPa) = 13.52886 23.12531 18.32708
#
# Velocity S-wave (km/s) = 2.71409 3.54844 3.15893
# Velocity P-wave (km/s) = 4.66043 7.08925 5.99905
#
# Compressibility (1/GPa) = 0.04576319
#
# Stress axis : x y z
#
# Youngs Moduli (GPa) = 104.18689 25.03105 61.23331
#
# Poissons Ratio (x) = 0.05885 0.27793
# Poissons Ratio (y) = 0.24495 0.19400
# Poissons Ratio (z) = 0.47290 0.07930
#
# Static dielectric constant tensor:
#      x y z
#    x 4.084920 0.000000 0.089170 
#    y 0.000000 2.881400 0.000000 
#    z 0.089170 0.000000 3.210740 
# 
# 
# High freq. dielectric constant tensor:
#      x y z
#    x 1.742990 0.000000 0.005640 
#    y 0.000000 1.657720 0.000000 
#    z 0.005640 0.000000 1.678440 
# 
# From -- ./inp_files/16777.got.cif
#   From: 2010.03.12/outbox.cif.g09.slc.cpg/sg8_9_cif.got.tgz:16777.got - 2010.03.31 10:45:26.
