data_PCOD8052852
_publ_section_title
;
Structure prediction by ZEFSAII (Michael W. Deem and Ramdas Pophale) SiO2 
 PCOD8052852
Probable space group: C M
;
_chemical_formula_sum "Si O2"
_cell_formula_units_Z 24
_cell_length_a 15.141890
_cell_length_b 9.065778
_cell_length_c 14.819508
_cell_angle_alpha 90.000000
_cell_angle_beta 40.184719
_cell_angle_gamma 90.000000
_cell_volume 1312.652074
_symmetry_space_group_name_H-M "C M"
_symmetry_group_IT_number 8
_symmetry_cell_setting 'monoclinic'
loop_
_space_group_symop_operation_xyz
x,y,z
x,-y,z
1/2+x,1/2+y,z
1/2+x,1/2-y,z
loop_
_atom_site_type_symbol
_atom_site_label
_atom_site_fract_x
_atom_site_fract_y
_atom_site_fract_z
Si Si1 0.666830 0.325149 0.469360
Si Si2 0.680639 0.674239 0.661847
Si Si3 0.890685 0.825804 0.972493
Si Si4 0.367459 0.324827 0.654173
Si Si5 0.400889 0.824596 0.153181
Si Si6 0.205052 0.325190 0.954920
O O1 0.667801 0.500000 0.472629
O O2 0.681374 0.264340 0.559362
O O3 0.523938 0.271291 0.538638
O O4 0.790984 0.266102 0.311369
O O5 0.702181 0.500000 0.648009
O O6 0.538787 0.719807 0.819389
O O7 0.806205 0.752070 0.613016
O O8 0.776226 0.768824 0.991083
O O9 0.880704 0.000000 0.995610
O O10 0.862126 0.743995 0.087804
O O11 0.354917 0.500000 0.656503
O O12 0.286933 0.264199 0.804581
O O13 0.397923 0.000000 0.145731
O O14 0.549071 0.768850 0.071554
O O15 0.212837 0.500000 0.947340
#
# Coordination Sequence:
#
# PCOD8052852 Si02
#       6
#     4   4   4   4   4   4
#     4   9  19  35  54  75 105 139 168 205 257 310
#     4  10  19  33  54  79 103 133 173 213 252 299
#     4  10  19  33  54  78 104 135 170 211 256 301
#     4  10  18  33  55  77 101 135 174 208 250 305
#     4  10  20  35  54  78 104 133 172 213 251 300
#     4   9  17  31  53  75  99 135 173 202 244 309
#
# _framework density 18.283595999999999
#
# number of rings (size 3 to 8) (size 9 to 14) (size 15 to 20)
#    0.000    2.333    3.333    0.000    0.000    1.333 
#    0.000    5.833    0.000    0.000    0.000    0.000 
#    0.000    0.000    0.000    0.000    0.000    0.000 
#
# Total GULP energy -148808.041699 kJ/mol
# GULP energy per Si atom -12400.670142 kJ/mol
# Density = 1.824198 g / cm^3
# Si number density = 18.283596 Si / 1000 Ang^3
#
#
#
# Elastic Constant Matrix: (Units=GPa)
#
#
# Indices 1 2 3 4 5 6 
#
# 1 174.7650 25.7170 74.9148 0.0000 -2.6594 0.0000
# 2 25.7170 17.0004 22.1480 0.0000 1.8244 0.0000
# 3 74.9148 22.1480 148.6317 0.0000 -2.9011 0.0000
# 4 0.0000 0.0000 0.0000 14.8198 0.0000 5.3990
# 5 -2.6594 1.8244 -2.9011 0.0000 36.0833 0.0000
# 6 0.0000 0.0000 0.0000 5.3990 0.0000 31.8796
#
#
#
# Elastic Compliance Matrix: (Units=1/GPa)
#
#
# Indices 1 2 3 4 5 6 
#
# 1 0.008252 -0.008903 -0.002816 0.000000 0.000832 0.000000
# 2 -0.008903 0.083359 -0.008042 0.000000 -0.005518 0.000000
# 3 -0.002816 -0.008042 0.009364 0.000000 0.000952 0.000000
# 4 0.000000 0.000000 0.000000 0.071914 0.000000 -0.012179
# 5 0.000832 -0.005518 0.000952 0.000000 0.028130 0.000000
# 6 0.000000 0.000000 0.000000 -0.012179 0.000000 0.033431
#
#
# Mechanical properties :
#
#
# Convention : Reuss Voigt Hill
#
# Bulk Modulus (GPa) = 16.27263 65.10628 40.68946
# Shear Modulus (GPa) = 16.98039 31.06438 24.02238
#
# Velocity S-wave (km/s) = 3.05080 4.12640 3.62868
# Velocity P-wave (km/s) = 4.61837 7.64129 6.31342
#
# Compressibility (1/GPa) = 0.06145286
#
# Stress axis : x y z
#
# Youngs Moduli (GPa) = 121.18284 11.99631 106.78683
#
# Poissons Ratio (x) = 0.10681 0.30075
# Poissons Ratio (y) = 1.07891 0.85875
# Poissons Ratio (z) = 0.34129 0.09647
#
# Static dielectric constant tensor:
#      x y z
#    x 3.565650 0.000000 -0.061160 
#    y 0.000000 2.907460 0.000000 
#    z -0.061160 0.000000 3.544780 
# 
# 
# High freq. dielectric constant tensor:
#      x y z
#    x 1.726310 0.000000 -0.001630 
#    y 0.000000 1.664140 0.000000 
#    z -0.001630 0.000000 1.711820 
# 
# From -- ./inp_files/10126.got.cif
#   From: 2010.03.12/outbox.cif.g09.slc.cpg/sg8_6_cif.got.tgz:10126.got - 2010.03.31 10:45:26.
