data_PCOD8052841
_publ_section_title
;
Structure prediction by ZEFSAII (Michael W. Deem and Ramdas Pophale) SiO2 
 PCOD8052841
Probable space group: C M
;
_chemical_formula_sum "Si O2"
_cell_formula_units_Z 32
_cell_length_a 23.833160
_cell_length_b 9.324920
_cell_length_c 14.282870
_cell_angle_alpha 90.000000
_cell_angle_beta 32.609271
_cell_angle_gamma 90.000000
_cell_volume 1710.630171
_symmetry_space_group_name_H-M "C M"
_symmetry_group_IT_number 8
_symmetry_cell_setting 'monoclinic'
loop_
_space_group_symop_operation_xyz
x,y,z
x,-y,z
1/2+x,1/2+y,z
1/2+x,1/2-y,z
loop_
_atom_site_type_symbol
_atom_site_label
_atom_site_fract_x
_atom_site_fract_y
_atom_site_fract_z
Si Si1 0.443220 0.669910 0.150230
Si Si2 0.846375 0.832175 0.478889
Si Si3 0.092859 0.334152 0.443977
Si Si4 0.036666 0.832475 0.345375
Si Si5 0.180118 0.170499 0.820460
Si Si6 0.913786 0.334507 0.830244
Si Si7 0.729765 0.668981 0.955619
Si Si8 0.830832 0.829950 0.121609
O O1 0.443640 0.500000 0.154358
O O2 0.387674 0.728033 0.321784
O O3 0.380466 0.725912 0.148382
O O4 0.561520 0.724410 0.979401
O O5 0.742317 0.745689 0.649362
O O6 0.931573 0.799685 0.438001
O O7 0.820167 0.000000 0.509880
O O8 0.090397 0.500000 0.418350
O O9 0.032077 0.247066 0.450465
O O10 0.210939 0.278855 0.288869
O O11 0.031524 0.311328 0.628070
O O12 0.051681 0.000000 0.343585
O O13 0.133096 0.768694 0.150531
O O14 0.226446 0.227364 0.854260
O O15 0.189549 0.000000 0.796418
O O16 0.892543 0.500000 0.886132
O O17 0.836211 0.284845 0.856292
O O18 0.895876 0.239286 0.946348
O O19 0.715768 0.500000 0.969428
O O20 0.839877 0.000000 0.099580
#
# Coordination Sequence:
#
# PCOD8052841 Si02
#       8
#     4   4   4   4   4   4   4   4
#     4   9  19  37  57  74 103 146 180 210 260 321
#     4  10  20  35  56  82 108 136 173 217 265 313
#     4  10  21  35  53  80 110 139 173 217 266 309
#     4  10  18  32  56  81 106 140 176 209 256 321
#     4  10  19  35  58  80 104 139 178 213 258 318
#     4  10  20  35  55  78 106 140 175 213 264 319
#     4   9  16  30  54  78 102 137 174 206 252 318
#     4  10  21  37  55  77 105 139 181 223 259 301
#
# _framework density 18.706557
#
# number of rings (size 3 to 8) (size 9 to 14) (size 15 to 20)
#    0.000    2.250    2.500    0.750    0.000    3.000 
#    0.000    4.375    0.000    0.000    0.000    0.000 
#    0.000    0.000    0.000    0.000    0.000    0.000 
#
# Total GULP energy -198418.574836 kJ/mol
# GULP energy per Si atom -12401.160927 kJ/mol
# Density = 1.866398 g / cm^3
# Si number density = 18.706557 Si / 1000 Ang^3
#
#
#
# Elastic Constant Matrix: (Units=GPa)
#
#
# Indices 1 2 3 4 5 6 
#
# 1 133.9037 38.4055 60.0313 0.0000 12.4037 0.0000
# 2 38.4055 32.2050 35.9650 -0.0001 6.8626 0.0000
# 3 60.0313 35.9650 141.5093 0.0000 17.6945 0.0000
# 4 0.0000 -0.0001 0.0000 30.2367 0.0000 5.5656
# 5 12.4037 6.8626 17.6945 0.0000 18.0082 0.0000
# 6 0.0000 0.0000 0.0000 5.5656 0.0000 23.1204
#
#
#
# Elastic Compliance Matrix: (Units=1/GPa)
#
#
# Indices 1 2 3 4 5 6 
#
# 1 0.011793 -0.011640 -0.001805 0.000000 -0.001913 0.000000
# 2 -0.011640 0.055522 -0.008585 0.000000 -0.004706 0.000000
# 3 -0.001805 -0.008585 0.010773 0.000000 -0.006071 0.000000
# 4 0.000000 0.000000 0.000000 0.034606 0.000000 -0.008330
# 5 -0.001913 -0.004706 -0.006071 0.000000 0.064606 0.000000
# 6 0.000000 0.000000 0.000000 -0.008330 0.000000 0.045257
#
#
# Mechanical properties :
#
#
# Convention : Reuss Voigt Hill
#
# Bulk Modulus (GPa) = 29.38712 64.04685 46.71698
# Shear Modulus (GPa) = 17.98817 25.82081 21.90449
#
# Velocity S-wave (km/s) = 3.10433 3.71928 3.42563
# Velocity P-wave (km/s) = 5.34722 7.26333 6.37765
#
# Compressibility (1/GPa) = 0.03402851
#
# Stress axis : x y z
#
# Youngs Moduli (GPa) = 84.79520 18.01095 92.82046
#
# Poissons Ratio (x) = 0.20964 0.16757
# Poissons Ratio (y) = 0.98700 0.79684
# Poissons Ratio (z) = 0.15309 0.15462
#
# Static dielectric constant tensor:
#      x y z
#    x 3.514060 0.000000 -0.001570 
#    y 0.000000 3.040050 0.000000 
#    z -0.001570 0.000000 3.546140 
# 
# 
# High freq. dielectric constant tensor:
#      x y z
#    x 1.725200 0.000000 0.000890 
#    y 0.000000 1.689010 0.000000 
#    z 0.000890 0.000000 1.741240 
# 
# From -- ./inp_files/21874.got.cif
#   From: 2010.03.12/outbox.cif.g09.slc.cpg/sg8_11_cif.got.tgz:21874.got - 2010.03.31 10:45:26.
