data_PCOD8052475
_publ_section_title
;
Structure prediction by ZEFSAII (Michael W. Deem and Ramdas Pophale) SiO2 
 PCOD8052475
Probable space group: P M
;
_chemical_formula_sum "Si O2"
_cell_formula_units_Z 16
_cell_length_a 11.171068
_cell_length_b 8.631643
_cell_length_c 9.193246
_cell_angle_alpha 90.000000
_cell_angle_beta 114.533605
_cell_angle_gamma 90.000000
_cell_volume 806.424627
_symmetry_space_group_name_H-M "P M"
_symmetry_group_IT_number 6
_symmetry_cell_setting 'monoclinic'
loop_
_space_group_symop_operation_xyz
x,y,z
x,-y,z
loop_
_atom_site_type_symbol
_atom_site_label
_atom_site_fract_x
_atom_site_fract_y
_atom_site_fract_z
Si Si1 0.162880 0.317667 0.121270
Si Si2 0.412791 0.180302 0.753194
Si Si3 0.927096 0.820027 0.175870
Si Si4 0.170451 0.682084 0.796379
Si Si5 0.405757 0.317326 0.435137
Si Si6 0.652608 0.678866 0.041769
Si Si7 0.659578 0.678780 0.377302
Si Si8 0.932794 0.819764 0.513543
O O1 0.168830 0.500000 0.118196
O O2 0.285394 0.255251 0.276508
O O3 0.025888 0.269529 0.122210
O O4 0.173155 0.254347 0.962452
O O5 0.276540 0.222576 0.759972
O O6 0.400924 0.220293 0.578835
O O7 0.441971 0.000000 0.788414
O O8 0.530211 0.277894 0.880988
O O9 0.779062 0.776588 0.055994
O O10 0.953530 0.772144 0.355967
O O11 0.949014 0.000000 0.162397
O O12 0.202033 0.500000 0.802726
O O13 0.027548 0.714959 0.658046
O O14 0.393646 0.500000 0.461647
O O15 0.540126 0.276588 0.420988
O O16 0.686959 0.500000 0.035642
O O17 0.615134 0.714222 0.189874
O O18 0.700006 0.500000 0.414805
O O19 0.783439 0.783357 0.485144
O O20 0.962373 0.000000 0.554584
#
# Coordination Sequence:
#
# PCOD8052475 Si02
#       8
#     2   2   2   2   2   2   2   2
#     4  10  22  39  60  85 112 148 194 239 282 333
#     4  12  25  39  57  85 118 150 187 232 286 342
#     4  10  21  37  58  86 119 152 187 231 284 338
#     4  11  23  40  61  84 112 149 193 237 282 335
#     4  10  21  39  61  84 113 150 193 237 281 333
#     4  10  20  38  63  87 113 149 192 234 279 334
#     4   9  19  37  62  88 113 148 193 236 279 332
#     4  10  21  37  58  87 120 152 187 230 283 339
#
# _framework density 19.840664
#
# number of rings (size 3 to 8) (size 9 to 14) (size 15 to 20)
#    0.000    1.750    0.000    4.125    0.000    9.000 
#    0.000    2.500    0.000    0.000    0.000    0.000 
#    0.000    0.000    0.000    0.000    0.000    0.000 
#
# Total GULP energy -198491.275011 kJ/mol
# GULP energy per Si atom -12405.704688 kJ/mol
# Density = 1.979551 g / cm^3
# Si number density = 19.840664 Si / 1000 Ang^3
#
#
#
# Elastic Constant Matrix: (Units=GPa)
#
#
# Indices 1 2 3 4 5 6 
#
# 1 117.8035 7.4590 52.4613 0.0000 -12.4712 0.0000
# 2 7.4590 22.7524 18.2517 0.0000 -5.0684 0.0000
# 3 52.4613 18.2517 123.1606 0.0000 3.7735 0.0000
# 4 0.0000 0.0000 0.0000 25.7712 0.0000 5.2139
# 5 -12.4712 -5.0684 3.7735 0.0000 32.2524 0.0000
# 6 0.0000 0.0000 0.0000 5.2139 0.0000 25.1366
#
#
#
# Elastic Compliance Matrix: (Units=1/GPa)
#
#
# Indices 1 2 3 4 5 6 
#
# 1 0.011251 0.001641 -0.005195 0.000000 0.005216 0.000000
# 2 0.001641 0.052700 -0.008814 0.000000 0.009947 0.000000
# 3 -0.005195 -0.008814 0.011785 0.000000 -0.004773 0.000000
# 4 0.000000 0.000000 0.000000 0.040503 0.000000 -0.008401
# 5 0.005216 0.009947 -0.004773 0.000000 0.035144 0.000000
# 6 0.000000 0.000000 0.000000 -0.008401 0.000000 0.041525
#
#
# Mechanical properties :
#
#
# Convention : Reuss Voigt Hill
#
# Bulk Modulus (GPa) = 19.60804 46.67341 33.14072
# Shear Modulus (GPa) = 21.30903 29.00167 25.15535
#
# Velocity S-wave (km/s) = 3.28076 3.82740 3.56458
# Velocity P-wave (km/s) = 4.92498 6.56561 5.80356
#
# Compressibility (1/GPa) = 0.05099949
#
# Stress axis : x y z
#
# Youngs Moduli (GPa) = 88.88397 18.97551 84.85480
#
# Poissons Ratio (x) = -0.03114 0.44085
# Poissons Ratio (y) = -0.14588 0.74788
# Poissons Ratio (z) = 0.46178 0.16724
#
# Static dielectric constant tensor:
#      x y z
#    x 3.649720 0.000000 -0.002120 
#    y 0.000000 3.523610 0.000000 
#    z -0.002120 0.000000 3.739820 
# 
# 
# High freq. dielectric constant tensor:
#      x y z
#    x 1.784040 0.000000 0.003940 
#    y 0.000000 1.771200 0.000000 
#    z 0.003940 0.000000 1.779050 
# 
# From -- ./inp_files/3779.got.cif
#   From: 2010.03.12/outbox.cif.g09.slc.cpg/sg6_2_cif.got.tgz:3779.got - 2010.03.30 10:24:59.
