data_PCOD8052738
_publ_section_title
;
Structure prediction by ZEFSAII (Michael W. Deem and Ramdas Pophale) SiO2 
 PCOD8052738
Probable space group: C M
;
_chemical_formula_sum "Si O2"
_cell_formula_units_Z 32
_cell_length_a 20.808386
_cell_length_b 8.847819
_cell_length_c 25.521567
_cell_angle_alpha 90.000000
_cell_angle_beta 157.694413
_cell_angle_gamma 90.000000
_cell_volume 1783.391986
_symmetry_space_group_name_H-M "C M"
_symmetry_group_IT_number 8
_symmetry_cell_setting 'monoclinic'
loop_
_space_group_symop_operation_xyz
x,y,z
x,-y,z
1/2+x,1/2+y,z
1/2+x,1/2-y,z
loop_
_atom_site_type_symbol
_atom_site_label
_atom_site_fract_x
_atom_site_fract_y
_atom_site_fract_z
Si Si1 0.540250 0.822215 0.939310
Si Si2 0.874832 0.821764 0.241007
Si Si3 0.493866 0.825641 0.505952
Si Si4 0.386476 0.820993 0.932194
Si Si5 0.206402 0.174349 0.212090
Si Si6 0.790045 0.320434 0.665997
Si Si7 0.252277 0.179051 0.521224
Si Si8 0.534692 0.820613 0.655751
O O1 0.442675 0.762263 0.917134
O O2 0.452150 0.755301 0.820690
O O3 0.518762 0.000000 0.921865
O O4 0.738758 0.777599 0.093019
O O5 0.830133 0.737138 0.260633
O O6 0.060609 0.772171 0.361756
O O7 0.865714 0.000000 0.246440
O O8 0.302832 0.804699 0.340214
O O9 0.618843 0.727970 0.565093
O O10 0.500741 0.766722 0.570811
O O11 0.549941 0.000000 0.544879
O O12 0.205268 0.749584 0.808246
O O13 0.374768 0.000000 0.927174
O O14 0.527865 0.762928 0.079963
O O15 0.167904 0.000000 0.171396
O O16 0.790877 0.500000 0.664723
O O17 0.798773 0.254871 0.613716
O O18 0.380737 0.243880 0.574909
O O19 0.265824 0.000000 0.532534
O O20 0.546985 0.000000 0.668664
#
# Coordination Sequence:
#
# PCOD8052738 Si02
#       8
#     4   4   4   4   4   4   4   4
#     4   8  15  26  46  74  98 118 158 211 251 287
#     4   9  16  30  49  72 100 131 167 208 250 297
#     4  10  20  32  49  75 106 136 169 208 255 304
#     4  10  19  33  52  76 101 133 172 213 258 303
#     4  10  19  31  49  76 104 132 167 212 260 304
#     4  10  17  30  51  75 100 128 171 217 249 290
#     4   9  18  31  51  74 101 137 172 209 253 299
#     4  10  20  35  51  74 108 141 170 206 256 310
#
# _framework density 17.943335999999999
#
# number of rings (size 3 to 8) (size 9 to 14) (size 15 to 20)
#    0.000    2.500    2.500    1.500    0.000    0.500 
#    0.000    2.500    0.000    6.000    0.000    3.500 
#    0.000    0.000    0.000    0.000    0.000    0.000 
#
# Total GULP energy -198332.399761 kJ/mol
# GULP energy per Si atom -12395.774985 kJ/mol
# Density = 1.790250 g / cm^3
# Si number density = 17.943336 Si / 1000 Ang^3
#
#
#
# Elastic Constant Matrix: (Units=GPa)
#
#
# Indices 1 2 3 4 5 6 
#
# 1 93.9543 17.9604 60.8315 0.0008 5.5722 0.0000
# 2 17.9604 32.4985 23.8633 -0.0029 1.5648 -0.0004
# 3 60.8315 23.8633 157.2631 -0.0006 3.4148 -0.0012
# 4 0.0008 -0.0029 -0.0006 24.0854 -0.0012 2.2489
# 5 5.5722 1.5648 3.4148 -0.0012 30.5929 -0.0005
# 6 0.0000 -0.0004 -0.0012 2.2489 -0.0005 15.5703
#
#
#
# Elastic Compliance Matrix: (Units=1/GPa)
#
#
# Indices 1 2 3 4 5 6 
#
# 1 0.014864 -0.004424 -0.005037 -0.000001 -0.001919 0.000000
# 2 -0.004424 0.035989 -0.003736 0.000004 -0.000618 0.000000
# 3 -0.005037 -0.003736 0.008871 0.000000 0.000118 0.000001
# 4 -0.000001 0.000004 0.000000 0.042086 0.000002 -0.006079
# 5 -0.001919 -0.000618 0.000118 0.000002 0.033055 0.000001
# 6 0.000000 0.000000 0.000001 -0.006079 0.000001 0.065103
#
#
# Mechanical properties :
#
#
# Convention : Reuss Voigt Hill
#
# Bulk Modulus (GPa) = 30.00261 54.33625 42.16943
# Shear Modulus (GPa) = 21.05507 26.12045 23.58776
#
# Velocity S-wave (km/s) = 3.42924 3.81953 3.62963
# Velocity P-wave (km/s) = 5.69532 7.05688 6.41234
#
# Compressibility (1/GPa) = 0.03333044
#
# Stress axis : x y z
#
# Youngs Moduli (GPa) = 67.27688 27.78642 112.72189
#
# Poissons Ratio (x) = 0.12292 0.56774
# Poissons Ratio (y) = 0.29763 0.42117
# Poissons Ratio (z) = 0.33885 0.10382
#
# Static dielectric constant tensor:
#      x y z
#    x 3.340960 0.000000 -0.197080 
#    y 0.000000 3.051930 0.000000 
#    z -0.197080 0.000000 3.720820 
# 
# 
# High freq. dielectric constant tensor:
#      x y z
#    x 1.663450 0.000000 -0.011470 
#    y 0.000000 1.668780 0.000000 
#    z -0.011470 0.000000 1.714420 
# 
# From -- ./inp_files/29756.got.cif
#   From: 2010.03.12/outbox.cif.g09.slc.cpg/sg8_15_cif.got.tgz:29756.got - 2010.03.31 10:45:26.
