data_PCOD8052275
_publ_section_title
;
Structure prediction by ZEFSAII (Michael W. Deem and Ramdas Pophale) SiO2 
 PCOD8052275
Probable space group: P M
;
_chemical_formula_sum "Si O2"
_cell_formula_units_Z 16
_cell_length_a 10.338719
_cell_length_b 8.845931
_cell_length_c 12.114181
_cell_angle_alpha 90.000000
_cell_angle_beta 51.884112
_cell_angle_gamma 90.000000
_cell_volume 871.663289
_symmetry_space_group_name_H-M "P M"
_symmetry_group_IT_number 6
_symmetry_cell_setting 'monoclinic'
loop_
_space_group_symop_operation_xyz
x,y,z
x,-y,z
loop_
_atom_site_type_symbol
_atom_site_label
_atom_site_fract_x
_atom_site_fract_y
_atom_site_fract_z
Si Si1 0.092540 0.672848 0.500000
Si Si2 0.355645 0.326724 0.189676
Si Si3 0.851199 0.175907 0.466836
Si Si4 0.540397 0.177724 0.761691
Si Si5 0.005563 0.324432 0.791651
Si Si6 0.061523 0.676187 0.180545
Si Si7 0.658924 0.821697 0.934968
Si Si8 0.178385 0.179227 0.905000
O O1 0.039107 0.500000 0.501295
O O2 0.272904 0.702076 0.352962
O O3 0.961318 0.784763 0.515018
O O4 0.097278 0.704029 0.627365
O O5 0.411548 0.500000 0.146933
O O6 0.223594 0.283089 0.165129
O O7 0.513145 0.218998 0.096872
O O8 0.663643 0.217328 0.596758
O O9 0.901549 0.271169 0.333013
O O10 0.872530 0.000000 0.428976
O O11 0.608379 0.244076 0.841431
O O12 0.362003 0.245452 0.827225
O O13 0.525161 0.000000 0.786361
O O14 0.995465 0.500000 0.826467
O O15 0.822976 0.259110 0.888301
O O16 0.114653 0.239857 0.823232
O O17 0.046555 0.500000 0.164309
O O18 0.062441 0.764055 0.064779
O O19 0.689121 0.000000 0.918645
O O20 0.176687 0.000000 0.903111
#
# Coordination Sequence:
#
# PCOD8052275 Si02
#       8
#     2   2   2   2   2   2   2   2
#     4   9  19  35  54  79 113 147 185 229 280 334
#     4   9  18  33  54  82 112 144 182 232 281 327
#     4  10  18  32  56  84 112 143 182 233 283 328
#     4   9  19  34  55  84 114 141 185 237 278 324
#     4  11  23  39  57  82 115 152 187 229 284 340
#     4  10  20  35  54  82 116 149 186 228 279 335
#     4  11  20  35  57  85 113 145 190 234 277 330
#     4  11  22  39  59  82 113 151 189 232 280 334
#
# _framework density 18.355710999999999
#
# number of rings (size 3 to 8) (size 9 to 14) (size 15 to 20)
#    0.000    2.000    2.500    2.625    0.000    2.500 
#    0.000    3.750    0.000    3.000    0.000    0.000 
#    0.000    0.000    0.000    0.000    0.000    0.000 
#
# Total GULP energy -198433.589340 kJ/mol
# GULP energy per Si atom -12402.099334 kJ/mol
# Density = 1.831393 g / cm^3
# Si number density = 18.355711 Si / 1000 Ang^3
#
#
#
# Elastic Constant Matrix: (Units=GPa)
#
#
# Indices 1 2 3 4 5 6 
#
# 1 85.9681 30.1452 48.2595 0.0000 0.8223 0.0000
# 2 30.1452 72.7099 41.9805 0.0000 0.8410 0.0000
# 3 48.2595 41.9805 123.2006 0.0000 0.1245 0.0000
# 4 0.0000 0.0000 0.0000 31.3799 0.0000 0.7911
# 5 0.8223 0.8410 0.1245 0.0000 25.3191 0.0000
# 6 0.0000 0.0000 0.0000 0.7911 0.0000 26.0129
#
#
#
# Elastic Compliance Matrix: (Units=1/GPa)
#
#
# Indices 1 2 3 4 5 6 
#
# 1 0.015665 -0.003670 -0.004885 0.000000 -0.000363 0.000000
# 2 -0.003670 0.017989 -0.004692 0.000000 -0.000455 0.000000
# 3 -0.004885 -0.004692 0.011629 0.000000 0.000257 0.000000
# 4 0.000000 0.000000 0.000000 0.031892 0.000000 -0.000970
# 5 -0.000363 -0.000455 0.000257 0.000000 0.039522 0.000000
# 6 0.000000 0.000000 0.000000 -0.000970 0.000000 0.038472
#
#
# Mechanical properties :
#
#
# Convention : Reuss Voigt Hill
#
# Bulk Modulus (GPa) = 53.22239 58.07212 55.64725
# Shear Modulus (GPa) = 26.60633 27.30859 26.95746
#
# Velocity S-wave (km/s) = 3.81134 3.86131 3.83641
# Velocity P-wave (km/s) = 6.95891 7.18230 7.07148
#
# Compressibility (1/GPa) = 0.01878909
#
# Stress axis : x y z
#
# Youngs Moduli (GPa) = 63.83651 55.58989 85.99211
#
# Poissons Ratio (x) = 0.20400 0.42010
# Poissons Ratio (y) = 0.23427 0.40345
# Poissons Ratio (z) = 0.31187 0.26081
#
# Static dielectric constant tensor:
#      x y z
#    x 3.183680 0.000000 -0.071500 
#    y 0.000000 3.327540 0.000000 
#    z -0.071500 0.000000 3.547790 
# 
# 
# High freq. dielectric constant tensor:
#      x y z
#    x 1.681000 0.000000 -0.006430 
#    y 0.000000 1.711340 0.000000 
#    z -0.006430 0.000000 1.726850 
# 
# From -- ./inp_files/3504.got.cif
#   From: 2010.03.12/outbox.cif.g09.slc.cpg/sg6_2_cif.got.tgz:3504.got - 2010.03.30 10:24:59.
