data_PCOD8052667
_publ_section_title
;
Structure prediction by ZEFSAII (Michael W. Deem and Ramdas Pophale) SiO2 
 PCOD8052667
Probable space group: P C
;
_chemical_formula_sum "Si O2"
_cell_formula_units_Z 12
_cell_length_a 13.141886
_cell_length_b 8.461710
_cell_length_c 5.324362
_cell_angle_alpha 90.000000
_cell_angle_beta 113.492404
_cell_angle_gamma 90.000000
_cell_volume 543.007996
_symmetry_space_group_name_H-M "P C"
_symmetry_group_IT_number 7
_symmetry_cell_setting 'monoclinic'
loop_
_space_group_symop_operation_xyz
x,y,z
x,-y,1/2+z
loop_
_atom_site_type_symbol
_atom_site_label
_atom_site_fract_x
_atom_site_fract_y
_atom_site_fract_z
Si Si1 0.900010 0.037014 0.486140
Si Si2 0.558774 0.401323 0.479171
Si Si3 0.408906 0.903409 0.826413
Si Si4 0.803111 0.733619 0.216475
Si Si5 0.153214 0.091752 0.047044
Si Si6 0.025348 0.589493 0.524275
O O1 0.845031 0.209017 0.475513
O O2 0.973075 0.979468 0.803754
O O3 0.803625 0.899632 0.375474
O O4 0.535585 0.484838 0.721432
O O5 0.477808 0.255566 0.374862
O O6 0.685002 0.344579 0.591763
O O7 0.280561 0.854499 0.698325
O O8 0.440162 0.009999 0.616868
O O9 0.891331 0.606378 0.404483
O O10 0.129989 0.957116 0.234407
O O11 0.075244 0.238946 0.031907
O O12 0.064752 0.518541 0.828800
#
# Coordination Sequence:
#
# PCOD8052667 Si02
#       6
#     2   2   2   2   2   2
#     4   8  20  32  58  86 106 160 206 262 280 346
#     4  12  27  40  63  95 134 169 202 260 318 379
#     4  10  23  44  70  94 122 163 216 266 309 371
#     4  10  24  38  62  88 132 162 216 246 318 358
#     4  10  23  44  70  94 122 163 216 266 309 371
#     4  12  27  40  63  95 134 169 202 260 318 379
#
# _framework density 22.099124
#
# number of rings (size 3 to 8) (size 9 to 14) (size 15 to 20)
#    1.000    0.667    0.000    3.000    9.333    1.333 
#    0.000    0.000    0.000    0.000    0.000    0.000 
#    0.000    0.000    0.000    0.000    0.000    0.000 
#
# Total GULP energy -148680.229051 kJ/mol
# GULP energy per Si atom -12390.019088 kJ/mol
# Density = 2.204883 g / cm^3
# Si number density = 22.099124 Si / 1000 Ang^3
#
#
#
# Elastic Constant Matrix: (Units=GPa)
#
#
# Indices 1 2 3 4 5 6 
#
# 1 98.5542 31.9254 38.7760 0.0000 4.3572 0.0000
# 2 31.9254 79.8185 21.0059 0.0000 14.1426 0.0000
# 3 38.7760 21.0059 113.6032 0.0000 -12.2415 0.0000
# 4 0.0000 0.0000 0.0000 35.2727 0.0000 -9.2973
# 5 4.3572 14.1426 -12.2415 0.0000 32.8828 0.0000
# 6 0.0000 0.0000 0.0000 -9.2973 0.0000 15.6469
#
#
#
# Elastic Compliance Matrix: (Units=1/GPa)
#
#
# Indices 1 2 3 4 5 6 
#
# 1 0.013006 -0.003921 -0.003874 0.000000 -0.001479 0.000000
# 2 -0.003921 0.016017 -0.002406 0.000000 -0.007265 0.000000
# 3 -0.003874 -0.002406 0.011185 0.000000 0.005712 0.000000
# 4 0.000000 0.000000 0.000000 0.033615 0.000000 0.019974
# 5 -0.001479 -0.007265 0.005712 0.000000 0.035858 0.000000
# 6 0.000000 0.000000 0.000000 0.019974 0.000000 0.075779
#
#
# Mechanical properties :
#
#
# Convention : Reuss Voigt Hill
#
# Bulk Modulus (GPa) = 50.48685 52.82118 51.65401
# Shear Modulus (GPa) = 23.53329 30.11173 26.82251
#
# Velocity S-wave (km/s) = 3.26682 3.69531 3.48765
# Velocity P-wave (km/s) = 6.09300 6.49315 6.29625
#
# Compressibility (1/GPa) = 0.01980714
#
# Stress axis : x y z
#
# Youngs Moduli (GPa) = 76.88577 62.43332 89.40287
#
# Poissons Ratio (x) = 0.24477 0.34634
# Poissons Ratio (y) = 0.30144 0.21513
# Poissons Ratio (z) = 0.29785 0.15023
#
# Static dielectric constant tensor:
#      x y z
#    x 4.033230 0.000000 -0.215970 
#    y 0.000000 4.017110 0.000000 
#    z -0.215970 0.000000 4.487970 
# 
# 
# High freq. dielectric constant tensor:
#      x y z
#    x 1.869000 0.000000 -0.011730 
#    y 0.000000 1.871630 0.000000 
#    z -0.011730 0.000000 1.891600 
# 
# From -- ./inp_files/1281.got.cif
#   From: 2010.03.12/outbox.cif.g09.slc.cpg/sg7_cif.got.tgz:1281.got - 2010.03.30 08:40:41.
