data_PCOD8052536
_publ_section_title
;
Structure prediction by ZEFSAII (Michael W. Deem and Ramdas Pophale) SiO2 
 PCOD8052536
Probable space group: P M
;
_chemical_formula_sum "Si O2"
_cell_formula_units_Z 16
_cell_length_a 19.412490
_cell_length_b 8.408414
_cell_length_c 9.623407
_cell_angle_alpha 90.000000
_cell_angle_beta 150.602068
_cell_angle_gamma 90.000000
_cell_volume 771.068068
_symmetry_space_group_name_H-M "P M"
_symmetry_group_IT_number 6
_symmetry_cell_setting 'monoclinic'
loop_
_space_group_symop_operation_xyz
x,y,z
x,-y,z
loop_
_atom_site_type_symbol
_atom_site_label
_atom_site_fract_x
_atom_site_fract_y
_atom_site_fract_z
Si Si1 0.981090 0.683230 0.417050
Si Si2 0.423282 0.186076 0.549635
Si Si3 0.109278 0.819013 0.384377
Si Si4 0.667590 0.688308 0.787001
Si Si5 0.652410 0.687923 0.445425
Si Si6 0.945670 0.682395 0.862085
Si Si7 0.399920 0.313806 0.809118
Si Si8 0.116057 0.817438 0.919384
O O1 0.996094 0.500000 0.403173
O O2 0.085793 0.785579 0.505553
O O3 0.033148 0.709201 0.664727
O O4 0.819515 0.737275 0.114723
O O5 0.550297 0.224408 0.670858
O O6 0.446534 0.281313 0.733340
O O7 0.418284 0.000000 0.575181
O O8 0.276934 0.239593 0.220541
O O9 0.267701 0.790301 0.617646
O O10 0.070334 0.000000 0.280942
O O11 0.007871 0.697488 0.125966
O O12 0.643190 0.500000 0.753161
O O13 0.652724 0.754691 0.603329
O O14 0.661363 0.500000 0.472942
O O15 0.786350 0.745194 0.591257
O O16 0.517995 0.745069 0.124097
O O17 0.955687 0.500000 0.828962
O O18 0.035804 0.796982 0.923352
O O19 0.368026 0.500000 0.771222
O O20 0.109897 0.000000 0.861464
#
# Coordination Sequence:
#
# PCOD8052536 Si02
#       8
#     2   2   2   2   2   2   2   2
#     4  11  24  43  68  94 122 166 217 262 310 376
#     4  11  25  43  61  90 131 170 206 256 318 377
#     4  12  24  41  64  94 130 164 205 264 321 374
#     4  10  22  43  66  91 124 164 210 262 311 371
#     4   9  21  41  65  95 124 155 207 263 309 364
#     4  11  21  41  69  94 122 163 213 262 310 376
#     4  11  23  41  67  95 123 166 214 259 309 372
#     4  11  25  43  62  93 132 166 206 262 320 376
#
# _framework density 20.750437999999999
#
# number of rings (size 3 to 8) (size 9 to 14) (size 15 to 20)
#    0.000    1.250    2.500    3.000    3.500    2.500 
#    0.000    2.500    0.000    0.000    0.000    0.000 
#    0.000    0.000    0.000    0.000    0.000    0.000 
#
# Total GULP energy -198470.047881 kJ/mol
# GULP energy per Si atom -12404.377993 kJ/mol
# Density = 2.070321 g / cm^3
# Si number density = 20.750438 Si / 1000 Ang^3
#
#
#
# Elastic Constant Matrix: (Units=GPa)
#
#
# Indices 1 2 3 4 5 6 
#
# 1 111.8123 26.4478 43.3780 0.0000 8.6132 0.0000
# 2 26.4478 51.7712 30.6635 0.0000 3.2979 0.0000
# 3 43.3780 30.6635 121.8605 0.0000 -10.7968 0.0000
# 4 0.0000 0.0000 0.0000 16.6617 0.0000 0.1241
# 5 8.6132 3.2979 -10.7968 0.0000 34.6813 0.0000
# 6 0.0000 0.0000 0.0000 0.1241 0.0000 25.6332
#
#
#
# Elastic Compliance Matrix: (Units=1/GPa)
#
#
# Indices 1 2 3 4 5 6 
#
# 1 0.011409 -0.003533 -0.003490 0.000000 -0.003584 0.000000
# 2 -0.003533 0.024359 -0.005141 0.000000 -0.003039 0.000000
# 3 -0.003490 -0.005141 0.011170 0.000000 0.004833 0.000000
# 4 0.000000 0.000000 0.000000 0.060020 0.000000 -0.000291
# 5 -0.003584 -0.003039 0.004833 0.000000 0.031518 0.000000
# 6 0.000000 0.000000 0.000000 -0.000291 0.000000 0.039013
#
#
# Mechanical properties :
#
#
# Convention : Reuss Voigt Hill
#
# Bulk Modulus (GPa) = 44.22703 54.04697 49.13700
# Shear Modulus (GPa) = 23.88291 27.72556 25.80423
#
# Velocity S-wave (km/s) = 3.39626 3.65929 3.53023
# Velocity P-wave (km/s) = 6.06131 6.62998 6.35201
#
# Compressibility (1/GPa) = 0.02261061
#
# Stress axis : x y z
#
# Youngs Moduli (GPa) = 87.64811 41.05194 89.52416
#
# Poissons Ratio (x) = 0.14505 0.31242
# Poissons Ratio (y) = 0.30969 0.46025
# Poissons Ratio (z) = 0.30587 0.21105
#
# Static dielectric constant tensor:
#      x y z
#    x 3.734760 0.000000 -0.000810 
#    y 0.000000 3.493060 0.000000 
#    z -0.000810 0.000000 3.993090 
# 
# 
# High freq. dielectric constant tensor:
#      x y z
#    x 1.822400 0.000000 0.002300 
#    y 0.000000 1.801110 0.000000 
#    z 0.002300 0.000000 1.820600 
# 
# From -- ./inp_files/3713.got.cif
#   From: 2010.03.12/outbox.cif.g09.slc.cpg/sg6_2_cif.got.tgz:3713.got - 2010.03.30 10:24:59.
