data_PCOD8052076
_publ_section_title
;
Structure prediction by ZEFSAII (Michael W. Deem and Ramdas Pophale) SiO2 
 PCOD8052076
Probable space group: C 2
;
_chemical_formula_sum "Si O2"
_cell_formula_units_Z 32
_cell_length_a 17.026008
_cell_length_b 9.991566
_cell_length_c 17.030512
_cell_angle_alpha 90.000000
_cell_angle_beta 146.205087
_cell_angle_gamma 90.000000
_cell_volume 1611.469657
_symmetry_space_group_name_H-M "C 2"
_symmetry_group_IT_number 5
_symmetry_cell_setting 'monoclinic'
loop_
_space_group_symop_operation_xyz
x,y,z
-x,y,-z
1/2+x,1/2+y,z
1/2-x,1/2+y,-z
loop_
_atom_site_type_symbol
_atom_site_label
_atom_site_fract_x
_atom_site_fract_y
_atom_site_fract_z
Si Si1 0.373959 0.975500 0.949256
Si Si2 0.375749 0.551967 0.952771
Si Si3 0.013348 0.262409 0.355198
Si Si4 0.589714 0.262361 0.951212
Si Si5 0.376616 0.549197 0.345750
Si Si6 0.357897 0.765196 0.068642
Si Si7 0.371743 0.982713 0.345382
Si Si8 0.733398 0.268998 0.334853
O O1 0.230066 0.942639 0.781590
O O2 0.500000 0.922782 0.000000
O O3 0.374308 0.898363 0.031227
O O4 0.384441 0.134847 0.971724
O O5 0.226483 0.584852 0.785225
O O6 0.500000 0.603073 0.000000
O O7 0.386867 0.392896 0.975987
O O8 0.382645 0.630885 0.039842
O O9 0.182055 0.265601 0.511743
O O10 0.948486 0.125231 0.333036
O O11 0.980130 0.273510 0.235644
O O12 0.942006 0.381992 0.342918
O O13 0.432530 0.258580 0.784634
O O14 0.700927 0.261371 0.973058
O O15 0.500000 0.478922 0.500000
O O16 0.286050 0.646783 0.325694
O O17 0.500000 0.054506 0.500000
O O18 0.266960 0.907055 0.318292
#
# Coordination Sequence:
#
# PCOD8052076 Si02
#       8
#     4   4   4   4   4   4   4   4
#     4  12  23  40  62  88 120 158 204 239 287 358
#     4  12  23  40  62  88 120 158 204 239 287 358
#     4   9  18  34  58  86 126 147 189 246 309 333
#     4  12  21  38  65  91 111 149 219 243 272 342
#     4   9  17  33  60  89 113 150 202 247 283 337
#     4  12  26  39  55  92 133 156 174 250 328 341
#     4   9  17  33  60  89 113 150 202 247 283 337
#     4   9  17  34  60  92 108 151 206 253 268 340
#
# _framework density 19.85765
#
# number of rings (size 3 to 8) (size 9 to 14) (size 15 to 20)
#    0.000    1.500    5.000    3.750    0.000    0.000 
#    0.000    4.375    0.000    0.000    0.000    0.000 
#    0.000    0.000    0.000    0.000    0.000    0.000 
#
# Total GULP energy -198355.370981 kJ/mol
# GULP energy per Si atom -12397.210686 kJ/mol
# Density = 1.981245 g / cm^3
# Si number density = 19.857650 Si / 1000 Ang^3
#
#
#
# Elastic Constant Matrix: (Units=GPa)
#
#
# Indices 1 2 3 4 5 6 
#
# 1 101.3046 13.6561 55.3184 -0.0001 0.8126 0.0000
# 2 13.6561 49.2208 27.0685 0.0000 -7.8298 0.0000
# 3 55.3184 27.0685 210.5876 -0.0001 -2.2710 0.0001
# 4 -0.0001 0.0000 -0.0001 23.2134 -0.0001 -13.9676
# 5 0.8126 -7.8298 -2.2710 -0.0001 34.9450 0.0000
# 6 0.0000 0.0000 0.0001 -13.9676 0.0000 21.9184
#
#
#
# Elastic Compliance Matrix: (Units=1/GPa)
#
#
# Indices 1 2 3 4 5 6 
#
# 1 0.011675 -0.001813 -0.002843 0.000000 -0.000862 0.000000
# 2 -0.001813 0.022950 -0.002420 0.000000 0.005027 0.000000
# 3 -0.002843 -0.002420 0.005805 0.000000 -0.000099 0.000000
# 4 0.000000 0.000000 0.000000 0.069869 0.000000 0.044524
# 5 -0.000862 0.005027 -0.000099 0.000000 0.029756 0.000000
# 6 0.000000 0.000000 0.000000 0.044524 0.000000 0.073997
#
#
# Mechanical properties :
#
#
# Convention : Reuss Voigt Hill
#
# Bulk Modulus (GPa) = 38.05272 61.46654 49.75963
# Shear Modulus (GPa) = 21.10030 33.68669 27.39350
#
# Velocity S-wave (km/s) = 3.26326 4.12322 3.71818
# Velocity P-wave (km/s) = 5.77952 7.32726 6.59892
#
# Compressibility (1/GPa) = 0.02627933
#
# Stress axis : x y z
#
# Youngs Moduli (GPa) = 85.65281 43.57329 172.25317
#
# Poissons Ratio (x) = 0.07899 0.48974
# Poissons Ratio (y) = 0.15527 0.41677
# Poissons Ratio (z) = 0.24352 0.10543
#
# Static dielectric constant tensor:
#      x y z
#    x 3.442780 0.000000 0.149700 
#    y 0.000000 3.190960 0.000000 
#    z 0.149700 0.000000 4.150160 
# 
# 
# High freq. dielectric constant tensor:
#      x y z
#    x 1.758860 0.000000 0.004950 
#    y 0.000000 1.733150 0.000000 
#    z 0.004950 0.000000 1.800400 
# 
# From -- ./inp_files/54611.got.cif
#   From: 2010.03.12/outbox.cif.g09.slc.cpg/sg5_28_cif.got.tgz:54611.got - 2010.03.31 09:47:26.
