data_PCOD8052484
_publ_section_title
;
Structure prediction by ZEFSAII (Michael W. Deem and Ramdas Pophale) SiO2 
 PCOD8052484
Probable space group: P M
;
_chemical_formula_sum "Si O2"
_cell_formula_units_Z 16
_cell_length_a 21.013068
_cell_length_b 9.781148
_cell_length_c 9.096008
_cell_angle_alpha 90.000000
_cell_angle_beta 28.962067
_cell_angle_gamma 90.000000
_cell_volume 905.278573
_symmetry_space_group_name_H-M "P M"
_symmetry_group_IT_number 6
_symmetry_cell_setting 'monoclinic'
loop_
_space_group_symop_operation_xyz
x,y,z
x,-y,z
loop_
_atom_site_type_symbol
_atom_site_label
_atom_site_fract_x
_atom_site_fract_y
_atom_site_fract_z
Si Si1 0.859680 0.657291 0.394970
Si Si2 0.355213 0.151132 0.250459
Si Si3 0.138172 0.657032 0.332318
Si Si4 0.650145 0.159723 0.662650
Si Si5 0.125207 0.342699 0.702413
Si Si6 0.662033 0.159707 0.298938
Si Si7 0.872692 0.342809 0.713444
Si Si8 0.367620 0.151011 0.876460
O O1 0.828849 0.500000 0.416854
O O2 0.740094 0.750427 0.585671
O O3 0.880515 0.677161 0.524631
O O4 0.991312 0.707379 0.047820
O O5 0.246073 0.257552 0.527355
O O6 0.319321 0.000000 0.382751
O O7 0.500179 0.193947 0.012149
O O8 0.357899 0.147967 0.070405
O O9 0.171543 0.500000 0.232901
O O10 0.110545 0.683587 0.559176
O O11 0.010892 0.705928 0.501005
O O12 0.262871 0.742937 0.021860
O O13 0.676653 0.199980 0.440103
O O14 0.679965 0.000000 0.627207
O O15 0.154126 0.500000 0.680613
O O16 0.515835 0.194003 0.535099
O O17 0.693517 0.000000 0.213260
O O18 0.759131 0.249455 0.007160
O O19 0.844488 0.500000 0.814036
O O20 0.336169 0.000000 0.877123
#
# Coordination Sequence:
#
# PCOD8052484 Si02
#       8
#     2   2   2   2   2   2   2   2
#     4  10  21  35  49  69 100 135 168 202 241 286
#     4   8  15  29  49  73  98 121 151 196 245 290
#     4   9  17  30  49  72  96 124 160 200 241 286
#     4   9  18  33  53  76 100 127 161 201 245 292
#     4   9  17  30  49  72  96 124 160 200 241 286
#     4   9  18  33  53  76 100 127 161 201 245 292
#     4  10  21  35  49  69 100 135 168 202 241 286
#     4   8  15  29  49  73  98 121 151 196 245 290
#
# _framework density 17.674118
#
# number of rings (size 3 to 8) (size 9 to 14) (size 15 to 20)
#    0.000    3.000    0.000    2.250    0.000    4.000 
#    0.000    6.250    0.000    4.500    0.000    0.000 
#    0.000    0.000    0.000    0.000    0.000    0.000 
#
# Total GULP energy -198377.854002 kJ/mol
# GULP energy per Si atom -12398.615875 kJ/mol
# Density = 1.763389 g / cm^3
# Si number density = 17.674118 Si / 1000 Ang^3
#
#
#
# Elastic Constant Matrix: (Units=GPa)
#
#
# Indices 1 2 3 4 5 6 
#
# 1 63.2699 51.8465 69.4672 0.0000 -19.9381 0.0000
# 2 51.8465 84.3862 68.9597 0.0000 -26.4987 0.0000
# 3 69.4672 68.9597 89.9248 0.0000 -39.7856 0.0000
# 4 0.0000 0.0000 0.0000 33.7027 0.0000 -6.3102
# 5 -19.9381 -26.4987 -39.7856 0.0000 25.4833 0.0000
# 6 0.0000 0.0000 0.0000 -6.3102 0.0000 22.2433
#
#
#
# Elastic Compliance Matrix: (Units=1/GPa)
#
#
# Indices 1 2 3 4 5 6 
#
# 1 -0.146843 -0.034493 0.236659 0.000000 0.218726 0.000000
# 2 -0.034493 0.025840 0.021917 0.000000 0.034101 0.000000
# 3 0.236659 0.021917 -0.312047 0.000000 -0.279229 0.000000
# 4 0.000000 0.000000 0.000000 0.031336 0.000000 0.008890
# 5 0.218726 0.034101 -0.279229 0.000000 -0.190112 0.000000
# 6 0.000000 0.000000 0.000000 0.008890 0.000000 0.047479
#
#
# Mechanical properties :
#
#
# Convention : Reuss Voigt Hill
#
# Bulk Modulus (GPa) = 66.14796 68.68087 67.41442
# Shear Modulus (GPa) = -5.06341 19.43968 7.18813
#
# Velocity S-wave (km/s) = -1.69443 3.32006 2.01888
# Velocity P-wave (km/s) = 5.80341 7.32400 6.60759
#
# Compressibility (1/GPa) = 0.01511762
#
# Stress axis : x y z
#
# Youngs Moduli (GPa) = -6.80998 38.69971 -3.20465
#
# Poissons Ratio (x) = 1.33485 0.75841
# Poissons Ratio (y) = -0.23489 0.07024
# Poissons Ratio (z) = 1.61164 -0.84819
#
# Static dielectric constant tensor:
#      x y z
#    x 3.138050 0.000000 -0.248220 
#    y 0.000000 3.673460 0.000000 
#    z -0.248220 0.000000 3.338970 
# 
# 
# High freq. dielectric constant tensor:
#      x y z
#    x 1.665550 0.000000 -0.018410 
#    y 0.000000 1.682790 0.000000 
#    z -0.018410 0.000000 1.681060 
# 
# From -- ./inp_files/2959.got.cif
#   From: 2010.03.12/outbox.cif.g09.slc.cpg/sg6_2_cif.got.tgz:2959.got - 2010.03.30 10:24:59.
