data_PCOD8052807
_publ_section_title
;
Structure prediction by ZEFSAII (Michael W. Deem and Ramdas Pophale) SiO2 
 PCOD8052807
Probable space group: C M
;
_chemical_formula_sum "Si O2"
_cell_formula_units_Z 32
_cell_length_a 20.017631
_cell_length_b 9.275417
_cell_length_c 12.222120
_cell_angle_alpha 90.000000
_cell_angle_beta 125.105341
_cell_angle_gamma 90.000000
_cell_volume 1856.508729
_symmetry_space_group_name_H-M "C M"
_symmetry_group_IT_number 8
_symmetry_cell_setting 'monoclinic'
loop_
_space_group_symop_operation_xyz
x,y,z
x,-y,z
1/2+x,1/2+y,z
1/2+x,1/2-y,z
loop_
_atom_site_type_symbol
_atom_site_label
_atom_site_fract_x
_atom_site_fract_y
_atom_site_fract_z
Si Si1 0.766450 0.834168 0.838650
Si Si2 0.986690 0.831073 0.537531
Si Si3 0.305365 0.671253 0.330668
Si Si4 0.384022 0.665498 0.763832
Si Si5 0.553376 0.667235 0.830990
Si Si6 0.645787 0.333256 0.577314
Si Si7 0.217492 0.668350 0.027827
Si Si8 0.762133 0.329998 0.497975
O O1 0.851592 0.799657 0.856040
O O2 0.692588 0.747572 0.717102
O O3 0.743337 0.000000 0.802529
O O4 0.771787 0.793318 0.971713
O O5 0.022140 0.769955 0.685134
O O6 0.049671 0.794522 0.497922
O O7 0.897973 0.767238 0.425208
O O8 0.975030 0.000000 0.541403
O O9 0.300335 0.500000 0.342723
O O10 0.270017 0.719304 0.180762
O O11 0.251860 0.750098 0.372916
O O12 0.364049 0.500000 0.711846
O O13 0.481020 0.691453 0.851435
O O14 0.340453 0.768458 0.635380
O O15 0.577283 0.500000 0.843051
O O16 0.631328 0.752001 0.946854
O O17 0.660797 0.500000 0.616012
O O18 0.679943 0.293590 0.489612
O O19 0.198191 0.500000 0.015841
O O20 0.773610 0.500000 0.491343
#
# Coordination Sequence:
#
# PCOD8052807 Si02
#       8
#     4   4   4   4   4   4   4   4
#     4   9  17  30  48  73 101 127 162 202 243 290
#     4   9  16  30  52  74  95 127 170 203 236 289
#     4  10  20  36  53  69  99 139 171 198 242 302
#     4   9  17  31  51  74 100 131 165 201 245 295
#     4  10  18  31  53  76  99 130 168 205 242 292
#     4   9  17  30  49  74  99 125 160 204 251 290
#     4  10  21  34  50  74 103 134 165 203 249 294
#     4  10  19  30  48  76 104 127 161 208 252 290
#
# _framework density 17.236654999999999
#
# number of rings (size 3 to 8) (size 9 to 14) (size 15 to 20)
#    0.000    2.500    2.500    0.375    0.000    1.500 
#    0.000    1.875    0.000    4.500    0.000    0.000 
#    0.000    0.000    0.000    0.000    0.000    0.000 
#
# Total GULP energy -198338.271842 kJ/mol
# GULP energy per Si atom -12396.141990 kJ/mol
# Density = 1.719742 g / cm^3
# Si number density = 17.236655 Si / 1000 Ang^3
#
#
#
# Elastic Constant Matrix: (Units=GPa)
#
#
# Indices 1 2 3 4 5 6 
#
# 1 137.1280 37.1913 75.3495 0.0000 -10.1540 0.0000
# 2 37.1913 39.9706 39.1365 0.0000 -6.8576 0.0000
# 3 75.3495 39.1365 122.4812 0.0000 -9.0511 0.0000
# 4 0.0000 0.0000 0.0000 20.8384 0.0000 1.1836
# 5 -10.1540 -6.8576 -9.0511 0.0000 27.6769 0.0000
# 6 0.0000 0.0000 0.0000 1.1836 0.0000 23.6023
#
#
#
# Elastic Compliance Matrix: (Units=1/GPa)
#
#
# Indices 1 2 3 4 5 6 
#
# 1 0.011871 -0.005494 -0.005458 0.000000 0.001209 0.000000
# 2 -0.005494 0.039741 -0.008956 0.000000 0.004902 0.000000
# 3 -0.005458 -0.008956 0.014421 0.000000 0.000494 0.000000
# 4 0.000000 0.000000 0.000000 0.048125 0.000000 -0.002413
# 5 0.001209 0.004902 0.000494 0.000000 0.037951 0.000000
# 6 0.000000 0.000000 0.000000 -0.002413 0.000000 0.042490
#
#
# Mechanical properties :
#
#
# Convention : Reuss Voigt Hill
#
# Bulk Modulus (GPa) = 38.14511 66.99273 52.56892
# Shear Modulus (GPa) = 20.56302 24.28367 22.42334
#
# Velocity S-wave (km/s) = 3.45770 3.75752 3.61073
# Velocity P-wave (km/s) = 6.17408 7.60106 6.92443
#
# Compressibility (1/GPa) = 0.02621568
#
# Stress axis : x y z
#
# Youngs Moduli (GPa) = 84.23690 25.16304 69.34453
#
# Poissons Ratio (x) = 0.13825 0.37850
# Poissons Ratio (y) = 0.46280 0.62107
# Poissons Ratio (z) = 0.45979 0.22537
#
# Static dielectric constant tensor:
#      x y z
#    x 3.613040 0.000000 -0.117550 
#    y 0.000000 3.099860 0.000000 
#    z -0.117550 0.000000 3.046200 
# 
# 
# High freq. dielectric constant tensor:
#      x y z
#    x 1.684910 0.000000 -0.009530 
#    y 0.000000 1.650890 0.000000 
#    z -0.009530 0.000000 1.632480 
# 
# From -- ./inp_files/23684.got.cif
#   From: 2010.03.12/outbox.cif.g09.slc.cpg/sg8_12_cif.got.tgz:23684.got - 2010.03.31 10:45:26.
