data_PCOD8052698
_publ_section_title
;
Structure prediction by ZEFSAII (Michael W. Deem and Ramdas Pophale) SiO2 
 PCOD8052698
Probable space group: C M
;
_chemical_formula_sum "Si O2"
_cell_formula_units_Z 32
_cell_length_a 23.213990
_cell_length_b 8.818538
_cell_length_c 9.699026
_cell_angle_alpha 90.000000
_cell_angle_beta 115.223471
_cell_angle_gamma 90.000000
_cell_volume 1796.206744
_symmetry_space_group_name_H-M "C M"
_symmetry_group_IT_number 8
_symmetry_cell_setting 'monoclinic'
loop_
_space_group_symop_operation_xyz
x,y,z
x,-y,z
1/2+x,1/2+y,z
1/2+x,1/2-y,z
loop_
_atom_site_type_symbol
_atom_site_label
_atom_site_fract_x
_atom_site_fract_y
_atom_site_fract_z
Si Si1 0.502400 0.831343 0.639680
Si Si2 0.751552 0.680288 0.570842
Si Si3 0.990108 0.666813 0.300088
Si Si4 0.863849 0.320438 0.486113
Si Si5 0.254131 0.679001 0.872553
Si Si6 0.364216 0.323872 0.193295
Si Si7 0.626166 0.821074 0.456655
Si Si8 0.127442 0.822481 0.754576
O O1 0.503373 0.836021 0.475900
O O2 0.433232 0.763408 0.612303
O O3 0.560789 0.730020 0.756792
O O4 0.511893 0.000000 0.709724
O O5 0.743509 0.500000 0.561088
O O6 0.810569 0.734423 0.537960
O O7 0.764570 0.737570 0.738172
O O8 0.688577 0.760363 0.439573
O O9 0.968811 0.500000 0.227497
O O10 0.934245 0.782810 0.204364
O O11 0.059712 0.709769 0.305806
O O12 0.866845 0.500000 0.475186
O O13 0.848478 0.259287 0.319082
O O14 0.250435 0.500000 0.843976
O O15 0.189099 0.736659 0.880643
O O16 0.312574 0.725974 0.028715
O O17 0.361963 0.500000 0.221446
O O18 0.626147 0.719731 0.593369
O O19 0.632529 0.000000 0.498068
O O20 0.135705 0.000000 0.785179
#
# Coordination Sequence:
#
# PCOD8052698 Si02
#       8
#     4   4   4   4   4   4   4   4
#     4   8  14  27  44  63  90 121 148 184 232 277
#     4  10  19  31  49  73  95 122 158 193 229 274
#     4   8  15  27  44  65  91 121 152 187 231 274
#     4   9  19  33  49  70  97 125 154 188 233 281
#     4  10  20  33  47  68  97 127 155 189 233 279
#     4  10  20  31  48  72  95 122 158 193 230 274
#     4   9  16  27  43  65  92 122 152 187 231 275
#     4  10  17  25  42  68  91 116 153 195 231 268
#
# _framework density 17.815321000000001
#
# number of rings (size 3 to 8) (size 9 to 14) (size 15 to 20)
#    0.000    2.750    0.000    5.625    0.000    8.000 
#    0.000    0.000    0.000    1.500    0.000    1.750 
#    0.000    0.000    0.000    0.000    0.000    0.000 
#
# Total GULP energy -198245.147662 kJ/mol
# GULP energy per Si atom -12390.321729 kJ/mol
# Density = 1.777477 g / cm^3
# Si number density = 17.815321 Si / 1000 Ang^3
#
#
#
# Elastic Constant Matrix: (Units=GPa)
#
#
# Indices 1 2 3 4 5 6 
#
# 1 141.1382 35.4842 54.7831 0.0000 38.2448 0.0000
# 2 35.4842 52.6092 28.1166 0.0000 12.5359 0.0000
# 3 54.7831 28.1166 77.4710 0.0000 31.2442 0.0000
# 4 0.0000 0.0000 0.0000 23.1545 0.0000 8.0610
# 5 38.2448 12.5359 31.2442 0.0000 29.9835 0.0000
# 6 0.0000 0.0000 0.0000 8.0610 0.0000 26.3941
#
#
#
# Elastic Compliance Matrix: (Units=1/GPa)
#
#
# Indices 1 2 3 4 5 6 
#
# 1 0.012131 -0.004153 -0.002641 0.000000 -0.010986 0.000000
# 2 -0.004153 0.025050 -0.007015 0.000000 0.002135 0.000000
# 3 -0.002641 -0.007015 0.025494 0.000000 -0.020265 0.000000
# 4 0.000000 0.000000 0.000000 0.048326 0.000000 -0.014759
# 5 -0.010986 0.002135 -0.020265 0.000000 0.067588 0.000000
# 6 0.000000 0.000000 0.000000 -0.014759 0.000000 0.042395
#
#
# Mechanical properties :
#
#
# Convention : Reuss Voigt Hill
#
# Bulk Modulus (GPa) = 28.52514 56.44292 42.48403
# Shear Modulus (GPa) = 19.20935 26.09540 22.65238
#
# Velocity S-wave (km/s) = 3.28723 3.83139 3.56969
# Velocity P-wave (km/s) = 5.51853 7.16406 6.39445
#
# Compressibility (1/GPa) = 0.03505680
#
# Stress axis : x y z
#
# Youngs Moduli (GPa) = 82.43171 39.92000 39.22440
#
# Poissons Ratio (x) = 0.16580 0.10358
# Poissons Ratio (y) = 0.34237 0.27517
# Poissons Ratio (z) = 0.21767 0.28005
#
# Static dielectric constant tensor:
#      x y z
#    x 3.896440 0.000000 0.701430 
#    y 0.000000 3.289550 0.000000 
#    z 0.701430 0.000000 3.117330 
# 
# 
# High freq. dielectric constant tensor:
#      x y z
#    x 1.686830 0.000000 0.050780 
#    y 0.000000 1.693320 0.000000 
#    z 0.050780 0.000000 1.647520 
# 
# From -- ./inp_files/24256.got.cif
#   From: 2010.03.12/outbox.cif.g09.slc.cpg/sg8_13_cif.got.tgz:24256.got - 2010.03.31 10:45:26.
