data_PCOD8052705
_publ_section_title
;
Structure prediction by ZEFSAII (Michael W. Deem and Ramdas Pophale) SiO2 
 PCOD8052705
Probable space group: C M
;
_chemical_formula_sum "Si O2"
_cell_formula_units_Z 32
_cell_length_a 19.474732
_cell_length_b 9.185378
_cell_length_c 12.687684
_cell_angle_alpha 90.000000
_cell_angle_beta 119.328681
_cell_angle_gamma 90.000000
_cell_volume 1978.699259
_symmetry_space_group_name_H-M "C M"
_symmetry_group_IT_number 8
_symmetry_cell_setting 'monoclinic'
loop_
_space_group_symop_operation_xyz
x,y,z
x,-y,z
1/2+x,1/2+y,z
1/2+x,1/2-y,z
loop_
_atom_site_type_symbol
_atom_site_label
_atom_site_fract_x
_atom_site_fract_y
_atom_site_fract_z
Si Si1 0.412940 0.667733 0.667710
Si Si2 0.254103 0.171823 0.928547
Si Si3 0.666690 0.338367 0.241563
Si Si4 0.371027 0.830639 0.843411
Si Si5 0.083742 0.168632 0.861112
Si Si6 0.543636 0.168800 0.038436
Si Si7 0.312578 0.671961 0.394428
Si Si8 0.298123 0.161916 0.186274
O O1 0.394036 0.500000 0.673630
O O2 0.371903 0.751359 0.732628
O O3 0.506612 0.696591 0.731095
O O4 0.375369 0.719671 0.529616
O O5 0.299308 0.233457 0.860075
O O6 0.161420 0.210962 0.852197
O O7 0.265775 0.000000 0.941532
O O8 0.294765 0.231981 0.066827
O O9 0.652584 0.500000 0.279124
O O10 0.583461 0.255126 0.166017
O O11 0.727911 0.245859 0.360207
O O12 0.706923 0.351494 0.155938
O O13 0.360031 0.000000 0.810660
O O14 0.450373 0.802658 0.970070
O O15 0.086253 0.000000 0.900215
O O16 0.079460 0.274639 0.956649
O O17 0.564812 0.000000 0.065968
O O18 0.301861 0.500000 0.378372
O O19 0.343640 0.733807 0.304288
O O20 0.336918 0.000000 0.215905
#
# Coordination Sequence:
#
# PCOD8052705 Si02
#       8
#     4   4   4   4   4   4   4   4
#     4   9  18  30  45  67  91 118 149 183 221 258
#     4   9  15  28  47  67  89 115 148 180 215 263
#     4   9  16  26  43  66  85 110 143 180 219 259
#     4   9  19  30  44  66  93 122 148 176 214 264
#     4   9  15  27  47  64  84 117 152 182 214 257
#     4  10  17  26  41  66  93 114 142 183 224 258
#     4   9  16  27  43  66  91 114 145 187 225 255
#     4   8  15  26  44  68  86 110 145 183 218 258
#
# _framework density 16.172239000000001
#
# number of rings (size 3 to 8) (size 9 to 14) (size 15 to 20)
#    0.750    2.250    1.250    0.750    0.000    1.500 
#    0.000    1.250    0.000    1.500    0.000    3.500 
#    0.000    0.000    0.000    0.000    0.000    0.000 
#
# Total GULP energy -198220.573575 kJ/mol
# GULP energy per Si atom -12388.785848 kJ/mol
# Density = 1.613543 g / cm^3
# Si number density = 16.172239 Si / 1000 Ang^3
#
#
#
# Elastic Constant Matrix: (Units=GPa)
#
#
# Indices 1 2 3 4 5 6 
#
# 1 94.6273 28.8545 48.3059 0.0000 0.1655 0.0000
# 2 28.8545 71.7139 46.2573 0.0000 8.6009 0.0000
# 3 48.3059 46.2573 118.0525 0.0000 10.4064 0.0000
# 4 0.0000 0.0000 0.0000 24.3165 0.0000 2.1450
# 5 0.1655 8.6009 10.4064 0.0000 19.3291 0.0000
# 6 0.0000 0.0000 0.0000 2.1450 0.0000 14.4465
#
#
#
# Elastic Compliance Matrix: (Units=1/GPa)
#
#
# Indices 1 2 3 4 5 6 
#
# 1 0.013952 -0.002906 -0.004907 0.000000 0.003815 0.000000
# 2 -0.002906 0.019661 -0.006032 0.000000 -0.005476 0.000000
# 3 -0.004907 -0.006032 0.013230 0.000000 -0.004397 0.000000
# 4 0.000000 0.000000 0.000000 0.041670 0.000000 -0.006187
# 5 0.003815 -0.005476 -0.004397 0.000000 0.056506 0.000000
# 6 0.000000 0.000000 0.000000 -0.006187 0.000000 0.070139
#
#
# Mechanical properties :
#
#
# Convention : Reuss Voigt Hill
#
# Bulk Modulus (GPa) = 52.21098 59.02545 55.61822
# Shear Modulus (GPa) = 20.06153 22.35017 21.20585
#
# Velocity S-wave (km/s) = 3.52588 3.72157 3.62505
# Velocity P-wave (km/s) = 6.99501 7.41917 7.21021
#
# Compressibility (1/GPa) = 0.01915306
#
# Stress axis : x y z
#
# Youngs Moduli (GPa) = 71.67395 50.86132 75.58809
#
# Poissons Ratio (x) = 0.14783 0.37087
# Poissons Ratio (y) = 0.20832 0.45595
# Poissons Ratio (z) = 0.35167 0.30679
#
# Static dielectric constant tensor:
#      x y z
#    x 2.975190 0.000000 0.148780 
#    y 0.000000 3.007390 0.000000 
#    z 0.148780 0.000000 2.980420 
# 
# 
# High freq. dielectric constant tensor:
#      x y z
#    x 1.589100 0.000000 0.018120 
#    y 0.000000 1.616800 0.000000 
#    z 0.018120 0.000000 1.607530 
# 
# From -- ./inp_files/23747.got.cif
#   From: 2010.03.12/outbox.cif.g09.slc.cpg/sg8_12_cif.got.tgz:23747.got - 2010.03.31 10:45:26.
