data_PCOD8052087
_publ_section_title
;
Structure prediction by ZEFSAII (Michael W. Deem and Ramdas Pophale) SiO2 
 PCOD8052087
Probable space group: C 2
;
_chemical_formula_sum "Si O2"
_cell_formula_units_Z 24
_cell_length_a 14.305560
_cell_length_b 13.940082
_cell_length_c 11.877801
_cell_angle_alpha 90.000000
_cell_angle_beta 30.044372
_cell_angle_gamma 90.000000
_cell_volume 1185.927849
_symmetry_space_group_name_H-M "C 2"
_symmetry_group_IT_number 5
_symmetry_cell_setting 'monoclinic'
loop_
_space_group_symop_operation_xyz
x,y,z
-x,y,-z
1/2+x,1/2+y,z
1/2-x,1/2+y,-z
loop_
_atom_site_type_symbol
_atom_site_label
_atom_site_fract_x
_atom_site_fract_y
_atom_site_fract_z
Si Si1 0.852028 0.961570 0.748084
Si Si2 0.000000 0.901583 0.000000
Si Si3 0.641209 0.643410 0.120033
Si Si4 0.000000 0.386414 0.000000
Si Si5 0.559182 0.300811 0.167515
Si Si6 0.215690 0.563857 0.257259
Si Si7 0.694531 0.724824 0.660885
O O1 0.643636 0.953683 0.916545
O O2 0.877406 0.892068 0.827238
O O3 0.000000 0.930215 0.500000
O O4 0.886725 0.071050 0.747390
O O5 0.013361 0.834436 0.877512
O O6 0.183460 0.967238 0.808908
O O7 0.437378 0.679099 0.296042
O O8 0.762810 0.732882 0.034212
O O9 0.745997 0.586207 0.912286
O O10 0.109673 0.323574 0.794207
O O11 0.397225 0.241487 0.397712
O O12 0.290182 0.653918 0.249682
O O13 0.000000 0.544823 0.500000
#
# Coordination Sequence:
#
# PCOD8052087 Si02
#       7
#     4   2   4   2   4   4   4
#     4  12  26  45  71 104 139 177 228 285 339 402
#     4  12  27  47  66 104 144 174 224 292 338 396
#     4  12  25  43  70 103 139 174 227 287 336 399
#     4  12  23  39  74 100 132 176 232 276 334 402
#     4  12  26  45  72 102 138 181 228 280 341 405
#     4  12  22  41  72 101 130 182 235 274 329 405
#     4  12  22  41  73 100 129 183 236 273 327 408
#
# _framework density 20.23732
#
# number of rings (size 3 to 8) (size 9 to 14) (size 15 to 20)
#    0.000    0.000   10.000    0.000    0.000    6.000 
#    0.000    0.000    0.000    0.000    0.000    0.000 
#    0.000    0.000    0.000    0.000    0.000    0.000 
#
# Total GULP energy -148907.680457 kJ/mol
# GULP energy per Si atom -12408.973371 kJ/mol
# Density = 2.019126 g / cm^3
# Si number density = 20.237320 Si / 1000 Ang^3
#
#
#
# Elastic Constant Matrix: (Units=GPa)
#
#
# Indices 1 2 3 4 5 6 
#
# 1 109.1814 35.5696 19.4987 -0.0005 -3.0458 -0.0001
# 2 35.5696 85.2122 11.3465 -0.0042 0.7372 0.0036
# 3 19.4987 11.3465 53.0231 -0.0077 -14.8184 0.0068
# 4 -0.0005 -0.0042 -0.0077 30.2117 0.0027 4.6193
# 5 -3.0458 0.7372 -14.8184 0.0027 39.8538 -0.0013
# 6 -0.0001 0.0036 0.0068 4.6193 -0.0013 36.8520
#
#
#
# Elastic Compliance Matrix: (Units=1/GPa)
#
#
# Indices 1 2 3 4 5 6 
#
# 1 0.011101 -0.004197 -0.003265 -0.000001 -0.000288 0.000001
# 2 -0.004197 0.013729 -0.001735 0.000002 -0.001220 -0.000001
# 3 -0.003265 -0.001735 0.022733 0.000005 0.008235 -0.000004
# 4 -0.000001 0.000002 0.000005 0.033746 -0.000001 -0.004230
# 5 -0.000288 -0.001220 0.008235 -0.000001 0.028154 0.000000
# 6 0.000001 -0.000001 -0.000004 -0.004230 0.000000 0.027666
#
#
# Mechanical properties :
#
#
# Convention : Reuss Voigt Hill
#
# Bulk Modulus (GPa) = 34.28254 42.24957 38.26605
# Shear Modulus (GPa) = 30.25770 33.45030 31.85400
#
# Velocity S-wave (km/s) = 3.87090 4.07000 3.97170
# Velocity P-wave (km/s) = 6.07911 6.55812 6.32315
#
# Compressibility (1/GPa) = 0.02916936
#
# Stress axis : x y z
#
# Youngs Moduli (GPa) = 90.07925 72.83915 43.98851
#
# Poissons Ratio (x) = 0.30569 0.14361
# Poissons Ratio (y) = 0.37804 0.07634
# Poissons Ratio (z) = 0.29409 0.12641
#
# Static dielectric constant tensor:
#      x y z
#    x 3.836570 0.000000 -0.156420 
#    y 0.000000 3.655990 0.000010 
#    z -0.156420 0.000010 3.623710 
# 
# 
# High freq. dielectric constant tensor:
#      x y z
#    x 1.802260 0.000000 -0.011520 
#    y 0.000000 1.792280 0.000000 
#    z -0.011520 0.000000 1.791400 
# 
# From -- ./inp_files/42883.got.cif
#   From: 2010.03.12/outbox.cif.g09.slc.cpg/sg5_22_cif.got.tgz:42883.got - 2010.03.31 09:47:26.
