data_PCOD8052436
_publ_section_title
;
Structure prediction by ZEFSAII (Michael W. Deem and Ramdas Pophale) SiO2 
 PCOD8052436
Probable space group: P M
;
_chemical_formula_sum "Si O2"
_cell_formula_units_Z 16
_cell_length_a 14.338052
_cell_length_b 9.020664
_cell_length_c 19.323538
_cell_angle_alpha 90.000000
_cell_angle_beta 19.326334
_cell_angle_gamma 90.000000
_cell_volume 827.132816
_symmetry_space_group_name_H-M "P M"
_symmetry_group_IT_number 6
_symmetry_cell_setting 'monoclinic'
loop_
_space_group_symop_operation_xyz
x,y,z
x,-y,z
loop_
_atom_site_type_symbol
_atom_site_label
_atom_site_fract_x
_atom_site_fract_y
_atom_site_fract_z
Si Si1 0.000000 0.673460 0.569370
Si Si2 0.492241 0.669906 0.317463
Si Si3 0.367685 0.325005 0.045729
Si Si4 0.800467 0.168303 0.984249
Si Si5 0.327164 0.828633 0.691654
Si Si6 0.328044 0.828992 0.216874
Si Si7 0.930845 0.173393 0.090361
Si Si8 0.948732 0.175319 0.233880
O O1 0.023486 0.500000 0.533489
O O2 0.167594 0.705326 0.524234
O O3 0.121573 0.768406 0.420847
O O4 0.681711 0.724356 0.805556
O O5 0.534010 0.500000 0.307332
O O6 0.618134 0.761508 0.293821
O O7 0.665089 0.709310 0.127846
O O8 0.338620 0.500000 0.070043
O O9 0.276658 0.259984 0.183031
O O10 0.163220 0.262237 0.131023
O O11 0.139148 0.194104 0.752818
O O12 0.733843 0.000000 0.057551
O O13 0.658840 0.189109 0.007988
O O14 0.635494 0.757956 0.467157
O O15 0.380342 0.000000 0.668362
O O16 0.161125 0.762037 0.874651
O O17 0.252155 0.000000 0.256834
O O18 0.028748 0.213628 0.098809
O O19 0.897371 0.000000 0.104020
O O20 0.969276 0.000000 0.233691
#
# Coordination Sequence:
#
# PCOD8052436 Si02
#       8
#     2   2   2   2   2   2   2   2
#     4   9  20  38  57  79 111 149 181 216 269 325
#     4   9  16  29  52  80 107 134 169 211 257 318
#     4  11  24  40  55  75 109 149 187 226 269 322
#     4   8  15  30  52  79 108 135 166 208 263 322
#     4   8  15  31  53  76 104 133 163 207 263 317
#     4  10  20  35  59  87 111 138 177 226 273 320
#     4   9  18  33  53  76 104 136 167 210 269 320
#     4  10  21  36  53  74 100 136 184 228 263 306
#
# _framework density 19.343931999999999
#
# number of rings (size 3 to 8) (size 9 to 14) (size 15 to 20)
#    0.000    2.750    0.000    1.875    0.000    4.500 
#    0.000    5.000    0.000    0.000    0.000    0.000 
#    0.000    0.000    0.000    0.000    0.000    0.000 
#
# Total GULP energy -198258.423867 kJ/mol
# GULP energy per Si atom -12391.151492 kJ/mol
# Density = 1.929990 g / cm^3
# Si number density = 19.343932 Si / 1000 Ang^3
#
#
#
# Elastic Constant Matrix: (Units=GPa)
#
#
# Indices 1 2 3 4 5 6 
#
# 1 88.5148 33.6197 13.6893 0.0000 -9.6555 0.0000
# 2 33.6197 51.6558 23.9930 0.0000 -3.7942 0.0000
# 3 13.6893 23.9930 77.5404 0.0000 -13.9398 0.0000
# 4 0.0000 0.0000 0.0000 20.4750 0.0000 -6.7360
# 5 -9.6555 -3.7942 -13.9398 0.0000 29.4012 0.0000
# 6 0.0000 0.0000 0.0000 -6.7360 0.0000 28.6287
#
#
#
# Elastic Compliance Matrix: (Units=1/GPa)
#
#
# Indices 1 2 3 4 5 6 
#
# 1 0.015513 -0.010356 0.001248 0.000000 0.004350 0.000000
# 2 -0.010356 0.029527 -0.007909 0.000000 -0.003340 0.000000
# 3 0.001248 -0.007909 0.016412 0.000000 0.007171 0.000000
# 4 0.000000 0.000000 0.000000 0.052938 0.000000 0.012456
# 5 0.004350 -0.003340 0.007171 0.000000 0.038409 0.000000
# 6 0.000000 0.000000 0.000000 0.012456 0.000000 0.037861
#
#
# Mechanical properties :
#
#
# Convention : Reuss Voigt Hill
#
# Bulk Modulus (GPa) = 36.47243 40.03500 38.25371
# Shear Modulus (GPa) = 21.38272 25.46159 23.42216
#
# Velocity S-wave (km/s) = 3.32836 3.63196 3.48347
# Velocity P-wave (km/s) = 5.80226 6.19109 5.99983
#
# Compressibility (1/GPa) = 0.02741797
#
# Stress axis : x y z
#
# Youngs Moduli (GPa) = 64.46385 33.86696 60.92930
#
# Poissons Ratio (x) = 0.35074 -0.07603
# Poissons Ratio (y) = 0.66761 0.48187
# Poissons Ratio (z) = -0.08044 0.26784
#
# Static dielectric constant tensor:
#      x y z
#    x 3.600480 0.000000 -0.196190 
#    y 0.000000 3.379440 0.000000 
#    z -0.196190 0.000000 3.667940 
# 
# 
# High freq. dielectric constant tensor:
#      x y z
#    x 1.753520 0.000000 -0.016430 
#    y 0.000000 1.737190 0.000000 
#    z -0.016430 0.000000 1.741860 
# 
# From -- ./inp_files/3605.got.cif
#   From: 2010.03.12/outbox.cif.g09.slc.cpg/sg6_2_cif.got.tgz:3605.got - 2010.03.30 10:24:59.
