data_PCOD8052287
_publ_section_title
;
Structure prediction by ZEFSAII (Michael W. Deem and Ramdas Pophale) SiO2 
 PCOD8052287
Probable space group: P M
;
_chemical_formula_sum "Si O2"
_cell_formula_units_Z 16
_cell_length_a 12.681653
_cell_length_b 8.777562
_cell_length_c 12.586492
_cell_angle_alpha 90.000000
_cell_angle_beta 144.384723
_cell_angle_gamma 90.000000
_cell_volume 815.888687
_symmetry_space_group_name_H-M "P M"
_symmetry_group_IT_number 6
_symmetry_cell_setting 'monoclinic'
loop_
_space_group_symop_operation_xyz
x,y,z
x,-y,z
loop_
_atom_site_type_symbol
_atom_site_label
_atom_site_fract_x
_atom_site_fract_y
_atom_site_fract_z
Si Si1 0.925780 0.181129 0.525560
Si Si2 0.780097 0.179761 0.629526
Si Si3 0.412550 0.679390 0.402800
Si Si4 0.016616 0.325385 0.002316
Si Si5 0.929047 0.324926 0.164960
Si Si6 0.304684 0.822672 0.759147
Si Si7 0.296369 0.178103 0.517170
Si Si8 0.690940 0.822300 0.135190
O O1 0.856904 0.245310 0.581453
O O2 0.790468 0.236562 0.322186
O O3 0.125043 0.251170 0.664192
O O4 0.930527 0.000000 0.534922
O O5 0.581534 0.249006 0.480920
O O6 0.758870 0.000000 0.609807
O O7 0.922791 0.222270 0.837379
O O8 0.433795 0.500000 0.419797
O O9 0.224488 0.728442 0.191670
O O10 0.413966 0.733164 0.526155
O O11 0.012327 0.500000 0.960657
O O12 0.901477 0.305279 0.016180
O O13 0.981170 0.500000 0.232729
O O14 0.750152 0.274534 0.080918
O O15 0.084733 0.212179 0.331816
O O16 0.350016 0.761096 0.678176
O O17 0.262182 0.000000 0.710764
O O18 0.476641 0.792230 0.975650
O O19 0.334051 0.000000 0.532715
O O20 0.729804 0.000000 0.145263
#
# Coordination Sequence:
#
# PCOD8052287 Si02
#       8
#     2   2   2   2   2   2   2   2
#     4   9  19  37  56  82 117 150 189 239 291 337
#     4  11  23  37  61  90 115 152 203 247 287 345
#     4  10  22  40  59  83 120 159 192 236 297 352
#     4   9  21  40  58  80 115 159 195 235 293 348
#     4  10  20  35  55  83 118 154 189 231 291 350
#     4   9  18  32  55  86 112 142 184 232 287 338
#     4  10  18  33  58  87 117 148 189 237 285 341
#     4  10  19  34  58  83 112 150 187 235 291 341
#
# _framework density 19.610517999999999
#
# number of rings (size 3 to 8) (size 9 to 14) (size 15 to 20)
#    0.000    2.250    1.250    2.250    1.750    4.000 
#    0.000    4.375    0.000    0.000    0.000    0.000 
#    0.000    0.000    0.000    0.000    0.000    0.000 
#
# Total GULP energy -198379.835506 kJ/mol
# GULP energy per Si atom -12398.739719 kJ/mol
# Density = 1.956588 g / cm^3
# Si number density = 19.610518 Si / 1000 Ang^3
#
#
#
# Elastic Constant Matrix: (Units=GPa)
#
#
# Indices 1 2 3 4 5 6 
#
# 1 160.4254 37.8149 83.6649 0.0000 1.2615 0.0000
# 2 37.8149 53.5184 31.4636 0.0000 -2.1690 0.0000
# 3 83.6649 31.4636 123.0788 0.0000 3.7707 0.0000
# 4 0.0000 0.0000 0.0000 20.1226 0.0000 6.4087
# 5 1.2615 -2.1690 3.7707 0.0000 25.9448 0.0000
# 6 0.0000 0.0000 0.0000 6.4087 0.0000 15.0021
#
#
#
# Elastic Compliance Matrix: (Units=1/GPa)
#
#
# Indices 1 2 3 4 5 6 
#
# 1 0.010244 -0.003696 -0.006021 0.000000 0.000068 0.000000
# 2 -0.003696 0.023509 -0.003579 0.000000 0.002665 0.000000
# 3 -0.006021 -0.003579 0.013192 0.000000 -0.001924 0.000000
# 4 0.000000 0.000000 0.000000 0.057521 0.000000 -0.024572
# 5 0.000068 0.002665 -0.001924 0.000000 0.039042 0.000000
# 6 0.000000 0.000000 0.000000 -0.024572 0.000000 0.077154
#
#
# Mechanical properties :
#
#
# Convention : Reuss Voigt Hill
#
# Bulk Modulus (GPa) = 49.13326 71.43438 60.28382
# Shear Modulus (GPa) = 19.68211 24.48584 22.08398
#
# Velocity S-wave (km/s) = 3.17148 3.53740 3.35943
# Velocity P-wave (km/s) = 6.20645 7.29314 6.77163
#
# Compressibility (1/GPa) = 0.02035281
#
# Stress axis : x y z
#
# Youngs Moduli (GPa) = 97.61762 42.53747 75.80607
#
# Poissons Ratio (x) = 0.15721 0.45642
# Poissons Ratio (y) = 0.36077 0.27132
# Poissons Ratio (z) = 0.58774 0.15225
#
# Static dielectric constant tensor:
#      x y z
#    x 3.773730 0.000000 0.000060 
#    y 0.000000 3.295340 0.000000 
#    z 0.000060 0.000000 3.537570 
# 
# 
# High freq. dielectric constant tensor:
#      x y z
#    x 1.766780 0.000000 0.004350 
#    y 0.000000 1.739530 0.000000 
#    z 0.004350 0.000000 1.764740 
# 
# From -- ./inp_files/4187.got.cif
#   From: 2010.03.12/outbox.cif.g09.slc.cpg/sg6_3_cif.got.tgz:4187.got - 2010.03.30 10:24:59.
