data_PCOD8052414
_publ_section_title
;
Structure prediction by ZEFSAII (Michael W. Deem and Ramdas Pophale) SiO2 
 PCOD8052414
Probable space group: P M
;
_chemical_formula_sum "Si O2"
_cell_formula_units_Z 16
_cell_length_a 12.486693
_cell_length_b 9.544605
_cell_length_c 12.486658
_cell_angle_alpha 90.000000
_cell_angle_beta 36.169011
_cell_angle_gamma 90.000000
_cell_volume 878.270103
_symmetry_space_group_name_H-M "P M"
_symmetry_group_IT_number 6
_symmetry_cell_setting 'monoclinic'
loop_
_space_group_symop_operation_xyz
x,y,z
x,-y,z
loop_
_atom_site_type_symbol
_atom_site_label
_atom_site_fract_x
_atom_site_fract_y
_atom_site_fract_z
Si Si1 0.682100 0.840711 0.452720
Si Si2 0.297946 0.840710 0.836873
Si Si3 0.407473 0.666434 0.180862
Si Si4 0.889556 0.659083 0.447558
Si Si5 0.026088 0.333567 0.562247
Si Si6 0.292783 0.659083 0.044331
Si Si7 0.795204 0.667121 0.949980
Si Si8 0.909871 0.165192 0.064644
O O1 0.463820 0.827254 0.618591
O O2 0.743002 0.752015 0.505582
O O3 0.774473 0.788389 0.268862
O O4 0.742380 0.000000 0.425494
O O5 0.270719 0.000000 0.897154
O O6 0.350807 0.752013 0.897775
O O7 0.114091 0.788391 0.929241
O O8 0.400535 0.500000 0.184035
O O9 0.233932 0.723155 0.388706
O O10 0.394163 0.717832 0.068467
O O11 0.592663 0.719120 0.084816
O O12 0.817643 0.500000 0.507710
O O13 0.913692 0.717829 0.548938
O O14 0.077953 0.668350 0.232727
O O15 0.029262 0.500000 0.555310
O O16 0.930043 0.280879 0.747437
O O17 0.352934 0.500000 0.972418
O O18 0.804081 0.500000 0.958855
O O19 0.853934 0.744658 0.008714
O O20 0.895779 0.000000 0.050557
#
# Coordination Sequence:
#
# PCOD8052414 Si02
#       8
#     2   2   2   2   2   2   2   2
#     4  10  21  36  54  76 103 141 180 215 264 317
#     4  10  21  36  54  76 103 141 180 215 264 317
#     4   8  16  31  50  77 109 136 164 208 263 310
#     4   9  17  31  54  82 111 138 169 212 262 317
#     4   8  16  31  50  77 109 136 164 208 263 310
#     4   9  17  31  54  82 111 138 169 212 262 317
#     4  10  20  34  56  78 100 138 181 214 253 312
#     4  10  22  40  54  70 106 144 175 222 269 304
#
# _framework density 18.21763
#
# number of rings (size 3 to 8) (size 9 to 14) (size 15 to 20)
#    0.000    2.750    1.250    1.500    1.750    2.500 
#    0.000    1.250    0.000    1.500    0.000    0.000 
#    0.000    0.000    0.000    0.000    0.000    0.000 
#
# Total GULP energy -198359.220821 kJ/mol
# GULP energy per Si atom -12397.451301 kJ/mol
# Density = 1.817617 g / cm^3
# Si number density = 18.217630 Si / 1000 Ang^3
#
#
#
# Elastic Constant Matrix: (Units=GPa)
#
#
# Indices 1 2 3 4 5 6 
#
# 1 139.9983 45.9559 87.5930 0.0000 3.8943 0.0000
# 2 45.9559 43.3172 35.9863 0.0000 4.1815 0.0000
# 3 87.5930 35.9863 135.1443 0.0000 -1.8674 0.0000
# 4 0.0000 0.0000 0.0000 12.5095 0.0000 -14.4755
# 5 3.8943 4.1815 -1.8674 0.0000 23.9734 0.0000
# 6 0.0000 0.0000 0.0000 -14.4755 0.0000 -21.9911
#
#
#
# Elastic Compliance Matrix: (Units=1/GPa)
#
#
# Indices 1 2 3 4 5 6 
#
# 1 0.014733 -0.009711 -0.006980 0.000000 -0.001243 0.000000
# 2 -0.009711 0.036870 -0.003594 0.000000 -0.005133 0.000000
# 3 -0.006980 -0.003594 0.012919 0.000000 0.002767 0.000000
# 4 0.000000 0.000000 0.000000 0.045376 0.000000 -0.029869
# 5 -0.001243 -0.005133 0.002767 0.000000 0.043026 0.000000
# 6 0.000000 0.000000 0.000000 -0.029869 0.000000 -0.025812
#
#
# Mechanical properties :
#
#
# Convention : Reuss Voigt Hill
#
# Bulk Modulus (GPa) = 41.75360 73.05892 57.40626
# Shear Modulus (GPa) = 28.46306 12.82668 20.64487
#
# Velocity S-wave (km/s) = 3.95700 2.65633 3.37001
# Velocity P-wave (km/s) = 6.62165 7.04263 6.83538
#
# Compressibility (1/GPa) = 0.02395003
#
# Stress axis : x y z
#
# Youngs Moduli (GPa) = 67.87675 27.12234 77.40555
#
# Poissons Ratio (x) = 0.26339 0.54030
# Poissons Ratio (y) = 0.65917 0.27823
# Poissons Ratio (z) = 0.47379 0.09749
#
# Static dielectric constant tensor:
#      x y z
#    x 3.328590 0.000000 -0.168820 
#    y 0.000000 3.057190 0.000000 
#    z -0.168820 0.000000 3.730970 
# 
# 
# High freq. dielectric constant tensor:
#      x y z
#    x 1.700800 0.000000 -0.007400 
#    y 0.000000 1.670730 0.000000 
#    z -0.007400 0.000000 1.718440 
# 
# From -- ./inp_files/4171.got.cif
#   From: 2010.03.12/outbox.cif.g09.slc.cpg/sg6_3_cif.got.tgz:4171.got - 2010.03.30 10:24:59.
