data_PCOD8052520
_publ_section_title
;
Structure prediction by ZEFSAII (Michael W. Deem and Ramdas Pophale) SiO2 
 PCOD8052520
Probable space group: P M
;
_chemical_formula_sum "Si O2"
_cell_formula_units_Z 12
_cell_length_a 10.104529
_cell_length_b 8.534247
_cell_length_c 14.683369
_cell_angle_alpha 90.000000
_cell_angle_beta 152.045251
_cell_angle_gamma 90.000000
_cell_volume 593.568149
_symmetry_space_group_name_H-M "P M"
_symmetry_group_IT_number 6
_symmetry_cell_setting 'monoclinic'
loop_
_space_group_symop_operation_xyz
x,y,z
x,-y,z
loop_
_atom_site_type_symbol
_atom_site_label
_atom_site_fract_x
_atom_site_fract_y
_atom_site_fract_z
Si Si1 0.501950 0.181972 0.827660
Si Si2 0.527068 0.680038 0.035146
Si Si3 0.069932 0.181987 0.882343
Si Si4 0.488241 0.319001 0.492541
Si Si5 0.126055 0.180729 0.428998
Si Si6 0.102314 0.816142 0.110422
O O1 0.255318 0.218053 0.606053
O O2 0.509536 0.000000 0.858768
O O3 0.435558 0.281664 0.876661
O O4 0.800378 0.233717 0.967153
O O5 0.461205 0.500000 0.015462
O O6 0.857471 0.711189 0.249403
O O7 0.355219 0.786838 0.000680
O O8 0.818828 0.281345 0.684729
O O9 0.989789 0.000000 0.829041
O O10 0.116666 0.235305 0.014453
O O11 0.441495 0.500000 0.487430
O O12 0.359358 0.213958 0.494460
O O13 0.344936 0.278606 0.309493
O O14 0.035621 0.000000 0.365793
O O15 0.156799 0.000000 0.155547
#
# Coordination Sequence:
#
# PCOD8052520 Si02
#       6
#     2   2   2   2   2   2
#     4  10  21  40  67  94 122 166 217 259 302 369
#     4  12  26  42  62  96 134 166 202 261 325 374
#     4  11  24  45  68  91 124 170 214 260 310 371
#     4  12  24  38  63  98 131 164 203 260 321 373
#     4  11  22  41  67  93 123 167 218 259 302 371
#     4  10  21  40  67  94 122 165 218 259 302 370
#
# _framework density 20.216716999999999
#
# number of rings (size 3 to 8) (size 9 to 14) (size 15 to 20)
#    0.000    1.000    3.333    4.000    0.000    4.000 
#    0.000    1.667    0.000    0.000    0.000    0.000 
#    0.000    0.000    0.000    0.000    0.000    0.000 
#
# Total GULP energy -148902.627251 kJ/mol
# GULP energy per Si atom -12408.552271 kJ/mol
# Density = 2.017070 g / cm^3
# Si number density = 20.216717 Si / 1000 Ang^3
#
#
#
# Elastic Constant Matrix: (Units=GPa)
#
#
# Indices 1 2 3 4 5 6 
#
# 1 100.9488 22.6344 26.5996 0.0000 -12.8682 0.0000
# 2 22.6344 71.9978 43.8212 0.0000 -13.3342 0.0000
# 3 26.5996 43.8212 109.8235 0.0000 -16.4071 0.0000
# 4 0.0000 0.0000 0.0000 17.1594 0.0000 8.7509
# 5 -12.8682 -13.3342 -16.4071 0.0000 31.9860 0.0000
# 6 0.0000 0.0000 0.0000 8.7509 0.0000 21.4405
#
#
#
# Elastic Compliance Matrix: (Units=1/GPa)
#
#
# Indices 1 2 3 4 5 6 
#
# 1 0.011118 -0.002095 -0.001429 0.000000 0.002867 0.000000
# 2 -0.002095 0.019279 -0.006618 0.000000 0.003800 0.000000
# 3 -0.001429 -0.006618 0.012556 0.000000 0.003107 0.000000
# 4 0.000000 0.000000 0.000000 0.073596 0.000000 -0.030038
# 5 0.002867 0.003800 0.003107 0.000000 0.035595 0.000000
# 6 0.000000 0.000000 0.000000 -0.030038 0.000000 0.058901
#
#
# Mechanical properties :
#
#
# Convention : Reuss Voigt Hill
#
# Bulk Modulus (GPa) = 44.10888 52.09783 48.10335
# Shear Modulus (GPa) = 20.93068 26.76484 23.84776
#
# Velocity S-wave (km/s) = 3.22112 3.64249 3.43827
# Velocity P-wave (km/s) = 5.97491 6.59666 6.29347
#
# Compressibility (1/GPa) = 0.02267117
#
# Stress axis : x y z
#
# Youngs Moduli (GPa) = 89.94815 51.86873 79.64108
#
# Poissons Ratio (x) = 0.10865 0.11378
# Poissons Ratio (y) = 0.18841 0.52705
# Poissons Ratio (z) = 0.12850 0.34326
#
# Static dielectric constant tensor:
#      x y z
#    x 3.556120 0.000000 -0.112680 
#    y 0.000000 3.512830 0.000000 
#    z -0.112680 0.000000 3.744250 
# 
# 
# High freq. dielectric constant tensor:
#      x y z
#    x 1.786550 0.000000 -0.005940 
#    y 0.000000 1.787560 0.000000 
#    z -0.005940 0.000000 1.802540 
# 
# From -- ./inp_files/4672.got.cif
#   From: 2010.03.12/outbox.cif.g09.slc.cpg/sg6_3_cif.got.tgz:4672.got - 2010.03.30 10:24:59.
