data_PCOD8052528
_publ_section_title
;
Structure prediction by ZEFSAII (Michael W. Deem and Ramdas Pophale) SiO2 
 PCOD8052528
Probable space group: P M
;
_chemical_formula_sum "Si O2"
_cell_formula_units_Z 12
_cell_length_a 10.056792
_cell_length_b 8.906768
_cell_length_c 14.575018
_cell_angle_alpha 90.000000
_cell_angle_beta 28.406960
_cell_angle_gamma 90.000000
_cell_volume 621.083820
_symmetry_space_group_name_H-M "P M"
_symmetry_group_IT_number 6
_symmetry_cell_setting 'monoclinic'
loop_
_space_group_symop_operation_xyz
x,y,z
x,-y,z
loop_
_atom_site_type_symbol
_atom_site_label
_atom_site_fract_x
_atom_site_fract_y
_atom_site_fract_z
Si Si1 0.179100 0.673500 0.011360
Si Si2 0.693756 0.326059 0.166652
Si Si3 0.804629 0.676775 0.585212
Si Si4 0.137597 0.176530 0.546736
Si Si5 0.114688 0.175414 0.238197
Si Si6 0.708497 0.174859 0.963351
O O1 0.174714 0.500000 0.044438
O O2 0.073849 0.774692 0.158638
O O3 0.981560 0.703162 0.044685
O O4 0.487655 0.725450 0.795733
O O5 0.611328 0.500000 0.215272
O O6 0.451451 0.236516 0.367032
O O7 0.735627 0.271188 0.037990
O O8 0.845086 0.500000 0.564424
O O9 0.006284 0.750366 0.536803
O O10 0.886427 0.736388 0.435744
O O11 0.139772 0.000000 0.528892
O O12 0.965651 0.219612 0.741812
O O13 0.425495 0.217828 0.082475
O O14 0.056034 0.000000 0.282625
O O15 0.713466 0.000000 0.986500
#
# Coordination Sequence:
#
# PCOD8052528 Si02
#       6
#     2   2   2   2   2   2
#     4  10  24  43  61  88 126 161 201 249 300 358
#     4  11  24  41  62  90 124 162 200 248 304 357
#     4  11  22  38  63  91 120 159 202 249 300 355
#     4  11  22  39  62  90 122 157 203 252 296 357
#     4  11  22  38  63  92 122 159 201 248 300 357
#     4  10  22  39  61  89 122 158 201 250 298 356
#
# _framework density 19.321064
#
# number of rings (size 3 to 8) (size 9 to 14) (size 15 to 20)
#    0.000    1.333    3.333    2.000    0.000    5.333 
#    0.000    5.000    0.000    0.000    0.000    0.000 
#    0.000    0.000    0.000    0.000    0.000    0.000 
#
# Total GULP energy -148883.133607 kJ/mol
# GULP energy per Si atom -12406.927801 kJ/mol
# Density = 1.927709 g / cm^3
# Si number density = 19.321064 Si / 1000 Ang^3
#
#
#
# Elastic Constant Matrix: (Units=GPa)
#
#
# Indices 1 2 3 4 5 6 
#
# 1 70.8254 24.8898 19.3641 0.0000 8.5192 0.0000
# 2 24.8898 71.1476 39.6487 0.0000 11.0034 0.0000
# 3 19.3641 39.6487 119.4958 0.0000 11.8809 0.0000
# 4 0.0000 0.0000 0.0000 34.2327 0.0000 9.8529
# 5 8.5192 11.0034 11.8809 0.0000 30.9393 0.0000
# 6 0.0000 0.0000 0.0000 9.8529 0.0000 12.1188
#
#
#
# Elastic Compliance Matrix: (Units=1/GPa)
#
#
# Indices 1 2 3 4 5 6 
#
# 1 0.016352 -0.004907 -0.000777 0.000000 -0.002459 0.000000
# 2 -0.004907 0.019229 -0.005240 0.000000 -0.003476 0.000000
# 3 -0.000777 -0.005240 0.010424 0.000000 -0.001926 0.000000
# 4 0.000000 0.000000 0.000000 0.038136 0.000000 -0.031005
# 5 -0.002459 -0.003476 -0.001926 0.000000 0.034974 0.000000
# 6 0.000000 0.000000 0.000000 -0.031005 0.000000 0.107724
#
#
# Mechanical properties :
#
#
# Convention : Reuss Voigt Hill
#
# Bulk Modulus (GPa) = 41.39399 47.69711 44.54555
# Shear Modulus (GPa) = 19.47497 27.29591 23.38544
#
# Velocity S-wave (km/s) = 3.17829 3.76274 3.48280
# Velocity P-wave (km/s) = 5.91097 6.60438 6.26727
#
# Compressibility (1/GPa) = 0.02415810
#
# Stress axis : x y z
#
# Youngs Moduli (GPa) = 61.15473 52.00388 95.92908
#
# Poissons Ratio (x) = 0.25519 0.07455
# Poissons Ratio (y) = 0.30009 0.50262
# Poissons Ratio (z) = 0.04753 0.27248
#
# Static dielectric constant tensor:
#      x y z
#    x 3.429930 0.000000 -0.062300 
#    y 0.000000 3.629500 0.000000 
#    z -0.062300 0.000000 3.767350 
# 
# 
# High freq. dielectric constant tensor:
#      x y z
#    x 1.747260 0.000000 0.002070 
#    y 0.000000 1.760380 0.000000 
#    z 0.002070 0.000000 1.767750 
# 
# From -- ./inp_files/2610.got.cif
#   From: 2010.03.12/outbox.cif.g09.slc.cpg/sg6_2_cif.got.tgz:2610.got - 2010.03.30 10:24:59.
