data_PCOD8052772
_publ_section_title
;
Structure prediction by ZEFSAII (Michael W. Deem and Ramdas Pophale) SiO2 
 PCOD8052772
Probable space group: C M
;
_chemical_formula_sum "Si O2"
_cell_formula_units_Z 32
_cell_length_a 20.260193
_cell_length_b 8.762076
_cell_length_c 25.341080
_cell_angle_alpha 90.000000
_cell_angle_beta 156.604759
_cell_angle_gamma 90.000000
_cell_volume 1786.259723
_symmetry_space_group_name_H-M "C M"
_symmetry_group_IT_number 8
_symmetry_cell_setting 'monoclinic'
loop_
_space_group_symop_operation_xyz
x,y,z
x,-y,z
1/2+x,1/2+y,z
1/2+x,1/2-y,z
loop_
_atom_site_type_symbol
_atom_site_label
_atom_site_fract_x
_atom_site_fract_y
_atom_site_fract_z
Si Si1 0.343190 0.819709 0.097850
Si Si2 0.623986 0.178277 0.018616
Si Si3 0.660915 0.818622 0.268544
Si Si4 0.020318 0.818495 0.564478
Si Si5 0.050099 0.179958 0.808206
Si Si6 0.652033 0.682097 0.772028
Si Si7 0.827028 0.819745 0.736830
Si Si8 0.523249 0.821325 0.058332
O O1 0.527138 0.769776 0.214864
O O2 0.329625 0.000000 0.096865
O O3 0.294185 0.737344 0.116714
O O4 0.215490 0.761705 0.959302
O O5 0.463629 0.265836 0.879006
O O6 0.636992 0.212346 0.090682
O O7 0.597786 0.000000 0.988489
O O8 0.839740 0.752722 0.416533
O O9 0.668711 0.000000 0.270751
O O10 0.609343 0.749689 0.173567
O O11 0.067401 0.753450 0.656869
O O12 0.151486 0.760089 0.617699
O O13 0.021662 0.000000 0.564966
O O14 0.047376 0.242450 0.746144
O O15 0.887071 0.228641 0.721806
O O16 0.062844 0.000000 0.815045
O O17 0.653933 0.500000 0.770597
O O18 0.839147 0.747141 0.914159
O O19 0.807228 0.000000 0.727507
O O20 0.501749 0.000000 0.052429
#
# Coordination Sequence:
#
# PCOD8052772 Si02
#       8
#     4   4   4   4   4   4   4   4
#     4   9  16  29  48  70  95 125 159 198 243 288
#     4  10  18  29  49  75  98 123 160 204 240 280
#     4   9  17  30  49  72  98 129 164 197 234 284
#     4  10  19  31  50  75  98 124 162 205 238 275
#     4   8  14  25  45  68  89 118 158 195 230 278
#     4   9  14  25  46  71  93 117 159 205 233 269
#     4  10  19  31  48  71  99 131 159 193 245 293
#     4   9  15  26  47  72  96 123 159 199 237 279
#
# _framework density 17.914527
#
# number of rings (size 3 to 8) (size 9 to 14) (size 15 to 20)
#    0.000    2.750    2.500    1.500    0.000    0.000 
#    0.000    1.875    0.000   11.250    0.000    0.000 
#    0.000    0.000    0.000    0.000    0.000    0.000 
#
# Total GULP energy -198305.275880 kJ/mol
# GULP energy per Si atom -12394.079743 kJ/mol
# Density = 1.787375 g / cm^3
# Si number density = 17.914527 Si / 1000 Ang^3
#
#
#
# Elastic Constant Matrix: (Units=GPa)
#
#
# Indices 1 2 3 4 5 6 
#
# 1 162.5974 18.2190 83.7315 -0.0043 9.9992 -0.0011
# 2 18.2190 15.1483 13.3814 -0.0087 0.8383 0.0001
# 3 83.7315 13.3814 134.4089 -0.0222 8.1680 -0.0011
# 4 -0.0043 -0.0087 -0.0222 13.2110 0.0004 7.1675
# 5 9.9992 0.8383 8.1680 0.0004 29.4741 0.0006
# 6 -0.0011 0.0001 -0.0011 7.1675 0.0006 23.8271
#
#
#
# Elastic Compliance Matrix: (Units=1/GPa)
#
#
# Indices 1 2 3 4 5 6 
#
# 1 0.009752 -0.006973 -0.005281 -0.000012 -0.001647 0.000004
# 2 -0.006973 0.077365 -0.003426 0.000052 0.001115 -0.000017
# 3 -0.005281 -0.003426 0.011144 0.000017 -0.001199 -0.000005
# 4 -0.000012 0.000052 0.000017 0.090457 -0.000003 -0.027211
# 5 -0.001647 0.001115 -0.001199 -0.000003 0.034787 0.000000
# 6 0.000004 -0.000017 -0.000005 -0.027211 0.000000 0.050154
#
#
# Mechanical properties :
#
#
# Convention : Reuss Voigt Hill
#
# Bulk Modulus (GPa) = 14.94739 60.31317 37.63028
# Shear Modulus (GPa) = 15.27551 26.42395 20.84973
#
# Velocity S-wave (km/s) = 2.92325 3.84474 3.41522
# Velocity P-wave (km/s) = 4.44474 7.31093 6.05001
#
# Compressibility (1/GPa) = 0.06690130
#
# Stress axis : x y z
#
# Youngs Moduli (GPa) = 102.54035 12.92566 89.73579
#
# Poissons Ratio (x) = 0.09013 0.47389
# Poissons Ratio (y) = 0.71501 0.30745
# Poissons Ratio (z) = 0.54152 0.04429
#
# Static dielectric constant tensor:
#      x y z
#    x 3.734550 0.000000 0.026090 
#    y 0.000000 2.855610 0.000000 
#    z 0.026090 0.000000 3.293360 
# 
# 
# High freq. dielectric constant tensor:
#      x y z
#    x 1.712600 0.000000 0.010220 
#    y 0.000000 1.643850 0.000000 
#    z 0.010220 0.000000 1.666690 
# 
# From -- ./inp_files/23766.got.cif
#   From: 2010.03.12/outbox.cif.g09.slc.cpg/sg8_12_cif.got.tgz:23766.got - 2010.03.31 10:45:26.
