data_PCOD8052126
_publ_section_title
;
Structure prediction by ZEFSAII (Michael W. Deem and Ramdas Pophale) SiO2 
 PCOD8052126
Probable space group: C 2
;
_chemical_formula_sum "Si O2"
_cell_formula_units_Z 32
_cell_length_a 14.454751
_cell_length_b 12.338988
_cell_length_c 8.509047
_cell_angle_alpha 90.000000
_cell_angle_beta 74.167125
_cell_angle_gamma 90.000000
_cell_volume 1460.070959
_symmetry_space_group_name_H-M "C 2"
_symmetry_group_IT_number 5
_symmetry_cell_setting 'monoclinic'
loop_
_space_group_symop_operation_xyz
x,y,z
-x,y,-z
1/2+x,1/2+y,z
1/2-x,1/2+y,-z
loop_
_atom_site_type_symbol
_atom_site_label
_atom_site_fract_x
_atom_site_fract_y
_atom_site_fract_z
Si Si1 0.731028 0.358140 0.624360
Si Si2 0.309300 0.174164 0.845574
Si Si3 0.388939 0.498605 0.524752
Si Si4 0.348289 0.581374 0.877673
Si Si5 0.665300 0.701687 0.628328
Si Si6 0.907657 0.480466 0.653013
Si Si7 0.477178 0.794277 0.835005
Si Si8 0.392177 0.358931 0.009435
O O1 0.660191 0.389122 0.513874
O O2 0.778603 0.244764 0.551011
O O3 0.811186 0.452655 0.600826
O O4 0.675864 0.337781 0.810924
O O5 0.229203 0.200623 0.753663
O O6 0.356185 0.286206 0.880766
O O7 0.393538 0.097601 0.739334
O O8 0.257776 0.112749 0.013999
O O9 0.500000 0.473510 0.500000
O O10 0.337968 0.542408 0.703979
O O11 0.376728 0.583547 0.388265
O O12 0.418953 0.682707 0.861043
O O13 0.390719 0.484591 0.963388
O O14 0.575991 0.781900 0.694710
O O15 0.916098 0.388220 0.781536
O O16 0.000000 0.486728 0.500000
O O17 0.500000 0.831752 0.000000
O O18 0.500000 0.323732 0.000000
#
# Coordination Sequence:
#
# PCOD8052126 Si02
#       8
#     4   4   4   4   4   4   4   4
#     4  12  26  47  72 107 147 187 242 303 361 428
#     4  12  27  48  71 107 151 193 241 299 375 438
#     4  12  24  42  71 108 139 185 238 295 367 425
#     4  12  24  43  75 106 147 184 245 306 361 428
#     4  12  24  44  72 105 143 188 241 302 358 423
#     4  12  26  49  73 105 152 193 242 301 363 436
#     4  12  25  41  76 111 140 189 247 305 355 423
#     4  12  27  49  73 105 149 197 242 300 368 441
#
# _framework density 21.916743
#
# number of rings (size 3 to 8) (size 9 to 14) (size 15 to 20)
#    0.000    0.000    6.250    4.125    0.000    2.500 
#    2.250    0.625    0.000    0.000    0.000    0.000 
#    0.000    0.000    0.000    0.000    0.000    0.000 
#
# Total GULP energy -198523.677846 kJ/mol
# GULP energy per Si atom -12407.729865 kJ/mol
# Density = 2.186686 g / cm^3
# Si number density = 21.916743 Si / 1000 Ang^3
#
#
#
# Elastic Constant Matrix: (Units=GPa)
#
#
# Indices 1 2 3 4 5 6 
#
# 1 123.8967 38.3093 32.9951 0.0000 -3.9423 0.0000
# 2 38.3093 93.4643 20.9887 0.0000 -4.2503 0.0000
# 3 32.9951 20.9887 100.8675 0.0000 -11.6641 0.0000
# 4 0.0000 0.0000 0.0000 34.1343 0.0000 1.4686
# 5 -3.9423 -4.2503 -11.6641 0.0000 41.5672 0.0000
# 6 0.0000 0.0000 0.0000 1.4686 0.0000 31.4556
#
#
#
# Elastic Compliance Matrix: (Units=1/GPa)
#
#
# Indices 1 2 3 4 5 6 
#
# 1 0.009804 -0.003463 -0.002501 0.000000 -0.000126 0.000000
# 2 -0.003463 0.012457 -0.001395 0.000000 0.000554 0.000000
# 3 -0.002501 -0.001395 0.011347 0.000000 0.002804 0.000000
# 4 0.000000 0.000000 0.000000 0.029355 0.000000 -0.001370
# 5 -0.000126 0.000554 0.002804 0.000000 0.024889 0.000000
# 6 0.000000 0.000000 0.000000 -0.001370 0.000000 0.031855
#
#
# Mechanical properties :
#
#
# Convention : Reuss Voigt Hill
#
# Bulk Modulus (GPa) = 52.93894 55.86830 54.40362
# Shear Modulus (GPa) = 35.53129 36.49380 36.01255
#
# Velocity S-wave (km/s) = 4.03077 4.08500 4.05798
# Velocity P-wave (km/s) = 6.77273 6.91348 6.84346
#
# Compressibility (1/GPa) = 0.01888969
#
# Stress axis : x y z
#
# Youngs Moduli (GPa) = 102.00000 80.27591 88.13100
#
# Poissons Ratio (x) = 0.27796 0.22042
# Poissons Ratio (y) = 0.35318 0.12298
# Poissons Ratio (z) = 0.25511 0.11202
#
# Static dielectric constant tensor:
#      x y z
#    x 4.018200 0.000000 -0.015820 
#    y 0.000000 3.906450 0.000000 
#    z -0.015820 0.000000 4.184080 
# 
# 
# High freq. dielectric constant tensor:
#      x y z
#    x 1.867260 0.000000 -0.000780 
#    y 0.000000 1.860150 0.000000 
#    z -0.000780 0.000000 1.876810 
# 
# From -- ./inp_files/23865.got.cif
#   From: 2010.03.12/outbox.cif.g09.slc.cpg/sg5_12_cif.got.tgz:23865.got - 2010.03.31 09:47:26.
