data_PCOD8052960
_publ_section_title
;
Structure prediction by ZEFSAII (Michael W. Deem and Ramdas Pophale) SiO2 
 PCOD8052960
Probable space group: C M
;
_chemical_formula_sum "Si O2"
_cell_formula_units_Z 32
_cell_length_a 15.488494
_cell_length_b 9.320750
_cell_length_c 22.851037
_cell_angle_alpha 90.000000
_cell_angle_beta 31.342678
_cell_angle_gamma 90.000000
_cell_volume 1715.928159
_symmetry_space_group_name_H-M "C M"
_symmetry_group_IT_number 8
_symmetry_cell_setting 'monoclinic'
loop_
_space_group_symop_operation_xyz
x,y,z
x,-y,z
1/2+x,1/2+y,z
1/2+x,1/2-y,z
loop_
_atom_site_type_symbol
_atom_site_label
_atom_site_fract_x
_atom_site_fract_y
_atom_site_fract_z
Si Si1 0.103950 0.664502 0.554780
Si Si2 0.766873 0.335519 0.560902
Si Si3 0.060318 0.168024 0.788529
Si Si4 0.090837 0.664300 0.308027
Si Si5 0.395775 0.831687 0.181311
Si Si6 0.232864 0.165128 0.800973
Si Si7 0.855844 0.668687 0.337810
Si Si8 0.727782 0.169915 0.923573
O O1 0.161555 0.500000 0.517705
O O2 0.159852 0.729803 0.583709
O O3 0.187236 0.749724 0.452896
O O4 0.906759 0.679183 0.666450
O O5 0.718928 0.500000 0.572804
O O6 0.718441 0.298068 0.655407
O O7 0.962246 0.312249 0.436179
O O8 0.097829 0.223655 0.832188
O O9 0.890367 0.235134 0.861594
O O10 0.033360 0.000000 0.808451
O O11 0.148652 0.500000 0.270692
O O12 0.251009 0.758961 0.227649
O O13 0.004029 0.711023 0.296986
O O14 0.401306 0.783302 0.245864
O O15 0.366378 0.000000 0.193383
O O16 0.569866 0.784190 0.053020
O O17 0.215051 0.263706 0.867147
O O18 0.201625 0.000000 0.837277
O O19 0.821083 0.500000 0.362548
O O20 0.740243 0.000000 0.908751
#
# Coordination Sequence:
#
# PCOD8052960 Si02
#       8
#     4   4   4   4   4   4   4   4
#     4  10  19  31  53  84 117 142 173 225 280 322
#     4   9  17  33  57  80 109 146 184 218 264 331
#     4   9  18  34  57  80 105 143 184 221 266 324
#     4   9  19  34  56  83 109 142 181 223 271 324
#     4  10  22  38  57  81 109 144 188 229 268 320
#     4  10  21  35  55  84 112 141 180 228 275 323
#     4   9  20  38  56  78 110 148 186 221 264 327
#     4  10  21  39  59  78 107 148 188 225 268 323
#
# _framework density 18.648800000000001
#
# number of rings (size 3 to 8) (size 9 to 14) (size 15 to 20)
#    0.000    2.500    1.250    1.125    1.750    4.500 
#    0.000    3.750    0.000    0.000    0.000    0.000 
#    0.000    0.000    0.000    0.000    0.000    0.000 
#
# Total GULP energy -198358.953538 kJ/mol
# GULP energy per Si atom -12397.434596 kJ/mol
# Density = 1.860635 g / cm^3
# Si number density = 18.648800 Si / 1000 Ang^3
#
#
#
# Elastic Constant Matrix: (Units=GPa)
#
#
# Indices 1 2 3 4 5 6 
#
# 1 131.4117 35.3833 67.4841 0.0000 3.6283 0.0000
# 2 35.3833 44.6799 39.1015 0.0001 -0.4205 0.0000
# 3 67.4841 39.1015 111.2617 -0.0007 7.2026 0.0000
# 4 0.0000 0.0001 -0.0007 25.8235 0.0001 -3.1563
# 5 3.6283 -0.4205 7.2026 0.0001 20.2259 0.0000
# 6 0.0000 0.0000 0.0000 -3.1563 0.0000 24.9627
#
#
#
# Elastic Compliance Matrix: (Units=1/GPa)
#
#
# Indices 1 2 3 4 5 6 
#
# 1 0.011618 -0.004402 -0.005485 0.000000 -0.000222 0.000000
# 2 -0.004402 0.034458 -0.009762 0.000000 0.004982 0.000000
# 3 -0.005485 -0.009762 0.016065 0.000000 -0.004940 0.000000
# 4 0.000000 0.000000 0.000000 0.039332 0.000000 0.004973
# 5 -0.000222 0.004982 -0.004940 0.000000 0.051344 0.000000
# 6 0.000000 0.000000 0.000000 0.004973 0.000000 0.040689
#
#
# Mechanical properties :
#
#
# Convention : Reuss Voigt Hill
#
# Bulk Modulus (GPa) = 43.77916 63.47678 53.62797
# Shear Modulus (GPa) = 20.79697 23.89472 22.34584
#
# Velocity S-wave (km/s) = 3.34307 3.58341 3.46532
# Velocity P-wave (km/s) = 6.19904 7.15772 6.69556
#
# Compressibility (1/GPa) = 0.02284192
#
# Stress axis : x y z
#
# Youngs Moduli (GPa) = 86.07349 29.02086 62.24586
#
# Poissons Ratio (x) = 0.12776 0.34143
# Poissons Ratio (y) = 0.37893 0.60765
# Poissons Ratio (z) = 0.47213 0.28331
#
# Static dielectric constant tensor:
#      x y z
#    x 3.548770 0.000000 0.007350 
#    y 0.000000 3.257050 0.000000 
#    z 0.007350 0.000000 3.525340 
# 
# 
# High freq. dielectric constant tensor:
#      x y z
#    x 1.727320 0.000000 0.002790 
#    y 0.000000 1.703980 0.000000 
#    z 0.002790 0.000000 1.723920 
# 
# From -- ./inp_files/24800.got.cif
#   From: 2010.03.12/outbox.cif.g09.slc.cpg/sg8_13_cif.got.tgz:24800.got - 2010.03.31 10:45:26.
