data_PCOD8052886
_publ_section_title
;
Structure prediction by ZEFSAII (Michael W. Deem and Ramdas Pophale) SiO2 
 PCOD8052886
Probable space group: C M
;
_chemical_formula_sum "Si O2"
_cell_formula_units_Z 32
_cell_length_a 20.535253
_cell_length_b 9.055860
_cell_length_c 25.331374
_cell_angle_alpha 90.000000
_cell_angle_beta 157.789977
_cell_angle_gamma 90.000000
_cell_volume 1780.670080
_symmetry_space_group_name_H-M "C M"
_symmetry_group_IT_number 8
_symmetry_cell_setting 'monoclinic'
loop_
_space_group_symop_operation_xyz
x,y,z
x,-y,z
1/2+x,1/2+y,z
1/2+x,1/2-y,z
loop_
_atom_site_type_symbol
_atom_site_label
_atom_site_fract_x
_atom_site_fract_y
_atom_site_fract_z
Si Si1 0.166760 0.329515 0.119890
Si Si2 0.050609 0.826245 0.639405
Si Si3 0.802742 0.327074 0.378443
Si Si4 0.599728 0.328258 0.797716
Si Si5 0.477281 0.826414 0.399701
Si Si6 0.333482 0.174987 0.672348
Si Si7 0.883655 0.325003 0.828697
Si Si8 0.994638 0.331776 0.101395
O O1 0.222473 0.500000 0.156137
O O2 0.337450 0.230959 0.252663
O O3 0.041487 0.306860 0.075587
O O4 0.060205 0.271921 0.989076
O O5 0.063603 0.785767 0.710302
O O6 0.217659 0.760803 0.734709
O O7 0.881032 0.749632 0.488700
O O8 0.034407 0.000000 0.618166
O O9 0.798859 0.500000 0.384786
O O10 0.916374 0.282538 0.412752
O O11 0.607564 0.271916 0.224022
O O12 0.558308 0.500000 0.776835
O O13 0.483134 0.225114 0.746002
O O14 0.795782 0.290892 0.959746
O O15 0.655958 0.747957 0.520754
O O16 0.499344 0.000000 0.409343
O O17 0.382000 0.230842 0.767407
O O18 0.312372 0.000000 0.654663
O O19 0.875519 0.500000 0.826685
O O20 0.031316 0.500000 0.145311
#
# Coordination Sequence:
#
# PCOD8052886 Si02
#       8
#     4   4   4   4   4   4   4   4
#     4   9  16  31  56  82 104 132 179 230 269 314
#     4  10  18  34  58  81 106 140 183 225 264 318
#     4  10  20  32  51  82 114 140 174 227 274 311
#     4  10  21  37  57  81 110 143 180 223 270 321
#     4  10  20  34  51  78 113 145 178 220 271 319
#     4  11  22  36  56  80 110 147 181 219 269 326
#     4   9  17  32  56  83 105 133 181 227 263 313
#     4   9  17  32  55  79 104 140 180 219 268 324
#
# _framework density 17.970763000000002
#
# number of rings (size 3 to 8) (size 9 to 14) (size 15 to 20)
#    0.000    2.250    2.500    1.125    0.000    2.000 
#    0.000    3.125    0.000    3.000    0.000    0.000 
#    0.000    0.000    0.000    0.000    0.000    0.000 
#
# Total GULP energy -198437.499545 kJ/mol
# GULP energy per Si atom -12402.343722 kJ/mol
# Density = 1.792986 g / cm^3
# Si number density = 17.970763 Si / 1000 Ang^3
#
#
#
# Elastic Constant Matrix: (Units=GPa)
#
#
# Indices 1 2 3 4 5 6 
#
# 1 88.5148 41.0505 63.2178 0.0014 -2.6791 0.0005
# 2 41.0505 61.1949 50.3535 -0.0081 0.3922 0.0008
# 3 63.2178 50.3535 143.0583 -0.0054 -6.2873 0.0038
# 4 0.0014 -0.0081 -0.0054 25.2268 0.0034 4.8441
# 5 -2.6791 0.3922 -6.2873 0.0034 28.5080 0.0005
# 6 0.0005 0.0008 0.0038 4.8441 0.0005 23.9054
#
#
#
# Elastic Compliance Matrix: (Units=1/GPa)
#
#
# Indices 1 2 3 4 5 6 
#
# 1 0.019080 -0.008293 -0.005482 -0.000005 0.000698 0.000002
# 2 -0.008293 0.026736 -0.005853 0.000008 -0.002438 -0.000001
# 3 -0.005482 -0.005853 0.011566 0.000001 0.002116 -0.000002
# 4 -0.000005 0.000008 0.000001 0.041245 -0.000005 -0.008358
# 5 0.000698 -0.002438 0.002116 -0.000005 0.035644 0.000000
# 6 0.000002 -0.000001 -0.000002 -0.008358 0.000000 0.043525
#
#
# Mechanical properties :
#
#
# Convention : Reuss Voigt Hill
#
# Bulk Modulus (GPa) = 55.16907 66.89018 61.02963
# Shear Modulus (GPa) = 22.41218 24.73778 23.57498
#
# Velocity S-wave (km/s) = 3.53533 3.71422 3.62588
# Velocity P-wave (km/s) = 6.88700 7.46300 7.18078
#
# Compressibility (1/GPa) = 0.01812610
#
# Stress axis : x y z
#
# Youngs Moduli (GPa) = 52.41139 37.40284 86.46247
#
# Poissons Ratio (x) = 0.31018 0.47397
# Poissons Ratio (y) = 0.43464 0.50606
# Poissons Ratio (z) = 0.28731 0.21892
#
# Static dielectric constant tensor:
#      x y z
#    x 3.138120 0.000000 -0.121740 
#    y 0.000000 3.130750 -0.000010 
#    z -0.121740 -0.000010 3.434970 
# 
# 
# High freq. dielectric constant tensor:
#      x y z
#    x 1.670590 0.000000 -0.009490 
#    y 0.000000 1.683240 0.000000 
#    z -0.009490 0.000000 1.709950 
# 
# From -- ./inp_files/31315.got.cif
#   From: 2010.03.12/outbox.cif.g09.slc.cpg/sg8_16_cif.got.tgz:31315.got - 2010.03.31 10:45:26.
