data_PCOD8052032
_publ_section_title
;
Structure prediction by ZEFSAII (Michael W. Deem and Ramdas Pophale) SiO2 
 PCOD8052032
Probable space group: C 2
;
_chemical_formula_sum "Si O2"
_cell_formula_units_Z 16
_cell_length_a 11.807856
_cell_length_b 8.074064
_cell_length_c 8.943980
_cell_angle_alpha 90.000000
_cell_angle_beta 56.040350
_cell_angle_gamma 90.000000
_cell_volume 707.252366
_symmetry_space_group_name_H-M "C 2"
_symmetry_group_IT_number 5
_symmetry_cell_setting 'monoclinic'
loop_
_space_group_symop_operation_xyz
x,y,z
-x,y,-z
1/2+x,1/2+y,z
1/2-x,1/2+y,-z
loop_
_atom_site_type_symbol
_atom_site_label
_atom_site_fract_x
_atom_site_fract_y
_atom_site_fract_z
Si Si1 0.868157 0.445840 0.453069
Si Si2 0.099021 0.068541 0.551298
Si Si3 0.081209 0.909918 0.085233
Si Si4 0.644090 0.083913 0.217776
O O1 0.869201 0.258629 0.510156
O O2 0.741946 0.470803 0.434376
O O3 0.849584 0.573543 0.605927
O O4 0.010276 0.481049 0.263309
O O5 0.000000 0.992124 0.500000
O O6 0.025410 0.040374 0.764246
O O7 0.122510 0.767885 0.171490
O O8 0.000000 0.839216 0.000000
O O9 0.219100 0.006519 0.948069
#
# Coordination Sequence:
#
# PCOD8052032 Si02
#       4
#     4   4   4   4
#     4  11  25  47  72 106 145 190 242 290 353 434
#     4  12  26  46  77 104 145 190 239 293 360 426
#     4  12  27  47  72 109 147 188 237 299 361 424
#     4  11  25  47  71 104 149 183 238 295 354 422
#
# _framework density 22.622757
#
# number of rings (size 3 to 8) (size 9 to 14) (size 15 to 20)
#    0.000    0.500    5.000    3.000    7.000    0.000 
#    0.000    0.000    0.000    0.000    0.000    0.000 
#    0.000    0.000    0.000    0.000    0.000    0.000 
#
# Total GULP energy -99185.392756 kJ/mol
# GULP energy per Si atom -12398.174095 kJ/mol
# Density = 2.257127 g / cm^3
# Si number density = 22.622757 Si / 1000 Ang^3
#
#
#
# Elastic Constant Matrix: (Units=GPa)
#
#
# Indices 1 2 3 4 5 6 
#
# 1 184.4528 43.6878 37.0269 0.0000 -24.5258 0.0000
# 2 43.6878 91.2868 24.5753 0.0000 6.1704 0.0000
# 3 37.0269 24.5753 70.9535 0.0000 -19.4998 0.0000
# 4 0.0000 0.0000 0.0000 35.9260 0.0000 -1.3849
# 5 -24.5258 6.1704 -19.4998 0.0000 53.6581 0.0000
# 6 0.0000 0.0000 0.0000 -1.3849 0.0000 32.4188
#
#
#
# Elastic Compliance Matrix: (Units=1/GPa)
#
#
# Indices 1 2 3 4 5 6 
#
# 1 0.006864 -0.003003 -0.001761 0.000000 0.002843 0.000000
# 2 -0.003003 0.013922 -0.004524 0.000000 -0.004618 0.000000
# 3 -0.001761 -0.004524 0.018332 0.000000 0.006377 0.000000
# 4 0.000000 0.000000 0.000000 0.027881 0.000000 0.001191
# 5 0.002843 -0.004618 0.006377 0.000000 0.022785 0.000000
# 6 0.000000 0.000000 0.000000 0.001191 0.000000 0.030897
#
#
# Mechanical properties :
#
#
# Convention : Reuss Voigt Hill
#
# Bulk Modulus (GPa) = 48.67853 61.91924 55.29888
# Shear Modulus (GPa) = 34.22240 40.49412 37.35826
#
# Velocity S-wave (km/s) = 3.89362 4.23540 4.06810
# Velocity P-wave (km/s) = 6.46358 7.16574 6.82370
#
# Compressibility (1/GPa) = 0.02054294
#
# Stress axis : x y z
#
# Youngs Moduli (GPa) = 145.68349 71.83024 54.54956
#
# Poissons Ratio (x) = 0.21573 0.09604
# Poissons Ratio (y) = 0.43753 0.24676
# Poissons Ratio (z) = 0.25648 0.32494
#
# Static dielectric constant tensor:
#      x y z
#    x 4.520770 0.000000 -0.278430 
#    y 0.000000 3.867650 0.000000 
#    z -0.278430 0.000000 4.110700 
# 
# 
# High freq. dielectric constant tensor:
#      x y z
#    x 1.918660 0.000000 -0.024080 
#    y 0.000000 1.883860 0.000000 
#    z -0.024080 0.000000 1.884450 
# 
# From -- ./inp_files/17946.got.cif
#   From: 2010.03.12/outbox.cif.g09.slc.cpg/sg5_9_cif.got.tgz:17946.got - 2010.03.31 09:47:26.
