data_PCOD8052473
_publ_section_title
;
Structure prediction by ZEFSAII (Michael W. Deem and Ramdas Pophale) SiO2 
 PCOD8052473
Probable space group: P M
;
_chemical_formula_sum "Si O2"
_cell_formula_units_Z 12
_cell_length_a 9.400385
_cell_length_b 13.269969
_cell_length_c 9.400199
_cell_angle_alpha 90.000000
_cell_angle_beta 32.056415
_cell_angle_gamma 90.000000
_cell_volume 622.366041
_symmetry_space_group_name_H-M "P M"
_symmetry_group_IT_number 6
_symmetry_cell_setting 'monoclinic'
loop_
_space_group_symop_operation_xyz
x,y,z
x,-y,z
loop_
_atom_site_type_symbol
_atom_site_label
_atom_site_fract_x
_atom_site_fract_y
_atom_site_fract_z
Si Si1 0.236320 0.113815 0.007540
Si Si2 0.136182 0.740170 0.323025
Si Si3 0.309762 0.240178 0.496502
Si Si4 0.548924 0.697062 0.756415
Si Si5 0.625262 0.613815 0.396352
Si Si6 0.876361 0.802937 0.083767
O O1 0.128946 0.149518 0.253738
O O2 0.343854 0.000000 0.925721
O O3 0.477417 0.189967 0.756049
O O4 0.995658 0.119685 0.097009
O O5 0.255531 0.749992 0.377202
O O6 0.840966 0.693669 0.580490
O O7 0.331877 0.667831 0.062271
O O8 0.379060 0.350488 0.503732
O O9 0.052328 0.193659 0.791701
O O10 0.570522 0.167842 0.300774
O O11 0.535772 0.619691 0.637031
O O12 0.707089 0.500000 0.288825
O O13 0.876750 0.689966 0.155254
#
# Coordination Sequence:
#
# PCOD8052473 Si02
#       6
#     2   2   2   2   2   2
#     4  10  21  39  63  88 119 161 203 244 298 353
#     4  10  20  38  61  81 122 156 189 248 302 343
#     4  10  20  38  61  81 122 156 189 248 302 343
#     4  10  20  39  57  89 115 155 199 248 284 352
#     4  10  21  39  63  88 119 161 203 244 298 353
#     4  10  20  39  57  89 115 155 199 248 284 352
#
# _framework density 19.281258000000001
#
# number of rings (size 3 to 8) (size 9 to 14) (size 15 to 20)
#    2.000    0.000    3.333    1.000    0.000    1.333 
#    0.000    3.333    0.000    0.000    0.000    0.000 
#    0.000    0.000    0.000    0.000    0.000    0.000 
#
# Total GULP energy -148660.012275 kJ/mol
# GULP energy per Si atom -12388.334356 kJ/mol
# Density = 1.923737 g / cm^3
# Si number density = 19.281258 Si / 1000 Ang^3
#
#
#
# Elastic Constant Matrix: (Units=GPa)
#
#
# Indices 1 2 3 4 5 6 
#
# 1 132.1482 5.6921 37.2840 0.0000 12.1059 0.0000
# 2 5.6921 54.6834 0.3983 0.0000 2.2264 0.0000
# 3 37.2840 0.3983 114.2803 0.0000 -4.6133 0.0000
# 4 0.0000 0.0000 0.0000 10.8575 0.0000 0.1096
# 5 12.1059 2.2264 -4.6133 0.0000 40.0128 0.0000
# 6 0.0000 0.0000 0.0000 0.1096 0.0000 11.1232
#
#
#
# Elastic Compliance Matrix: (Units=1/GPa)
#
#
# Indices 1 2 3 4 5 6 
#
# 1 0.008702 -0.000765 -0.002955 0.000000 -0.002931 0.000000
# 2 -0.000765 0.018397 0.000154 0.000000 -0.000774 0.000000
# 3 -0.002955 0.000154 0.009795 0.000000 0.002015 0.000000
# 4 0.000000 0.000000 0.000000 0.092111 0.000000 -0.000908
# 5 -0.002931 -0.000774 0.002015 0.000000 0.026154 0.000000
# 6 0.000000 0.000000 0.000000 -0.000908 0.000000 0.089911
#
#
# Mechanical properties :
#
#
# Convention : Reuss Voigt Hill
#
# Bulk Modulus (GPa) = 33.59819 43.09564 38.34691
# Shear Modulus (GPa) = 19.07497 29.58121 24.32809
#
# Velocity S-wave (km/s) = 3.14873 3.92113 3.55596
# Velocity P-wave (km/s) = 5.53917 6.54980 6.06557
#
# Compressibility (1/GPa) = 0.02976351
#
# Stress axis : x y z
#
# Youngs Moduli (GPa) = 114.91104 54.35636 102.09068
#
# Poissons Ratio (x) = 0.04158 0.30166
# Poissons Ratio (y) = 0.08791 -0.01574
# Poissons Ratio (z) = 0.33954 -0.00838
#
# Static dielectric constant tensor:
#      x y z
#    x 3.369750 0.000000 -0.042250 
#    y 0.000000 2.947860 0.000000 
#    z -0.042250 0.000000 3.470100 
# 
# 
# High freq. dielectric constant tensor:
#      x y z
#    x 1.752680 0.000000 -0.001050 
#    y 0.000000 1.692930 0.000000 
#    z -0.001050 0.000000 1.755170 
# 
# From -- ./inp_files/997.got.cif
#   From: 2010.03.12/outbox.cif.g09.slc.cpg/sg6_1_cif.got.tgz:997.got - 2010.03.30 10:24:59.
