data_PCOD8052692
_publ_section_title
;
Structure prediction by ZEFSAII (Michael W. Deem and Ramdas Pophale) SiO2 
 PCOD8052692
Probable space group: C M
;
_chemical_formula_sum "Si O2"
_cell_formula_units_Z 32
_cell_length_a 16.574112
_cell_length_b 22.757886
_cell_length_c 5.310223
_cell_angle_alpha 90.000000
_cell_angle_beta 71.169929
_cell_angle_gamma 90.000000
_cell_volume 1895.773221
_symmetry_space_group_name_H-M "C M"
_symmetry_group_IT_number 8
_symmetry_cell_setting 'monoclinic'
loop_
_space_group_symop_operation_xyz
x,y,z
x,-y,z
1/2+x,1/2+y,z
1/2+x,1/2-y,z
loop_
_atom_site_type_symbol
_atom_site_label
_atom_site_fract_x
_atom_site_fract_y
_atom_site_fract_z
Si Si1 0.837580 0.067612 0.170000
Si Si2 0.653762 0.236110 0.350785
Si Si3 0.192871 0.290573 0.811820
Si Si4 0.641449 0.095595 0.356322
Si Si5 0.852927 0.134296 0.654015
Si Si6 0.043927 0.564459 0.955825
Si Si7 0.966914 0.751081 0.539915
Si Si8 0.990245 0.314470 0.015212
O O1 0.737306 0.073933 0.275408
O O2 0.876434 0.097831 0.380990
O O3 0.865743 0.000000 0.141542
O O4 0.875744 0.097608 0.880239
O O5 0.710516 0.248405 0.542857
O O6 0.632355 0.166172 0.364759
O O7 0.565760 0.272388 0.443049
O O8 0.708751 0.249827 0.043822
O O9 0.252259 0.348248 0.755982
O O10 0.093308 0.308475 0.905901
O O11 0.595395 0.069279 0.644538
O O12 0.604543 0.069745 0.136711
O O13 0.906818 0.193327 0.600741
O O14 0.000289 0.500000 0.006343
O O15 0.971610 0.615504 0.037922
O O16 0.948958 0.714157 0.304825
O O17 0.947687 0.713429 0.809974
#
# Coordination Sequence:
#
# PCOD8052692 Si02
#       8
#     4   4   4   4   4   4   4   4
#     4  12  23  33  46  66 100 130 161 195 224 274
#     4  10  16  31  46  63  86 126 152 199 234 258
#     4  10  16  28  48  59  91 116 157 191 223 270
#     4  12  18  32  45  67  92 128 168 188 226 259
#     4  12  21  34  47  71  89 127 171 188 236 286
#     4  12  20  27  44  67  92 122 164 197 222 270
#     4  10  20  30  50  62  88 123 162 199 236 276
#     4  10  17  33  44  63  89 126 153 193 245 261
#
# _framework density 16.879656000000001
#
# number of rings (size 3 to 8) (size 9 to 14) (size 15 to 20)
#    0.000    1.000    7.500    3.000    0.000    0.000 
#    0.000    0.000    0.000    0.000    0.000    0.000 
#    0.000    0.000    0.000   90.000    0.000    0.000 
#
# Total GULP energy -198259.876837 kJ/mol
# GULP energy per Si atom -12391.242302 kJ/mol
# Density = 1.684124 g / cm^3
# Si number density = 16.879656 Si / 1000 Ang^3
#
#
#
# Elastic Constant Matrix: (Units=GPa)
#
#
# Indices 1 2 3 4 5 6 
#
# 1 34.8200 40.5428 40.5773 0.0000 17.1961 0.0000
# 2 40.5428 118.4381 46.9836 0.0000 6.7808 0.0000
# 3 40.5773 46.9836 120.8769 0.0000 44.8377 0.0000
# 4 0.0000 0.0000 0.0000 21.2582 0.0000 2.9257
# 5 17.1961 6.7808 44.8377 0.0000 30.8536 0.0000
# 6 0.0000 0.0000 0.0000 2.9257 0.0000 19.4230
#
#
#
# Elastic Compliance Matrix: (Units=1/GPa)
#
#
# Indices 1 2 3 4 5 6 
#
# 1 0.075019 -0.021460 -0.006686 0.000000 -0.027378 0.000000
# 2 -0.021460 0.016984 -0.005315 0.000000 0.015951 0.000000
# 3 -0.006686 -0.005315 0.023360 0.000000 -0.029053 0.000000
# 4 0.000000 0.000000 0.000000 0.048037 0.000000 -0.007236
# 5 -0.027378 0.015951 -0.029053 0.000000 0.086386 0.000000
# 6 0.000000 0.000000 0.000000 -0.007236 0.000000 0.052575
#
#
# Mechanical properties :
#
#
# Convention : Reuss Voigt Hill
#
# Bulk Modulus (GPa) = 20.64348 58.92693 39.78521
# Shear Modulus (GPa) = 12.97251 24.04238 18.50745
#
# Velocity S-wave (km/s) = 2.77524 3.77814 3.31484
# Velocity P-wave (km/s) = 4.74612 7.34971 6.18643
#
# Compressibility (1/GPa) = 0.04844144
#
# Stress axis : x y z
#
# Youngs Moduli (GPa) = 13.32996 58.87779 42.80814
#
# Poissons Ratio (x) = 1.26352 0.28622
# Poissons Ratio (y) = 0.28606 0.22751
# Poissons Ratio (z) = 0.08913 0.31292
#
# Static dielectric constant tensor:
#      x y z
#    x 3.169030 0.000000 1.028330 
#    y 0.000000 3.046770 0.000000 
#    z 1.028330 0.000000 4.832220 
# 
# 
# High freq. dielectric constant tensor:
#      x y z
#    x 1.605950 0.000000 0.043900 
#    y 0.000000 1.619120 0.000000 
#    z 0.043900 0.000000 1.679620 
# 
# From -- ./inp_files/5122.got.cif
#   From: 2010.03.12/outbox.cif.g09.slc.cpg/sg8_3_cif.got.tgz:5122.got - 2010.03.31 10:45:26.
