data_PCOD8052299
_publ_section_title
;
Structure prediction by ZEFSAII (Michael W. Deem and Ramdas Pophale) SiO2 
 PCOD8052299
Probable space group: P M
;
_chemical_formula_sum "Si O2"
_cell_formula_units_Z 14
_cell_length_a 7.640668
_cell_length_b 12.919780
_cell_length_c 11.259083
_cell_angle_alpha 90.000000
_cell_angle_beta 136.760592
_cell_angle_gamma 90.000000
_cell_volume 761.396155
_symmetry_space_group_name_H-M "P M"
_symmetry_group_IT_number 6
_symmetry_cell_setting 'monoclinic'
loop_
_space_group_symop_operation_xyz
x,y,z
x,-y,z
loop_
_atom_site_type_symbol
_atom_site_label
_atom_site_fract_x
_atom_site_fract_y
_atom_site_fract_z
Si Si1 0.537080 0.803693 0.730070
Si Si2 0.781694 0.744963 0.440600
Si Si3 0.211187 0.380205 0.542892
Si Si4 0.196700 0.883279 0.753929
Si Si5 0.335727 0.748928 0.394683
Si Si6 0.037807 0.115447 0.080990
Si Si7 0.498534 0.114747 0.130803
O O1 0.438536 0.687262 0.716955
O O2 0.364973 0.884734 0.717640
O O3 0.492745 0.819602 0.567138
O O4 0.831631 0.819767 0.904773
O O5 0.526781 0.709270 0.384879
O O6 0.718295 0.810521 0.290074
O O7 0.941629 0.646167 0.473620
O O8 0.946475 0.813526 0.613800
O O9 0.271808 0.500000 0.589041
O O10 0.209237 0.349117 0.401226
O O11 0.108096 0.000000 0.740639
O O12 0.373785 0.839603 0.948712
O O13 0.105557 0.819598 0.231864
O O14 0.287715 0.105126 0.127208
O O15 0.937169 0.000000 0.064905
O O16 0.613673 0.000000 0.163378
#
# Coordination Sequence:
#
# PCOD8052299 Si02
#       7
#     2   2   2   2   2   2   2
#     4   9  20  34  53  79 113 142 184 224 269 322
#     4  10  19  36  58  77 109 144 181 227 275 319
#     4   9  21  40  58  80 106 141 188 236 283 320
#     4  10  19  30  50  80 114 150 181 215 263 324
#     4   9  21  37  56  83 111 144 182 229 269 328
#     4  10  19  33  54  83 115 149 179 212 267 330
#     4   9  19  32  51  80 114 146 179 215 260 327
#
# _framework density 18.387274999999999
#
# number of rings (size 3 to 8) (size 9 to 14) (size 15 to 20)
#    0.857    1.714    0.000    1.714    2.000    2.286 
#    0.000    0.714    0.000    0.857    0.000    0.000 
#    0.000    0.000    0.000    0.000    0.000    0.000 
#
# Total GULP energy -173481.627443 kJ/mol
# GULP energy per Si atom -12391.544817 kJ/mol
# Density = 1.834542 g / cm^3
# Si number density = 18.387275 Si / 1000 Ang^3
#
#
#
# Elastic Constant Matrix: (Units=GPa)
#
#
# Indices 1 2 3 4 5 6 
#
# 1 36.8121 2.7200 -5.5167 0.0000 -13.8043 0.0000
# 2 2.7200 88.7355 31.7983 0.0000 0.0263 0.0000
# 3 -5.5167 31.7983 108.3034 0.0000 -6.6166 0.0000
# 4 0.0000 0.0000 0.0000 16.4134 0.0000 0.3670
# 5 -13.8043 0.0263 -6.6166 0.0000 21.0695 0.0000
# 6 0.0000 0.0000 0.0000 0.3670 0.0000 20.1441
#
#
#
# Elastic Compliance Matrix: (Units=1/GPa)
#
#
# Indices 1 2 3 4 5 6 
#
# 1 0.037813 -0.002715 0.004320 0.000000 0.026134 0.000000
# 2 -0.002715 0.012819 -0.004090 0.000000 -0.003079 0.000000
# 3 0.004320 -0.004090 0.011039 0.000000 0.006302 0.000000
# 4 0.000000 0.000000 0.000000 0.060951 0.000000 -0.001110
# 5 0.026134 -0.003079 0.006302 0.000000 0.066568 0.000000
# 6 0.000000 0.000000 0.000000 -0.001110 0.000000 0.049663
#
#
# Mechanical properties :
#
#
# Convention : Reuss Voigt Hill
#
# Bulk Modulus (GPa) = 17.63630 32.42824 25.03227
# Shear Modulus (GPa) = 19.03142 25.18202 22.10672
#
# Velocity S-wave (km/s) = 3.22068 3.70474 3.47116
# Velocity P-wave (km/s) = 4.84178 5.99789 5.45057
#
# Compressibility (1/GPa) = 0.05670125
#
# Stress axis : x y z
#
# Youngs Moduli (GPa) = 26.44585 78.00739 90.58574
#
# Poissons Ratio (x) = 0.21178 -0.39131
# Poissons Ratio (y) = 0.07180 0.37051
# Poissons Ratio (z) = -0.11424 0.31907
#
# Static dielectric constant tensor:
#      x y z
#    x 3.315070 0.000000 -0.066610 
#    y 0.000000 3.029950 0.000000 
#    z -0.066610 0.000000 3.423100 
# 
# 
# High freq. dielectric constant tensor:
#      x y z
#    x 1.719770 0.000000 -0.003340 
#    y 0.000000 1.671290 0.000000 
#    z -0.003340 0.000000 1.711290 
# 
# From -- ./inp_files/3956.got.cif
#   From: 2010.03.12/outbox.cif.g09.slc.cpg/sg6_2_cif.got.tgz:3956.got - 2010.03.30 10:24:59.
