data_PCOD8052587
_publ_section_title
;
Structure prediction by ZEFSAII (Michael W. Deem and Ramdas Pophale) SiO2 
 PCOD8052587
Probable space group: P C
;
_chemical_formula_sum "Si O2"
_cell_formula_units_Z 16
_cell_length_a 7.557221
_cell_length_b 20.765898
_cell_length_c 5.204989
_cell_angle_alpha 90.000000
_cell_angle_beta 59.858815
_cell_angle_gamma 90.000000
_cell_volume 706.388577
_symmetry_space_group_name_H-M "P C"
_symmetry_group_IT_number 7
_symmetry_cell_setting 'monoclinic'
loop_
_space_group_symop_operation_xyz
x,y,z
x,-y,1/2+z
loop_
_atom_site_type_symbol
_atom_site_label
_atom_site_fract_x
_atom_site_fract_y
_atom_site_fract_z
Si Si1 0.541750 0.174299 0.140040
Si Si2 0.417202 0.463663 0.462233
Si Si3 0.173052 0.734874 0.775042
Si Si4 0.904655 0.975049 0.852883
Si Si5 0.449107 0.030329 0.231487
Si Si6 0.160318 0.346404 0.781163
Si Si7 0.900659 0.536373 0.592170
Si Si8 0.806125 0.829635 0.935634
O O1 0.377549 0.229075 0.208833
O O2 0.426177 0.106977 0.273351
O O3 0.664377 0.195186 0.306056
O O4 0.687870 0.167234 0.789402
O O5 0.330092 0.505058 0.764907
O O6 0.348221 0.390219 0.547716
O O7 0.658952 0.464142 0.277097
O O8 0.228697 0.692868 0.483625
O O9 0.997198 0.783062 0.817159
O O10 0.094314 0.696108 0.083091
O O11 0.885901 0.900162 0.803086
O O12 0.023667 0.012168 0.534932
O O13 0.687354 0.009946 0.067748
O O14 0.340733 0.995089 0.551769
O O15 0.969381 0.390061 0.008023
O O16 0.987839 0.504772 0.788835
#
# Coordination Sequence:
#
# PCOD8052587 Si02
#       8
#     2   2   2   2   2   2   2   2
#     4  12  23  43  68  87 132 170 215 285 331 383
#     4  10  21  39  69 104 128 162 215 270 324 374
#     4  12  30  43  60 101 128 186 240 246 310 424
#     4  10  16  32  62  92 112 154 207 265 352 400
#     4  10  16  32  62  92 112 154 207 265 352 400
#     4  12  24  45  64  89 146 176 214 266 316 382
#     4  10  21  39  69 104 128 162 215 270 324 374
#     4  12  23  43  68  87 132 170 215 285 331 383
#
# _framework density 22.650424999999998
#
# number of rings (size 3 to 8) (size 9 to 14) (size 15 to 20)
#    0.000    1.000    5.000    3.750    0.000    3.000 
#    0.000    1.250    0.000    0.000    0.000    0.000 
#    0.000    0.000    0.000    0.000    0.000    0.000 
#
# Total GULP energy -198442.905353 kJ/mol
# GULP energy per Si atom -12402.681585 kJ/mol
# Density = 2.259887 g / cm^3
# Si number density = 22.650425 Si / 1000 Ang^3
#
#
#
# Elastic Constant Matrix: (Units=GPa)
#
#
# Indices 1 2 3 4 5 6 
#
# 1 99.7929 41.0705 43.0829 0.0000 36.1397 0.0000
# 2 41.0705 130.8081 41.9397 0.0000 9.3271 0.0000
# 3 43.0829 41.9397 138.1356 0.0000 36.8376 0.0000
# 4 0.0000 0.0000 0.0000 14.4911 0.0000 10.5399
# 5 36.1397 9.3271 36.8376 0.0000 36.8688 0.0000
# 6 0.0000 0.0000 0.0000 10.5399 0.0000 36.2310
#
#
#
# Elastic Compliance Matrix: (Units=1/GPa)
#
#
# Indices 1 2 3 4 5 6 
#
# 1 0.017725 -0.004461 0.000216 0.000000 -0.016462 0.000000
# 2 -0.004461 0.009601 -0.002784 0.000000 0.004725 0.000000
# 3 0.000216 -0.002784 0.010750 0.000000 -0.010249 0.000000
# 4 0.000000 0.000000 0.000000 0.087528 0.000000 -0.025463
# 5 -0.016462 0.004725 -0.010249 0.000000 0.052304 0.000000
# 6 0.000000 0.000000 0.000000 -0.025463 0.000000 0.035008
#
#
# Mechanical properties :
#
#
# Convention : Reuss Voigt Hill
#
# Bulk Modulus (GPa) = 41.63322 68.99142 55.31232
# Shear Modulus (GPa) = 21.27851 33.69441 27.48646
#
# Velocity S-wave (km/s) = 3.06834 3.86111 3.48732
# Velocity P-wave (km/s) = 5.56539 7.09950 6.37873
#
# Compressibility (1/GPa) = 0.02401928
#
# Stress axis : x y z
#
# Youngs Moduli (GPa) = 56.41783 104.15632 93.02215
#
# Poissons Ratio (x) = 0.46461 -0.02010
# Poissons Ratio (y) = 0.25166 0.25895
# Poissons Ratio (z) = -0.01219 0.28995
#
# Static dielectric constant tensor:
#      x y z
#    x 4.440930 0.000000 0.647340 
#    y 0.000000 4.028980 0.000000 
#    z 0.647340 0.000000 4.710520 
# 
# 
# High freq. dielectric constant tensor:
#      x y z
#    x 1.911730 0.000000 0.015940 
#    y 0.000000 1.887090 0.000000 
#    z 0.015940 0.000000 1.917680 
# 
# From -- ./inp_files/913.got.cif
#   From: 2010.03.12/outbox.cif.g09.slc.cpg/sg7_cif.got.tgz:913.got - 2010.03.30 08:40:41.
