data_PCOD8052342
_publ_section_title
;
Structure prediction by ZEFSAII (Michael W. Deem and Ramdas Pophale) SiO2 
 PCOD8052342
Probable space group: P M
;
_chemical_formula_sum "Si O2"
_cell_formula_units_Z 16
_cell_length_a 12.335874
_cell_length_b 9.106279
_cell_length_c 12.380440
_cell_angle_alpha 90.000000
_cell_angle_beta 143.768481
_cell_angle_gamma 90.000000
_cell_volume 821.998089
_symmetry_space_group_name_H-M "P M"
_symmetry_group_IT_number 6
_symmetry_cell_setting 'monoclinic'
loop_
_space_group_symop_operation_xyz
x,y,z
x,-y,z
loop_
_atom_site_type_symbol
_atom_site_label
_atom_site_fract_x
_atom_site_fract_y
_atom_site_fract_z
Si Si1 0.887020 0.329315 0.465680
Si Si2 0.875871 0.170895 0.246465
Si Si3 0.248345 0.670999 0.482604
Si Si4 0.372211 0.329527 0.341241
Si Si5 0.779894 0.328835 0.616924
Si Si6 0.505114 0.165689 0.847550
Si Si7 0.233422 0.833785 0.812342
Si Si8 0.139564 0.828794 0.973897
O O1 0.881823 0.500000 0.433574
O O2 0.799378 0.240934 0.295935
O O3 0.778490 0.292263 0.488147
O O4 0.097294 0.279441 0.645674
O O5 0.063442 0.244365 0.360663
O O6 0.912417 0.000000 0.295333
O O7 0.722253 0.197418 0.031017
O O8 0.215535 0.500000 0.476586
O O9 0.300455 0.705416 0.402154
O O10 0.415809 0.722469 0.692134
O O11 0.355387 0.500000 0.297347
O O12 0.583960 0.279638 0.505767
O O13 0.250201 0.239541 0.160628
O O14 0.820078 0.500000 0.669031
O O15 0.936282 0.238982 0.804558
O O16 0.425495 0.183705 0.905123
O O17 0.469266 0.000000 0.777260
O O18 0.155925 0.000000 0.738433
O O19 0.252464 0.795360 0.954456
O O20 0.117331 0.000000 0.978105
#
# Coordination Sequence:
#
# PCOD8052342 Si02
#       8
#     2   2   2   2   2   2   2   2
#     4  10  19  33  57  89 120 153 193 239 291 348
#     4  11  23  38  59  87 120 157 193 238 298 354
#     4  11  24  42  62  85 116 155 203 250 290 341
#     4  10  23  42  62  84 116 160 201 241 292 347
#     4   9  20  39  60  85 119 157 195 239 293 347
#     4  10  22  39  60  85 116 157 195 238 297 352
#     4   9  18  35  57  84 120 156 189 236 293 347
#     4  10  21  36  59  91 121 153 195 241 290 348
#
# _framework density 19.464763999999999
#
# number of rings (size 3 to 8) (size 9 to 14) (size 15 to 20)
#    0.000    2.000    1.250    1.500    1.750    4.500 
#    0.000    3.750    0.000    0.000    0.000    0.000 
#    0.000    0.000    0.000    0.000    0.000    0.000 
#
# Total GULP energy -198425.925044 kJ/mol
# GULP energy per Si atom -12401.620315 kJ/mol
# Density = 1.942046 g / cm^3
# Si number density = 19.464764 Si / 1000 Ang^3
#
#
#
# Elastic Constant Matrix: (Units=GPa)
#
#
# Indices 1 2 3 4 5 6 
#
# 1 59.4639 49.0294 47.8779 0.0000 -4.5463 0.0000
# 2 49.0294 105.1430 70.7322 0.0000 -5.2714 0.0000
# 3 47.8779 70.7322 127.5785 0.0000 -4.8002 0.0000
# 4 0.0000 0.0000 0.0000 32.6472 0.0000 -6.2337
# 5 -4.5463 -5.2714 -4.8002 0.0000 22.2871 0.0000
# 6 0.0000 0.0000 0.0000 -6.2337 0.0000 21.3671
#
#
#
# Elastic Compliance Matrix: (Units=1/GPa)
#
#
# Indices 1 2 3 4 5 6 
#
# 1 0.029699 -0.010030 -0.005491 0.000000 0.002503 0.000000
# 2 -0.010030 0.018627 -0.006527 0.000000 0.000954 0.000000
# 3 -0.005491 -0.006527 0.013527 0.000000 0.000250 0.000000
# 4 0.000000 0.000000 0.000000 0.032437 0.000000 0.009463
# 5 0.002503 0.000954 0.000250 0.000000 0.045659 0.000000
# 6 0.000000 0.000000 0.000000 0.009463 0.000000 0.049562
#
#
# Mechanical properties :
#
#
# Convention : Reuss Voigt Hill
#
# Bulk Modulus (GPa) = 56.31389 69.71826 63.01607
# Shear Modulus (GPa) = 20.87465 23.56333 22.21899
#
# Velocity S-wave (km/s) = 3.27835 3.48309 3.38227
# Velocity P-wave (km/s) = 6.58211 7.21605 6.90635
#
# Compressibility (1/GPa) = 0.01775761
#
# Stress axis : x y z
#
# Youngs Moduli (GPa) = 33.67128 53.68657 73.92639
#
# Poissons Ratio (x) = 0.53847 0.40589
# Poissons Ratio (y) = 0.33772 0.48253
# Poissons Ratio (z) = 0.18487 0.35042
#
# Static dielectric constant tensor:
#      x y z
#    x 3.643410 0.000000 -0.034350 
#    y 0.000000 3.612670 0.000000 
#    z -0.034350 0.000000 3.433910 
# 
# 
# High freq. dielectric constant tensor:
#      x y z
#    x 1.757920 0.000000 -0.000960 
#    y 0.000000 1.763090 0.000000 
#    z -0.000960 0.000000 1.754800 
# 
# From -- ./inp_files/4557.got.cif
#   From: 2010.03.12/outbox.cif.g09.slc.cpg/sg6_3_cif.got.tgz:4557.got - 2010.03.30 10:24:59.
