data_PCOD8052517
_publ_section_title
;
Structure prediction by ZEFSAII (Michael W. Deem and Ramdas Pophale) SiO2 
 PCOD8052517
Probable space group: P M
;
_chemical_formula_sum "Si O2"
_cell_formula_units_Z 16
_cell_length_a 9.646125
_cell_length_b 8.604729
_cell_length_c 12.095980
_cell_angle_alpha 90.000000
_cell_angle_beta 127.751890
_cell_angle_gamma 90.000000
_cell_volume 793.827358
_symmetry_space_group_name_H-M "P M"
_symmetry_group_IT_number 6
_symmetry_cell_setting 'monoclinic'
loop_
_space_group_symop_operation_xyz
x,y,z
x,-y,z
loop_
_atom_site_type_symbol
_atom_site_label
_atom_site_fract_x
_atom_site_fract_y
_atom_site_fract_z
Si Si1 0.198970 0.179366 0.404910
Si Si2 0.091232 0.817381 0.587339
Si Si3 0.375086 0.683175 0.882414
Si Si4 0.692970 0.319333 0.878724
Si Si5 0.392569 0.184095 0.134584
Si Si6 0.062129 0.816862 0.113258
Si Si7 0.720000 0.323160 0.424922
Si Si8 0.552717 0.674512 0.572925
O O1 0.157557 0.255492 0.503226
O O2 0.088871 0.253335 0.249851
O O3 0.400895 0.203536 0.473057
O O4 0.152416 0.000000 0.392259
O O5 0.193019 0.729893 0.734969
O O6 0.884977 0.787116 0.486974
O O7 0.129079 0.000000 0.617460
O O8 0.375240 0.500000 0.903118
O O9 0.538784 0.735303 0.885835
O O10 0.391269 0.770678 0.005864
O O11 0.732452 0.500000 0.913987
O O12 0.644057 0.276153 0.730492
O O13 0.868907 0.225203 0.983088
O O14 0.212102 0.246291 0.102744
O O15 0.555940 0.263781 0.274532
O O16 0.412373 0.000000 0.155311
O O17 0.084387 0.000000 0.128649
O O18 0.760461 0.500000 0.408212
O O19 0.689459 0.315295 0.540833
O O20 0.474772 0.500000 0.545514
#
# Coordination Sequence:
#
# PCOD8052517 Si02
#       8
#     2   2   2   2   2   2   2   2
#     4  10  21  40  64  90 120 157 203 254 306 360
#     4  11  24  41  64  94 125 164 207 254 309 367
#     4  11  24  43  64  90 126 165 206 256 308 368
#     4  10  23  41  62  91 123 160 203 251 306 362
#     4  11  24  43  64  90 126 165 206 256 308 368
#     4  10  23  41  62  91 123 160 203 251 306 362
#     4  11  24  41  64  94 125 164 207 254 309 367
#     4  10  21  40  64  90 120 157 203 254 306 360
#
# _framework density 20.155515000000001
#
# number of rings (size 3 to 8) (size 9 to 14) (size 15 to 20)
#    0.000    1.500    2.500    1.500    3.500    4.000 
#    0.000    0.000    0.000    0.000    0.000    0.000 
#    0.000    0.000    0.000    0.000    0.000    0.000 
#
# Total GULP energy -198412.973990 kJ/mol
# GULP energy per Si atom -12400.810874 kJ/mol
# Density = 2.010964 g / cm^3
# Si number density = 20.155515 Si / 1000 Ang^3
#
#
#
# Elastic Constant Matrix: (Units=GPa)
#
#
# Indices 1 2 3 4 5 6 
#
# 1 86.6698 16.1320 47.0546 0.0000 3.4754 0.0000
# 2 16.1320 33.3666 15.1670 0.0000 -3.6403 0.0000
# 3 47.0546 15.1670 131.4022 0.0000 -6.5211 0.0000
# 4 0.0000 0.0000 0.0000 38.6322 0.0000 9.4816
# 5 3.4754 -3.6403 -6.5211 0.0000 40.6795 0.0000
# 6 0.0000 0.0000 0.0000 9.4816 0.0000 33.7584
#
#
#
# Elastic Compliance Matrix: (Units=1/GPa)
#
#
# Indices 1 2 3 4 5 6 
#
# 1 0.015373 -0.005441 -0.005006 0.000000 -0.002603 0.000000
# 2 -0.005441 0.033763 -0.001790 0.000000 0.003199 0.000000
# 3 -0.005006 -0.001790 0.009700 0.000000 0.001822 0.000000
# 4 0.000000 0.000000 0.000000 0.027802 0.000000 -0.007809
# 5 -0.002603 0.003199 0.001822 0.000000 0.025383 0.000000
# 6 0.000000 0.000000 0.000000 -0.007809 0.000000 0.031815
#
#
# Mechanical properties :
#
#
# Convention : Reuss Voigt Hill
#
# Bulk Modulus (GPa) = 29.10175 45.34955 37.22565
# Shear Modulus (GPa) = 27.81411 34.15302 30.98356
#
# Velocity S-wave (km/s) = 3.71883 4.12087 3.92500
# Velocity P-wave (km/s) = 5.73669 6.72240 6.24901
#
# Compressibility (1/GPa) = 0.03436220
#
# Stress axis : x y z
#
# Youngs Moduli (GPa) = 65.04866 29.61797 103.09308
#
# Poissons Ratio (x) = 0.16115 0.51610
# Poissons Ratio (y) = 0.35392 0.18453
# Poissons Ratio (z) = 0.32565 0.05302
#
# Static dielectric constant tensor:
#      x y z
#    x 3.797890 0.000000 -0.255520 
#    y 0.000000 3.545660 0.000000 
#    z -0.255520 0.000000 3.994150 
# 
# 
# High freq. dielectric constant tensor:
#      x y z
#    x 1.795120 0.000000 -0.008750 
#    y 0.000000 1.779920 0.000000 
#    z -0.008750 0.000000 1.801700 
# 
# From -- ./inp_files/2709.got.cif
#   From: 2010.03.12/outbox.cif.g09.slc.cpg/sg6_2_cif.got.tgz:2709.got - 2010.03.30 10:24:59.
