data_PCOD8052588
_publ_section_title
;
Structure prediction by ZEFSAII (Michael W. Deem and Ramdas Pophale) SiO2 
 PCOD8052588
Probable space group: P C
;
_chemical_formula_sum "Si O2"
_cell_formula_units_Z 16
_cell_length_a 10.070809
_cell_length_b 17.149772
_cell_length_c 5.273135
_cell_angle_alpha 90.000000
_cell_angle_beta 51.882352
_cell_angle_gamma 90.000000
_cell_volume 716.515437
_symmetry_space_group_name_H-M "P C"
_symmetry_group_IT_number 7
_symmetry_cell_setting 'monoclinic'
loop_
_space_group_symop_operation_xyz
x,y,z
x,-y,1/2+z
loop_
_atom_site_type_symbol
_atom_site_label
_atom_site_fract_x
_atom_site_fract_y
_atom_site_fract_z
Si Si1 0.745390 0.289958 0.916730
Si Si2 0.251760 0.046838 0.871230
Si Si3 0.740052 0.468269 0.080774
Si Si4 0.362301 0.469542 0.135767
Si Si5 0.747032 0.780904 0.912857
Si Si6 0.855333 0.046715 0.340002
Si Si7 0.363643 0.709334 0.788441
Si Si8 0.360606 0.219572 0.793980
O O1 0.833512 0.267088 0.544580
O O2 0.752344 0.380637 0.970870
O O3 0.835774 0.243027 0.041291
O O4 0.554275 0.260614 0.102470
O O5 0.348668 0.128110 0.758330
O O6 0.307346 0.001501 0.552823
O O7 0.053517 0.063766 0.105242
O O8 0.828689 0.480574 0.250847
O O9 0.548913 0.497233 0.354232
O O10 0.270959 0.519404 0.469617
O O11 0.359648 0.381506 0.232162
O O12 0.757578 0.872280 0.951640
O O13 0.554016 0.753953 0.102828
O O14 0.799759 0.002204 0.659754
O O15 0.272338 0.755718 0.664607
O O16 0.275000 0.732340 0.160721
#
# Coordination Sequence:
#
# PCOD8052588 Si02
#       8
#     2   2   2   2   2   2   2   2
#     4  10  18  29  43  68 107 139 162 198 255 296
#     4  10  21  38  58  76  97 129 173 214 247 296
#     4  10  17  24  41  63  95 143 167 201 234 297
#     4  10  17  24  41  63  95 143 167 201 234 297
#     4  10  21  32  49  75 106 136 157 208 254 309
#     4  10  21  38  58  76  97 129 173 214 247 296
#     4  10  18  29  43  68 107 139 162 198 255 296
#     4  10  21  32  49  75 106 136 157 208 254 309
#
# _framework density 22.330295
#
# number of rings (size 3 to 8) (size 9 to 14) (size 15 to 20)
#    0.000    2.000    2.500    3.000    7.000    1.000 
#    0.000    0.000    0.000    0.000    0.000    0.000 
#    0.000   20.000    0.000    0.000    0.000    0.000 
#
# Total GULP energy -198241.301154 kJ/mol
# GULP energy per Si atom -12390.081322 kJ/mol
# Density = 2.227947 g / cm^3
# Si number density = 22.330295 Si / 1000 Ang^3
#
#
#
# Elastic Constant Matrix: (Units=GPa)
#
#
# Indices 1 2 3 4 5 6 
#
# 1 59.2108 41.8085 65.7042 0.0000 54.7507 0.0000
# 2 41.8085 154.4515 50.0626 0.0000 45.2158 0.0000
# 3 65.7042 50.0626 103.4053 0.0000 78.5646 0.0000
# 4 0.0000 0.0000 0.0000 30.0968 0.0000 28.2013
# 5 54.7507 45.2158 78.5646 0.0000 63.0001 0.0000
# 6 0.0000 0.0000 0.0000 28.2013 0.0000 16.5602
#
#
#
# Elastic Compliance Matrix: (Units=1/GPa)
#
#
# Indices 1 2 3 4 5 6 
#
# 1 0.096078 0.000405 0.045990 0.000000 -0.141141 0.000000
# 2 0.000405 0.008725 0.010351 0.000000 -0.019522 0.000000
# 3 0.045990 0.010351 0.217975 0.000000 -0.319224 0.000000
# 4 0.000000 0.000000 0.000000 -0.055777 0.000000 0.094985
# 5 -0.141141 -0.019522 -0.319224 0.000000 0.550634 0.000000
# 6 0.000000 0.000000 0.000000 0.094985 0.000000 -0.101369
#
#
# Mechanical properties :
#
#
# Convention : Reuss Voigt Hill
#
# Bulk Modulus (GPa) = 2.29215 70.24646 36.26931
# Shear Modulus (GPa) = 6.68274 32.56424 19.62349
#
# Velocity S-wave (km/s) = 1.73181 3.82291 2.96764
# Velocity P-wave (km/s) = 2.24223 7.14230 5.29339
#
# Compressibility (1/GPa) = 0.43627096
#
# Stress axis : x y z
#
# Youngs Moduli (GPa) = 10.40818 114.61335 4.58769
#
# Poissons Ratio (x) = -0.04637 -0.21099
# Poissons Ratio (y) = -0.00421 -0.04749
# Poissons Ratio (z) = -0.47868 -1.18642
#
# Static dielectric constant tensor:
#      x y z
#    x 15.198450 0.000000 14.861470 
#    y 0.000000 3.798130 0.000000 
#    z 14.861470 0.000000 21.671270 
# 
# 
# High freq. dielectric constant tensor:
#      x y z
#    x 1.852200 0.000000 0.066630 
#    y 0.000000 1.881990 0.000000 
#    z 0.066630 0.000000 1.872050 
# 
# From -- ./inp_files/734.got.cif
#   From: 2010.03.12/outbox.cif.g09.slc.cpg/sg7_cif.got.tgz:734.got - 2010.03.30 08:40:41.
