data_PCOD8052881
_publ_section_title
;
Structure prediction by ZEFSAII (Michael W. Deem and Ramdas Pophale) SiO2 
 PCOD8052881
Probable space group: C M
;
_chemical_formula_sum "Si O2"
_cell_formula_units_Z 28
_cell_length_a 8.677126
_cell_length_b 19.056668
_cell_length_c 13.803666
_cell_angle_alpha 90.000000
_cell_angle_beta 138.686416
_cell_angle_gamma 90.000000
_cell_volume 1506.882959
_symmetry_space_group_name_H-M "C M"
_symmetry_group_IT_number 8
_symmetry_cell_setting 'monoclinic'
loop_
_space_group_symop_operation_xyz
x,y,z
x,-y,z
1/2+x,1/2+y,z
1/2+x,1/2-y,z
loop_
_atom_site_type_symbol
_atom_site_label
_atom_site_fract_x
_atom_site_fract_y
_atom_site_fract_z
Si Si1 0.086230 0.710773 0.865970
Si Si2 0.302756 0.192172 0.380540
Si Si3 0.868557 0.419805 0.256743
Si Si4 0.764491 0.182548 0.141434
Si Si5 0.559214 0.683568 0.005246
Si Si6 0.813773 0.920180 0.336865
Si Si7 0.175008 0.812032 0.532936
O O1 0.278713 0.686621 0.879396
O O2 0.120580 0.791340 0.923543
O O3 0.830857 0.704456 0.699444
O O4 0.114382 0.660872 0.974435
O O5 0.387126 0.121274 0.366962
O O6 0.335171 0.187104 0.512373
O O7 0.459049 0.257553 0.417188
O O8 0.027556 0.197601 0.230452
O O9 0.800491 0.500000 0.246354
O O10 0.120509 0.413629 0.327620
O O11 0.672288 0.390298 0.088939
O O12 0.732426 0.121383 0.203113
O O13 0.666547 0.258464 0.132265
O O14 0.055138 0.887903 0.491163
O O15 0.859134 0.000000 0.327923
#
# Coordination Sequence:
#
# PCOD8052881 Si02
#       7
#     4   4   4   4   4   4   4
#     4  10  21  34  58  86 114 146 185 233 289 334
#     4  11  21  35  59  85 117 146 192 236 278 333
#     4  11  21  36  59  86 111 147 193 242 282 327
#     4   9  20  35  60  85 113 146 192 241 278 331
#     4  10  18  34  56  86 111 143 185 239 280 331
#     4  10  21  37  59  82 113 150 194 237 284 338
#     4  11  22  37  57  88 115 154 187 232 289 340
#
# _framework density 18.581403000000002
#
# number of rings (size 3 to 8) (size 9 to 14) (size 15 to 20)
#    0.857    0.857    1.429    5.143    0.000    2.286 
#    0.000    1.429    0.000    2.571    0.000    0.000 
#    0.000    0.000    0.000    0.000    0.000    0.000 
#
# Total GULP energy -173449.503322 kJ/mol
# GULP energy per Si atom -12389.250237 kJ/mol
# Density = 1.853911 g / cm^3
# Si number density = 18.581403 Si / 1000 Ang^3
#
#
#
# Elastic Constant Matrix: (Units=GPa)
#
#
# Indices 1 2 3 4 5 6 
#
# 1 79.3182 41.0630 13.5711 -0.0004 -1.5386 -0.0003
# 2 41.0630 121.0499 35.8933 -0.0004 1.0542 -0.0002
# 3 13.5711 35.8933 102.8204 0.0001 -11.2819 0.0001
# 4 -0.0004 -0.0004 0.0001 15.4240 0.0001 0.4996
# 5 -1.5386 1.0542 -11.2819 0.0001 24.5021 -0.0001
# 6 -0.0003 -0.0002 0.0001 0.4996 -0.0001 28.7632
#
#
#
# Elastic Compliance Matrix: (Units=1/GPa)
#
#
# Indices 1 2 3 4 5 6 
#
# 1 0.015328 -0.005184 -0.000088 0.000000 0.001145 0.000000
# 2 -0.005184 0.011060 -0.003438 0.000000 -0.002384 0.000000
# 3 -0.000088 -0.003438 0.011536 0.000000 0.005454 0.000000
# 4 0.000000 0.000000 0.000000 0.064871 0.000000 -0.001127
# 5 0.001145 -0.002384 0.005454 0.000000 0.043499 0.000000
# 6 0.000000 0.000000 0.000000 -0.001127 0.000000 0.034786
#
#
# Mechanical properties :
#
#
# Convention : Reuss Voigt Hill
#
# Bulk Modulus (GPa) = 48.77028 53.80481 51.28755
# Shear Modulus (GPa) = 24.35056 27.91525 26.13290
#
# Velocity S-wave (km/s) = 3.62398 3.88018 3.75427
# Velocity P-wave (km/s) = 6.61928 7.00668 6.81573
#
# Compressibility (1/GPa) = 0.02050429
#
# Stress axis : x y z
#
# Youngs Moduli (GPa) = 65.23896 90.41820 86.68509
#
# Poissons Ratio (x) = 0.46869 0.00763
# Poissons Ratio (y) = 0.33817 0.29805
# Poissons Ratio (z) = 0.00574 0.31088
#
# Static dielectric constant tensor:
#      x y z
#    x 3.560160 0.000000 -0.013880 
#    y 0.000000 3.273550 0.000000 
#    z -0.013880 0.000000 3.215400 
# 
# 
# High freq. dielectric constant tensor:
#      x y z
#    x 1.737930 0.000000 0.000760 
#    y 0.000000 1.690220 0.000000 
#    z 0.000760 0.000000 1.710480 
# 
# From -- ./inp_files/25514.got.cif
#   From: 2010.03.12/outbox.cif.g09.slc.cpg/sg8_13_cif.got.tgz:25514.got - 2010.03.31 10:45:26.
