data_PCOD8052699
_publ_section_title
;
Structure prediction by ZEFSAII (Michael W. Deem and Ramdas Pophale) SiO2 
 PCOD8052699
Probable space group: C M
;
_chemical_formula_sum "Si O2"
_cell_formula_units_Z 32
_cell_length_a 23.138706
_cell_length_b 9.083704
_cell_length_c 11.388878
_cell_angle_alpha 90.000000
_cell_angle_beta 48.688009
_cell_angle_gamma 90.000000
_cell_volume 1798.025192
_symmetry_space_group_name_H-M "C M"
_symmetry_group_IT_number 8
_symmetry_cell_setting 'monoclinic'
loop_
_space_group_symop_operation_xyz
x,y,z
x,-y,z
1/2+x,1/2+y,z
1/2+x,1/2-y,z
loop_
_atom_site_type_symbol
_atom_site_label
_atom_site_fract_x
_atom_site_fract_y
_atom_site_fract_z
Si Si1 0.069110 0.330690 0.648830
Si Si2 0.045983 0.173141 0.203509
Si Si3 0.425564 0.326098 0.940813
Si Si4 0.355765 0.171450 0.827091
Si Si5 0.981534 0.332841 0.079875
Si Si6 0.153213 0.662515 0.750706
Si Si7 0.014024 0.665860 0.480341
Si Si8 0.709189 0.672423 0.883595
O O1 0.040318 0.500000 0.713876
O O2 0.148325 0.301513 0.616440
O O3 0.006770 0.212245 0.773058
O O4 0.079239 0.313703 0.494774
O O5 0.984161 0.253154 0.202722
O O6 0.030465 0.217299 0.357722
O O7 0.035602 0.000000 0.202194
O O8 0.132430 0.223143 0.054365
O O9 0.415440 0.500000 0.967072
O O10 0.359487 0.260242 0.944674
O O11 0.421530 0.252167 0.075558
O O12 0.430892 0.197824 0.647473
O O13 0.282780 0.235229 0.853690
O O14 0.345491 0.000000 0.871315
O O15 0.953418 0.500000 0.135229
O O16 0.065488 0.325164 0.910488
O O17 0.186458 0.500000 0.727189
O O18 0.208013 0.770179 0.750549
O O19 0.017525 0.500000 0.424393
O O20 0.715803 0.500000 0.865059
#
# Coordination Sequence:
#
# PCOD8052699 Si02
#       8
#     4   4   4   4   4   4   4   4
#     4   8  15  28  44  63  89 122 156 186 221 271
#     4  10  19  30  46  71  98 119 148 192 235 270
#     4  10  17  25  42  69  94 114 146 194 238 266
#     4   9  18  33  49  65  90 125 161 188 219 273
#     4   9  16  28  45  64  89 122 155 184 222 273
#     4   8  14  25  43  66  89 113 147 190 228 264
#     4   9  17  30  48  67  89 121 158 190 224 273
#     4   9  18  31  47  67  92 122 153 188 227 268
#
# _framework density 17.797302999999999
#
# number of rings (size 3 to 8) (size 9 to 14) (size 15 to 20)
#    0.000    3.000    0.000    3.375    0.000    6.000 
#    0.000    0.000    0.000    1.500    0.000    8.750 
#    0.000    0.000    0.000    0.000    0.000    0.000 
#
# Total GULP energy -198281.309974 kJ/mol
# GULP energy per Si atom -12392.581873 kJ/mol
# Density = 1.775680 g / cm^3
# Si number density = 17.797303 Si / 1000 Ang^3
#
#
#
# Elastic Constant Matrix: (Units=GPa)
#
#
# Indices 1 2 3 4 5 6 
#
# 1 167.1890 59.9266 39.5753 0.0000 33.2623 0.0000
# 2 59.9266 84.0815 26.9291 0.0000 15.6573 0.0000
# 3 39.5753 26.9291 40.6094 0.0000 21.5197 0.0000
# 4 0.0000 0.0000 0.0000 20.1237 0.0000 9.9096
# 5 33.2623 15.6573 21.5197 0.0000 26.7623 0.0000
# 6 0.0000 0.0000 0.0000 9.9096 0.0000 32.1941
#
#
#
# Elastic Compliance Matrix: (Units=1/GPa)
#
#
# Indices 1 2 3 4 5 6 
#
# 1 0.009734 -0.004797 -0.002407 0.000000 -0.007356 0.000000
# 2 -0.004797 0.017493 -0.008122 0.000000 0.002259 0.000000
# 3 -0.002407 -0.008122 0.049231 0.000000 -0.031843 0.000000
# 4 0.000000 0.000000 0.000000 0.058570 0.000000 -0.018028
# 5 -0.007356 0.002259 -0.031843 0.000000 0.070793 0.000000
# 6 0.000000 0.000000 0.000000 -0.018028 0.000000 0.036611
#
#
# Mechanical properties :
#
#
# Convention : Reuss Voigt Hill
#
# Bulk Modulus (GPa) = 21.83136 60.52689 41.17912
# Shear Modulus (GPa) = 17.33992 26.84594 22.09293
#
# Velocity S-wave (km/s) = 3.12476 3.88806 3.52712
# Velocity P-wave (km/s) = 5.03112 7.36471 6.30678
#
# Compressibility (1/GPa) = 0.04580567
#
# Stress axis : x y z
#
# Youngs Moduli (GPa) = 102.73411 57.16671 20.31243
#
# Poissons Ratio (x) = 0.27422 0.04889
# Poissons Ratio (y) = 0.49279 0.16498
# Poissons Ratio (z) = 0.24728 0.46432
#
# Static dielectric constant tensor:
#      x y z
#    x 3.757970 0.000000 0.365790 
#    y 0.000000 3.224590 0.000000 
#    z 0.365790 0.000000 2.843400 
# 
# 
# High freq. dielectric constant tensor:
#      x y z
#    x 1.700810 0.000000 0.038260 
#    y 0.000000 1.687280 0.000000 
#    z 0.038260 0.000000 1.627830 
# 
# From -- ./inp_files/23719.got.cif
#   From: 2010.03.12/outbox.cif.g09.slc.cpg/sg8_12_cif.got.tgz:23719.got - 2010.03.31 10:45:26.
