data_PCOD8052518
_publ_section_title
;
Structure prediction by ZEFSAII (Michael W. Deem and Ramdas Pophale) SiO2 
 PCOD8052518
Probable space group: P M
;
_chemical_formula_sum "Si O2"
_cell_formula_units_Z 13
_cell_length_a 7.731484
_cell_length_b 12.028082
_cell_length_c 6.834630
_cell_angle_alpha 90.000000
_cell_angle_beta 102.796297
_cell_angle_gamma 90.000000
_cell_volume 619.800274
_symmetry_space_group_name_H-M "P M"
_symmetry_group_IT_number 6
_symmetry_cell_setting 'monoclinic'
loop_
_space_group_symop_operation_xyz
x,y,z
x,-y,z
loop_
_atom_site_type_symbol
_atom_site_label
_atom_site_fract_x
_atom_site_fract_y
_atom_site_fract_z
Si Si1 0.068580 0.372950 0.226860
Si Si2 0.448831 0.377161 0.203171
Si Si3 0.967304 0.000000 0.677302
Si Si4 0.886404 0.217059 0.881775
Si Si5 0.593347 0.000000 0.365678
Si Si6 0.532730 0.831029 0.013308
Si Si7 0.816263 0.373714 0.511594
Si Si8 0.356631 0.000000 0.689705
O O1 0.010588 0.500000 0.160831
O O2 0.280765 0.363779 0.306592
O O3 0.970509 0.335582 0.400330
O O4 0.023381 0.290050 0.039520
O O5 0.445518 0.500000 0.105901
O O6 0.625935 0.359405 0.368162
O O7 0.444762 0.289347 0.025248
O O8 0.977736 0.892593 0.819144
O O9 0.795929 0.000000 0.493920
O O10 0.146338 0.000000 0.591761
O O11 0.728220 0.177306 0.978073
O O12 0.811611 0.292788 0.691694
O O13 0.460083 0.000000 0.513169
O O14 0.552603 0.891671 0.227089
O O15 0.406913 0.892361 0.828820
O O16 0.849819 0.500000 0.588887
#
# Coordination Sequence:
#
# PCOD8052518 Si02
#       8
#     2   2   1   2   1   2   2   1
#     4  10  22  41  64  93 128 165 208 256 305 365
#     4  10  21  40  64  93 129 167 207 252 307 367
#     4  12  25  42  65  93 124 164 213 253 314 367
#     4  12  23  42  66  92 127 165 206 259 310 368
#     4  11  24  47  63  89 126 161 206 266 306 369
#     4  11  23  43  67  91 128 165 205 256 313 368
#     4  10  22  41  64  92 126 165 206 255 311 365
#     4  11  25  45  64  92 124 163 209 261 308 368
#
# _framework density 20.974498000000001
#
# number of rings (size 3 to 8) (size 9 to 14) (size 15 to 20)
#    0.000    1.231    3.077    2.769    0.000    1.846 
#    8.308    0.000    0.000    0.000    0.000    0.000 
#    0.000    0.000    0.000    0.000    0.000    0.000 
#
# Total GULP energy -161222.206074 kJ/mol
# GULP energy per Si atom -12401.708160 kJ/mol
# Density = 2.092676 g / cm^3
# Si number density = 20.974498 Si / 1000 Ang^3
#
#
#
# Elastic Constant Matrix: (Units=GPa)
#
#
# Indices 1 2 3 4 5 6 
#
# 1 162.1434 34.8095 44.5165 0.0000 -19.0257 0.0000
# 2 34.8095 123.6763 53.6802 0.0000 -10.5938 0.0000
# 3 44.5165 53.6802 95.9883 0.0000 -26.4837 0.0000
# 4 0.0000 0.0000 0.0000 130.7035 0.0000 -75.8691
# 5 -19.0257 -10.5938 -26.4837 0.0000 10.6553 0.0000
# 6 0.0000 0.0000 0.0000 -75.8691 0.0000 66.0670
#
#
#
# Elastic Compliance Matrix: (Units=1/GPa)
#
#
# Indices 1 2 3 4 5 6 
#
# 1 0.008059 -0.001679 0.002263 0.000000 0.018346 0.000000
# 2 -0.001679 0.011669 -0.010735 0.000000 -0.018078 0.000000
# 3 0.002263 -0.010735 0.043094 0.000000 0.100479 0.000000
# 4 0.000000 0.000000 0.000000 0.022947 0.000000 0.026352
# 5 0.018346 -0.018078 0.100479 0.000000 0.358374 0.000000
# 6 0.000000 0.000000 0.000000 0.026352 0.000000 0.045398
#
#
# Mechanical properties :
#
#
# Convention : Reuss Voigt Hill
#
# Bulk Modulus (GPa) = 23.51785 71.98005 47.74895
# Shear Modulus (GPa) = 9.54168 58.07195 33.80682
#
# Velocity S-wave (km/s) = 2.13520 5.26755 4.01909
# Velocity P-wave (km/s) = 4.16121 8.44917 6.65973
#
# Compressibility (1/GPa) = 0.04252090
#
# Stress axis : x y z
#
# Youngs Moduli (GPa) = 124.08203 85.69704 23.20496
#
# Poissons Ratio (x) = 0.14390 -0.05251
# Poissons Ratio (y) = 0.20835 0.24910
# Poissons Ratio (z) = -0.28081 0.91993
#
# Static dielectric constant tensor:
#      x y z
#    x 3.894920 0.000000 -0.114120 
#    y 0.000000 4.255180 0.000000 
#    z -0.114120 0.000000 3.577240 
# 
# 
# High freq. dielectric constant tensor:
#      x y z
#    x 1.835200 0.000000 -0.009430 
#    y 0.000000 1.842820 0.000000 
#    z -0.009430 0.000000 1.801520 
# 
# From -- ./inp_files/1013.got.cif
#   From: 2010.03.12/outbox.cif.g09.slc.cpg/sg6_1_cif.got.tgz:1013.got - 2010.03.30 10:24:59.
