data_PCOD8052610
_publ_section_title
;
Structure prediction by ZEFSAII (Michael W. Deem and Ramdas Pophale) SiO2 
 PCOD8052610
Probable space group: P C
;
_chemical_formula_sum "Si O2"
_cell_formula_units_Z 16
_cell_length_a 8.519186
_cell_length_b 12.875825
_cell_length_c 5.375640
_cell_angle_alpha 90.000000
_cell_angle_beta 97.379969
_cell_angle_gamma 90.000000
_cell_volume 584.777588
_symmetry_space_group_name_H-M "P C"
_symmetry_group_IT_number 7
_symmetry_cell_setting 'monoclinic'
loop_
_space_group_symop_operation_xyz
x,y,z
x,-y,1/2+z
loop_
_atom_site_type_symbol
_atom_site_label
_atom_site_fract_x
_atom_site_fract_y
_atom_site_fract_z
Si Si1 0.761130 0.288186 0.718370
Si Si2 0.851368 0.390093 0.226426
Si Si3 0.196666 0.551590 0.802682
Si Si4 0.543506 0.464550 0.667014
Si Si5 0.696667 0.051589 0.802683
Si Si6 0.351373 0.109908 0.726449
Si Si7 0.043512 0.035449 0.167019
Si Si8 0.261136 0.788187 0.718382
O O1 0.837961 0.317747 0.468718
O O2 0.587631 0.343993 0.706217
O O3 0.739416 0.166339 0.722097
O O4 0.864834 0.320559 0.979222
O O5 0.706386 0.470087 0.163814
O O6 0.007030 0.460082 0.280001
O O7 0.259708 0.471949 0.598357
O O8 0.239422 0.666341 0.722099
O O9 0.450955 0.485056 0.385261
O O10 0.507030 0.039915 0.779999
O O11 0.759710 0.971948 0.598358
O O12 0.364824 0.179443 0.479245
O O13 0.206386 0.029918 0.663864
O O14 0.337981 0.182253 0.968746
O O15 0.087641 0.156005 0.206199
O O16 0.950957 0.985067 0.385275
#
# Coordination Sequence:
#
# PCOD8052610 Si02
#       8
#     2   2   2   2   2   2   2   2
#     4  10  20  34  56  84 116 148 188 242 293 336
#     4  10  19  36  59  84 111 148 196 244 284 340
#     4  12  23  37  60  91 118 153 199 242 288 348
#     4   8  14  27  49  73  99 131 175 226 269 312
#     4  12  23  37  60  91 118 153 199 242 288 348
#     4  10  19  36  59  84 111 148 196 244 284 340
#     4   8  14  27  49  73  99 131 175 226 269 312
#     4  10  20  34  56  84 116 148 188 242 293 336
#
# _framework density 27.360828000000001
#
# number of rings (size 3 to 8) (size 9 to 14) (size 15 to 20)
#    0.000    2.000    0.000    7.500    0.000    0.000 
#    0.000    0.000    0.000   27.000    0.000    0.000 
#    0.000    0.000    0.000    0.000    0.000    0.000 
#
# Total GULP energy -198433.928371 kJ/mol
# GULP energy per Si atom -12402.120523 kJ/mol
# Density = 2.729855 g / cm^3
# Si number density = 27.360828 Si / 1000 Ang^3
#
#
#
# Elastic Constant Matrix: (Units=GPa)
#
#
# Indices 1 2 3 4 5 6 
#
# 1 94.0050 15.7961 45.8658 0.0000 -1.4806 0.0000
# 2 15.7961 158.9521 76.2113 0.0000 -7.5208 0.0000
# 3 45.8658 76.2113 273.8952 0.0000 -0.3469 0.0000
# 4 0.0000 0.0000 0.0000 50.9257 0.0000 -5.9469
# 5 -1.4806 -7.5208 -0.3469 0.0000 42.8301 0.0000
# 6 0.0000 0.0000 0.0000 -5.9469 0.0000 31.0291
#
#
#
# Elastic Compliance Matrix: (Units=1/GPa)
#
#
# Indices 1 2 3 4 5 6 
#
# 1 0.011598 -0.000237 -0.001876 0.000000 0.000344 0.000000
# 2 -0.000237 0.007333 -0.001999 0.000000 0.001263 0.000000
# 3 -0.001876 -0.001999 0.004521 0.000000 -0.000379 0.000000
# 4 0.000000 0.000000 0.000000 0.020086 0.000000 0.003850
# 5 0.000344 0.001263 -0.000379 0.000000 0.023579 0.000000
# 6 0.000000 0.000000 0.000000 0.003850 0.000000 0.032966
#
#
# Mechanical properties :
#
#
# Convention : Reuss Voigt Hill
#
# Bulk Modulus (GPa) = 65.66691 89.17763 77.42227
# Shear Modulus (GPa) = 44.09852 50.88891 47.49371
#
# Velocity S-wave (km/s) = 4.01900 4.31736 4.17085
# Velocity P-wave (km/s) = 6.75196 7.58398 7.18003
#
# Compressibility (1/GPa) = 0.01522837
#
# Stress axis : x y z
#
# Youngs Moduli (GPa) = 86.22024 136.36925 221.19309
#
# Poissons Ratio (x) = 0.03231 0.41492
# Poissons Ratio (y) = 0.02043 0.44220
# Poissons Ratio (z) = 0.16174 0.27262
#
# Static dielectric constant tensor:
#      x y z
#    x 5.362100 0.000000 0.168330 
#    y 0.000000 4.650760 0.000000 
#    z 0.168330 0.000000 6.428660 
# 
# 
# High freq. dielectric constant tensor:
#      x y z
#    x 2.143610 0.000000 0.004840 
#    y 0.000000 2.081720 0.000000 
#    z 0.004840 0.000000 2.160240 
# 
# From -- ./inp_files/576.got.cif
#   From: 2010.03.12/outbox.cif.g09.slc.cpg/sg7_cif.got.tgz:576.got - 2010.03.30 08:40:41.
