data_PCOD8052110
_publ_section_title
;
Structure prediction by ZEFSAII (Michael W. Deem and Ramdas Pophale) SiO2 
 PCOD8052110
Probable space group: C 2
;
_chemical_formula_sum "Si O2"
_cell_formula_units_Z 30
_cell_length_a 10.938055
_cell_length_b 14.597804
_cell_length_c 8.923480
_cell_angle_alpha 90.000000
_cell_angle_beta 73.582650
_cell_angle_gamma 90.000000
_cell_volume 1366.733782
_symmetry_space_group_name_H-M "C 2"
_symmetry_group_IT_number 5
_symmetry_cell_setting 'monoclinic'
loop_
_space_group_symop_operation_xyz
x,y,z
-x,y,-z
1/2+x,1/2+y,z
1/2-x,1/2+y,-z
loop_
_atom_site_type_symbol
_atom_site_label
_atom_site_fract_x
_atom_site_fract_y
_atom_site_fract_z
Si Si1 0.644093 0.370890 0.965144
Si Si2 0.846512 0.053435 0.856705
Si Si3 0.602184 0.640982 0.721403
Si Si4 0.199445 0.689797 0.096021
Si Si5 0.259723 0.523939 0.558787
Si Si6 0.941353 0.676064 0.360119
Si Si7 0.500000 0.769114 0.500000
Si Si8 0.242712 0.849463 0.620207
O O1 0.692318 0.401710 0.784842
O O2 0.500000 0.338305 0.000000
O O3 0.659675 0.454018 0.071911
O O4 0.722764 0.286332 0.006268
O O5 0.840221 0.043620 0.679859
O O6 0.979790 0.102160 0.852596
O O7 0.728997 0.111757 0.962729
O O8 0.702190 0.685290 0.800847
O O9 0.668709 0.558510 0.612539
O O10 0.562111 0.714523 0.613805
O O11 0.053052 0.678824 0.198453
O O12 0.123799 0.575455 0.622262
O O13 0.253964 0.414518 0.528999
O O14 0.837214 0.755901 0.372766
O O15 0.000000 0.695098 0.500000
O O16 0.388457 0.828716 0.610230
#
# Coordination Sequence:
#
# PCOD8052110 Si02
#       8
#     4   4   4   4   4   4   2   4
#     4  12  26  45  71 104 143 187 234 291 357 419
#     4  12  27  45  71 106 143 187 237 295 353 423
#     4  12  23  47  72 103 141 188 236 290 352 427
#     4  12  26  45  77 105 144 184 242 298 359 420
#     4  12  26  44  73 105 140 190 239 292 350 427
#     4  12  25  47  74 102 141 187 237 296 359 423
#     4  12  24  46  74 100 138 190 232 288 354 424
#     4  12  27  45  71 103 143 184 241 293 353 426
#
# _framework density 21.950140000000001
#
# number of rings (size 3 to 8) (size 9 to 14) (size 15 to 20)
#    0.000    0.000    5.333    4.400    4.667    0.000 
#    0.000    0.000    2.933    0.000    0.000    0.000 
#    0.000    0.000    0.000    0.000    0.000    0.000 
#
# Total GULP energy -186031.026219 kJ/mol
# GULP energy per Si atom -12402.068415 kJ/mol
# Density = 2.190018 g / cm^3
# Si number density = 21.950140 Si / 1000 Ang^3
#
#
#
# Elastic Constant Matrix: (Units=GPa)
#
#
# Indices 1 2 3 4 5 6 
#
# 1 118.2013 50.4956 45.9219 0.0000 -12.9544 0.0000
# 2 50.4956 108.7741 47.9026 0.0000 3.3162 0.0000
# 3 45.9219 47.9026 110.7439 0.0000 0.9428 0.0000
# 4 0.0000 0.0000 0.0000 43.1818 0.0000 0.2984
# 5 -12.9544 3.3162 0.9428 0.0000 41.6208 0.0000
# 6 0.0000 0.0000 0.0000 0.2984 0.0000 34.6964
#
#
#
# Elastic Compliance Matrix: (Units=1/GPa)
#
#
# Indices 1 2 3 4 5 6 
#
# 1 0.011971 -0.004301 -0.003139 0.000000 0.004140 0.000000
# 2 -0.004301 0.012928 -0.003789 0.000000 -0.002283 0.000000
# 3 -0.003139 -0.003789 0.011978 0.000000 -0.000946 0.000000
# 4 0.000000 0.000000 0.000000 0.023159 0.000000 -0.000199
# 5 0.004140 -0.002283 -0.000946 0.000000 0.025518 0.000000
# 6 0.000000 0.000000 0.000000 -0.000199 0.000000 0.028823
#
#
# Mechanical properties :
#
#
# Convention : Reuss Voigt Hill
#
# Bulk Modulus (GPa) = 69.35039 69.59551 69.47295
# Shear Modulus (GPa) = 35.30015 36.79309 36.04662
#
# Velocity S-wave (km/s) = 4.01458 4.09860 4.05681
# Velocity P-wave (km/s) = 7.29056 7.36023 7.32548
#
# Compressibility (1/GPa) = 0.01441953
#
# Stress axis : x y z
#
# Youngs Moduli (GPa) = 83.53784 77.34942 83.48327
#
# Poissons Ratio (x) = 0.33268 0.26202
# Poissons Ratio (y) = 0.35930 0.31634
# Poissons Ratio (z) = 0.26220 0.29310
#
# Static dielectric constant tensor:
#      x y z
#    x 2.555060 0.000000 1.046630 
#    y 0.000000 3.921750 0.000000 
#    z 1.046630 0.000000 3.331210 
# 
# 
# High freq. dielectric constant tensor:
#      x y z
#    x 1.868620 0.000000 -0.002080 
#    y 0.000000 1.864320 0.000000 
#    z -0.002080 0.000000 1.882090 
# 
# From -- ./inp_files/20606.got.cif
#   From: 2010.03.12/outbox.cif.g09.slc.cpg/sg5_11_cif.got.tgz:20606.got - 2010.03.31 09:47:26.
