data_PCOD8052406
_publ_section_title
;
Structure prediction by ZEFSAII (Michael W. Deem and Ramdas Pophale) SiO2 
 PCOD8052406
Probable space group: P M
;
_chemical_formula_sum "Si O2"
_cell_formula_units_Z 16
_cell_length_a 16.017843
_cell_length_b 8.870131
_cell_length_c 20.341996
_cell_angle_alpha 90.000000
_cell_angle_beta 161.989601
_cell_angle_gamma 90.000000
_cell_volume 893.619244
_symmetry_space_group_name_H-M "P M"
_symmetry_group_IT_number 6
_symmetry_cell_setting 'monoclinic'
loop_
_space_group_symop_operation_xyz
x,y,z
x,-y,z
loop_
_atom_site_type_symbol
_atom_site_label
_atom_site_fract_x
_atom_site_fract_y
_atom_site_fract_z
Si Si1 0.928830 0.822346 0.176790
Si Si2 0.549239 0.177002 0.644572
Si Si3 0.530431 0.179615 0.990077
Si Si4 0.531676 0.676047 0.495535
Si Si5 0.930977 0.821462 0.540087
Si Si6 0.904849 0.823192 0.669363
Si Si7 0.517027 0.821217 0.125652
Si Si8 0.911188 0.676811 0.027375
O O1 0.823382 0.743277 0.031849
O O2 0.237443 0.779982 0.424205
O O3 0.892879 0.000000 0.140222
O O4 0.747919 0.758295 0.101095
O O5 0.636317 0.237358 0.638424
O O6 0.598200 0.000000 0.683089
O O7 0.731366 0.251711 0.836164
O O8 0.230685 0.238342 0.747017
O O9 0.534533 0.000000 0.993242
O O10 0.599424 0.239436 0.115031
O O11 0.564471 0.500000 0.533623
O O12 0.708410 0.725024 0.566367
O O13 0.223057 0.718566 0.247864
O O14 0.844033 0.777550 0.548615
O O15 0.718861 0.748466 0.330241
O O16 0.931297 0.000000 0.533992
O O17 0.853786 0.000000 0.643573
O O18 0.211976 0.777045 0.916102
O O19 0.541093 0.000000 0.143341
O O20 0.861023 0.500000 0.990420
#
# Coordination Sequence:
#
# PCOD8052406 Si02
#       8
#     2   2   2   2   2   2   2   2
#     4   9  18  32  51  77 103 128 164 207 247 287
#     4  10  20  34  53  76 101 128 162 207 250 290
#     4   8  14  25  43  69  98 124 155 196 240 286
#     4  10  21  36  52  71  98 132 167 203 246 297
#     4   8  14  25  43  68  98 127 154 193 243 288
#     4   9  17  29  46  70  96 123 161 203 241 286
#     4   8  14  25  42  68  99 126 154 194 244 288
#     4  10  21  36  52  71  99 134 167 201 245 298
#
# _framework density 17.904717999999999
#
# number of rings (size 3 to 8) (size 9 to 14) (size 15 to 20)
#    0.000    3.000    0.000    2.625    0.000    4.000 
#    0.000    5.000    0.000    3.000    0.000    0.000 
#    0.000    0.000    0.000    0.000    0.000    0.000 
#
# Total GULP energy -198361.458986 kJ/mol
# GULP energy per Si atom -12397.591187 kJ/mol
# Density = 1.786397 g / cm^3
# Si number density = 17.904718 Si / 1000 Ang^3
#
#
#
# Elastic Constant Matrix: (Units=GPa)
#
#
# Indices 1 2 3 4 5 6 
#
# 1 149.8647 30.8880 85.0104 0.0000 0.5059 0.0000
# 2 30.8880 39.1952 32.1176 0.0000 -5.5164 0.0000
# 3 85.0104 32.1176 139.0620 0.0000 -26.9045 0.0000
# 4 0.0000 0.0000 0.0000 19.9753 0.0000 -3.1648
# 5 0.5059 -5.5164 -26.9045 0.0000 29.8730 0.0000
# 6 0.0000 0.0000 0.0000 -3.1648 0.0000 5.0537
#
#
#
# Elastic Compliance Matrix: (Units=1/GPa)
#
#
# Indices 1 2 3 4 5 6 
#
# 1 0.012108 -0.004108 -0.008040 0.000000 -0.008205 0.000000
# 2 -0.004108 0.032882 -0.004717 0.000000 0.001894 0.000000
# 3 -0.008040 -0.004717 0.015808 0.000000 0.013502 0.000000
# 4 0.000000 0.000000 0.000000 0.055576 0.000000 0.034804
# 5 -0.008205 0.001894 0.013502 0.000000 0.046124 0.000000
# 6 0.000000 0.000000 0.000000 0.034804 0.000000 0.219671
#
#
# Mechanical properties :
#
#
# Convention : Reuss Voigt Hill
#
# Bulk Modulus (GPa) = 36.94448 69.35045 53.14746
# Shear Modulus (GPa) = 11.76685 22.98747 17.37716
#
# Velocity S-wave (km/s) = 2.56636 3.58701 3.11872
# Velocity P-wave (km/s) = 5.42774 7.48149 6.53579
#
# Compressibility (1/GPa) = 0.02706764
#
# Stress axis : x y z
#
# Youngs Moduli (GPa) = 82.59008 30.41156 63.25923
#
# Poissons Ratio (x) = 0.12493 0.50863
# Poissons Ratio (y) = 0.33928 0.29838
# Poissons Ratio (z) = 0.66406 0.14345
#
# Static dielectric constant tensor:
#      x y z
#    x 3.503510 0.000000 -0.133170 
#    y 0.000000 2.953210 0.000000 
#    z -0.133170 0.000000 3.696070 
# 
# 
# High freq. dielectric constant tensor:
#      x y z
#    x 1.700170 0.000000 -0.003770 
#    y 0.000000 1.656300 0.000000 
#    z -0.003770 0.000000 1.697200 
# 
# From -- ./inp_files/5858.got.cif
#   From: 2010.03.12/outbox.cif.g09.slc.cpg/sg6_3_cif.got.tgz:5858.got - 2010.03.30 10:24:59.
