data_PCOD8052086
_publ_section_title
;
Structure prediction by ZEFSAII (Michael W. Deem and Ramdas Pophale) SiO2 
 PCOD8052086
Probable space group: C 2
;
_chemical_formula_sum "Si O2"
_cell_formula_units_Z 22
_cell_length_a 14.230732
_cell_length_b 5.759234
_cell_length_c 10.910173
_cell_angle_alpha 90.000000
_cell_angle_beta 99.885950
_cell_angle_gamma 90.000000
_cell_volume 880.899991
_symmetry_space_group_name_H-M "C 2"
_symmetry_group_IT_number 5
_symmetry_cell_setting 'monoclinic'
loop_
_space_group_symop_operation_xyz
x,y,z
-x,y,-z
1/2+x,1/2+y,z
1/2-x,1/2+y,-z
loop_
_atom_site_type_symbol
_atom_site_label
_atom_site_fract_x
_atom_site_fract_y
_atom_site_fract_z
Si Si1 0.410651 0.031820 0.741611
Si Si2 0.248273 0.232996 0.567723
Si Si3 0.109673 0.390105 0.722383
Si Si4 0.500000 0.200681 0.000000
Si Si5 0.643337 0.537670 0.929697
Si Si6 0.727216 0.723713 0.183855
O O1 0.345176 0.241358 0.673720
O O2 0.434150 0.053890 0.892717
O O3 0.502767 0.986767 0.675521
O O4 0.343522 0.801356 0.722765
O O5 0.248055 0.484801 0.501388
O O6 0.149934 0.217340 0.626481
O O7 0.105991 0.271226 0.856183
O O8 0.182539 0.602996 0.734961
O O9 0.559602 0.348389 0.913586
O O10 0.736084 0.452935 0.878087
O O11 0.671141 0.562471 0.077245
#
# Coordination Sequence:
#
# PCOD8052086 Si02
#       6
#     4   4   4   2   4   4
#     4  12  26  50  79 114 157 206 258 328 402 482
#     4  12  30  57  83 112 156 213 280 344 396 462
#     4  12  26  48  76 110 149 206 267 327 404 466
#     4  12  24  42  74 122 160 198 254 316 402 490
#     4  12  22  39  70 110 164 204 247 313 389 488
#     4  12  22  44  68 113 163 204 248 314 395 485
#
# _framework density 24.974456
#
# number of rings (size 3 to 8) (size 9 to 14) (size 15 to 20)
#    0.000    0.000    5.455    5.455    0.000    2.182 
#    0.000    5.455    0.000    0.000    0.000    0.000 
#    0.000    0.000    0.000    0.000    0.000    0.000 
#
# Total GULP energy -136343.021413 kJ/mol
# GULP energy per Si atom -12394.820128 kJ/mol
# Density = 2.491761 g / cm^3
# Si number density = 24.974456 Si / 1000 Ang^3
#
#
#
# Elastic Constant Matrix: (Units=GPa)
#
#
# Indices 1 2 3 4 5 6 
#
# 1 184.1704 42.5083 35.1165 0.0000 -15.7694 0.0000
# 2 42.5083 107.0891 33.0013 0.0000 -1.0183 0.0000
# 3 35.1165 33.0013 86.5450 0.0000 -4.8198 0.0000
# 4 0.0000 0.0000 0.0000 44.8754 0.0000 -4.3920
# 5 -15.7694 -1.0183 -4.8198 0.0000 31.6275 0.0000
# 6 0.0000 0.0000 0.0000 -4.3920 0.0000 49.1743
#
#
#
# Elastic Compliance Matrix: (Units=1/GPa)
#
#
# Indices 1 2 3 4 5 6 
#
# 1 0.006467 -0.002018 -0.001693 0.000000 0.002901 0.000000
# 2 -0.002018 0.011213 -0.003523 0.000000 -0.001182 0.000000
# 3 -0.001693 -0.003523 0.013648 0.000000 0.001122 0.000000
# 4 0.000000 0.000000 0.000000 0.022480 0.000000 0.002008
# 5 0.002901 -0.001182 0.001122 0.000000 0.033198 0.000000
# 6 0.000000 0.000000 0.000000 0.002008 0.000000 0.020515
#
#
# Mechanical properties :
#
#
# Convention : Reuss Voigt Hill
#
# Bulk Modulus (GPa) = 59.31087 66.56186 62.93637
# Shear Modulus (GPa) = 39.18248 42.94733 41.06490
#
# Velocity S-wave (km/s) = 3.96523 4.15137 4.05937
# Velocity P-wave (km/s) = 6.69061 7.04899 6.87214
#
# Compressibility (1/GPa) = 0.01686031
#
# Stress axis : x y z
#
# Youngs Moduli (GPa) = 154.63928 89.17958 73.27336
#
# Poissons Ratio (x) = 0.17993 0.12405
# Poissons Ratio (y) = 0.31200 0.25814
# Poissons Ratio (z) = 0.26180 0.31418
#
# Static dielectric constant tensor:
#      x y z
#    x 4.820680 0.000000 -0.069390 
#    y 0.000000 4.412190 0.000000 
#    z -0.069390 0.000000 4.624290 
# 
# 
# High freq. dielectric constant tensor:
#      x y z
#    x 2.008900 0.000000 -0.003850 
#    y 0.000000 1.995290 0.000000 
#    z -0.003850 0.000000 1.981560 
# 
# From -- ./inp_files/41081.got.cif
#   From: 2010.03.12/outbox.cif.g09.slc.cpg/sg5_21_cif.got.tgz:41081.got - 2010.03.31 09:47:26.
