data_PCOD8052164
_publ_section_title
;
Structure prediction by ZEFSAII (Michael W. Deem and Ramdas Pophale) SiO2 
 PCOD8052164
Probable space group: C 2
;
_chemical_formula_sum "Si O2"
_cell_formula_units_Z 22
_cell_length_a 5.082045
_cell_length_b 13.823430
_cell_length_c 14.953031
_cell_angle_alpha 90.000000
_cell_angle_beta 113.374893
_cell_angle_gamma 90.000000
_cell_volume 964.256208
_symmetry_space_group_name_H-M "C 2"
_symmetry_group_IT_number 5
_symmetry_cell_setting 'monoclinic'
loop_
_space_group_symop_operation_xyz
x,y,z
-x,y,-z
1/2+x,1/2+y,z
1/2-x,1/2+y,-z
loop_
_atom_site_type_symbol
_atom_site_label
_atom_site_fract_x
_atom_site_fract_y
_atom_site_fract_z
Si Si1 0.440277 0.806050 0.095965
Si Si2 0.225885 0.353734 0.307414
Si Si3 0.190756 0.254741 0.612789
Si Si4 0.000000 0.953077 0.000000
Si Si5 0.405443 0.066491 0.730946
Si Si6 0.435940 0.592050 0.139043
O O1 0.702474 0.830713 0.197735
O O2 0.326896 0.698354 0.097822
O O3 0.500000 0.820630 0.000000
O O4 0.199666 0.884806 0.088136
O O5 0.555915 0.331083 0.375411
O O6 0.138045 0.462848 0.322835
O O7 0.004350 0.284622 0.329547
O O8 0.326366 0.149944 0.650351
O O9 0.000000 0.246509 0.500000
O O10 0.174298 0.020215 0.953683
O O11 0.720490 0.086222 0.810841
O O12 0.188821 0.061486 0.783915
#
# Coordination Sequence:
#
# PCOD8052164 Si02
#       6
#     4   4   4   2   4   4
#     4  12  26  43  73 105 147 198 239 288 351 427
#     4  12  26  48  76 106 147 191 237 296 368 426
#     4  12  27  48  76 109 141 184 246 306 363 432
#     4  12  28  44  68 108 148 192 250 290 342 430
#     4  12  25  48  73 100 142 190 234 298 367 420
#     4  12  26  44  71 104 142 193 244 289 349 425
#
# _framework density 22.815515000000001
#
# number of rings (size 3 to 8) (size 9 to 14) (size 15 to 20)
#    0.000    0.000    6.364    2.727    5.091    1.455 
#    0.000    0.000    0.000    0.000    0.000    0.000 
#    0.000    0.000    0.000    0.000    0.000    0.000 
#
# Total GULP energy -136448.650288 kJ/mol
# GULP energy per Si atom -12404.422753 kJ/mol
# Density = 2.276359 g / cm^3
# Si number density = 22.815515 Si / 1000 Ang^3
#
#
#
# Elastic Constant Matrix: (Units=GPa)
#
#
# Indices 1 2 3 4 5 6 
#
# 1 76.9391 24.5867 21.0211 0.0000 6.9025 0.0000
# 2 24.5867 143.6720 48.0830 0.0000 7.8574 0.0000
# 3 21.0211 48.0830 108.9010 0.0000 9.9227 0.0000
# 4 0.0000 0.0000 0.0000 26.4745 0.0000 9.3032
# 5 6.9025 7.8574 9.9227 0.0000 29.9782 0.0000
# 6 0.0000 0.0000 0.0000 9.3032 0.0000 24.6110
#
#
#
# Elastic Compliance Matrix: (Units=1/GPa)
#
#
# Indices 1 2 3 4 5 6 
#
# 1 0.014234 -0.001716 -0.001786 0.000000 -0.002236 0.000000
# 2 -0.001716 0.008402 -0.003314 0.000000 -0.000710 0.000000
# 3 -0.001786 -0.003314 0.011212 0.000000 -0.002431 0.000000
# 4 0.000000 0.000000 0.000000 0.043558 0.000000 -0.016465
# 5 -0.002236 -0.000710 -0.002431 0.000000 0.034863 0.000000
# 6 0.000000 0.000000 0.000000 -0.016465 0.000000 0.046856
#
#
# Mechanical properties :
#
#
# Convention : Reuss Voigt Hill
#
# Bulk Modulus (GPa) = 49.46440 57.43263 53.44852
# Shear Modulus (GPa) = 27.85570 31.93417 29.89494
#
# Velocity S-wave (km/s) = 3.49794 3.74527 3.62372
# Velocity P-wave (km/s) = 6.16777 6.62797 6.40201
#
# Compressibility (1/GPa) = 0.02021656
#
# Stress axis : x y z
#
# Youngs Moduli (GPa) = 70.25299 119.02255 89.18944
#
# Poissons Ratio (x) = 0.20422 0.15932
# Poissons Ratio (y) = 0.12054 0.29555
# Poissons Ratio (z) = 0.12549 0.39441
#
# Static dielectric constant tensor:
#      x y z
#    x 4.090570 0.000000 0.141880 
#    y 0.000000 4.605400 0.000000 
#    z 0.141880 0.000000 3.990240 
# 
# 
# High freq. dielectric constant tensor:
#      x y z
#    x 1.897290 0.000000 0.004100 
#    y 0.000000 1.926240 0.000000 
#    z 0.004100 0.000000 1.892280 
# 
# From -- ./inp_files/48708.got.cif
#   From: 2010.03.12/outbox.cif.g09.slc.cpg/sg5_25_cif.got.tgz:48708.got - 2010.03.31 09:47:26.
