data_PCOD8052539
_publ_section_title
;
Structure prediction by ZEFSAII (Michael W. Deem and Ramdas Pophale) SiO2 
 PCOD8052539
Probable space group: P M
;
_chemical_formula_sum "Si O2"
_cell_formula_units_Z 16
_cell_length_a 9.279704
_cell_length_b 8.925225
_cell_length_c 11.095420
_cell_angle_alpha 90.000000
_cell_angle_beta 65.419497
_cell_angle_gamma 90.000000
_cell_volume 835.682579
_symmetry_space_group_name_H-M "P M"
_symmetry_group_IT_number 6
_symmetry_cell_setting 'monoclinic'
loop_
_space_group_symop_operation_xyz
x,y,z
x,-y,z
loop_
_atom_site_type_symbol
_atom_site_label
_atom_site_fract_x
_atom_site_fract_y
_atom_site_fract_z
Si Si1 0.860930 0.677943 0.661040
Si Si2 0.932420 0.322160 0.902617
Si Si3 0.309274 0.175847 0.137498
Si Si4 0.640972 0.175821 0.135264
Si Si5 0.535711 0.327011 0.668410
Si Si6 0.691351 0.328699 0.360371
Si Si7 0.019018 0.675511 0.366785
Si Si8 0.248274 0.823122 0.888113
O O1 0.856167 0.500000 0.654912
O O2 0.920607 0.736439 0.769070
O O3 0.681581 0.733874 0.698925
O O4 0.978524 0.736366 0.515324
O O5 0.945121 0.500000 0.902608
O O6 0.084271 0.252165 0.911177
O O7 0.779564 0.270907 0.027895
O O8 0.479498 0.226124 0.127168
O O9 0.175731 0.245083 0.267841
O O10 0.287944 0.000000 0.152118
O O11 0.293571 0.232541 0.006046
O O12 0.630034 0.216545 0.279635
O O13 0.674064 0.000000 0.108195
O O14 0.497686 0.500000 0.710663
O O15 0.577789 0.306528 0.514012
O O16 0.382877 0.227783 0.748649
O O17 0.682418 0.500000 0.317867
O O18 0.872237 0.287456 0.330137
O O19 0.051773 0.500000 0.358510
O O20 0.228370 0.000000 0.888140
#
# Coordination Sequence:
#
# PCOD8052539 Si02
#       8
#     2   2   2   2   2   2   2   2
#     4   8  17  35  58  83 109 138 175 222 270 315
#     4  11  22  37  58  82 108 140 181 225 271 322
#     4  10  23  39  53  75 109 146 181 220 267 320
#     4  11  23  38  55  78 110 144 181 225 271 320
#     4   9  18  36  60  83 109 141 180 223 266 317
#     4   9  19  36  58  84 111 141 179 222 268 319
#     4   9  18  35  59  83 107 138 178 221 265 317
#     4  11  23  38  55  78 111 146 181 222 270 322
#
# _framework density 19.146025000000002
#
# number of rings (size 3 to 8) (size 9 to 14) (size 15 to 20)
#    0.000    2.250    0.000    4.125    0.000    6.000 
#    0.000    7.500    0.000    0.000    0.000    0.000 
#    0.000    0.000    0.000    0.000    0.000    0.000 
#
# Total GULP energy -198434.414213 kJ/mol
# GULP energy per Si atom -12402.150888 kJ/mol
# Density = 1.910245 g / cm^3
# Si number density = 19.146025 Si / 1000 Ang^3
#
#
#
# Elastic Constant Matrix: (Units=GPa)
#
#
# Indices 1 2 3 4 5 6 
#
# 1 148.4871 48.3335 79.8387 0.0000 -1.3798 0.0000
# 2 48.3335 46.5168 41.2471 0.0000 -1.4781 0.0000
# 3 79.8387 41.2471 117.6819 0.0000 -4.4565 0.0000
# 4 0.0000 0.0000 0.0000 -193.6559 0.0000 14.0477
# 5 -1.3798 -1.4781 -4.4565 0.0000 39.3720 0.0000
# 6 0.0000 0.0000 0.0000 14.0477 0.0000 30.7284
#
#
#
# Elastic Compliance Matrix: (Units=1/GPa)
#
#
# Indices 1 2 3 4 5 6 
#
# 1 0.012294 -0.007802 -0.005625 0.000000 -0.000499 0.000000
# 2 -0.007802 0.036144 -0.007365 0.000000 0.000250 0.000000
# 3 -0.005625 -0.007365 0.014941 0.000000 0.001218 0.000000
# 4 0.000000 0.000000 0.000000 -0.004998 0.000000 0.002285
# 5 -0.000499 0.000250 0.001218 0.000000 0.025528 0.000000
# 6 0.000000 0.000000 0.000000 0.002285 0.000000 0.031499
#
#
# Mechanical properties :
#
#
# Convention : Reuss Voigt Hill
#
# Bulk Modulus (GPa) = 45.88488 72.39160 59.13824
# Shear Modulus (GPa) = 30.43995 -15.16001 7.63997
#
# Velocity S-wave (km/s) = 3.99166 -2.81696 1.99976
# Velocity P-wave (km/s) = 6.72772 5.22608 6.02388
#
# Compressibility (1/GPa) = 0.02179367
#
# Stress axis : x y z
#
# Youngs Moduli (GPa) = 81.34025 27.66730 66.92930
#
# Poissons Ratio (x) = 0.21587 0.37646
# Poissons Ratio (y) = 0.63465 0.49296
# Poissons Ratio (z) = 0.45752 0.20378
#
# Static dielectric constant tensor:
#      x y z
#    x 3.648480 0.000000 0.146500 
#    y 0.000000 3.463490 0.000000 
#    z 0.146500 0.000000 3.672800 
# 
# 
# High freq. dielectric constant tensor:
#      x y z
#    x 1.750480 0.000000 0.001240 
#    y 0.000000 1.729450 0.000000 
#    z 0.001240 0.000000 1.757690 
# 
# From -- ./inp_files/3661.got.cif
#   From: 2010.03.12/outbox.cif.g09.slc.cpg/sg6_2_cif.got.tgz:3661.got - 2010.03.30 10:24:59.
