data_PCOD8052046
_publ_section_title
;
Structure prediction by ZEFSAII (Michael W. Deem and Ramdas Pophale) SiO2 
 PCOD8052046
Probable space group: C 2
;
_chemical_formula_sum "Si O2"
_cell_formula_units_Z 30
_cell_length_a 18.172029
_cell_length_b 14.688635
_cell_length_c 5.188115
_cell_angle_alpha 90.000000
_cell_angle_beta 72.499053
_cell_angle_gamma 90.000000
_cell_volume 1320.722853
_symmetry_space_group_name_H-M "C 2"
_symmetry_group_IT_number 5
_symmetry_cell_setting 'monoclinic'
loop_
_space_group_symop_operation_xyz
x,y,z
-x,y,-z
1/2+x,1/2+y,z
1/2-x,1/2+y,-z
loop_
_atom_site_type_symbol
_atom_site_label
_atom_site_fract_x
_atom_site_fract_y
_atom_site_fract_z
Si Si1 0.276455 0.537920 0.027860
Si Si2 0.623092 0.428148 0.739853
Si Si3 0.765198 0.373045 0.246869
Si Si4 0.500000 0.518267 0.500000
Si Si5 0.677816 0.191391 0.279936
Si Si6 0.115356 0.162362 0.316426
Si Si7 0.087850 0.276273 0.857210
Si Si8 0.412408 0.231835 0.111331
O O1 0.356394 0.508437 0.084270
O O2 0.223174 0.596613 0.277511
O O3 0.230864 0.448577 0.981708
O O4 0.302883 0.606959 0.766856
O O5 0.704680 0.408278 0.519010
O O6 0.552925 0.455322 0.626443
O O7 0.595359 0.340279 0.928536
O O8 0.736372 0.275089 0.177664
O O9 0.852493 0.359336 0.267585
O O10 0.553842 0.587281 0.285469
O O11 0.619890 0.207045 0.574997
O O12 0.631360 0.178008 0.064857
O O13 0.094605 0.203329 0.618324
O O14 0.118150 0.238928 0.097142
O O15 0.000000 0.309958 0.000000
O O16 0.500000 0.200539 0.000000
#
# Coordination Sequence:
#
# PCOD8052046 Si02
#       8
#     4   4   4   2   4   4   4   4
#     4  12  26  46  73 109 145 194 243 306 356 448
#     4  11  27  42  71 108 151 185 238 303 373 439
#     4  11  26  44  71 106 148 192 245 292 373 432
#     4  12  24  42  68 110 146 182 236 294 388 434
#     4  11  26  45  75 104 143 198 239 297 365 434
#     4  12  26  42  72 103 149 182 235 300 375 427
#     4  12  26  48  71 105 143 194 239 301 359 437
#     4  11  26  47  71 104 148 191 244 300 364 429
#
# _framework density 22.714835999999998
#
# number of rings (size 3 to 8) (size 9 to 14) (size 15 to 20)
#    0.000    0.533    5.333    1.200   13.067    0.000 
#    0.000    0.667    2.933    0.000    0.000    0.000 
#    0.000    0.000    0.000    0.000    0.000    0.000 
#
# Total GULP energy -185905.142867 kJ/mol
# GULP energy per Si atom -12393.676191 kJ/mol
# Density = 2.266314 g / cm^3
# Si number density = 22.714836 Si / 1000 Ang^3
#
#
#
# Elastic Constant Matrix: (Units=GPa)
#
#
# Indices 1 2 3 4 5 6 
#
# 1 136.1621 41.3203 40.5066 0.0000 -13.9943 0.0000
# 2 41.3203 85.4228 28.2517 0.0000 -5.9974 0.0000
# 3 40.5066 28.2517 91.6965 0.0000 -3.3614 0.0000
# 4 0.0000 0.0000 0.0000 20.0103 0.0000 -12.2906
# 5 -13.9943 -5.9974 -3.3614 0.0000 39.3470 0.0000
# 6 0.0000 0.0000 0.0000 -12.2906 0.0000 38.4270
#
#
#
# Elastic Compliance Matrix: (Units=1/GPa)
#
#
# Indices 1 2 3 4 5 6 
#
# 1 0.009568 -0.003428 -0.003075 0.000000 0.002618 0.000000
# 2 -0.003428 0.014370 -0.002887 0.000000 0.000725 0.000000
# 3 -0.003075 -0.002887 0.013138 0.000000 -0.000411 0.000000
# 4 0.000000 0.000000 0.000000 0.062192 0.000000 0.019892
# 5 0.002618 0.000725 -0.000411 0.000000 0.026421 0.000000
# 6 0.000000 0.000000 0.000000 0.019892 0.000000 0.032386
#
#
# Mechanical properties :
#
#
# Convention : Reuss Voigt Hill
#
# Bulk Modulus (GPa) = 54.64989 59.27095 56.96042
# Shear Modulus (GPa) = 27.32948 33.10372 30.21660
#
# Velocity S-wave (km/s) = 3.47242 3.82168 3.65123
# Velocity P-wave (km/s) = 6.33942 6.75454 6.55027
#
# Compressibility (1/GPa) = 0.01829830
#
# Stress axis : x y z
#
# Youngs Moduli (GPa) = 104.51441 69.58931 76.11448
#
# Poissons Ratio (x) = 0.23852 0.23403
# Poissons Ratio (y) = 0.35823 0.21972
# Poissons Ratio (z) = 0.32135 0.20089
#
# Static dielectric constant tensor:
#      x y z
#    x 4.214620 0.000000 -0.273470 
#    y 0.000000 4.103360 0.000000 
#    z -0.273470 0.000000 4.129920 
# 
# 
# High freq. dielectric constant tensor:
#      x y z
#    x 1.897690 0.000000 -0.014490 
#    y 0.000000 1.881840 0.000000 
#    z -0.014490 0.000000 1.901000 
# 
# From -- ./inp_files/8644.got.cif
#   From: 2010.03.12/outbox.cif.g09.slc.cpg/sg5_5_cif.got.tgz:8644.got - 2010.03.31 09:47:26.
