data_PCOD8052456
_publ_section_title
;
Structure prediction by ZEFSAII (Michael W. Deem and Ramdas Pophale) SiO2 
 PCOD8052456
Probable space group: P M
;
_chemical_formula_sum "Si O2"
_cell_formula_units_Z 16
_cell_length_a 14.186724
_cell_length_b 8.651830
_cell_length_c 19.099938
_cell_angle_alpha 90.000000
_cell_angle_beta 19.238954
_cell_angle_gamma 90.000000
_cell_volume 772.482851
_symmetry_space_group_name_H-M "P M"
_symmetry_group_IT_number 6
_symmetry_cell_setting 'monoclinic'
loop_
_space_group_symop_operation_xyz
x,y,z
x,-y,z
loop_
_atom_site_type_symbol
_atom_site_label
_atom_site_fract_x
_atom_site_fract_y
_atom_site_fract_z
Si Si1 0.285190 0.680848 0.303900
Si Si2 0.238389 0.168468 0.712324
Si Si3 0.323441 0.682134 0.437687
Si Si4 0.688097 0.184227 0.498596
Si Si5 0.132987 0.318231 0.081001
Si Si6 0.720191 0.818669 0.637428
Si Si7 0.738713 0.170801 0.249608
Si Si8 0.855246 0.184161 0.864523
O O1 0.329765 0.500000 0.263760
O O2 0.312850 0.733059 0.364703
O O3 0.979352 0.727760 0.489725
O O4 0.526753 0.766201 0.088240
O O5 0.383418 0.247341 0.679190
O O6 0.487731 0.154881 0.480739
O O7 0.978921 0.252750 0.852776
O O8 0.128317 0.000000 0.812416
O O9 0.327530 0.500000 0.445309
O O10 0.615887 0.750620 0.265418
O O11 0.034954 0.747556 0.674557
O O12 0.697439 0.230557 0.572466
O O13 0.948854 0.266572 0.276808
O O14 0.710636 0.000000 0.470152
O O15 0.180829 0.500000 0.049280
O O16 0.991519 0.271889 0.106028
O O17 0.435001 0.232448 0.877274
O O18 0.769700 0.000000 0.611584
O O19 0.859784 0.000000 0.146297
O O20 0.888494 0.000000 0.839386
#
# Coordination Sequence:
#
# PCOD8052456 Si02
#       8
#     2   2   2   2   2   2   2   2
#     4  11  25  42  58  81 116 155 197 245 293 344
#     4   7  13  29  54  84 113 139 174 222 277 334
#     4  10  21  38  60  87 119 153 190 237 293 347
#     4   9  19  38  62  87 115 149 191 238 286 338
#     4  11  22  37  60  89 122 155 186 231 292 351
#     4  11  24  41  61  84 112 151 202 250 286 336
#     4   9  17  33  58  87 119 152 189 233 281 342
#     4  10  20  36  61  89 116 150 189 232 286 348
#
# _framework density 20.712433999999998
#
# number of rings (size 3 to 8) (size 9 to 14) (size 15 to 20)
#    0.000    2.250    0.000    4.500    0.000    5.000 
#    0.000    1.875    0.000    0.000    0.000    0.000 
#    0.000    0.000    0.000    0.000    0.000    0.000 
#
# Total GULP energy -198337.022004 kJ/mol
# GULP energy per Si atom -12396.063875 kJ/mol
# Density = 2.066529 g / cm^3
# Si number density = 20.712434 Si / 1000 Ang^3
#
#
#
# Elastic Constant Matrix: (Units=GPa)
#
#
# Indices 1 2 3 4 5 6 
#
# 1 58.7096 25.3366 -2.3722 0.0000 -4.4882 0.0000
# 2 25.3366 55.2580 3.0033 0.0000 10.0011 0.0000
# 3 -2.3722 3.0033 60.8373 0.0000 -9.0830 0.0000
# 4 0.0000 0.0000 0.0000 29.5496 0.0000 -6.0340
# 5 -4.4882 10.0011 -9.0830 0.0000 27.3684 0.0000
# 6 0.0000 0.0000 0.0000 -6.0340 0.0000 28.0338
#
#
#
# Elastic Compliance Matrix: (Units=1/GPa)
#
#
# Indices 1 2 3 4 5 6 
#
# 1 0.023272 -0.012524 0.002924 0.000000 0.009363 0.000000
# 2 -0.012524 0.026382 -0.003721 0.000000 -0.012929 0.000000
# 3 0.002924 -0.003721 0.017896 0.000000 0.007779 0.000000
# 4 0.000000 0.000000 0.000000 0.035397 0.000000 0.007619
# 5 0.009363 -0.012929 0.007779 0.000000 0.045380 0.000000
# 6 0.000000 0.000000 0.000000 0.007619 0.000000 0.037311
#
#
# Mechanical properties :
#
#
# Convention : Reuss Voigt Hill
#
# Bulk Modulus (GPa) = 24.44574 25.19335 24.81954
# Shear Modulus (GPa) = 22.13208 26.91283 24.52246
#
# Velocity S-wave (km/s) = 3.27240 3.60857 3.44459
# Velocity P-wave (km/s) = 5.10942 5.43619 5.27534
#
# Compressibility (1/GPa) = 0.04090693
#
# Stress axis : x y z
#
# Youngs Moduli (GPa) = 42.97063 37.90520 55.87744
#
# Poissons Ratio (x) = 0.47472 -0.16336
# Poissons Ratio (y) = 0.53816 0.20792
# Poissons Ratio (z) = -0.12563 0.14105
#
# Static dielectric constant tensor:
#      x y z
#    x 3.953070 0.000000 -0.209610 
#    y 0.000000 3.659830 0.000000 
#    z -0.209610 0.000000 3.707900 
# 
# 
# High freq. dielectric constant tensor:
#      x y z
#    x 1.811720 0.000000 -0.006780 
#    y 0.000000 1.798830 0.000000 
#    z -0.006780 0.000000 1.811650 
# 
# From -- ./inp_files/5660.got.cif
#   From: 2010.03.12/outbox.cif.g09.slc.cpg/sg6_3_cif.got.tgz:5660.got - 2010.03.30 10:24:59.
