data_PCOD8052073
_publ_section_title
;
Structure prediction by ZEFSAII (Michael W. Deem and Ramdas Pophale) SiO2 
 PCOD8052073
Probable space group: C 2
;
_chemical_formula_sum "Si O2"
_cell_formula_units_Z 28
_cell_length_a 12.608315
_cell_length_b 6.694734
_cell_length_c 17.393708
_cell_angle_alpha 90.000000
_cell_angle_beta 60.673651
_cell_angle_gamma 90.000000
_cell_volume 1280.033679
_symmetry_space_group_name_H-M "C 2"
_symmetry_group_IT_number 5
_symmetry_cell_setting 'monoclinic'
loop_
_space_group_symop_operation_xyz
x,y,z
-x,y,-z
1/2+x,1/2+y,z
1/2-x,1/2+y,-z
loop_
_atom_site_type_symbol
_atom_site_label
_atom_site_fract_x
_atom_site_fract_y
_atom_site_fract_z
Si Si1 0.885439 0.224170 0.861973
Si Si2 0.319629 0.489233 0.026989
Si Si3 0.618646 0.806972 0.868279
Si Si4 0.500000 0.153782 0.000000
Si Si5 0.186302 0.205350 0.416418
Si Si6 0.000000 0.522923 0.500000
Si Si7 0.596396 0.365230 0.565892
Si Si8 0.844680 0.998566 0.723821
O O1 0.817892 0.437198 0.897583
O O2 0.871985 0.163080 0.778563
O O3 0.027443 0.229536 0.834447
O O4 0.814881 0.067367 0.941648
O O5 0.379682 0.653499 0.061445
O O6 0.399895 0.290285 0.994944
O O7 0.754111 0.826891 0.786127
O O8 0.569874 0.021275 0.912521
O O9 0.299851 0.325731 0.409244
O O10 0.223940 0.093698 0.325211
O O11 0.090589 0.373727 0.423431
O O12 0.129300 0.048893 0.498032
O O13 0.918753 0.658462 0.473715
O O14 0.471675 0.404660 0.654020
#
# Coordination Sequence:
#
# PCOD8052073 Si02
#       8
#     4   4   4   2   4   2   4   4
#     4  12  25  44  74 103 145 194 240 299 361 415
#     4  12  24  47  75 101 144 200 252 290 358 430
#     4  12  26  47  71 105 146 194 246 302 354 420
#     4  12  20  48  76  96 142 194 250 300 340 426
#     4  12  26  48  78 108 141 189 236 290 371 440
#     4  12  22  46  84 100 138 190 232 286 356 454
#     4  12  26  48  78 107 142 190 235 292 369 439
#     4  12  28  45  68 118 147 175 250 303 354 429
#
# _framework density 21.874427000000001
#
# number of rings (size 3 to 8) (size 9 to 14) (size 15 to 20)
#    0.000    0.000    8.571    1.714    0.000    8.000 
#    0.000    0.000    0.000    0.000    0.000    0.000 
#    0.000    0.000    0.000    0.000    0.000    0.000 
#
# Total GULP energy -173626.277108 kJ/mol
# GULP energy per Si atom -12401.876936 kJ/mol
# Density = 2.182464 g / cm^3
# Si number density = 21.874427 Si / 1000 Ang^3
#
#
#
# Elastic Constant Matrix: (Units=GPa)
#
#
# Indices 1 2 3 4 5 6 
#
# 1 102.4539 34.1223 41.0518 0.0000 4.0519 0.0000
# 2 34.1223 105.2565 38.6186 0.0001 0.6171 0.0001
# 3 41.0518 38.6186 120.0607 0.0000 -2.2798 0.0000
# 4 0.0000 0.0001 0.0000 21.5236 0.0000 -8.1925
# 5 4.0519 0.6171 -2.2798 0.0000 33.1258 0.0000
# 6 0.0000 0.0001 0.0000 -8.1925 0.0000 47.9181
#
#
#
# Elastic Compliance Matrix: (Units=1/GPa)
#
#
# Indices 1 2 3 4 5 6 
#
# 1 0.012036 -0.002688 -0.003282 0.000000 -0.001648 0.000000
# 2 -0.002688 0.011379 -0.002742 0.000000 -0.000072 0.000000
# 3 -0.003282 -0.002742 0.010356 0.000000 0.001165 0.000000
# 4 0.000000 0.000000 0.000000 0.049695 0.000000 0.008496
# 5 -0.001648 -0.000072 0.001165 0.000000 0.030471 0.000000
# 6 0.000000 0.000000 0.000000 0.008496 0.000000 0.022322
#
#
# Mechanical properties :
#
#
# Convention : Reuss Voigt Hill
#
# Bulk Modulus (GPa) = 61.17939 61.70626 61.44282
# Shear Modulus (GPa) = 31.42076 34.77873 33.09974
#
# Velocity S-wave (km/s) = 3.79412 3.99171 3.89417
# Velocity P-wave (km/s) = 6.87190 7.03673 6.95480
#
# Compressibility (1/GPa) = 0.01634537
#
# Stress axis : x y z
#
# Youngs Moduli (GPa) = 83.08421 87.88451 96.56657
#
# Poissons Ratio (x) = 0.23623 0.31694
# Poissons Ratio (y) = 0.22333 0.26481
# Poissons Ratio (z) = 0.27269 0.24100
#
# Static dielectric constant tensor:
#      x y z
#    x 4.179780 0.000000 -0.063660 
#    y 0.000000 4.090550 0.000000 
#    z -0.063660 0.000000 3.811810 
# 
# 
# High freq. dielectric constant tensor:
#      x y z
#    x 1.883680 0.000000 -0.004460 
#    y 0.000000 1.867640 0.000000 
#    z -0.004460 0.000000 1.845010 
# 
# From -- ./inp_files/61196.got.cif
#   From: 2010.03.12/outbox.cif.g09.slc.cpg/sg5_31_cif.got.tgz:61196.got - 2010.03.31 09:47:26.
