data_PCOD8052869
_publ_section_title
;
Structure prediction by ZEFSAII (Michael W. Deem and Ramdas Pophale) SiO2 
 PCOD8052869
Probable space group: C M
;
_chemical_formula_sum "Si O2"
_cell_formula_units_Z 24
_cell_length_a 18.248400
_cell_length_b 8.672664
_cell_length_c 7.923311
_cell_angle_alpha 90.000000
_cell_angle_beta 90.751536
_cell_angle_gamma 90.000000
_cell_volume 1253.853090
_symmetry_space_group_name_H-M "C M"
_symmetry_group_IT_number 8
_symmetry_cell_setting 'monoclinic'
loop_
_space_group_symop_operation_xyz
x,y,z
x,-y,z
1/2+x,1/2+y,z
1/2+x,1/2-y,z
loop_
_atom_site_type_symbol
_atom_site_label
_atom_site_fract_x
_atom_site_fract_y
_atom_site_fract_z
Si Si1 0.547730 0.176903 0.004430
Si Si2 0.906024 0.323652 0.827448
Si Si3 0.035389 0.181880 0.667465
Si Si4 0.251197 0.680485 0.857431
Si Si5 0.668331 0.818250 0.518763
Si Si6 0.172524 0.819094 0.177617
O O1 0.587320 0.262379 0.160690
O O2 0.573949 0.000000 0.999512
O O3 0.458645 0.188035 0.997318
O O4 0.578718 0.263443 0.838037
O O5 0.882256 0.500000 0.793407
O O6 0.837259 0.215798 0.854122
O O7 0.954460 0.261826 0.668979
O O8 0.086735 0.242811 0.518748
O O9 0.025456 0.000000 0.657823
O O10 0.239028 0.500000 0.883365
O O11 0.217024 0.736943 0.678899
O O12 0.217785 0.768243 0.015703
O O13 0.706168 0.757696 0.347707
O O14 0.660395 0.000000 0.513390
O O15 0.176506 0.000000 0.198196
#
# Coordination Sequence:
#
# PCOD8052869 Si02
#       6
#     4   4   4   4   4   4
#     4   9  18  35  57  83 113 148 190 232 285 340
#     4   9  19  34  58  85 115 155 192 233 292 348
#     4  10  18  33  58  86 113 145 192 237 283 339
#     4  11  22  38  61  85 118 157 193 239 294 348
#     4  11  23  39  60  86 119 156 195 239 292 347
#     4  12  24  37  60  89 118 153 196 244 292 344
#
# _framework density 19.140999999999998
#
# number of rings (size 3 to 8) (size 9 to 14) (size 15 to 20)
#    1.000    0.667    1.667    4.500    0.000    2.000 
#    0.000    1.667    0.000    8.000    0.000    0.000 
#    0.000    0.000    0.000    0.000    0.000    0.000 
#
# Total GULP energy -148684.437966 kJ/mol
# GULP energy per Si atom -12390.369831 kJ/mol
# Density = 1.909743 g / cm^3
# Si number density = 19.141000 Si / 1000 Ang^3
#
#
#
# Elastic Constant Matrix: (Units=GPa)
#
#
# Indices 1 2 3 4 5 6 
#
# 1 95.6694 24.3959 38.3040 0.0000 1.9552 0.0000
# 2 24.3959 105.1825 33.9564 0.0000 0.1781 0.0000
# 3 38.3040 33.9564 103.8903 0.0000 -3.7867 0.0000
# 4 0.0000 0.0000 0.0000 27.9904 0.0000 -5.2937
# 5 1.9552 0.1781 -3.7867 0.0000 13.8733 0.0000
# 6 0.0000 0.0000 0.0000 -5.2937 0.0000 30.3819
#
#
#
# Elastic Compliance Matrix: (Units=1/GPa)
#
#
# Indices 1 2 3 4 5 6 
#
# 1 0.012608 -0.001548 -0.004249 0.000000 -0.002917 0.000000
# 2 -0.001548 0.010835 -0.002998 0.000000 -0.000739 0.000000
# 3 -0.004249 -0.002998 0.012318 0.000000 0.003999 0.000000
# 4 0.000000 0.000000 0.000000 0.036944 0.000000 0.006437
# 5 -0.002917 -0.000739 0.003999 0.000000 0.073593 0.000000
# 6 0.000000 0.000000 0.000000 0.006437 0.000000 0.034036
#
#
# Mechanical properties :
#
#
# Convention : Reuss Voigt Hill
#
# Bulk Modulus (GPa) = 55.02924 55.33940 55.18432
# Shear Modulus (GPa) = 24.51209 28.32149 26.41679
#
# Velocity S-wave (km/s) = 3.58244 3.85076 3.71902
# Velocity P-wave (km/s) = 6.77670 6.98179 6.88001
#
# Compressibility (1/GPa) = 0.01817216
#
# Stress axis : x y z
#
# Youngs Moduli (GPa) = 79.31368 92.29102 81.18357
#
# Poissons Ratio (x) = 0.14283 0.34495
# Poissons Ratio (y) = 0.12275 0.24337
# Poissons Ratio (z) = 0.33701 0.27667
#
# Static dielectric constant tensor:
#      x y z
#    x 3.435160 0.000000 0.090100 
#    y 0.000000 3.445210 0.000000 
#    z 0.090100 0.000000 3.401180 
# 
# 
# High freq. dielectric constant tensor:
#      x y z
#    x 1.733880 0.000000 0.000970 
#    y 0.000000 1.758820 0.000000 
#    z 0.000970 0.000000 1.719040 
# 
# From -- ./inp_files/15509.got.cif
#   From: 2010.03.12/outbox.cif.g09.slc.cpg/sg8_8_cif.got.tgz:15509.got - 2010.03.31 10:45:26.
