data_PCOD8052910
_publ_section_title
;
Structure prediction by ZEFSAII (Michael W. Deem and Ramdas Pophale) SiO2 
 PCOD8052910
Probable space group: C M
;
_chemical_formula_sum "Si O2"
_cell_formula_units_Z 32
_cell_length_a 16.519398
_cell_length_b 16.115625
_cell_length_c 10.375511
_cell_angle_alpha 90.000000
_cell_angle_beta 144.816253
_cell_angle_gamma 90.000000
_cell_volume 1591.565410
_symmetry_space_group_name_H-M "C M"
_symmetry_group_IT_number 8
_symmetry_cell_setting 'monoclinic'
loop_
_space_group_symop_operation_xyz
x,y,z
x,-y,z
1/2+x,1/2+y,z
1/2+x,1/2-y,z
loop_
_atom_site_type_symbol
_atom_site_label
_atom_site_fract_x
_atom_site_fract_y
_atom_site_fract_z
Si Si1 0.819850 0.152955 0.331920
Si Si2 0.329723 0.903924 0.571354
Si Si3 0.600090 0.593562 0.669679
Si Si4 0.388940 0.097186 0.133991
Si Si5 0.539847 0.901851 0.065063
Si Si6 0.243009 0.402145 0.949323
Si Si7 0.959180 0.667661 0.494086
Si Si8 0.048635 0.901506 0.321498
O O1 0.689301 0.146476 0.259532
O O2 0.887028 0.243751 0.412853
O O3 0.952903 0.098548 0.555898
O O4 0.762283 0.113970 0.125294
O O5 0.374366 0.890835 0.482381
O O6 0.171348 0.867613 0.386814
O O7 0.321833 0.000000 0.592083
O O8 0.441031 0.867154 0.820041
O O9 0.648570 0.500000 0.708705
O O10 0.577260 0.637500 0.500835
O O11 0.730081 0.633669 0.915648
O O12 0.471307 0.121241 0.111877
O O13 0.456091 0.140714 0.343147
O O14 0.394647 0.000000 0.167985
O O15 0.565831 0.000000 0.084870
O O16 0.203241 0.500000 0.876646
O O17 0.123720 0.339234 0.744222
O O18 0.390381 0.377864 0.069394
O O19 0.051502 0.000000 0.338526
#
# Coordination Sequence:
#
# PCOD8052910 Si02
#       8
#     4   4   4   4   4   4   4   4
#     4  11  23  37  59  90 125 158 207 257 307 363
#     4  10  18  35  63  91 116 157 212 256 295 364
#     4   9  17  34  60  86 113 151 202 253 298 357
#     4  10  21  38  61  90 124 162 205 256 313 373
#     4  10  19  38  66  90 117 161 220 260 294 366
#     4  10  20  40  67  89 116 165 217 251 294 375
#     4  12  25  37  58  92 132 160 194 257 326 373
#     4   8  15  31  60  92 110 142 209 262 282 337
#
# _framework density 20.105991
#
# number of rings (size 3 to 8) (size 9 to 14) (size 15 to 20)
#    0.000    2.000    2.500    3.000    1.750    0.000 
#    4.500    1.250    0.000    3.000    0.000    0.000 
#    0.000    0.000    0.000    0.000    0.000    0.000 
#
# Total GULP energy -198227.707077 kJ/mol
# GULP energy per Si atom -12389.231692 kJ/mol
# Density = 2.006023 g / cm^3
# Si number density = 20.105991 Si / 1000 Ang^3
#
#
#
# Elastic Constant Matrix: (Units=GPa)
#
#
# Indices 1 2 3 4 5 6 
#
# 1 115.5548 20.6836 68.5351 0.0000 27.0473 0.0000
# 2 20.6836 47.8291 32.3571 0.0000 7.5346 0.0000
# 3 68.5351 32.3571 108.9181 0.0000 25.1946 0.0000
# 4 0.0000 0.0000 0.0000 19.9365 0.0000 10.4129
# 5 27.0473 7.5346 25.1946 0.0000 42.6710 0.0000
# 6 0.0000 0.0000 0.0000 10.4129 0.0000 19.4437
#
#
#
# Elastic Compliance Matrix: (Units=1/GPa)
#
#
# Indices 1 2 3 4 5 6 
#
# 1 0.014487 -0.000117 -0.008063 0.000000 -0.004401 0.000000
# 2 -0.000117 0.026168 -0.007700 0.000000 0.000000 0.000000
# 3 -0.008063 -0.007700 0.017426 0.000000 -0.003818 0.000000
# 4 0.000000 0.000000 0.000000 0.069638 0.000000 -0.037294
# 5 -0.004401 0.000000 -0.003818 0.000000 0.028479 0.000000
# 6 0.000000 0.000000 0.000000 -0.037294 0.000000 0.071403
#
#
# Mechanical properties :
#
#
# Convention : Reuss Voigt Hill
#
# Bulk Modulus (GPa) = 37.99382 57.27262 47.63322
# Shear Modulus (GPa) = 18.64737 26.45867 22.55302
#
# Velocity S-wave (km/s) = 3.04872 3.63155 3.35282
# Velocity P-wave (km/s) = 5.59738 6.79201 6.22343
#
# Compressibility (1/GPa) = 0.02632007
#
# Stress axis : x y z
#
# Youngs Moduli (GPa) = 69.02652 38.21514 57.38700
#
# Poissons Ratio (x) = 0.00447 0.46271
# Poissons Ratio (y) = 0.00807 0.44190
# Poissons Ratio (z) = 0.55656 0.29427
#
# Static dielectric constant tensor:
#      x y z
#    x 3.863790 0.000000 0.424290 
#    y 0.000000 3.175930 0.000000 
#    z 0.424290 0.000000 3.797420 
# 
# 
# High freq. dielectric constant tensor:
#      x y z
#    x 1.784420 0.000000 0.029530 
#    y 0.000000 1.753710 0.000000 
#    z 0.029530 0.000000 1.783520 
# 
# From -- ./inp_files/13720.got.cif
#   From: 2010.03.12/outbox.cif.g09.slc.cpg/sg8_7_cif.got.tgz:13720.got - 2010.03.31 10:45:26.
