data_PCOD8052811
_publ_section_title
;
Structure prediction by ZEFSAII (Michael W. Deem and Ramdas Pophale) SiO2 
 PCOD8052811
Probable space group: C M
;
_chemical_formula_sum "Si O2"
_cell_formula_units_Z 32
_cell_length_a 20.202469
_cell_length_b 9.170212
_cell_length_c 12.214051
_cell_angle_alpha 90.000000
_cell_angle_beta 54.114757
_cell_angle_gamma 90.000000
_cell_volume 1833.292860
_symmetry_space_group_name_H-M "C M"
_symmetry_group_IT_number 8
_symmetry_cell_setting 'monoclinic'
loop_
_space_group_symop_operation_xyz
x,y,z
x,-y,z
1/2+x,1/2+y,z
1/2+x,1/2-y,z
loop_
_atom_site_type_symbol
_atom_site_label
_atom_site_fract_x
_atom_site_fract_y
_atom_site_fract_z
Si Si1 0.065750 0.826988 0.215660
Si Si2 0.179421 0.169587 0.294420
Si Si3 0.725732 0.826605 0.463209
Si Si4 0.650473 0.328951 0.741881
Si Si5 0.703159 0.327307 0.924477
Si Si6 0.908341 0.173276 0.253880
Si Si7 0.462587 0.329253 0.964644
Si Si8 0.824331 0.669183 0.986108
O O1 0.098748 0.782782 0.303708
O O2 0.973526 0.770673 0.282047
O O3 0.068768 0.000000 0.202931
O O4 0.125190 0.760934 0.064412
O O5 0.178780 0.267493 0.402756
O O6 0.259527 0.202186 0.144875
O O7 0.175551 0.000000 0.331308
O O8 0.682396 0.766068 0.611825
O O9 0.818955 0.767721 0.371479
O O10 0.721437 0.000000 0.467318
O O11 0.662450 0.500000 0.705752
O O12 0.701643 0.278184 0.799528
O O13 0.556179 0.290270 0.852317
O O14 0.694921 0.500000 0.938702
O O15 0.786234 0.279355 0.906201
O O16 0.907584 0.000000 0.250812
O O17 0.935646 0.233534 0.108896
O O18 0.447248 0.500000 0.974292
O O19 0.407384 0.256996 0.924284
O O20 0.846575 0.500000 0.961389
#
# Coordination Sequence:
#
# PCOD8052811 Si02
#       8
#     4   4   4   4   4   4   4   4
#     4   8  13  26  51  78  98 121 165 215 247 284
#     4   9  17  30  51  77 102 131 169 207 244 294
#     4  11  22  34  50  73 107 140 163 201 259 308
#     4  10  20  35  55  74  98 134 176 211 241 294
#     4   8  14  28  50  75  99 128 164 205 251 292
#     4   9  16  29  50  76 100 126 165 209 251 292
#     4  10  18  31  53  78 100 129 170 211 249 292
#     4   9  17  29  50  79 106 129 160 207 256 298
#
# _framework density 17.454930999999998
#
# number of rings (size 3 to 8) (size 9 to 14) (size 15 to 20)
#    0.000    2.750    2.500    1.875    0.000    0.500 
#    0.000    1.875    0.000    7.500    0.000    0.000 
#    0.000    0.000    0.000    0.000    0.000    0.000 
#
# Total GULP energy -198316.599097 kJ/mol
# GULP energy per Si atom -12394.787444 kJ/mol
# Density = 1.741520 g / cm^3
# Si number density = 17.454931 Si / 1000 Ang^3
#
#
#
# Elastic Constant Matrix: (Units=GPa)
#
#
# Indices 1 2 3 4 5 6 
#
# 1 164.6080 42.8086 64.3475 0.0000 13.9145 0.0000
# 2 42.8086 37.8270 41.3661 0.0000 4.3862 0.0000
# 3 64.3475 41.3661 96.4524 0.0000 10.8528 0.0000
# 4 0.0000 0.0000 0.0000 19.1585 0.0000 -1.9450
# 5 13.9145 4.3862 10.8528 0.0000 24.6354 0.0000
# 6 0.0000 0.0000 0.0000 -1.9450 0.0000 23.4042
#
#
#
# Elastic Compliance Matrix: (Units=1/GPa)
#
#
# Indices 1 2 3 4 5 6 
#
# 1 0.009247 -0.007039 -0.002845 0.000000 -0.002717 0.000000
# 2 -0.007039 0.055152 -0.019254 0.000000 0.002639 0.000000
# 3 -0.002845 -0.019254 0.020997 0.000000 -0.004215 0.000000
# 4 0.000000 0.000000 0.000000 0.052640 0.000000 0.004375
# 5 -0.002717 0.002639 -0.004215 0.000000 0.043514 0.000000
# 6 0.000000 0.000000 0.000000 0.004375 0.000000 0.043091
#
#
# Mechanical properties :
#
#
# Convention : Reuss Voigt Hill
#
# Bulk Modulus (GPa) = 36.87206 66.21466 51.54336
# Shear Modulus (GPa) = 17.12576 23.46396 20.29486
#
# Velocity S-wave (km/s) = 3.13572 3.67039 3.41354
# Velocity P-wave (km/s) = 5.85494 7.48194 6.71787
#
# Compressibility (1/GPa) = 0.02712081
#
# Stress axis : x y z
#
# Youngs Moduli (GPa) = 108.13872 18.13172 47.62490
#
# Poissons Ratio (x) = 0.12764 0.13547
# Poissons Ratio (y) = 0.76124 0.91697
# Poissons Ratio (z) = 0.30761 0.34911
#
# Static dielectric constant tensor:
#      x y z
#    x 3.685000 0.000000 0.056090 
#    y 0.000000 2.827540 0.000000 
#    z 0.056090 0.000000 3.081170 
# 
# 
# High freq. dielectric constant tensor:
#      x y z
#    x 1.694870 0.000000 0.006450 
#    y 0.000000 1.633550 0.000000 
#    z 0.006450 0.000000 1.649550 
# 
# From -- ./inp_files/23053.got.cif
#   From: 2010.03.12/outbox.cif.g09.slc.cpg/sg8_12_cif.got.tgz:23053.got - 2010.03.31 10:45:26.
