data_PCOD8052857
_publ_section_title
;
Structure prediction by ZEFSAII (Michael W. Deem and Ramdas Pophale) SiO2 
 PCOD8052857
Probable space group: C M
;
_chemical_formula_sum "Si O2"
_cell_formula_units_Z 32
_cell_length_a 20.585452
_cell_length_b 8.750791
_cell_length_c 12.242161
_cell_angle_alpha 90.000000
_cell_angle_beta 127.984063
_cell_angle_gamma 90.000000
_cell_volume 1738.170209
_symmetry_space_group_name_H-M "C M"
_symmetry_group_IT_number 8
_symmetry_cell_setting 'monoclinic'
loop_
_space_group_symop_operation_xyz
x,y,z
x,-y,z
1/2+x,1/2+y,z
1/2+x,1/2-y,z
loop_
_atom_site_type_symbol
_atom_site_label
_atom_site_fract_x
_atom_site_fract_y
_atom_site_fract_z
Si Si1 0.930290 0.320043 0.710500
Si Si2 0.742381 0.680065 0.541046
Si Si3 0.324066 0.320339 0.260071
Si Si4 0.206067 0.680235 0.955945
Si Si5 0.180112 0.680935 0.265330
Si Si6 0.483319 0.679413 0.540954
Si Si7 0.669756 0.321782 0.695719
Si Si8 0.073563 0.819381 0.976790
O O1 0.937928 0.500000 0.735230
O O2 0.836010 0.265117 0.621352
O O3 0.968053 0.274480 0.633770
O O4 0.980522 0.236127 0.858555
O O5 0.732831 0.500000 0.516125
O O6 0.683069 0.761338 0.392319
O O7 0.712490 0.733143 0.629050
O O8 0.321755 0.500000 0.265735
O O9 0.262065 0.257100 0.288708
O O10 0.416997 0.264364 0.380851
O O11 0.290727 0.270170 0.106100
O O12 0.191209 0.500000 0.949237
O O13 0.213472 0.730991 0.838795
O O14 0.129198 0.761901 0.933691
O O15 0.172310 0.500000 0.254030
O O16 0.101484 0.750983 0.121793
O O17 0.473657 0.500000 0.558002
O O18 0.573091 0.717891 0.587403
O O19 0.683822 0.500000 0.731610
O O20 0.077401 0.000000 0.985790
#
# Coordination Sequence:
#
# PCOD8052857 Si02
#       8
#     4   4   4   4   4   4   4   4
#     4  11  21  34  54  81 112 144 188 237 273 319
#     4  10  22  38  54  79 116 154 188 224 275 333
#     4   8  16  30  51  79 106 133 173 226 271 316
#     4  10  19  33  53  80 112 144 182 228 275 325
#     4  10  19  34  56  82 111 143 184 229 277 329
#     4  10  18  33  56  80 106 141 186 229 274 326
#     4  10  21  36  55  79 112 152 185 222 275 334
#     4  11  21  34  55  82 111 143 184 231 282 332
#
# _framework density 18.410164000000002
#
# number of rings (size 3 to 8) (size 9 to 14) (size 15 to 20)
#    0.000    2.000    2.500    3.000    0.000    1.000 
#    0.000    1.875    0.000    1.500    0.000    0.000 
#    0.000    0.000    0.000    0.000    0.000    0.000 
#
# Total GULP energy -198400.841892 kJ/mol
# GULP energy per Si atom -12400.052618 kJ/mol
# Density = 1.836826 g / cm^3
# Si number density = 18.410164 Si / 1000 Ang^3
#
#
#
# Elastic Constant Matrix: (Units=GPa)
#
#
# Indices 1 2 3 4 5 6 
#
# 1 68.2529 29.0944 46.4599 0.0000 -5.5296 0.0000
# 2 29.0944 73.1144 49.1319 0.0000 -5.1809 0.0000
# 3 46.4599 49.1319 165.7102 0.0000 -3.8092 0.0000
# 4 0.0000 0.0000 0.0000 32.9206 0.0000 -3.0030
# 5 -5.5296 -5.1809 -3.8092 0.0000 25.8626 0.0000
# 6 0.0000 0.0000 0.0000 -3.0030 0.0000 19.1095
#
#
#
# Elastic Compliance Matrix: (Units=1/GPa)
#
#
# Indices 1 2 3 4 5 6 
#
# 1 0.019699 -0.004972 -0.003988 0.000000 0.002628 0.000000
# 2 -0.004972 0.018523 -0.004051 0.000000 0.002051 0.000000
# 3 -0.003988 -0.004051 0.008344 0.000000 -0.000435 0.000000
# 4 0.000000 0.000000 0.000000 0.030818 0.000000 0.004843
# 5 0.002628 0.002051 -0.000435 0.000000 0.039574 0.000000
# 6 0.000000 0.000000 0.000000 0.004843 0.000000 0.053091
#
#
# Mechanical properties :
#
#
# Convention : Reuss Voigt Hill
#
# Bulk Modulus (GPa) = 48.67842 61.82779 55.25310
# Shear Modulus (GPa) = 24.64030 27.73797 26.18914
#
# Velocity S-wave (km/s) = 3.66239 3.88579 3.77574
# Velocity P-wave (km/s) = 6.66203 7.33409 7.00612
#
# Compressibility (1/GPa) = 0.02054298
#
# Stress axis : x y z
#
# Youngs Moduli (GPa) = 50.76475 53.98614 119.84935
#
# Poissons Ratio (x) = 0.26844 0.47798
# Poissons Ratio (y) = 0.25243 0.48548
# Poissons Ratio (z) = 0.20246 0.21868
#
# Static dielectric constant tensor:
#      x y z
#    x 3.226640 0.000000 0.198920 
#    y 0.000000 3.250470 0.000000 
#    z 0.198920 0.000000 3.852370 
# 
# 
# High freq. dielectric constant tensor:
#      x y z
#    x 1.679520 0.000000 0.007440 
#    y 0.000000 1.707140 0.000000 
#    z 0.007440 0.000000 1.734860 
# 
# From -- ./inp_files/23857.got.cif
#   From: 2010.03.12/outbox.cif.g09.slc.cpg/sg8_12_cif.got.tgz:23857.got - 2010.03.31 10:45:26.
