data_PCOD8052490
_publ_section_title
;
Structure prediction by ZEFSAII (Michael W. Deem and Ramdas Pophale) SiO2 
 PCOD8052490
Probable space group: P M
;
_chemical_formula_sum "Si O2"
_cell_formula_units_Z 14
_cell_length_a 5.008363
_cell_length_b 13.389444
_cell_length_c 10.306214
_cell_angle_alpha 90.000000
_cell_angle_beta 112.616906
_cell_angle_gamma 90.000000
_cell_volume 637.976580
_symmetry_space_group_name_H-M "P M"
_symmetry_group_IT_number 6
_symmetry_cell_setting 'monoclinic'
loop_
_space_group_symop_operation_xyz
x,y,z
x,-y,z
loop_
_atom_site_type_symbol
_atom_site_label
_atom_site_fract_x
_atom_site_fract_y
_atom_site_fract_z
Si Si1 0.629090 0.761017 0.572120
Si Si2 0.880338 0.314359 0.860324
Si Si3 0.739735 0.108343 0.909815
Si Si4 0.195881 0.885271 0.641859
Si Si5 0.554268 0.238032 0.274589
Si Si6 0.493887 0.614191 0.023677
Si Si7 0.996627 0.112296 0.224944
O O1 0.694316 0.674260 0.691760
O O2 0.338822 0.823564 0.549504
O O3 0.584078 0.710917 0.422472
O O4 0.889037 0.840411 0.622632
O O5 0.938588 0.195890 0.888570
O O6 0.721020 0.355908 0.956837
O O7 0.179630 0.372010 0.901649
O O8 0.408218 0.126293 0.805735
O O9 0.851955 0.000000 0.878652
O O10 0.751174 0.110290 0.067407
O O11 0.156815 0.000000 0.592335
O O12 0.534016 0.322585 0.161863
O O13 0.844055 0.171280 0.313642
O O14 0.275876 0.167212 0.219730
O O15 0.543582 0.500000 0.072278
O O16 0.079968 0.000000 0.284108
#
# Coordination Sequence:
#
# PCOD8052490 Si02
#       7
#     2   2   2   2   2   2   2
#     4  11  24  38  64  90 129 170 205 258 318 363
#     4  11  22  44  66  95 126 159 213 261 307 375
#     4   9  18  35  60  93 128 165 207 253 301 355
#     4  10  21  36  58  90 131 176 218 249 294 365
#     4  12  24  43  62  95 132 168 208 259 312 377
#     4  12  25  45  70  92 119 161 212 267 325 377
#     4  11  23  37  62  95 133 173 210 253 306 366
#
# _framework density 21.944379999999999
#
# number of rings (size 3 to 8) (size 9 to 14) (size 15 to 20)
#    0.000    1.143    2.857    3.857    0.000    4.000 
#    0.000    6.429    0.000    0.000    0.000    0.000 
#    0.000    0.000    0.000    0.000    0.000    0.000 
#
# Total GULP energy -173570.552805 kJ/mol
# GULP energy per Si atom -12397.896629 kJ/mol
# Density = 2.189443 g / cm^3
# Si number density = 21.944380 Si / 1000 Ang^3
#
#
#
# Elastic Constant Matrix: (Units=GPa)
#
#
# Indices 1 2 3 4 5 6 
#
# 1 91.1047 34.0071 0.2339 0.0000 4.5692 0.0000
# 2 34.0071 118.0538 31.1742 0.0000 -4.8812 0.0000
# 3 0.2339 31.1742 102.4407 0.0000 -14.4613 0.0000
# 4 0.0000 0.0000 0.0000 9.6250 0.0000 4.4417
# 5 4.5692 -4.8812 -14.4613 0.0000 27.7660 0.0000
# 6 0.0000 0.0000 0.0000 4.4417 0.0000 15.3579
#
#
#
# Elastic Compliance Matrix: (Units=1/GPa)
#
#
# Indices 1 2 3 4 5 6 
#
# 1 0.012560 -0.003936 0.000842 0.000000 -0.002321 0.000000
# 2 -0.003936 0.010445 -0.003043 0.000000 0.000899 0.000000
# 3 0.000842 -0.003043 0.011431 0.000000 0.005280 0.000000
# 4 0.000000 0.000000 0.000000 0.119899 0.000000 -0.034676
# 5 -0.002321 0.000899 0.005280 0.000000 0.039305 0.000000
# 6 0.000000 0.000000 0.000000 -0.034676 0.000000 0.075142
#
#
# Mechanical properties :
#
#
# Convention : Reuss Voigt Hill
#
# Bulk Modulus (GPa) = 45.12308 49.15886 47.14097
# Shear Modulus (GPa) = 17.33438 26.96205 22.14822
#
# Velocity S-wave (km/s) = 2.81361 3.50902 3.18038
# Velocity P-wave (km/s) = 5.58232 6.23441 5.91735
#
# Compressibility (1/GPa) = 0.02216161
#
# Stress axis : x y z
#
# Youngs Moduli (GPa) = 79.61844 95.73706 87.48017
#
# Poissons Ratio (x) = 0.37684 -0.07362
# Poissons Ratio (y) = 0.31340 0.26618
# Poissons Ratio (z) = -0.06701 0.29130
#
# Static dielectric constant tensor:
#      x y z
#    x 3.881010 0.000000 -0.059010 
#    y 0.000000 3.822280 0.000000 
#    z -0.059010 0.000000 4.262800 
# 
# 
# High freq. dielectric constant tensor:
#      x y z
#    x 1.867060 0.000000 -0.003650 
#    y 0.000000 1.825770 0.000000 
#    z -0.003650 0.000000 1.880700 
# 
# From -- ./inp_files/4423.got.cif
#   From: 2010.03.12/outbox.cif.g09.slc.cpg/sg6_3_cif.got.tgz:4423.got - 2010.03.30 10:24:59.
