data_PCOD8052293
_publ_section_title
;
Structure prediction by ZEFSAII (Michael W. Deem and Ramdas Pophale) SiO2 
 PCOD8052293
Probable space group: P M
;
_chemical_formula_sum "Si O2"
_cell_formula_units_Z 16
_cell_length_a 12.082432
_cell_length_b 8.558615
_cell_length_c 9.916915
_cell_angle_alpha 90.000000
_cell_angle_beta 128.464167
_cell_angle_gamma 90.000000
_cell_volume 802.961496
_symmetry_space_group_name_H-M "P M"
_symmetry_group_IT_number 6
_symmetry_cell_setting 'monoclinic'
loop_
_space_group_symop_operation_xyz
x,y,z
x,-y,z
loop_
_atom_site_type_symbol
_atom_site_label
_atom_site_fract_x
_atom_site_fract_y
_atom_site_fract_z
Si Si1 0.751340 0.814302 0.613570
Si Si2 0.060436 0.813514 0.937495
Si Si3 0.786622 0.180561 0.101208
Si Si4 0.321712 0.183923 0.642076
Si Si5 0.311436 0.813666 0.936857
Si Si6 0.097149 0.180200 0.266207
Si Si7 0.622727 0.814655 0.237533
Si Si8 0.604109 0.319533 0.748436
O O1 0.705687 0.754699 0.431563
O O2 0.634855 0.737240 0.621406
O O3 0.909435 0.753823 0.766686
O O4 0.742117 0.000000 0.621115
O O5 0.184596 0.749682 0.934281
O O6 0.058632 0.000000 0.938749
O O7 0.086871 0.745102 0.108374
O O8 0.710203 0.247217 0.175687
O O9 0.954030 0.199792 0.242941
O O10 0.746238 0.000000 0.042641
O O11 0.743210 0.285203 0.941238
O O12 0.290629 0.250555 0.768563
O O13 0.217762 0.260015 0.450734
O O14 0.480609 0.219543 0.721632
O O15 0.297303 0.000000 0.627802
O O16 0.311495 0.000000 0.936771
O O17 0.461523 0.751833 0.109141
O O18 0.135401 0.000000 0.273155
O O19 0.622068 0.000000 0.235618
O O20 0.562760 0.500000 0.717653
#
# Coordination Sequence:
#
# PCOD8052293 Si02
#       8
#     2   2   2   2   2   2   2   2
#     4  10  20  35  57  83 112 146 181 230 285 329
#     4   9  17  29  48  81 116 140 171 219 274 332
#     4  10  18  36  60  85 112 142 185 236 283 332
#     4  10  20  35  57  83 112 146 181 230 285 329
#     4   9  17  29  48  81 116 140 171 219 274 332
#     4   9  18  30  53  85 111 139 179 225 277 333
#     4   9  18  30  53  85 111 139 179 225 277 333
#     4  12  24  38  56  79 110 152 197 236 271 326
#
# _framework density 19.926234999999998
#
# number of rings (size 3 to 8) (size 9 to 14) (size 15 to 20)
#    0.000    2.250    2.500    1.125    3.500    0.000 
#    0.000    1.250    0.000    0.750    0.000    0.000 
#    0.000    0.000    0.000    0.000    0.000    0.000 
#
# Total GULP energy -198365.604205 kJ/mol
# GULP energy per Si atom -12397.850263 kJ/mol
# Density = 1.988088 g / cm^3
# Si number density = 19.926235 Si / 1000 Ang^3
#
#
#
# Elastic Constant Matrix: (Units=GPa)
#
#
# Indices 1 2 3 4 5 6 
#
# 1 138.1800 7.6731 58.4806 0.0000 -13.1021 0.0000
# 2 7.6731 11.0556 14.7019 0.0000 -1.2465 0.0000
# 3 58.4806 14.7019 162.2379 0.0000 -4.5720 0.0000
# 4 0.0000 0.0000 0.0000 3.0554 0.0000 -0.4359
# 5 -13.1021 -1.2465 -4.5720 0.0000 34.1430 0.0000
# 6 0.0000 0.0000 0.0000 -0.4359 0.0000 2.7168
#
#
#
# Elastic Compliance Matrix: (Units=1/GPa)
#
#
# Indices 1 2 3 4 5 6 
#
# 1 0.008866 -0.001913 -0.002940 0.000000 0.002939 0.000000
# 2 -0.001913 0.103474 -0.008634 0.000000 0.001888 0.000000
# 3 -0.002940 -0.008634 0.007995 0.000000 -0.000373 0.000000
# 4 0.000000 0.000000 0.000000 0.334959 0.000000 0.053747
# 5 0.002939 0.001888 -0.000373 0.000000 0.030435 0.000000
# 6 0.000000 0.000000 0.000000 0.053747 0.000000 0.376706
#
#
# Mechanical properties :
#
#
# Convention : Reuss Voigt Hill
#
# Bulk Modulus (GPa) = 10.71099 52.57607 31.64353
# Shear Modulus (GPa) = 5.43166 23.35756 14.39461
#
# Velocity S-wave (km/s) = 1.65282 3.42746 2.69066
# Velocity P-wave (km/s) = 3.00489 6.48891 5.05645
#
# Compressibility (1/GPa) = 0.09336206
#
# Stress axis : x y z
#
# Youngs Moduli (GPa) = 112.79120 9.66428 125.07296
#
# Poissons Ratio (x) = 0.01849 0.36767
# Poissons Ratio (y) = 0.21575 1.07988
# Poissons Ratio (z) = 0.33157 0.08344
#
# Static dielectric constant tensor:
#      x y z
#    x 3.744380 0.000000 -0.086690 
#    y 0.000000 2.909450 0.000000 
#    z -0.086690 0.000000 3.974490 
# 
# 
# High freq. dielectric constant tensor:
#      x y z
#    x 1.789500 0.000000 -0.002510 
#    y 0.000000 1.702850 0.000000 
#    z -0.002510 0.000000 1.791550 
# 
# From -- ./inp_files/3647.got.cif
#   From: 2010.03.12/outbox.cif.g09.slc.cpg/sg6_2_cif.got.tgz:3647.got - 2010.03.30 10:24:59.
