data_PCOD8052246
_publ_section_title
;
Structure prediction by ZEFSAII (Michael W. Deem and Ramdas Pophale) SiO2 
 PCOD8052246
Probable space group: P M
;
_chemical_formula_sum "Si O2"
_cell_formula_units_Z 16
_cell_length_a 17.254775
_cell_length_b 9.002270
_cell_length_c 11.541742
_cell_angle_alpha 90.000000
_cell_angle_beta 148.357450
_cell_angle_gamma 90.000000
_cell_volume 940.537511
_symmetry_space_group_name_H-M "P M"
_symmetry_group_IT_number 6
_symmetry_cell_setting 'monoclinic'
loop_
_space_group_symop_operation_xyz
x,y,z
x,-y,z
loop_
_atom_site_type_symbol
_atom_site_label
_atom_site_fract_x
_atom_site_fract_y
_atom_site_fract_z
Si Si1 0.188000 0.670653 0.067500
Si Si2 0.519185 0.175300 0.861942
Si Si3 0.858187 0.673233 0.687740
Si Si4 0.376664 0.664211 0.875403
Si Si5 0.619185 0.827743 0.532604
Si Si6 0.701446 0.336535 0.263112
Si Si7 0.482616 0.325882 0.571497
Si Si8 0.315615 0.170905 0.018951
O O1 0.201547 0.500000 0.045625
O O2 0.314618 0.710826 0.320964
O O3 0.203194 0.768194 0.971591
O O4 0.031377 0.703421 0.928520
O O5 0.380618 0.243054 0.759231
O O6 0.516908 0.238180 0.731057
O O7 0.506221 0.000000 0.843348
O O8 0.675337 0.224323 0.121529
O O9 0.817404 0.500000 0.652781
O O10 0.770101 0.772606 0.666638
O O11 0.820533 0.722562 0.507457
O O12 0.308432 0.500000 0.766556
O O13 0.546010 0.649914 0.134632
O O14 0.284391 0.746554 0.857761
O O15 0.594956 0.732117 0.617255
O O16 0.483719 0.803016 0.272687
O O17 0.635100 0.000000 0.586531
O O18 0.747659 0.500000 0.274298
O O19 0.508033 0.500000 0.623718
O O20 0.280416 0.000000 0.953631
#
# Coordination Sequence:
#
# PCOD8052246 Si02
#       8
#     2   2   2   2   2   2   2   2
#     4   9  20  33  49  71 100 133 162 194 236 288
#     4  10  18  29  47  72  98 123 159 203 243 281
#     4  10  18  32  51  74 100 129 161 194 238 291
#     4   9  16  27  46  71  95 122 154 193 237 280
#     4  10  19  29  46  71  97 126 161 201 241 281
#     4   8  16  28  47  72  96 123 155 193 235 281
#     4  10  19  33  50  70  96 129 166 201 236 280
#     4  10  18  29  46  71 100 127 160 199 240 282
#
# _framework density 17.01155
#
# number of rings (size 3 to 8) (size 9 to 14) (size 15 to 20)
#    0.750    1.750    1.250    2.250    0.000    2.500 
#    0.000    0.000    0.000    1.500    0.000   10.500 
#    0.000    0.000    0.000    0.000    0.000    0.000 
#
# Total GULP energy -198297.719752 kJ/mol
# GULP energy per Si atom -12393.607484 kJ/mol
# Density = 1.697283 g / cm^3
# Si number density = 17.011550 Si / 1000 Ang^3
#
#
#
# Elastic Constant Matrix: (Units=GPa)
#
#
# Indices 1 2 3 4 5 6 
#
# 1 89.8136 59.6496 39.3593 0.0000 -11.0085 0.0000
# 2 59.6496 121.3569 30.8077 0.0000 -14.4990 0.0000
# 3 39.3593 30.8077 55.2803 0.0000 -4.6656 0.0000
# 4 0.0000 0.0000 0.0000 15.8131 0.0000 -4.8840
# 5 -11.0085 -14.4990 -4.6656 0.0000 28.0412 0.0000
# 6 0.0000 0.0000 0.0000 -4.8840 0.0000 31.4370
#
#
#
# Elastic Compliance Matrix: (Units=1/GPa)
#
#
# Indices 1 2 3 4 5 6 
#
# 1 0.020963 -0.007281 -0.010641 0.000000 0.002695 0.000000
# 2 -0.007281 0.012623 -0.001563 0.000000 0.003408 0.000000
# 3 -0.010641 -0.001563 0.026488 0.000000 -0.000578 0.000000
# 4 0.000000 0.000000 0.000000 0.066426 0.000000 0.010320
# 5 0.002695 0.003408 -0.000578 0.000000 0.038386 0.000000
# 6 0.000000 0.000000 0.000000 0.010320 0.000000 0.033413
#
#
# Mechanical properties :
#
#
# Convention : Reuss Voigt Hill
#
# Bulk Modulus (GPa) = 47.38236 58.45377 52.91807
# Shear Modulus (GPa) = 20.46642 24.16721 22.31682
#
# Velocity S-wave (km/s) = 3.47232 3.77322 3.62589
# Velocity P-wave (km/s) = 6.63246 7.30881 6.97884
#
# Compressibility (1/GPa) = 0.02110490
#
# Stress axis : x y z
#
# Youngs Moduli (GPa) = 47.70328 79.22190 37.75275
#
# Poissons Ratio (x) = 0.57678 0.40171
# Poissons Ratio (y) = 0.34731 0.05902
# Poissons Ratio (z) = 0.50759 0.12385
#
# Static dielectric constant tensor:
#      x y z
#    x 2.989060 0.000000 -0.050660 
#    y 0.000000 3.238800 0.000000 
#    z -0.050660 0.000000 2.873540 
# 
# 
# High freq. dielectric constant tensor:
#      x y z
#    x 1.643470 0.000000 -0.011370 
#    y 0.000000 1.666390 0.000000 
#    z -0.011370 0.000000 1.615590 
# 
# From -- ./inp_files/5345.got.cif
#   From: 2010.03.12/outbox.cif.g09.slc.cpg/sg6_3_cif.got.tgz:5345.got - 2010.03.30 10:24:59.
