data_PCOD8052288
_publ_section_title
;
Structure prediction by ZEFSAII (Michael W. Deem and Ramdas Pophale) SiO2 
 PCOD8052288
Probable space group: P M
;
_chemical_formula_sum "Si O2"
_cell_formula_units_Z 12
_cell_length_a 10.290857
_cell_length_b 8.614427
_cell_length_c 14.852808
_cell_angle_alpha 90.000000
_cell_angle_beta 151.706775
_cell_angle_gamma 90.000000
_cell_volume 624.094381
_symmetry_space_group_name_H-M "P M"
_symmetry_group_IT_number 6
_symmetry_cell_setting 'monoclinic'
loop_
_space_group_symop_operation_xyz
x,y,z
x,-y,z
loop_
_atom_site_type_symbol
_atom_site_label
_atom_site_fract_x
_atom_site_fract_y
_atom_site_fract_z
Si Si1 0.199650 0.319319 0.856640
Si Si2 0.530190 0.183882 0.894536
Si Si3 0.554701 0.818111 0.220053
Si Si4 0.617662 0.817637 0.465743
Si Si5 0.137304 0.815315 0.501883
Si Si6 0.132145 0.815334 0.297221
O O1 0.236912 0.500000 0.861764
O O2 0.372576 0.226391 0.888832
O O3 0.882761 0.275517 0.657974
O O4 0.309247 0.273414 0.022123
O O5 0.372469 0.252412 0.711209
O O6 0.537130 0.000000 0.893317
O O7 0.839133 0.250793 0.084799
O O8 0.539524 0.779121 0.315931
O O9 0.843063 0.756474 0.357008
O O10 0.517237 0.000000 0.178854
O O11 0.368664 0.756271 0.375337
O O12 0.673794 0.000000 0.513024
O O13 0.191596 0.753185 0.434338
O O14 0.141132 0.000000 0.507450
O O15 0.121422 0.000000 0.291430
#
# Coordination Sequence:
#
# PCOD8052288 Si02
#       6
#     2   2   2   2   2   2
#     4  12  24  36  55  84 116 154 191 229 277 334
#     4  10  18  34  59  85 111 143 186 234 278 330
#     4  10  19  35  60  86 111 145 189 235 279 328
#     4  10  21  38  60  87 114 145 186 235 284 331
#     4   9  16  29  56  88 111 136 176 230 283 327
#     4   9  18  32  56  88 115 137 176 235 289 328
#
# _framework density 19.227861999999998
#
# number of rings (size 3 to 8) (size 9 to 14) (size 15 to 20)
#    0.000    2.000    3.333    1.500    0.000    2.000 
#    0.000    5.833    0.000    2.000    0.000    0.000 
#    0.000    0.000    0.000    0.000    0.000    0.000 
#
# Total GULP energy -148813.654583 kJ/mol
# GULP energy per Si atom -12401.137882 kJ/mol
# Density = 1.918410 g / cm^3
# Si number density = 19.227862 Si / 1000 Ang^3
#
#
#
# Elastic Constant Matrix: (Units=GPa)
#
#
# Indices 1 2 3 4 5 6 
#
# 1 147.8109 6.2138 67.8493 0.0000 1.2473 0.0000
# 2 6.2138 9.7626 17.9587 0.0000 -6.2691 0.0000
# 3 67.8493 17.9587 154.0220 0.0000 -8.6963 0.0000
# 4 0.0000 0.0000 0.0000 8.2261 0.0000 0.0124
# 5 1.2473 -6.2691 -8.6963 0.0000 40.4276 0.0000
# 6 0.0000 0.0000 0.0000 0.0124 0.0000 3.0315
#
#
#
# Elastic Compliance Matrix: (Units=1/GPa)
#
#
# Indices 1 2 3 4 5 6 
#
# 1 0.008538 0.001259 -0.003960 0.000000 -0.000920 0.000000
# 2 0.001259 0.143512 -0.016231 0.000000 0.018724 0.000000
# 3 -0.003960 -0.016231 0.010117 0.000000 -0.000218 0.000000
# 4 0.000000 0.000000 0.000000 0.121566 0.000000 -0.000495
# 5 -0.000920 0.018724 -0.000218 0.000000 0.027620 0.000000
# 6 0.000000 0.000000 0.000000 -0.000495 0.000000 0.329877
#
#
# Mechanical properties :
#
#
# Convention : Reuss Voigt Hill
#
# Bulk Modulus (GPa) = 8.04479 55.07102 31.55790
# Shear Modulus (GPa) = 6.93936 24.97526 15.95731
#
# Velocity S-wave (km/s) = 1.90180 3.60795 2.88393
# Velocity P-wave (km/s) = 3.00258 6.78674 5.24763
#
# Compressibility (1/GPa) = 0.12430413
#
# Stress axis : x y z
#
# Youngs Moduli (GPa) = 117.12460 6.96807 98.84239
#
# Poissons Ratio (x) = -0.00877 0.39140
# Poissons Ratio (y) = -0.14749 1.60429
# Poissons Ratio (z) = 0.46380 0.11310
#
# Static dielectric constant tensor:
#      x y z
#    x 3.648190 0.000000 -0.097680 
#    y 0.000000 2.996030 0.000000 
#    z -0.097680 0.000000 3.884830 
# 
# 
# High freq. dielectric constant tensor:
#      x y z
#    x 1.751510 0.000000 -0.009280 
#    y 0.000000 1.697930 0.000000 
#    z -0.009280 0.000000 1.764090 
# 
# From -- ./inp_files/2611.got.cif
#   From: 2010.03.12/outbox.cif.g09.slc.cpg/sg6_2_cif.got.tgz:2611.got - 2010.03.30 10:24:59.
