data_PCOD8052682
_publ_section_title
;
Structure prediction by ZEFSAII (Michael W. Deem and Ramdas Pophale) SiO2 
 PCOD8052682
Probable space group: P C
;
_chemical_formula_sum "Si O2"
_cell_formula_units_Z 14
_cell_length_a 6.636808
_cell_length_b 22.965182
_cell_length_c 5.071970
_cell_angle_alpha 90.000000
_cell_angle_beta 132.206798
_cell_angle_gamma 90.000000
_cell_volume 572.615054
_symmetry_space_group_name_H-M "P C"
_symmetry_group_IT_number 7
_symmetry_cell_setting 'monoclinic'
loop_
_space_group_symop_operation_xyz
x,y,z
x,-y,1/2+z
loop_
_atom_site_type_symbol
_atom_site_label
_atom_site_fract_x
_atom_site_fract_y
_atom_site_fract_z
Si Si1 0.592090 0.037880 0.765550
Si Si2 0.198154 0.692175 0.849579
Si Si3 0.690220 0.768760 0.383944
Si Si4 0.733876 0.538088 0.951571
Si Si5 0.493346 0.133194 0.038843
Si Si6 0.941924 0.878574 0.325668
Si Si7 0.240471 0.384487 0.893762
O O1 0.894437 0.067768 0.992012
O O2 0.532448 0.012651 0.423910
O O3 0.416270 0.093860 0.712016
O O4 0.929861 0.727477 0.700837
O O5 0.130121 0.659276 0.518966
O O6 0.458414 0.733295 0.025603
O O7 0.270818 0.647187 0.142408
O O8 0.539766 0.799796 0.498618
O O9 0.824676 0.817197 0.318487
O O10 0.682044 0.487188 0.695872
O O11 0.535678 0.592487 0.735230
O O12 0.040356 0.560779 0.189945
O O13 0.769770 0.106771 0.408926
O O14 0.258282 0.128699 0.048849
#
# Coordination Sequence:
#
# PCOD8052682 Si02
#       7
#     2   2   2   2   2   2   2
#     4  11  24  48  72 106 140 184 230 299 366 420
#     4  12  26  45  72 100 150 183 234 300 352 416
#     4  11  26  43  70 104 136 197 234 289 366 420
#     4  12  24  45  74 102 144 191 236 288 348 414
#     4  11  25  46  73 102 141 181 245 288 348 450
#     4  11  25  46  73 102 141 181 245 288 348 450
#     4  12  26  45  68 110 140 185 242 290 350 414
#
# _framework density 24.449233
#
# number of rings (size 3 to 8) (size 9 to 14) (size 15 to 20)
#    0.000    0.571    1.429    6.000    6.000    4.571 
#    0.000    0.000    0.000    0.000    0.000    0.000 
#    0.000    0.000    0.000    0.000    0.000    0.000 
#
# Total GULP energy -173562.182714 kJ/mol
# GULP energy per Si atom -12397.298765 kJ/mol
# Density = 2.439359 g / cm^3
# Si number density = 24.449233 Si / 1000 Ang^3
#
#
#
# Elastic Constant Matrix: (Units=GPa)
#
#
# Indices 1 2 3 4 5 6 
#
# 1 99.0383 20.6453 11.7557 0.0000 -0.7608 0.0000
# 2 20.6453 92.8108 15.0784 0.0000 -1.0902 0.0000
# 3 11.7557 15.0784 77.0092 0.0000 0.7515 0.0000
# 4 0.0000 0.0000 0.0000 29.9054 0.0000 -1.7178
# 5 -0.7608 -1.0902 0.7515 0.0000 44.1329 0.0000
# 6 0.0000 0.0000 0.0000 -1.7178 0.0000 38.0288
#
#
#
# Elastic Compliance Matrix: (Units=1/GPa)
#
#
# Indices 1 2 3 4 5 6 
#
# 1 0.010696 -0.002181 -0.001207 0.000000 0.000151 0.000000
# 2 -0.002181 0.011578 -0.001937 0.000000 0.000281 0.000000
# 3 -0.001207 -0.001937 0.013552 0.000000 -0.000299 0.000000
# 4 0.000000 0.000000 0.000000 0.033526 0.000000 0.001514
# 5 0.000151 0.000281 -0.000299 0.000000 0.022674 0.000000
# 6 0.000000 0.000000 0.000000 0.001514 0.000000 0.026364
#
#
# Mechanical properties :
#
#
# Convention : Reuss Voigt Hill
#
# Bulk Modulus (GPa) = 39.72135 40.42413 40.07274
# Shear Modulus (GPa) = 36.38167 37.17201 36.77684
#
# Velocity S-wave (km/s) = 3.86171 3.90343 3.88263
# Velocity P-wave (km/s) = 6.01377 6.07334 6.04363
#
# Compressibility (1/GPa) = 0.02517538
#
# Stress axis : x y z
#
# Youngs Moduli (GPa) = 93.49036 86.37214 73.79060
#
# Poissons Ratio (x) = 0.18842 0.08908
# Poissons Ratio (y) = 0.20394 0.14291
# Poissons Ratio (z) = 0.11286 0.16728
#
# Static dielectric constant tensor:
#      x y z
#    x 4.432830 0.000000 -0.080450 
#    y 0.000000 4.611080 0.000000 
#    z -0.080450 0.000000 4.203670 
# 
# 
# High freq. dielectric constant tensor:
#      x y z
#    x 1.984020 0.000000 -0.006870 
#    y 0.000000 1.986840 0.000000 
#    z -0.006870 0.000000 1.960420 
# 
# From -- ./inp_files/406.got.cif
#   From: 2010.03.12/outbox.cif.g09.slc.cpg/sg7_cif.got.tgz:406.got - 2010.03.30 08:40:41.
