data_PCOD8052974
_publ_section_title
;
Structure prediction by ZEFSAII (Michael W. Deem and Ramdas Pophale) SiO2 
 PCOD8052974
Probable space group: C M
;
_chemical_formula_sum "Si O2"
_cell_formula_units_Z 28
_cell_length_a 27.073871
_cell_length_b 9.688144
_cell_length_c 8.767695
_cell_angle_alpha 90.000000
_cell_angle_beta 35.717936
_cell_angle_gamma 90.000000
_cell_volume 1342.570321
_symmetry_space_group_name_H-M "C M"
_symmetry_group_IT_number 8
_symmetry_cell_setting 'monoclinic'
loop_
_space_group_symop_operation_xyz
x,y,z
x,-y,z
1/2+x,1/2+y,z
1/2+x,1/2-y,z
loop_
_atom_site_type_symbol
_atom_site_label
_atom_site_fract_x
_atom_site_fract_y
_atom_site_fract_z
Si Si1 0.013900 0.235270 0.696810
Si Si2 0.339761 0.154424 0.169553
Si Si3 0.620315 0.848350 0.179997
Si Si4 0.377138 0.654315 0.827576
Si Si5 0.452692 0.156800 0.399171
Si Si6 0.041114 0.846350 0.958666
Si Si7 0.203854 0.157527 0.744839
O O1 0.095799 0.305286 0.413745
O O2 0.046444 0.153764 0.762510
O O3 0.968605 0.137384 0.683547
O O4 0.941968 0.345219 0.932279
O O5 0.293885 0.196499 0.442745
O O6 0.310554 0.000000 0.195619
O O7 0.313739 0.264800 0.102606
O O8 0.535526 0.849851 0.294161
O O9 0.661275 0.000000 0.082424
O O10 0.689999 0.748026 0.931042
O O11 0.343776 0.500000 0.871723
O O12 0.383641 0.749488 0.660249
O O13 0.418970 0.000000 0.453331
O O14 0.473933 0.233561 0.187479
O O15 0.133205 0.811784 0.794393
O O16 0.013043 0.000000 0.082222
O O17 0.201996 0.000000 0.804341
#
# Coordination Sequence:
#
# PCOD8052974 Si02
#       7
#     4   4   4   4   4   4   4
#     4   9  19  30  54  76 103 130 171 212 256 295
#     4   9  18  33  53  76 102 134 174 212 252 302
#     4   9  17  31  51  74  99 135 173 209 247 301
#     4   9  17  29  50  75  98 130 170 210 250 294
#     4   9  17  29  47  73 102 132 168 206 249 297
#     4  10  19  32  51  78 107 132 167 212 259 304
#     4   9  19  34  54  76 103 135 169 211 255 303
#
# _framework density 20.855518
#
# number of rings (size 3 to 8) (size 9 to 14) (size 15 to 20)
#    0.857    2.000    0.000    1.714    0.000    5.714 
#    0.000    0.000    3.143    0.000    0.000    0.000 
#    0.000    0.000    0.000    0.000    0.000    0.000 
#
# Total GULP energy -173443.146780 kJ/mol
# GULP energy per Si atom -12388.796199 kJ/mol
# Density = 2.080805 g / cm^3
# Si number density = 20.855518 Si / 1000 Ang^3
#
#
#
# Elastic Constant Matrix: (Units=GPa)
#
#
# Indices 1 2 3 4 5 6 
#
# 1 32.8872 7.0616 12.6973 0.0000 13.8314 0.0000
# 2 7.0616 160.6056 86.1334 0.0000 15.1928 0.0000
# 3 12.6973 86.1334 170.3827 0.0000 22.5199 0.0000
# 4 0.0000 0.0000 0.0000 34.6267 0.0000 7.4368
# 5 13.8314 15.1928 22.5199 0.0000 21.3106 0.0000
# 6 0.0000 0.0000 0.0000 7.4368 0.0000 13.2255
#
#
#
# Elastic Compliance Matrix: (Units=1/GPa)
#
#
# Indices 1 2 3 4 5 6 
#
# 1 0.041921 0.000678 0.000224 0.000000 -0.027929 0.000000
# 2 0.000678 0.008612 -0.004108 0.000000 -0.002238 0.000000
# 3 0.000224 -0.004108 0.008789 0.000000 -0.006505 0.000000
# 4 0.000000 0.000000 0.000000 0.032846 0.000000 -0.018470
# 5 -0.027929 -0.002238 -0.006505 0.000000 0.073521 0.000000
# 6 0.000000 0.000000 0.000000 -0.018470 0.000000 0.085997
#
#
# Mechanical properties :
#
#
# Convention : Reuss Voigt Hill
#
# Bulk Modulus (GPa) = 18.89976 63.96222 41.43099
# Shear Modulus (GPa) = 18.13349 31.03146 24.58247
#
# Velocity S-wave (km/s) = 2.95190 3.86155 3.43695
# Velocity P-wave (km/s) = 4.54974 7.11462 5.97152
#
# Compressibility (1/GPa) = 0.05291072
#
# Stress axis : x y z
#
# Youngs Moduli (GPa) = 23.85457 116.12340 113.78008
#
# Poissons Ratio (x) = -0.07878 -0.02554
# Poissons Ratio (y) = -0.01618 0.46742
# Poissons Ratio (z) = -0.00535 0.47704
#
# Static dielectric constant tensor:
#      x y z
#    x 3.166370 0.000000 0.208710 
#    y 0.000000 3.778820 0.000000 
#    z 0.208710 0.000000 3.761770 
# 
# 
# High freq. dielectric constant tensor:
#      x y z
#    x 1.764170 0.000000 0.023970 
#    y 0.000000 1.816270 0.000000 
#    z 0.023970 0.000000 1.812650 
# 
# From -- ./inp_files/17710.got.cif
#   From: 2010.03.12/outbox.cif.g09.slc.cpg/sg8_9_cif.got.tgz:17710.got - 2010.03.31 10:45:26.
