data_PCOD8052755
_publ_section_title
;
Structure prediction by ZEFSAII (Michael W. Deem and Ramdas Pophale) SiO2 
 PCOD8052755
Probable space group: C M
;
_chemical_formula_sum "Si O2"
_cell_formula_units_Z 32
_cell_length_a 23.191900
_cell_length_b 9.296164
_cell_length_c 11.420116
_cell_angle_alpha 90.000000
_cell_angle_beta 50.797663
_cell_angle_gamma 90.000000
_cell_volume 1907.949027
_symmetry_space_group_name_H-M "C M"
_symmetry_group_IT_number 8
_symmetry_cell_setting 'monoclinic'
loop_
_space_group_symop_operation_xyz
x,y,z
x,-y,z
1/2+x,1/2+y,z
1/2+x,1/2-y,z
loop_
_atom_site_type_symbol
_atom_site_label
_atom_site_fract_x
_atom_site_fract_y
_atom_site_fract_z
Si Si1 0.589600 0.842385 0.030480
Si Si2 0.503757 0.672042 0.468827
Si Si3 0.432034 0.838613 0.358826
Si Si4 0.304136 0.329142 0.092800
Si Si5 0.647263 0.171738 0.197523
Si Si6 0.371165 0.660322 0.243267
Si Si7 0.030022 0.158695 0.916734
Si Si8 0.453471 0.670927 0.790021
O O1 0.507965 0.846600 0.190061
O O2 0.644753 0.787341 0.062444
O O3 0.614440 0.000000 0.957464
O O4 0.591734 0.746050 0.911080
O O5 0.507152 0.500000 0.448021
O O6 0.443311 0.738762 0.457939
O O7 0.584397 0.741313 0.347376
O O8 0.477715 0.719645 0.630924
O O9 0.368717 0.766723 0.357950
O O10 0.406870 0.000000 0.427161
O O11 0.305230 0.500000 0.085852
O O12 0.225567 0.271745 0.146581
O O13 0.315882 0.280448 0.212859
O O14 0.370938 0.268219 0.925478
O O15 0.634342 0.000000 0.230265
O O16 0.347168 0.500000 0.314492
O O17 0.453549 0.652514 0.085661
O O18 0.012962 0.228524 0.810799
O O19 0.063812 0.000000 0.858722
O O20 0.451770 0.500000 0.804753
#
# Coordination Sequence:
#
# PCOD8052755 Si02
#       8
#     4   4   4   4   4   4   4   4
#     4   8  14  23  36  58  84 107 134 169 210 250
#     4  10  18  28  44  65  89 115 146 180 212 255
#     4   9  16  26  40  60  87 114 141 176 218 257
#     4   8  14  27  47  67  87 113 145 179 215 257
#     4   9  17  29  45  65  90 117 143 176 218 258
#     4   8  13  23  42  65  83 103 138 181 218 252
#     4   8  13  23  40  60  80 102 134 175 213 246
#     4   8  15  27  44  66  86 109 143 180 216 253
#
# _framework density 16.771936
#
# number of rings (size 3 to 8) (size 9 to 14) (size 15 to 20)
#    0.000    3.500    0.000    3.000    0.000    3.000 
#    0.000    1.875    0.000    5.250    0.000    7.000 
#    0.000    0.000    0.000    0.000    0.000    0.000 
#
# Total GULP energy -198244.148593 kJ/mol
# GULP energy per Si atom -12390.259287 kJ/mol
# Density = 1.673376 g / cm^3
# Si number density = 16.771936 Si / 1000 Ang^3
#
#
#
# Elastic Constant Matrix: (Units=GPa)
#
#
# Indices 1 2 3 4 5 6 
#
# 1 165.2453 53.4024 58.1089 0.0000 25.0854 0.0000
# 2 53.4024 67.9141 35.0219 0.0000 13.7143 0.0000
# 3 58.1089 35.0219 64.2235 0.0000 21.5539 0.0000
# 4 0.0000 0.0000 0.0000 12.3332 0.0000 4.4969
# 5 25.0854 13.7143 21.5539 0.0000 22.4136 0.0000
# 6 0.0000 0.0000 0.0000 4.4969 0.0000 23.2834
#
#
#
# Elastic Compliance Matrix: (Units=1/GPa)
#
#
# Indices 1 2 3 4 5 6 
#
# 1 0.009848 -0.004257 -0.005558 0.000000 -0.003073 0.000000
# 2 -0.004257 0.022432 -0.007934 0.000000 -0.001331 0.000000
# 3 -0.005558 -0.007934 0.031316 0.000000 -0.019040 0.000000
# 4 0.000000 0.000000 0.000000 0.087225 0.000000 -0.016846
# 5 -0.003073 -0.001331 -0.019040 0.000000 0.067179 0.000000
# 6 0.000000 0.000000 0.000000 -0.016846 0.000000 0.046203
#
#
# Mechanical properties :
#
#
# Convention : Reuss Voigt Hill
#
# Bulk Modulus (GPa) = 35.58952 65.60547 50.59749
# Shear Modulus (GPa) = 16.17775 21.66267 18.92021
#
# Velocity S-wave (km/s) = 3.10913 3.59779 3.36234
# Velocity P-wave (km/s) = 5.84420 7.51398 6.73107
#
# Compressibility (1/GPa) = 0.02809816
#
# Stress axis : x y z
#
# Youngs Moduli (GPa) = 101.53950 44.57853 31.93305
#
# Poissons Ratio (x) = 0.18979 0.17748
# Poissons Ratio (y) = 0.43230 0.25335
# Poissons Ratio (z) = 0.56435 0.35367
#
# Static dielectric constant tensor:
#      x y z
#    x 3.517710 0.000000 0.277430 
#    y 0.000000 3.133940 0.000000 
#    z 0.277430 0.000000 2.824430 
# 
# 
# High freq. dielectric constant tensor:
#      x y z
#    x 1.654460 0.000000 0.030290 
#    y 0.000000 1.625920 0.000000 
#    z 0.030290 0.000000 1.595770 
# 
# From -- ./inp_files/23738.got.cif
#   From: 2010.03.12/outbox.cif.g09.slc.cpg/sg8_12_cif.got.tgz:23738.got - 2010.03.31 10:45:26.
