data_PCOD8052448
_publ_section_title
;
Structure prediction by ZEFSAII (Michael W. Deem and Ramdas Pophale) SiO2 
 PCOD8052448
Probable space group: P M
;
_chemical_formula_sum "Si O2"
_cell_formula_units_Z 16
_cell_length_a 12.411193
_cell_length_b 8.935730
_cell_length_c 12.545127
_cell_angle_alpha 90.000000
_cell_angle_beta 144.126688
_cell_angle_gamma 90.000000
_cell_volume 815.290770
_symmetry_space_group_name_H-M "P M"
_symmetry_group_IT_number 6
_symmetry_cell_setting 'monoclinic'
loop_
_space_group_symop_operation_xyz
x,y,z
x,-y,z
loop_
_atom_site_type_symbol
_atom_site_label
_atom_site_fract_x
_atom_site_fract_y
_atom_site_fract_z
Si Si1 0.558190 0.323680 0.767790
Si Si2 0.818675 0.323723 0.171720
Si Si3 0.075781 0.170759 0.879351
Si Si4 0.451242 0.169891 0.271327
Si Si5 0.183451 0.177810 0.536184
Si Si6 0.682636 0.177511 0.653042
Si Si7 0.672579 0.331822 0.276303
Si Si8 0.083662 0.669990 0.671006
O O1 0.517998 0.500000 0.735448
O O2 0.369938 0.235334 0.632836
O O3 0.646529 0.272162 0.728781
O O4 0.706622 0.281054 0.976920
O O5 0.861553 0.500000 0.216022
O O6 0.696094 0.271435 0.174586
O O7 0.013300 0.238655 0.329546
O O8 0.141758 0.268396 0.832175
O O9 0.884612 0.224385 0.775474
O O10 0.059229 0.000000 0.826806
O O11 0.230621 0.187963 0.095467
O O12 0.537606 0.237864 0.448252
O O13 0.523878 0.237555 0.219820
O O14 0.516496 0.000000 0.321123
O O15 0.176198 0.234025 0.651863
O O16 0.179811 0.000000 0.531082
O O17 0.665620 0.000000 0.662167
O O18 0.598383 0.500000 0.214121
O O19 0.864882 0.319819 0.491309
O O20 0.153698 0.500000 0.714405
#
# Coordination Sequence:
#
# PCOD8052448 Si02
#       8
#     2   2   2   2   2   2   2   2
#     4  11  24  42  65  90 122 162 208 254 302 363
#     4   9  21  41  61  88 124 161 201 251 306 357
#     4  10  21  37  58  86 117 155 200 248 301 356
#     4  10  21  36  57  86 118 155 197 243 297 354
#     4  11  23  39  62  92 124 160 203 249 304 364
#     4  10  22  41  59  82 122 161 202 253 300 351
#     4   9  18  34  57  85 118 154 194 240 297 358
#     4  10  20  36  59  87 123 160 197 244 301 359
#
# _framework density 19.624898999999999
#
# number of rings (size 3 to 8) (size 9 to 14) (size 15 to 20)
#    0.000    2.000    1.250    2.625    1.750    5.500 
#    0.000    1.250    0.000    0.000    0.000    0.000 
#    0.000    0.000    0.000    0.000    0.000    0.000 
#
# Total GULP energy -198423.716985 kJ/mol
# GULP energy per Si atom -12401.482312 kJ/mol
# Density = 1.958023 g / cm^3
# Si number density = 19.624899 Si / 1000 Ang^3
#
#
#
# Elastic Constant Matrix: (Units=GPa)
#
#
# Indices 1 2 3 4 5 6 
#
# 1 100.3465 42.9894 68.0324 0.0000 -14.6115 0.0000
# 2 42.9894 87.8197 49.9583 0.0000 -3.0252 0.0000
# 3 68.0324 49.9583 137.3524 0.0000 -10.7145 0.0000
# 4 0.0000 0.0000 0.0000 20.1657 0.0000 -6.7064
# 5 -14.6115 -3.0252 -10.7145 0.0000 24.3686 0.0000
# 6 0.0000 0.0000 0.0000 -6.7064 0.0000 31.0743
#
#
#
# Elastic Compliance Matrix: (Units=1/GPa)
#
#
# Indices 1 2 3 4 5 6 
#
# 1 0.017239 -0.004603 -0.006320 0.000000 0.006987 0.000000
# 2 -0.004603 0.015594 -0.003579 0.000000 -0.002398 0.000000
# 3 -0.006320 -0.003579 0.011786 0.000000 0.000949 0.000000
# 4 0.000000 0.000000 0.000000 0.053424 0.000000 0.011530
# 5 0.006987 -0.002398 0.000949 0.000000 0.045345 0.000000
# 6 0.000000 0.000000 0.000000 0.011530 0.000000 0.034669
#
#
# Mechanical properties :
#
#
# Convention : Reuss Voigt Hill
#
# Bulk Modulus (GPa) = 64.03600 71.94209 67.98904
# Shear Modulus (GPa) = 23.55536 26.09097 24.82316
#
# Velocity S-wave (km/s) = 3.46826 3.65016 3.56037
# Velocity P-wave (km/s) = 6.98135 7.38262 7.18479
#
# Compressibility (1/GPa) = 0.01561622
#
# Stress axis : x y z
#
# Youngs Moduli (GPa) = 58.00656 64.12885 84.84374
#
# Poissons Ratio (x) = 0.29521 0.53618
# Poissons Ratio (y) = 0.26702 0.30363
# Poissons Ratio (z) = 0.36658 0.22950
#
# Static dielectric constant tensor:
#      x y z
#    x 3.462720 0.000000 0.017070 
#    y 0.000000 3.526350 0.000000 
#    z 0.017070 0.000000 3.694380 
# 
# 
# High freq. dielectric constant tensor:
#      x y z
#    x 1.758750 0.000000 0.002640 
#    y 0.000000 1.759040 0.000000 
#    z 0.002640 0.000000 1.774940 
# 
# From -- ./inp_files/5047.got.cif
#   From: 2010.03.12/outbox.cif.g09.slc.cpg/sg6_3_cif.got.tgz:5047.got - 2010.03.30 10:24:59.
