data_PCOD8052676
_publ_section_title
;
Structure prediction by ZEFSAII (Michael W. Deem and Ramdas Pophale) SiO2 
 PCOD8052676
Probable space group: P C
;
_chemical_formula_sum "Si O2"
_cell_formula_units_Z 12
_cell_length_a 6.424533
_cell_length_b 19.430759
_cell_length_c 5.536737
_cell_angle_alpha 90.000000
_cell_angle_beta 131.894842
_cell_angle_gamma 90.000000
_cell_volume 514.487771
_symmetry_space_group_name_H-M "P C"
_symmetry_group_IT_number 7
_symmetry_cell_setting 'monoclinic'
loop_
_space_group_symop_operation_xyz
x,y,z
x,-y,1/2+z
loop_
_atom_site_type_symbol
_atom_site_label
_atom_site_fract_x
_atom_site_fract_y
_atom_site_fract_z
Si Si1 0.309530 0.634296 0.875000
Si Si2 0.792567 0.457729 0.892472
Si Si3 0.599777 0.255577 0.313328
Si Si4 0.186136 0.241563 0.601244
Si Si5 0.832344 0.958512 0.317005
Si Si6 0.305869 0.868753 0.851301
O O1 0.500291 0.668940 0.816331
O O2 0.071282 0.587012 0.577061
O O3 0.515261 0.588736 0.197928
O O4 0.152952 0.695075 0.894302
O O5 0.789384 0.502300 0.644540
O O6 0.471413 0.194538 0.367880
O O7 0.934100 0.250338 0.596482
O O8 0.493169 0.245556 0.957565
O O9 0.151453 0.165212 0.461637
O O10 0.521501 0.928209 0.091403
O O11 0.874096 0.999594 0.099242
O O12 0.070023 0.899654 0.492863
#
# Coordination Sequence:
#
# PCOD8052676 Si02
#       6
#     2   2   2   2   2   2
#     4  11  26  46  70 108 138 183 244 290 358 421
#     4  12  28  47  74 103 146 194 236 290 350 426
#     4  11  24  43  76 101 139 182 230 307 354 415
#     4  11  24  43  76 101 139 182 230 307 354 415
#     4  12  28  47  74 103 146 194 236 290 350 426
#     4  11  26  46  70 108 138 183 244 290 358 421
#
# _framework density 23.324169999999999
#
# number of rings (size 3 to 8) (size 9 to 14) (size 15 to 20)
#    0.000    0.667    0.000    6.000   14.000    5.333 
#    0.000    0.000    0.000    0.000    0.000    0.000 
#    0.000    0.000    0.000    0.000    0.000    0.000 
#
# Total GULP energy -148789.592335 kJ/mol
# GULP energy per Si atom -12399.132695 kJ/mol
# Density = 2.327108 g / cm^3
# Si number density = 23.324170 Si / 1000 Ang^3
#
#
#
# Elastic Constant Matrix: (Units=GPa)
#
#
# Indices 1 2 3 4 5 6 
#
# 1 88.0526 24.7925 18.1728 0.0000 3.0448 0.0000
# 2 24.7925 85.9140 31.7884 0.0000 -1.5913 0.0000
# 3 18.1728 31.7884 107.3729 0.0000 1.0018 0.0000
# 4 0.0000 0.0000 0.0000 44.1308 0.0000 12.8761
# 5 3.0448 -1.5913 1.0018 0.0000 51.4589 0.0000
# 6 0.0000 0.0000 0.0000 12.8761 0.0000 21.7061
#
#
#
# Elastic Compliance Matrix: (Units=1/GPa)
#
#
# Indices 1 2 3 4 5 6 
#
# 1 0.012526 -0.003199 -0.001165 0.000000 -0.000817 0.000000
# 2 -0.003199 0.013900 -0.003580 0.000000 0.000689 0.000000
# 3 -0.001165 -0.003580 0.010573 0.000000 -0.000248 0.000000
# 4 0.000000 0.000000 0.000000 0.027403 0.000000 -0.016255
# 5 -0.000817 0.000689 -0.000248 0.000000 0.019507 0.000000
# 6 0.000000 0.000000 0.000000 -0.016255 0.000000 0.055713
#
#
# Mechanical properties :
#
#
# Convention : Reuss Voigt Hill
#
# Bulk Modulus (GPa) = 47.36993 47.87189 47.62091
# Shear Modulus (GPa) = 30.76020 37.23155 33.99587
#
# Velocity S-wave (km/s) = 3.63548 3.99966 3.82191
# Velocity P-wave (km/s) = 6.16245 6.47293 6.31960
#
# Compressibility (1/GPa) = 0.02111044
#
# Stress axis : x y z
#
# Youngs Moduli (GPa) = 79.83218 71.94211 94.58187
#
# Poissons Ratio (x) = 0.23012 0.11023
# Poissons Ratio (y) = 0.25536 0.33863
# Poissons Ratio (z) = 0.09304 0.25757
#
# Static dielectric constant tensor:
#      x y z
#    x 4.145460 0.000000 0.072650 
#    y 0.000000 4.450280 0.000000 
#    z 0.072650 0.000000 4.376220 
# 
# 
# High freq. dielectric constant tensor:
#      x y z
#    x 1.922850 0.000000 0.010140 
#    y 0.000000 1.938940 0.000000 
#    z 0.010140 0.000000 1.935550 
# 
# From -- ./inp_files/250.got.cif
#   From: 2010.03.12/outbox.cif.g09.slc.cpg/sg7_cif.got.tgz:250.got - 2010.03.30 08:40:41.
