data_PCOD8052034
_publ_section_title
;
Structure prediction by ZEFSAII (Michael W. Deem and Ramdas Pophale) SiO2 
 PCOD8052034
Probable space group: C 2
;
_chemical_formula_sum "Si O2"
_cell_formula_units_Z 22
_cell_length_a 14.272650
_cell_length_b 10.618213
_cell_length_c 6.221439
_cell_angle_alpha 90.000000
_cell_angle_beta 103.506201
_cell_angle_gamma 90.000000
_cell_volume 916.784211
_symmetry_space_group_name_H-M "C 2"
_symmetry_group_IT_number 5
_symmetry_cell_setting 'monoclinic'
loop_
_space_group_symop_operation_xyz
x,y,z
-x,y,-z
1/2+x,1/2+y,z
1/2-x,1/2+y,-z
loop_
_atom_site_type_symbol
_atom_site_label
_atom_site_fract_x
_atom_site_fract_y
_atom_site_fract_z
Si Si1 0.773992 0.641550 0.603886
Si Si2 0.667229 0.914440 0.081672
Si Si3 0.000000 0.029693 0.000000
Si Si4 0.145955 0.812289 0.016896
Si Si5 0.570786 0.732098 0.356666
Si Si6 0.908711 0.594610 0.300221
O O1 0.776480 0.522211 0.760816
O O2 0.840015 0.752833 0.738786
O O3 0.665411 0.686134 0.528543
O O4 0.812552 0.605181 0.390392
O O5 0.594841 0.839055 0.196018
O O6 0.748330 0.822079 0.031711
O O7 0.602382 0.972796 0.857096
O O8 0.094356 0.945968 0.007807
O O9 0.017807 0.114524 0.217796
O O10 0.079520 0.720076 0.837330
O O11 0.500000 0.789144 0.500000
O O12 0.000000 0.575947 0.500000
#
# Coordination Sequence:
#
# PCOD8052034 Si02
#       6
#     4   4   2   4   4   4
#     4  11  26  48  76 108 151 208 243 305 384 445
#     4  11  27  47  76 109 156 196 253 311 371 455
#     4  12  28  46  78 114 148 194 254 316 370 458
#     4  11  25  48  76 110 150 197 256 303 374 460
#     4  12  29  48  76 113 153 199 254 313 382 435
#     4  11  25  47  77 111 148 197 252 309 377 442
#
# _framework density 23.996921
#
# number of rings (size 3 to 8) (size 9 to 14) (size 15 to 20)
#    0.000    0.727    1.818    3.273   10.182    8.000 
#    0.000    0.000    0.000    0.000    0.000    0.000 
#    0.000    0.000    0.000    0.000    0.000    0.000 
#
# Total GULP energy -136495.775210 kJ/mol
# GULP energy per Si atom -12408.706837 kJ/mol
# Density = 2.394230 g / cm^3
# Si number density = 23.996921 Si / 1000 Ang^3
#
#
#
# Elastic Constant Matrix: (Units=GPa)
#
#
# Indices 1 2 3 4 5 6 
#
# 1 134.4226 55.8403 66.8494 0.0000 -13.5117 0.0000
# 2 55.8403 128.6738 77.2647 0.0000 9.0837 0.0000
# 3 66.8494 77.2647 161.2896 0.0000 6.3739 0.0000
# 4 0.0000 0.0000 0.0000 42.5328 0.0000 -3.9394
# 5 -13.5117 9.0837 6.3739 0.0000 49.2894 0.0000
# 6 0.0000 0.0000 0.0000 -3.9394 0.0000 38.5268
#
#
#
# Elastic Compliance Matrix: (Units=1/GPa)
#
#
# Indices 1 2 3 4 5 6 
#
# 1 0.010630 -0.003017 -0.003114 0.000000 0.003873 0.000000
# 2 -0.003017 0.011855 -0.004332 0.000000 -0.002452 0.000000
# 3 -0.003114 -0.004332 0.009617 0.000000 -0.001299 0.000000
# 4 0.000000 0.000000 0.000000 0.023736 0.000000 0.002427
# 5 0.003873 -0.002452 -0.001299 0.000000 0.021970 0.000000
# 6 0.000000 0.000000 0.000000 0.002427 0.000000 0.026204
#
#
# Mechanical properties :
#
#
# Convention : Reuss Voigt Hill
#
# Bulk Modulus (GPa) = 89.46559 91.58830 90.52695
# Shear Modulus (GPa) = 38.86134 41.03192 39.94663
#
# Velocity S-wave (km/s) = 4.02858 4.13956 4.08445
# Velocity P-wave (km/s) = 7.68130 7.81649 7.74919
#
# Compressibility (1/GPa) = 0.01117748
#
# Stress axis : x y z
#
# Youngs Moduli (GPa) = 94.07160 84.35276 103.98257
#
# Poissons Ratio (x) = 0.25448 0.32377
# Poissons Ratio (y) = 0.28380 0.45043
# Poissons Ratio (z) = 0.29291 0.36540
#
# Static dielectric constant tensor:
#      x y z
#    x 4.247590 0.000000 -0.044820 
#    y 0.000000 4.411200 0.000000 
#    z -0.044820 0.000000 4.572870 
# 
# 
# High freq. dielectric constant tensor:
#      x y z
#    x 1.958110 0.000000 0.003730 
#    y 0.000000 1.960330 0.000000 
#    z 0.003730 0.000000 1.969550 
# 
# From -- ./inp_files/6656.got.cif
#   From: 2010.03.12/outbox.cif.g09.slc.cpg/sg5_4_cif.got.tgz:6656.got - 2010.03.31 09:47:26.
