data_PCOD8052261
_publ_section_title
;
Structure prediction by ZEFSAII (Michael W. Deem and Ramdas Pophale) SiO2 
 PCOD8052261
Probable space group: P M
;
_chemical_formula_sum "Si O2"
_cell_formula_units_Z 16
_cell_length_a 14.234912
_cell_length_b 8.533369
_cell_length_c 9.208384
_cell_angle_alpha 90.000000
_cell_angle_beta 133.444595
_cell_angle_gamma 90.000000
_cell_volume 812.117904
_symmetry_space_group_name_H-M "P M"
_symmetry_group_IT_number 6
_symmetry_cell_setting 'monoclinic'
loop_
_space_group_symop_operation_xyz
x,y,z
x,-y,z
loop_
_atom_site_type_symbol
_atom_site_label
_atom_site_fract_x
_atom_site_fract_y
_atom_site_fract_z
Si Si1 0.851610 0.682011 0.036540
Si Si2 0.555787 0.685652 0.425245
Si Si3 0.815003 0.181297 0.690124
Si Si4 0.586563 0.183754 0.776086
Si Si5 0.316383 0.682765 0.986910
Si Si6 0.118740 0.817757 0.287714
Si Si7 0.356232 0.315954 0.706337
Si Si8 0.091631 0.822025 0.920026
O O1 0.861569 0.500000 0.086707
O O2 0.985046 0.767069 0.224323
O O3 0.829389 0.704774 0.842243
O O4 0.726764 0.757682 0.983395
O O5 0.567578 0.500000 0.423978
O O6 0.678909 0.767159 0.474174
O O7 0.546605 0.732605 0.583663
O O8 0.428774 0.752539 0.209293
O O9 0.939519 0.205267 0.718299
O O10 0.811461 0.000000 0.738914
O O11 0.482215 0.224851 0.786457
O O12 0.590743 0.000000 0.751903
O O13 0.336055 0.500000 0.997585
O O14 0.325591 0.751127 0.834286
O O15 0.176155 0.715283 0.905291
O O16 0.234944 0.717017 0.474638
O O17 0.143534 0.000000 0.343247
O O18 0.112176 0.778746 0.110130
O O19 0.385422 0.500000 0.736116
O O20 0.133105 0.000000 0.935318
#
# Coordination Sequence:
#
# PCOD8052261 Si02
#       8
#     2   2   2   2   2   2   2   2
#     4  10  18  31  54  83 110 140 174 217 267 318
#     4  10  19  34  56  82 107 138 177 220 266 318
#     4   9  17  31  51  80 111 137 170 219 266 313
#     4  11  21  35  56  83 110 141 178 222 269 318
#     4  10  23  38  53  75 107 142 180 221 264 313
#     4  10  20  36  57  84 111 139 176 222 269 319
#     4  11  23  39  54  75 107 145 185 226 267 316
#     4   9  19  34  55  80 107 136 172 215 264 317
#
# _framework density 19.701574999999998
#
# number of rings (size 3 to 8) (size 9 to 14) (size 15 to 20)
#    0.000    2.000    0.000    6.750    0.000    7.000 
#    0.000    1.250    0.000    4.500    0.000    0.000 
#    0.000    0.000    0.000    0.000    0.000    0.000 
#
# Total GULP energy -198369.027807 kJ/mol
# GULP energy per Si atom -12398.064238 kJ/mol
# Density = 1.965673 g / cm^3
# Si number density = 19.701575 Si / 1000 Ang^3
#
#
#
# Elastic Constant Matrix: (Units=GPa)
#
#
# Indices 1 2 3 4 5 6 
#
# 1 147.8734 28.5982 56.9824 0.0000 24.6658 0.0000
# 2 28.5982 62.7401 20.0433 0.0000 2.8530 0.0000
# 3 56.9824 20.0433 30.6542 0.0000 5.7981 0.0000
# 4 0.0000 0.0000 0.0000 14.7492 0.0000 10.5289
# 5 24.6658 2.8530 5.7981 0.0000 27.6617 0.0000
# 6 0.0000 0.0000 0.0000 10.5289 0.0000 34.3746
#
#
#
# Elastic Compliance Matrix: (Units=1/GPa)
#
#
# Indices 1 2 3 4 5 6 
#
# 1 0.029990 0.004939 -0.056045 0.000000 -0.015504 0.000000
# 2 0.004939 0.020974 -0.022547 0.000000 -0.001842 0.000000
# 3 -0.056045 -0.022547 0.147501 0.000000 0.021383 0.000000
# 4 0.000000 0.000000 0.000000 0.086774 0.000000 -0.026579
# 5 -0.015504 -0.001842 0.021383 0.000000 0.045684 0.000000
# 6 0.000000 0.000000 0.000000 -0.026579 0.000000 0.037232
#
#
# Mechanical properties :
#
#
# Convention : Reuss Voigt Hill
#
# Bulk Modulus (GPa) = 19.54686 50.27950 34.91318
# Shear Modulus (GPa) = 9.38942 24.40002 16.89472
#
# Velocity S-wave (km/s) = 2.18544 3.52302 2.93154
# Velocity P-wave (km/s) = 4.03872 6.49037 5.40537
#
# Compressibility (1/GPa) = 0.05115911
#
# Stress axis : x y z
#
# Youngs Moduli (GPa) = 33.34431 47.67778 6.77962
#
# Poissons Ratio (x) = -0.23550 0.37996
# Poissons Ratio (y) = -0.16470 0.15286
# Poissons Ratio (z) = 1.86878 1.07501
#
# Static dielectric constant tensor:
#      x y z
#    x 3.776010 0.000000 0.391810 
#    y 0.000000 3.505060 0.000000 
#    z 0.391810 0.000000 3.604680 
# 
# 
# High freq. dielectric constant tensor:
#      x y z
#    x 1.772160 0.000000 0.033740 
#    y 0.000000 1.771920 0.000000 
#    z 0.033740 0.000000 1.741230 
# 
# From -- ./inp_files/4129.got.cif
#   From: 2010.03.12/outbox.cif.g09.slc.cpg/sg6_3_cif.got.tgz:4129.got - 2010.03.30 10:24:59.
