data_PCOD8052708
_publ_section_title
;
Structure prediction by ZEFSAII (Michael W. Deem and Ramdas Pophale) SiO2 
 PCOD8052708
Probable space group: C M
;
_chemical_formula_sum "Si O2"
_cell_formula_units_Z 32
_cell_length_a 23.175572
_cell_length_b 8.769807
_cell_length_c 11.558405
_cell_angle_alpha 90.000000
_cell_angle_beta 49.152071
_cell_angle_gamma 90.000000
_cell_volume 1777.041601
_symmetry_space_group_name_H-M "C M"
_symmetry_group_IT_number 8
_symmetry_cell_setting 'monoclinic'
loop_
_space_group_symop_operation_xyz
x,y,z
x,-y,z
1/2+x,1/2+y,z
1/2+x,1/2-y,z
loop_
_atom_site_type_symbol
_atom_site_label
_atom_site_fract_x
_atom_site_fract_y
_atom_site_fract_z
Si Si1 0.210720 0.320229 0.210500
Si Si2 0.231632 0.820001 0.654263
Si Si3 0.420219 0.318183 0.045129
Si Si4 0.573406 0.321459 0.962073
Si Si5 0.631715 0.830844 0.096363
Si Si6 0.300695 0.328024 0.773245
Si Si7 0.767573 0.681043 0.347345
Si Si8 0.859582 0.679222 0.909921
O O1 0.232214 0.500000 0.178004
O O2 0.135415 0.289886 0.229420
O O3 0.201608 0.260949 0.354224
O O4 0.278835 0.217339 0.072792
O O5 0.147938 0.755290 0.798750
O O6 0.296248 0.750618 0.653551
O O7 0.249695 0.768630 0.501066
O O8 0.233968 0.000000 0.666716
O O9 0.413106 0.500000 0.058816
O O10 0.350450 0.243996 0.205963
O O11 0.497042 0.255455 0.004845
O O12 0.422657 0.261597 0.908358
O O13 0.571907 0.500000 0.951533
O O14 0.577582 0.279857 0.093339
O O15 0.598832 0.000000 0.121662
O O16 0.718607 0.820586 0.940741
O O17 0.329217 0.500000 0.719620
O O18 0.361720 0.241689 0.775425
O O19 0.764743 0.500000 0.335574
O O20 0.874466 0.500000 0.889096
#
# Coordination Sequence:
#
# PCOD8052708 Si02
#       8
#     4   4   4   4   4   4   4   4
#     4   9  16  27  43  65  92 119 151 190 229 269
#     4   9  18  32  48  69  95 121 153 189 227 273
#     4  10  19  31  47  68  94 122 155 191 227 271
#     4   9  18  31  48  68  91 121 153 188 227 268
#     4   8  15  26  42  65  90 115 146 187 229 267
#     4   9  16  27  44  67  92 118 150 188 230 270
#     4  10  19  30  47  70  95 123 152 187 231 274
#     4  10  17  26  43  66  91 119 152 190 230 268
#
# _framework density 18.007456999999999
#
# number of rings (size 3 to 8) (size 9 to 14) (size 15 to 20)
#    0.000    2.750    0.000    4.875    0.000    5.500 
#    0.000    0.000    0.000    1.500    0.000    5.250 
#    0.000    0.000    0.000    0.000    0.000    0.000 
#
# Total GULP energy -198270.871019 kJ/mol
# GULP energy per Si atom -12391.929439 kJ/mol
# Density = 1.796647 g / cm^3
# Si number density = 18.007457 Si / 1000 Ang^3
#
#
#
# Elastic Constant Matrix: (Units=GPa)
#
#
# Indices 1 2 3 4 5 6 
#
# 1 152.8684 38.9861 56.0427 0.0000 39.1755 0.0000
# 2 38.9861 58.6528 27.4062 0.0000 13.5185 0.0000
# 3 56.0427 27.4062 70.1350 0.0000 32.4242 0.0000
# 4 0.0000 0.0000 0.0000 19.6705 0.0000 10.5687
# 5 39.1755 13.5185 32.4242 0.0000 32.8244 0.0000
# 6 0.0000 0.0000 0.0000 10.5687 0.0000 30.5410
#
#
#
# Elastic Compliance Matrix: (Units=1/GPa)
#
#
# Indices 1 2 3 4 5 6 
#
# 1 0.010803 -0.003711 -0.003549 0.000000 -0.007860 0.000000
# 2 -0.003711 0.022150 -0.006479 0.000000 0.001707 0.000000
# 3 -0.003549 -0.006479 0.030247 0.000000 -0.022975 0.000000
# 4 0.000000 0.000000 0.000000 0.062449 0.000000 -0.021610
# 5 -0.007860 0.001707 -0.022975 0.000000 0.061837 0.000000
# 6 0.000000 0.000000 0.000000 -0.021610 0.000000 0.040221
#
#
# Mechanical properties :
#
#
# Convention : Reuss Voigt Hill
#
# Bulk Modulus (GPa) = 27.99356 58.50289 43.24822
# Shear Modulus (GPa) = 18.72006 27.22193 22.97100
#
# Velocity S-wave (km/s) = 3.22774 3.89228 3.57548
# Velocity P-wave (km/s) = 5.42866 7.26350 6.41205
#
# Compressibility (1/GPa) = 0.03572251
#
# Stress axis : x y z
#
# Youngs Moduli (GPa) = 92.56519 45.14612 33.06090
#
# Poissons Ratio (x) = 0.16754 0.11732
# Poissons Ratio (y) = 0.34352 0.21421
# Poissons Ratio (z) = 0.32849 0.29251
#
# Static dielectric constant tensor:
#      x y z
#    x 3.774480 0.000000 0.523760 
#    y 0.000000 3.310780 0.000000 
#    z 0.523760 0.000000 3.134710 
# 
# 
# High freq. dielectric constant tensor:
#      x y z
#    x 1.701210 0.000000 0.046010 
#    y 0.000000 1.702150 0.000000 
#    z 0.046010 0.000000 1.646910 
# 
# From -- ./inp_files/24246.got.cif
#   From: 2010.03.12/outbox.cif.g09.slc.cpg/sg8_13_cif.got.tgz:24246.got - 2010.03.31 10:45:26.
