data_PCOD8052248
_publ_section_title
;
Structure prediction by ZEFSAII (Michael W. Deem and Ramdas Pophale) SiO2 
 PCOD8052248
Probable space group: P M
;
_chemical_formula_sum "Si O2"
_cell_formula_units_Z 16
_cell_length_a 10.495842
_cell_length_b 8.418931
_cell_length_c 9.324807
_cell_angle_alpha 90.000000
_cell_angle_beta 88.374013
_cell_angle_gamma 90.000000
_cell_volume 823.643322
_symmetry_space_group_name_H-M "P M"
_symmetry_group_IT_number 6
_symmetry_cell_setting 'monoclinic'
loop_
_space_group_symop_operation_xyz
x,y,z
x,-y,z
loop_
_atom_site_type_symbol
_atom_site_label
_atom_site_fract_x
_atom_site_fract_y
_atom_site_fract_z
Si Si1 0.893750 0.311323 0.969140
Si Si2 0.135431 0.686386 0.786216
Si Si3 0.138432 0.816472 0.470855
Si Si4 0.651815 0.688715 0.804115
Si Si5 0.673731 0.688454 0.478307
Si Si6 0.913018 0.310835 0.293317
Si Si7 0.397835 0.682645 0.463504
Si Si8 0.394913 0.815559 0.772405
O O1 0.892815 0.500000 0.963564
O O2 0.763430 0.246727 0.903042
O O3 0.013478 0.246058 0.875123
O O4 0.902142 0.249631 0.131235
O O5 0.150176 0.500000 0.810176
O O6 0.116716 0.719825 0.617995
O O7 0.259427 0.774419 0.850686
O O8 0.281020 0.784796 0.402877
O O9 0.040350 0.761373 0.354426
O O10 0.121536 0.000000 0.506693
O O11 0.639278 0.500000 0.812522
O O12 0.683035 0.749290 0.641781
O O13 0.518640 0.767973 0.862770
O O14 0.679914 0.500000 0.479613
O O15 0.791073 0.757468 0.383473
O O16 0.538945 0.740426 0.407996
O O17 0.919573 0.500000 0.301946
O O18 0.374214 0.500000 0.423484
O O19 0.398972 0.701357 0.634641
O O20 0.398496 0.000000 0.729260
#
# Coordination Sequence:
#
# PCOD8052248 Si02
#       8
#     2   2   2   2   2   2   2   2
#     4   9  19  33  54  78 100 129 173 215 251 292
#     4  10  18  33  55  78 100 130 169 213 253 293
#     4  11  21  33  50  77 105 135 169 205 249 303
#     4   9  16  31  51  74 100 130 165 206 250 299
#     4   8  15  28  52  77  98 124 161 204 251 296
#     4  10  19  35  54  75 102 134 168 210 253 297
#     4   9  16  30  51  75  99 129 165 209 254 294
#     4  10  18  29  47  76 104 129 162 206 253 302
#
# _framework density 19.425884
#
# number of rings (size 3 to 8) (size 9 to 14) (size 15 to 20)
#    0.000    2.500    0.000    6.000    0.000    2.000 
#    0.000   10.000    0.000    4.500    0.000    0.000 
#    0.000    0.000    0.000    0.000    0.000    0.000 
#
# Total GULP energy -198315.350633 kJ/mol
# GULP energy per Si atom -12394.709415 kJ/mol
# Density = 1.938167 g / cm^3
# Si number density = 19.425884 Si / 1000 Ang^3
#
#
#
# Elastic Constant Matrix: (Units=GPa)
#
#
# Indices 1 2 3 4 5 6 
#
# 1 203.4792 27.8122 74.7399 0.0000 25.6801 0.0000
# 2 27.8122 44.5618 14.6335 0.0000 2.7460 0.0000
# 3 74.7399 14.6335 84.1250 0.0000 13.9607 0.0000
# 4 0.0000 0.0000 0.0000 5.5009 0.0000 2.9205
# 5 25.6801 2.7460 13.9607 0.0000 11.4217 0.0000
# 6 0.0000 0.0000 0.0000 2.9205 0.0000 6.7762
#
#
#
# Elastic Compliance Matrix: (Units=1/GPa)
#
#
# Indices 1 2 3 4 5 6 
#
# 1 0.008864 -0.003028 -0.005221 0.000000 -0.012820 0.000000
# 2 -0.003028 0.024841 -0.002220 0.000000 0.003549 0.000000
# 3 -0.005221 -0.002220 0.018660 0.000000 -0.010536 0.000000
# 4 0.000000 0.000000 0.000000 0.235731 0.000000 -0.101600
# 5 -0.012820 0.003549 -0.010536 0.000000 0.128401 0.000000
# 6 0.000000 0.000000 0.000000 -0.101600 0.000000 0.191364
#
#
# Mechanical properties :
#
#
# Convention : Reuss Voigt Hill
#
# Bulk Modulus (GPa) = 31.81919 62.94858 47.38389
# Shear Modulus (GPa) = 7.82136 19.07180 13.44658
#
# Velocity S-wave (km/s) = 2.00873 3.13672 2.63382
# Velocity P-wave (km/s) = 4.66855 6.75230 5.80469
#
# Compressibility (1/GPa) = 0.03142757
#
# Stress axis : x y z
#
# Youngs Moduli (GPa) = 112.81575 40.25643 53.59010
#
# Poissons Ratio (x) = 0.12189 0.27979
# Poissons Ratio (y) = 0.34158 0.11897
# Poissons Ratio (z) = 0.58901 0.08937
#
# Static dielectric constant tensor:
#      x y z
#    x 4.268940 0.000000 -0.038920 
#    y 0.000000 3.187790 0.000000 
#    z -0.038920 0.000000 3.262840 
# 
# 
# High freq. dielectric constant tensor:
#      x y z
#    x 1.786470 0.000000 0.004860 
#    y 0.000000 1.729680 0.000000 
#    z 0.004860 0.000000 1.707250 
# 
# From -- ./inp_files/3575.got.cif
#   From: 2010.03.12/outbox.cif.g09.slc.cpg/sg6_2_cif.got.tgz:3575.got - 2010.03.30 10:24:59.
