data_PCOD8052136
_publ_section_title
;
Structure prediction by ZEFSAII (Michael W. Deem and Ramdas Pophale) SiO2 
 PCOD8052136
Probable space group: C 2
;
_chemical_formula_sum "Si O2"
_cell_formula_units_Z 18
_cell_length_a 11.583337
_cell_length_b 8.682551
_cell_length_c 8.992670
_cell_angle_alpha 90.000000
_cell_angle_beta 62.761505
_cell_angle_gamma 90.000000
_cell_volume 804.127157
_symmetry_space_group_name_H-M "C 2"
_symmetry_group_IT_number 5
_symmetry_cell_setting 'monoclinic'
loop_
_space_group_symop_operation_xyz
x,y,z
-x,y,-z
1/2+x,1/2+y,z
1/2-x,1/2+y,-z
loop_
_atom_site_type_symbol
_atom_site_label
_atom_site_fract_x
_atom_site_fract_y
_atom_site_fract_z
Si Si1 0.575452 0.271650 0.096573
Si Si2 0.769457 0.070282 0.308552
Si Si3 0.107880 0.841841 0.543170
Si Si4 0.000000 0.223190 0.000000
Si Si5 0.324966 0.947633 0.928686
O O1 0.470818 0.245501 0.287299
O O2 0.643794 0.110871 0.013872
O O3 0.500000 0.338261 0.000000
O O4 0.686443 0.393527 0.076818
O O5 0.695205 0.224592 0.398090
O O6 0.898283 0.115034 0.143329
O O7 0.802928 0.972878 0.435777
O O8 0.681216 0.967980 0.247728
O O9 0.000000 0.920626 0.500000
O O10 0.065221 0.326088 0.090505
#
# Coordination Sequence:
#
# PCOD8052136 Si02
#       5
#     4   4   4   2   4
#     4  12  25  45  76 106 142 189 245 297 356 427
#     4  12  28  46  72 106 147 189 242 294 365 422
#     4  12  27  46  72 107 150 186 237 302 361 422
#     4  12  26  46  76 106 142 192 248 290 354 440
#     4  12  24  44  74 106 138 189 240 294 356 422
#
# _framework density 22.384519999999998
#
# number of rings (size 3 to 8) (size 9 to 14) (size 15 to 20)
#    0.000    0.000    7.778    1.333    3.111    3.556 
#    0.000    0.000    0.000    0.000    0.000    0.000 
#    0.000    0.000    0.000    0.000    0.000    0.000 
#
# Total GULP energy -111620.903994 kJ/mol
# GULP energy per Si atom -12402.322666 kJ/mol
# Density = 2.233357 g / cm^3
# Si number density = 22.384520 Si / 1000 Ang^3
#
#
#
# Elastic Constant Matrix: (Units=GPa)
#
#
# Indices 1 2 3 4 5 6 
#
# 1 146.2107 37.5358 26.9761 0.0000 27.9388 0.0000
# 2 37.5358 76.7389 12.6980 0.0000 1.9507 0.0000
# 3 26.9761 12.6980 89.8437 0.0000 1.1527 0.0000
# 4 0.0000 0.0000 0.0000 35.3144 0.0000 14.5994
# 5 27.9388 1.9507 1.1527 0.0000 42.5763 0.0000
# 6 0.0000 0.0000 0.0000 14.5994 0.0000 33.7564
#
#
#
# Elastic Compliance Matrix: (Units=1/GPa)
#
#
# Indices 1 2 3 4 5 6 
#
# 1 0.009429 -0.004101 -0.002175 0.000000 -0.005940 0.000000
# 2 -0.004101 0.015140 -0.000934 0.000000 0.002023 0.000000
# 3 -0.002175 -0.000934 0.011901 0.000000 0.001148 0.000000
# 4 0.000000 0.000000 0.000000 0.034482 0.000000 -0.014913
# 5 -0.005940 0.002023 0.001148 0.000000 0.027262 0.000000
# 6 0.000000 0.000000 0.000000 -0.014913 0.000000 0.036074
#
#
# Mechanical properties :
#
#
# Convention : Reuss Voigt Hill
#
# Bulk Modulus (GPa) = 45.35419 51.91255 48.63337
# Shear Modulus (GPa) = 32.03922 38.03500 35.03711
#
# Velocity S-wave (km/s) = 3.78737 4.12657 3.96060
# Velocity P-wave (km/s) = 6.27941 6.77837 6.53366
#
# Compressibility (1/GPa) = 0.02204868
#
# Stress axis : x y z
#
# Youngs Moduli (GPa) = 106.05886 66.04863 84.02723
#
# Poissons Ratio (x) = 0.27087 0.18278
# Poissons Ratio (y) = 0.43495 0.07852
# Poissons Ratio (z) = 0.23070 0.06172
#
# Static dielectric constant tensor:
#      x y z
#    x 4.570410 0.000000 0.174810 
#    y 0.000000 3.961540 0.000000 
#    z 0.174810 0.000000 3.974880 
# 
# 
# High freq. dielectric constant tensor:
#      x y z
#    x 1.911210 0.000000 0.006200 
#    y 0.000000 1.880680 0.000000 
#    z 0.006200 0.000000 1.867970 
# 
# From -- ./inp_files/18133.got.cif
#   From: 2010.03.12/outbox.cif.g09.slc.cpg/sg5_10_cif.got.tgz:18133.got - 2010.03.31 09:47:26.
