data_PCOD8052326
_publ_section_title
;
Structure prediction by ZEFSAII (Michael W. Deem and Ramdas Pophale) SiO2 
 PCOD8052326
Probable space group: P M
;
_chemical_formula_sum "Si O2"
_cell_formula_units_Z 16
_cell_length_a 21.745894
_cell_length_b 8.649371
_cell_length_c 9.309443
_cell_angle_alpha 90.000000
_cell_angle_beta 28.409222
_cell_angle_gamma 90.000000
_cell_volume 833.064632
_symmetry_space_group_name_H-M "P M"
_symmetry_group_IT_number 6
_symmetry_cell_setting 'monoclinic'
loop_
_space_group_symop_operation_xyz
x,y,z
x,-y,z
loop_
_atom_site_type_symbol
_atom_site_label
_atom_site_fract_x
_atom_site_fract_y
_atom_site_fract_z
Si Si1 0.690770 0.676727 0.190010
Si Si2 0.971968 0.678547 0.667289
Si Si3 0.228088 0.816754 0.147874
Si Si4 0.671407 0.818794 0.540689
Si Si5 0.951661 0.822790 0.011066
Si Si6 0.469773 0.181881 0.469141
Si Si7 0.208321 0.680086 0.502853
Si Si8 0.431070 0.816813 0.227553
O O1 0.649079 0.500000 0.262070
O O2 0.662402 0.727094 0.410866
O O3 0.609037 0.772325 0.243884
O O4 0.843017 0.699237 0.836185
O O5 0.983918 0.500000 0.693838
O O6 0.105855 0.733890 0.318264
O O7 0.958599 0.794938 0.827080
O O8 0.238129 0.770366 0.294155
O O9 0.214558 0.000000 0.162134
O O10 0.356073 0.754709 0.805234
O O11 0.803763 0.780163 0.357520
O O12 0.666302 0.000000 0.514018
O O13 0.553654 0.765788 0.881540
O O14 0.983394 0.000000 0.981545
O O15 0.062091 0.718024 0.859006
O O16 0.452950 0.246910 0.343127
O O17 0.463469 0.000000 0.476316
O O18 0.223580 0.500000 0.442395
O O19 0.304332 0.734453 0.428720
O O20 0.410994 0.000000 0.264133
#
# Coordination Sequence:
#
# PCOD8052326 Si02
#       8
#     2   2   2   2   2   2   2   2
#     4  10  20  33  53  79 106 133 165 205 253 304
#     4   9  17  30  49  76 105 132 163 205 252 299
#     4  10  19  33  54  79 102 131 170 211 251 296
#     4   9  18  33  56  80 101 129 169 210 252 298
#     4   9  16  29  51  78 103 129 163 208 253 296
#     4  10  22  37  53  73 101 136 174 211 251 296
#     4  11  21  33  52  79 105 134 168 205 252 305
#     4  10  21  38  54  72 101 136 172 213 252 294
#
# _framework density 19.206194
#
# number of rings (size 3 to 8) (size 9 to 14) (size 15 to 20)
#    0.000    2.250    0.000    4.875    0.000    7.000 
#    0.000    1.250    0.000    6.000    0.000    0.000 
#    0.000    0.000    0.000    0.000    0.000    0.000 
#
# Total GULP energy -198324.869789 kJ/mol
# GULP energy per Si atom -12395.304362 kJ/mol
# Density = 1.916248 g / cm^3
# Si number density = 19.206194 Si / 1000 Ang^3
#
#
#
# Elastic Constant Matrix: (Units=GPa)
#
#
# Indices 1 2 3 4 5 6 
#
# 1 116.4030 22.3344 64.9785 0.0000 -22.7061 0.0000
# 2 22.3344 39.0412 21.7320 0.0000 -6.1161 0.0000
# 3 64.9785 21.7320 65.1641 0.0000 -31.0800 0.0000
# 4 0.0000 0.0000 0.0000 17.0245 0.0000 -11.5767
# 5 -22.7061 -6.1161 -31.0800 0.0000 30.3817 0.0000
# 6 0.0000 0.0000 0.0000 -11.5767 0.0000 14.1677
#
#
#
# Elastic Compliance Matrix: (Units=1/GPa)
#
#
# Indices 1 2 3 4 5 6 
#
# 1 0.021225 0.001108 -0.027070 0.000000 -0.011606 0.000000
# 2 0.001108 0.032702 -0.016552 0.000000 -0.009521 0.000000
# 3 -0.027070 -0.016552 0.071512 0.000000 0.049592 0.000000
# 4 0.000000 0.000000 0.000000 0.132189 0.000000 0.108015
# 5 -0.011606 -0.009521 0.049592 0.000000 0.073056 0.000000
# 6 0.000000 0.000000 0.000000 0.108015 0.000000 0.158844
#
#
# Mechanical properties :
#
#
# Convention : Reuss Voigt Hill
#
# Bulk Modulus (GPa) = 24.74537 48.74423 36.74480
# Shear Modulus (GPa) = 8.50302 19.75234 14.12768
#
# Velocity S-wave (km/s) = 2.10638 3.21040 2.71510
# Velocity P-wave (km/s) = 4.33910 6.25914 5.38538
#
# Compressibility (1/GPa) = 0.04041161
#
# Stress axis : x y z
#
# Youngs Moduli (GPa) = 47.11368 30.57911 13.98376
#
# Poissons Ratio (x) = -0.03387 0.37854
# Poissons Ratio (y) = -0.05218 0.23145
# Poissons Ratio (z) = 1.27535 0.50613
#
# Static dielectric constant tensor:
#      x y z
#    x 3.407740 0.000000 -0.410820 
#    y 0.000000 3.427500 0.000000 
#    z -0.410820 0.000000 3.949510 
# 
# 
# High freq. dielectric constant tensor:
#      x y z
#    x 1.724330 0.000000 -0.036910 
#    y 0.000000 1.746860 0.000000 
#    z -0.036910 0.000000 1.747980 
# 
# From -- ./inp_files/4284.got.cif
#   From: 2010.03.12/outbox.cif.g09.slc.cpg/sg6_3_cif.got.tgz:4284.got - 2010.03.30 10:24:59.
