data_PCOD8052412
_publ_section_title
;
Structure prediction by ZEFSAII (Michael W. Deem and Ramdas Pophale) SiO2 
 PCOD8052412
Probable space group: P M
;
_chemical_formula_sum "Si O2"
_cell_formula_units_Z 16
_cell_length_a 9.149594
_cell_length_b 8.867886
_cell_length_c 21.637296
_cell_angle_alpha 90.000000
_cell_angle_beta 151.798219
_cell_angle_gamma 90.000000
_cell_volume 829.656954
_symmetry_space_group_name_H-M "P M"
_symmetry_group_IT_number 6
_symmetry_cell_setting 'monoclinic'
loop_
_space_group_symop_operation_xyz
x,y,z
x,-y,z
loop_
_atom_site_type_symbol
_atom_site_label
_atom_site_fract_x
_atom_site_fract_y
_atom_site_fract_z
Si Si1 0.372360 0.174805 0.971920
Si Si2 0.703439 0.824754 0.221025
Si Si3 0.486550 0.677102 0.264944
Si Si4 0.758712 0.823706 0.482494
Si Si5 0.354304 0.676017 0.438555
Si Si6 0.300521 0.824698 0.767776
Si Si7 0.899511 0.325074 0.724085
Si Si8 0.779493 0.323130 0.018343
O O1 0.024697 0.244475 0.833181
O O2 0.366635 0.000000 0.952882
O O3 0.462932 0.202647 0.076227
O O4 0.621506 0.253605 0.020109
O O5 0.554770 0.750337 0.225029
O O6 0.022679 0.747313 0.322653
O O7 0.765122 0.000000 0.256093
O O8 0.542847 0.500000 0.281052
O O9 0.719355 0.745016 0.402040
O O10 0.139125 0.718119 0.155113
O O11 0.527307 0.753057 0.446064
O O12 0.120362 0.797543 0.636039
O O13 0.681854 0.000000 0.449149
O O14 0.324522 0.500000 0.411620
O O15 0.539138 0.699867 0.572589
O O16 0.090634 0.751321 0.741382
O O17 0.343739 0.000000 0.797068
O O18 0.634949 0.744756 0.900280
O O19 0.981574 0.500000 0.758728
O O20 0.724438 0.500000 0.997740
#
# Coordination Sequence:
#
# PCOD8052412 Si02
#       8
#     2   2   2   2   2   2   2   2
#     4  10  20  34  55  82 108 138 176 218 265 316
#     4  11  24  39  55  77 107 144 183 224 270 319
#     4  11  24  39  55  77 107 144 183 224 270 319
#     4  10  20  35  57  84 111 141 179 221 266 317
#     4  10  20  35  57  84 111 141 179 221 266 317
#     4   9  17  30  52  81 109 137 171 215 264 312
#     4   9  17  30  52  81 109 137 171 215 264 312
#     4  10  20  34  55  82 108 138 176 218 265 316
#
# _framework density 19.285079
#
# number of rings (size 3 to 8) (size 9 to 14) (size 15 to 20)
#    0.000    2.000    0.000    5.250    0.000    9.000 
#    0.000    1.250    0.000    3.000    0.000    0.000 
#    0.000    0.000    0.000    0.000    0.000    0.000 
#
# Total GULP energy -198325.655177 kJ/mol
# GULP energy per Si atom -12395.353449 kJ/mol
# Density = 1.924119 g / cm^3
# Si number density = 19.285079 Si / 1000 Ang^3
#
#
#
# Elastic Constant Matrix: (Units=GPa)
#
#
# Indices 1 2 3 4 5 6 
#
# 1 61.1635 37.4455 24.9755 0.0000 -24.9887 0.0000
# 2 37.4455 130.1103 60.9883 0.0000 -18.6994 0.0000
# 3 24.9755 60.9883 109.1506 0.0000 -34.0588 0.0000
# 4 0.0000 0.0000 0.0000 44.1348 0.0000 -5.4852
# 5 -24.9887 -18.6994 -34.0588 0.0000 20.2725 0.0000
# 6 0.0000 0.0000 0.0000 -5.4852 0.0000 25.4523
#
#
#
# Elastic Compliance Matrix: (Units=1/GPa)
#
#
# Indices 1 2 3 4 5 6 
#
# 1 0.053325 -0.013373 0.025079 0.000000 0.095530 0.000000
# 2 -0.013373 0.013768 -0.012220 0.000000 -0.024315 0.000000
# 3 0.025079 -0.012220 0.034429 0.000000 0.077484 0.000000
# 4 0.000000 0.000000 0.000000 0.023281 0.000000 0.005017
# 5 0.095530 -0.024315 0.077484 0.000000 0.274831 0.000000
# 6 0.000000 0.000000 0.000000 0.005017 0.000000 0.040370
#
#
# Mechanical properties :
#
#
# Convention : Reuss Voigt Hill
#
# Bulk Modulus (GPa) = 9.95081 60.80478 35.37779
# Shear Modulus (GPa) = 10.53673 29.77292 20.15482
#
# Velocity S-wave (km/s) = 2.33998 3.93343 3.23631
# Velocity P-wave (km/s) = 3.53154 7.22683 5.68765
#
# Compressibility (1/GPa) = 0.10049437
#
# Stress axis : x y z
#
# Youngs Moduli (GPa) = 18.75277 72.63173 29.04552
#
# Poissons Ratio (x) = 0.97131 -0.72844
# Poissons Ratio (y) = 0.25078 0.35494
# Poissons Ratio (z) = -0.47030 0.88756
#
# Static dielectric constant tensor:
#      x y z
#    x 3.113310 0.000000 -0.206670 
#    y 0.000000 3.707520 0.000000 
#    z -0.206670 0.000000 4.491170 
# 
# 
# High freq. dielectric constant tensor:
#      x y z
#    x 1.704230 0.000000 -0.013070 
#    y 0.000000 1.771930 0.000000 
#    z -0.013070 0.000000 1.776900 
# 
# From -- ./inp_files/3574.got.cif
#   From: 2010.03.12/outbox.cif.g09.slc.cpg/sg6_2_cif.got.tgz:3574.got - 2010.03.30 10:24:59.
