data_PCOD8052137
_publ_section_title
;
Structure prediction by ZEFSAII (Michael W. Deem and Ramdas Pophale) SiO2 
 PCOD8052137
Probable space group: C 2
;
_chemical_formula_sum "Si O2"
_cell_formula_units_Z 16
_cell_length_a 4.858208
_cell_length_b 20.177320
_cell_length_c 8.206512
_cell_angle_alpha 90.000000
_cell_angle_beta 121.848601
_cell_angle_gamma 90.000000
_cell_volume 683.334997
_symmetry_space_group_name_H-M "C 2"
_symmetry_group_IT_number 5
_symmetry_cell_setting 'monoclinic'
loop_
_space_group_symop_operation_xyz
x,y,z
-x,y,-z
1/2+x,1/2+y,z
1/2-x,1/2+y,-z
loop_
_atom_site_type_symbol
_atom_site_label
_atom_site_fract_x
_atom_site_fract_y
_atom_site_fract_z
Si Si1 0.303088 0.422260 0.204482
Si Si2 0.000000 0.724461 0.000000
Si Si3 0.379069 0.558822 0.628480
Si Si4 0.879222 0.335225 0.287134
Si Si5 0.000000 0.136978 0.000000
O O1 0.443775 0.488399 0.325156
O O2 0.575794 0.385070 0.185216
O O3 0.188074 0.371189 0.305957
O O4 0.000000 0.442622 0.000000
O O5 0.712604 0.768093 0.834265
O O6 0.826735 0.680287 0.084846
O O7 0.500000 0.596702 0.500000
O O8 0.471465 0.594702 0.825456
O O9 0.000000 0.546997 0.500000
O O10 0.000000 0.313109 0.500000
#
# Coordination Sequence:
#
# PCOD8052137 Si02
#       5
#     4   2   4   4   2
#     4  12  24  44  75 108 147 183 228 300 379 436
#     4  12  26  49  72 105 146 196 252 294 352 428
#     4  12  28  48  75 111 150 191 243 303 370 440
#     4  12  25  45  73 108 142 186 235 299 365 431
#     4  12  30  49  76 103 148 202 252 298 354 426
#
# _framework density 23.414579
#
# number of rings (size 3 to 8) (size 9 to 14) (size 15 to 20)
#    0.000    0.000    2.500    7.500    8.750    3.000 
#    0.000    0.000    0.000    0.000    0.000    0.000 
#    0.000    0.000    0.000    0.000    0.000    0.000 
#
# Total GULP energy -99219.958675 kJ/mol
# GULP energy per Si atom -12402.494834 kJ/mol
# Density = 2.336129 g / cm^3
# Si number density = 23.414579 Si / 1000 Ang^3
#
#
#
# Elastic Constant Matrix: (Units=GPa)
#
#
# Indices 1 2 3 4 5 6 
#
# 1 127.6537 52.9990 52.9425 0.0000 -9.9017 0.0000
# 2 52.9990 120.9117 57.3927 0.0000 -11.1678 0.0000
# 3 52.9425 57.3927 164.3928 0.0000 -15.9149 0.0000
# 4 0.0000 0.0000 0.0000 16.4536 0.0000 2.9991
# 5 -9.9017 -11.1678 -15.9149 0.0000 52.2614 0.0000
# 6 0.0000 0.0000 0.0000 2.9991 0.0000 47.3718
#
#
#
# Elastic Compliance Matrix: (Units=1/GPa)
#
#
# Indices 1 2 3 4 5 6 
#
# 1 0.010139 -0.003437 -0.002010 0.000000 0.000574 0.000000
# 2 -0.003437 0.011140 -0.002694 0.000000 0.000909 0.000000
# 3 -0.002010 -0.002694 0.007808 0.000000 0.001421 0.000000
# 4 0.000000 0.000000 0.000000 0.061487 0.000000 -0.003893
# 5 0.000574 0.000909 0.001421 0.000000 0.019870 0.000000
# 6 0.000000 0.000000 0.000000 -0.003893 0.000000 0.021356
#
#
# Mechanical properties :
#
#
# Convention : Reuss Voigt Hill
#
# Bulk Modulus (GPa) = 78.09399 82.18073 80.13736
# Shear Modulus (GPa) = 32.81909 39.85897 36.33903
#
# Velocity S-wave (km/s) = 3.74793 4.13039 3.94380
# Velocity P-wave (km/s) = 7.22180 7.61059 7.41874
#
# Compressibility (1/GPa) = 0.01280508
#
# Stress axis : x y z
#
# Youngs Moduli (GPa) = 98.63173 89.76735 128.06736
#
# Poissons Ratio (x) = 0.30854 0.25736
# Poissons Ratio (y) = 0.33901 0.34505
# Poissons Ratio (z) = 0.19821 0.24186
#
# Static dielectric constant tensor:
#      x y z
#    x 4.306760 0.000000 -0.073910 
#    y 0.000000 4.137080 0.000000 
#    z -0.073910 0.000000 4.293050 
# 
# 
# High freq. dielectric constant tensor:
#      x y z
#    x 1.951390 0.000000 -0.001120 
#    y 0.000000 1.913910 0.000000 
#    z -0.001120 0.000000 1.944520 
# 
# From -- ./inp_files/12167.got.cif
#   From: 2010.03.12/outbox.cif.g09.slc.cpg/sg5_7_cif.got.tgz:12167.got - 2010.03.31 09:47:26.
