data_PCOD8052051
_publ_section_title
;
Structure prediction by ZEFSAII (Michael W. Deem and Ramdas Pophale) SiO2 
 PCOD8052051
Probable space group: C 2
;
_chemical_formula_sum "Si O2"
_cell_formula_units_Z 18
_cell_length_a 19.119769
_cell_length_b 6.765016
_cell_length_c 7.831518
_cell_angle_alpha 90.000000
_cell_angle_beta 44.900542
_cell_angle_gamma 90.000000
_cell_volume 715.034889
_symmetry_space_group_name_H-M "C 2"
_symmetry_group_IT_number 5
_symmetry_cell_setting 'monoclinic'
loop_
_space_group_symop_operation_xyz
x,y,z
-x,y,-z
1/2+x,1/2+y,z
1/2-x,1/2+y,-z
loop_
_atom_site_type_symbol
_atom_site_label
_atom_site_fract_x
_atom_site_fract_y
_atom_site_fract_z
Si Si1 0.560286 0.057760 0.136523
Si Si2 0.707134 0.347301 0.757023
Si Si3 0.000000 0.243891 0.000000
Si Si4 0.358336 0.118802 0.641024
Si Si5 0.149176 0.007594 0.514963
O O1 0.441281 0.048810 0.361315
O O2 0.615158 0.027611 0.221390
O O3 0.597533 0.272089 0.001882
O O4 0.579781 0.880624 0.966434
O O5 0.748135 0.543277 0.781606
O O6 0.782495 0.175997 0.681898
O O7 0.708972 0.381488 0.552219
O O8 0.053189 0.103205 0.770015
O O9 0.368556 0.358482 0.614136
#
# Coordination Sequence:
#
# PCOD8052051 Si02
#       5
#     4   4   2   4   4
#     4  11  26  47  73 105 151 190 249 305 378 438
#     4  12  24  44  75 102 144 194 246 304 371 451
#     4  12  24  48  78 108 150 204 246 312 376 452
#     4  11  26  49  67 112 146 191 248 314 364 449
#     4  12  24  45  73 105 144 193 251 301 375 442
#
# _framework density 25.1736
#
# number of rings (size 3 to 8) (size 9 to 14) (size 15 to 20)
#    0.000    0.444    4.444    4.000    3.111    0.000 
#    8.000    0.000    0.000    0.000    0.000    0.000 
#    0.000    0.000    0.000    0.000    0.000    0.000 
#
# Total GULP energy -111529.599762 kJ/mol
# GULP energy per Si atom -12392.177751 kJ/mol
# Density = 2.511630 g / cm^3
# Si number density = 25.173600 Si / 1000 Ang^3
#
#
#
# Elastic Constant Matrix: (Units=GPa)
#
#
# Indices 1 2 3 4 5 6 
#
# 1 100.9021 51.2193 24.4587 0.0000 12.7569 0.0000
# 2 51.2193 136.0939 38.1760 0.0000 2.7813 0.0000
# 3 24.4587 38.1760 72.2809 0.0000 0.9710 0.0000
# 4 0.0000 0.0000 0.0000 41.4644 0.0000 -15.1565
# 5 12.7569 2.7813 0.9710 0.0000 27.4279 0.0000
# 6 0.0000 0.0000 0.0000 -15.1565 0.0000 45.0339
#
#
#
# Elastic Compliance Matrix: (Units=1/GPa)
#
#
# Indices 1 2 3 4 5 6 
#
# 1 0.013335 -0.004294 -0.002168 0.000000 -0.005690 0.000000
# 2 -0.004294 0.010023 -0.003855 0.000000 0.001117 0.000000
# 3 -0.002168 -0.003855 0.016594 0.000000 0.000812 0.000000
# 4 0.000000 0.000000 0.000000 0.027500 0.000000 0.009255
# 5 -0.005690 0.001117 0.000812 0.000000 0.038964 0.000000
# 6 0.000000 0.000000 0.000000 0.009255 0.000000 0.025320
#
#
# Mechanical properties :
#
#
# Convention : Reuss Voigt Hill
#
# Bulk Modulus (GPa) = 51.76930 59.66499 55.71715
# Shear Modulus (GPa) = 31.48400 35.81344 33.64872
#
# Velocity S-wave (km/s) = 3.54033 3.77591 3.66001
# Velocity P-wave (km/s) = 6.10913 6.53933 6.32789
#
# Compressibility (1/GPa) = 0.01931647
#
# Stress axis : x y z
#
# Youngs Moduli (GPa) = 74.98837 99.77301 60.26306
#
# Poissons Ratio (x) = 0.42846 0.13065
# Poissons Ratio (y) = 0.32203 0.23234
# Poissons Ratio (z) = 0.16257 0.38467
#
# Static dielectric constant tensor:
#      x y z
#    x 4.262280 0.000000 -0.139620 
#    y 0.000000 4.740860 0.000000 
#    z -0.139620 0.000000 4.622710 
# 
# 
# High freq. dielectric constant tensor:
#      x y z
#    x 1.990940 0.000000 -0.001830 
#    y 0.000000 2.008720 0.000000 
#    z -0.001830 0.000000 2.000840 
# 
# From -- ./inp_files/25939.got.cif
#   From: 2010.03.12/outbox.cif.g09.slc.cpg/sg5_13_cif.got.tgz:25939.got - 2010.03.31 09:47:26.
