data_PCOD8052244
_publ_section_title
;
Structure prediction by ZEFSAII (Michael W. Deem and Ramdas Pophale) SiO2 
 PCOD8052244
Probable space group: P M
;
_chemical_formula_sum "Si O2"
_cell_formula_units_Z 16
_cell_length_a 21.332828
_cell_length_b 9.017812
_cell_length_c 9.207559
_cell_angle_alpha 90.000000
_cell_angle_beta 29.056778
_cell_angle_gamma 90.000000
_cell_volume 860.282027
_symmetry_space_group_name_H-M "P M"
_symmetry_group_IT_number 6
_symmetry_cell_setting 'monoclinic'
loop_
_space_group_symop_operation_xyz
x,y,z
x,-y,z
loop_
_atom_site_type_symbol
_atom_site_label
_atom_site_fract_x
_atom_site_fract_y
_atom_site_fract_z
Si Si1 0.742820 0.168084 0.277790
Si Si2 0.449784 0.326503 0.184024
Si Si3 0.182622 0.831514 0.384307
Si Si4 0.461756 0.168277 0.864002
Si Si5 0.949077 0.824370 0.379381
Si Si6 0.962384 0.674343 0.662061
Si Si7 0.704198 0.172362 0.693917
Si Si8 0.193851 0.172864 0.700861
O O1 0.597690 0.188318 0.503629
O O2 0.738449 0.205071 0.457152
O O3 0.792029 0.000000 0.152761
O O4 0.839375 0.280488 0.006628
O O5 0.447842 0.500000 0.214295
O O6 0.317995 0.257496 0.514588
O O7 0.457005 0.288929 0.999647
O O8 0.576329 0.258929 0.005095
O O9 0.171678 0.791114 0.576292
O O10 0.094733 0.721443 0.471249
O O11 0.135812 0.000000 0.451998
O O12 0.332705 0.811739 0.027850
O O13 0.459275 0.000000 0.936742
O O14 0.953216 0.749627 0.525917
O O15 0.821276 0.770500 0.555318
O O16 0.950177 0.000000 0.396941
O O17 0.070369 0.770460 0.039145
O O18 0.962622 0.500000 0.641911
O O19 0.678103 0.000000 0.770839
O O20 0.217684 0.000000 0.675809
#
# Coordination Sequence:
#
# PCOD8052244 Si02
#       8
#     2   2   2   2   2   2   2   2
#     4   9  17  34  59  82 103 131 172 218 260 305
#     4  10  18  28  49  82 115 140 162 200 260 320
#     4   9  17  34  59  82 103 131 172 218 260 305
#     4   8  16  32  55  80 103 130 172 222 260 296
#     4  10  21  38  58  76  98 136 183 224 260 300
#     4  12  25  36  48  74 112 146 173 208 260 318
#     4   9  18  35  59  82 102 131 176 223 260 300
#     4   9  18  35  59  82 102 131 176 223 260 300
#
# _framework density 18.598552000000002
#
# number of rings (size 3 to 8) (size 9 to 14) (size 15 to 20)
#    0.000    2.500    0.000    4.500    0.000    7.000 
#    0.000    2.500    0.000    3.000    0.000    0.000 
#    0.000    0.000    0.000    0.000    0.000    0.000 
#
# Total GULP energy -198342.904794 kJ/mol
# GULP energy per Si atom -12396.431550 kJ/mol
# Density = 1.855622 g / cm^3
# Si number density = 18.598552 Si / 1000 Ang^3
#
#
#
# Elastic Constant Matrix: (Units=GPa)
#
#
# Indices 1 2 3 4 5 6 
#
# 1 86.5640 30.9960 80.2646 0.0000 -21.2204 0.0000
# 2 30.9960 47.9079 41.3905 0.0000 -14.7406 0.0000
# 3 80.2646 41.3905 98.0879 0.0000 -42.5978 0.0000
# 4 0.0000 0.0000 0.0000 18.8813 0.0000 -1.0631
# 5 -21.2204 -14.7406 -42.5978 0.0000 28.9768 0.0000
# 6 0.0000 0.0000 0.0000 -1.0631 0.0000 16.0230
#
#
#
# Elastic Compliance Matrix: (Units=1/GPa)
#
#
# Indices 1 2 3 4 5 6 
#
# 1 0.699376 0.168257 -1.061179 0.000000 -0.962242 0.000000
# 2 0.168257 0.074443 -0.274185 0.000000 -0.241982 0.000000
# 3 -1.061179 -0.274185 1.648848 0.000000 1.507312 0.000000
# 4 0.000000 0.000000 0.000000 0.053161 0.000000 0.003527
# 5 -0.962242 -0.241982 1.507312 0.000000 1.422590 0.000000
# 6 0.000000 0.000000 0.000000 0.003527 0.000000 0.062644
#
#
# Mechanical properties :
#
#
# Convention : Reuss Voigt Hill
#
# Bulk Modulus (GPa) = 11.30553 59.76245 35.53399
# Shear Modulus (GPa) = 0.79054 18.10347 9.44701
#
# Velocity S-wave (km/s) = 0.65267 3.12329 2.25620
# Velocity P-wave (km/s) = 2.58067 6.72378 5.09260
#
# Compressibility (1/GPa) = 0.08845230
#
# Stress axis : x y z
#
# Youngs Moduli (GPa) = 1.42985 13.43318 0.60648
#
# Poissons Ratio (x) = -2.26022 0.64359
# Poissons Ratio (y) = -0.24058 0.16629
# Poissons Ratio (z) = 1.51732 3.68317
#
# Static dielectric constant tensor:
#      x y z
#    x 3.317040 0.000000 -0.390130 
#    y 0.000000 3.212500 0.000000 
#    z -0.390130 0.000000 3.675880 
# 
# 
# High freq. dielectric constant tensor:
#      x y z
#    x 1.699990 0.000000 -0.032620 
#    y 0.000000 1.706470 0.000000 
#    z -0.032620 0.000000 1.728550 
# 
# From -- ./inp_files/3599.got.cif
#   From: 2010.03.12/outbox.cif.g09.slc.cpg/sg6_2_cif.got.tgz:3599.got - 2010.03.30 10:24:59.
