data_PCOD8052764
_publ_section_title
;
Structure prediction by ZEFSAII (Michael W. Deem and Ramdas Pophale) SiO2 
 PCOD8052764
Probable space group: C M
;
_chemical_formula_sum "Si O2"
_cell_formula_units_Z 32
_cell_length_a 20.326097
_cell_length_b 9.106673
_cell_length_c 12.387499
_cell_angle_alpha 90.000000
_cell_angle_beta 53.913609
_cell_angle_gamma 90.000000
_cell_volume 1853.013122
_symmetry_space_group_name_H-M "C M"
_symmetry_group_IT_number 8
_symmetry_cell_setting 'monoclinic'
loop_
_space_group_symop_operation_xyz
x,y,z
x,-y,z
1/2+x,1/2+y,z
1/2+x,1/2-y,z
loop_
_atom_site_type_symbol
_atom_site_label
_atom_site_fract_x
_atom_site_fract_y
_atom_site_fract_z
Si Si1 0.065750 0.825481 0.215660
Si Si2 0.180546 0.173808 0.283619
Si Si3 0.735380 0.675066 0.458930
Si Si4 0.647280 0.325346 0.757211
Si Si5 0.705086 0.326040 0.925967
Si Si6 0.904786 0.173538 0.260880
Si Si7 0.464175 0.326788 0.966022
Si Si8 0.824196 0.673000 0.989513
O O1 0.097983 0.770960 0.302637
O O2 0.974343 0.773327 0.278271
O O3 0.068307 0.000000 0.207047
O O4 0.127454 0.762054 0.065791
O O5 0.185796 0.231552 0.401259
O O6 0.259903 0.227712 0.141742
O O7 0.180626 0.000000 0.282571
O O8 0.743088 0.500000 0.452610
O O9 0.686917 0.736268 0.609291
O O10 0.824946 0.741073 0.372890
O O11 0.646528 0.500000 0.754884
O O12 0.701560 0.268023 0.806180
O O13 0.555395 0.266979 0.859513
O O14 0.697121 0.500000 0.934410
O O15 0.788993 0.281672 0.905294
O O16 0.889236 0.000000 0.282078
O O17 0.932845 0.220673 0.114216
O O18 0.460964 0.500000 0.955282
O O19 0.408757 0.255398 0.926768
O O20 0.839250 0.500000 0.983045
#
# Coordination Sequence:
#
# PCOD8052764 Si02
#       8
#     4   4   4   4   4   4   4   4
#     4   8  13  24  44  67  88 113 152 194 218 252
#     4   8  14  25  43  68  91 114 149 188 224 260
#     4  10  19  31  48  69  96 123 149 188 232 274
#     4   9  17  30  47  68  93 123 157 188 222 269
#     4   8  13  25  46  69  89 116 157 192 217 258
#     4  10  18  29  48  71  93 119 154 193 227 267
#     4  10  18  29  47  71  95 118 152 193 230 268
#     4   9  16  27  47  71  93 116 150 194 228 264
#
# _framework density 17.269169999999999
#
# number of rings (size 3 to 8) (size 9 to 14) (size 15 to 20)
#    0.000    3.000    2.500    1.500    0.000    0.000 
#    0.000    1.875    0.000    6.750    0.000    0.000 
#    0.000    0.000    0.000    0.000    0.000    0.000 
#
# Total GULP energy -198264.078092 kJ/mol
# GULP energy per Si atom -12391.504881 kJ/mol
# Density = 1.722987 g / cm^3
# Si number density = 17.269170 Si / 1000 Ang^3
#
#
#
# Elastic Constant Matrix: (Units=GPa)
#
#
# Indices 1 2 3 4 5 6 
#
# 1 180.7712 22.4488 79.9851 0.0000 14.4428 0.0000
# 2 22.4488 12.5095 16.0514 0.0000 -1.5752 0.0000
# 3 79.9851 16.0514 116.6417 0.0000 9.7222 0.0000
# 4 0.0000 0.0000 0.0000 13.2792 0.0000 -5.1185
# 5 14.4428 -1.5752 9.7222 0.0000 28.6051 0.0000
# 6 0.0000 0.0000 0.0000 -5.1185 0.0000 24.2240
#
#
#
# Elastic Compliance Matrix: (Units=1/GPa)
#
#
# Indices 1 2 3 4 5 6 
#
# 1 0.009198 -0.011279 -0.004442 0.000000 -0.003756 0.000000
# 2 -0.011279 0.113879 -0.009194 0.000000 0.015091 0.000000
# 3 -0.004442 -0.009194 0.013111 0.000000 -0.002720 0.000000
# 4 0.000000 0.000000 0.000000 0.081983 0.000000 0.017323
# 5 -0.003756 0.015091 -0.002720 0.000000 0.038610 0.000000
# 6 0.000000 0.000000 0.000000 0.017323 0.000000 0.044942
#
#
# Mechanical properties :
#
#
# Convention : Reuss Voigt Hill
#
# Bulk Modulus (GPa) = 11.57993 60.76590 36.17292
# Shear Modulus (GPa) = 13.14612 25.98416 19.56514
#
# Velocity S-wave (km/s) = 2.76206 3.88320 3.36959
# Velocity P-wave (km/s) = 4.11000 7.44107 6.01089
#
# Compressibility (1/GPa) = 0.08635629
#
# Stress axis : x y z
#
# Youngs Moduli (GPa) = 108.71722 8.78127 76.26934
#
# Poissons Ratio (x) = 0.09905 0.33881
# Poissons Ratio (y) = 1.22627 0.70125
# Poissons Ratio (z) = 0.48295 0.08074
#
# Static dielectric constant tensor:
#      x y z
#    x 3.753750 0.000000 0.281540 
#    y 0.000000 2.663170 0.000000 
#    z 0.281540 0.000000 3.248460 
# 
# 
# High freq. dielectric constant tensor:
#      x y z
#    x 1.689210 0.000000 0.010310 
#    y 0.000000 1.609480 0.000000 
#    z 0.010310 0.000000 1.641980 
# 
# From -- ./inp_files/23054.got.cif
#   From: 2010.03.12/outbox.cif.g09.slc.cpg/sg8_12_cif.got.tgz:23054.got - 2010.03.31 10:45:26.
