data_PCOD8052574
_publ_section_title
;
Structure prediction by ZEFSAII (Michael W. Deem and Ramdas Pophale) SiO2 
 PCOD8052574
Probable space group: P C
;
_chemical_formula_sum "Si O2"
_cell_formula_units_Z 16
_cell_length_a 21.546453
_cell_length_b 8.107074
_cell_length_c 5.305727
_cell_angle_alpha 90.000000
_cell_angle_beta 60.207375
_cell_angle_gamma 90.000000
_cell_volume 804.302077
_symmetry_space_group_name_H-M "P C"
_symmetry_group_IT_number 7
_symmetry_cell_setting 'monoclinic'
loop_
_space_group_symop_operation_xyz
x,y,z
x,-y,1/2+z
loop_
_atom_site_type_symbol
_atom_site_label
_atom_site_fract_x
_atom_site_fract_y
_atom_site_fract_z
Si Si1 0.355500 0.330499 0.669440
Si Si2 0.580245 0.698611 0.208584
Si Si3 0.521762 0.667769 0.826581
Si Si4 0.889278 0.605807 0.602925
Si Si5 0.730938 0.394092 0.410162
Si Si6 0.998520 0.897839 0.385282
Si Si7 0.161365 0.896284 0.033068
Si Si8 0.296184 0.306968 0.289095
O O1 0.438476 0.376899 0.494199
O O2 0.332588 0.228280 0.466923
O O3 0.308003 0.496844 0.771406
O O4 0.335890 0.229922 0.962685
O O5 0.543352 0.773411 0.534637
O O6 0.566451 0.501340 0.236771
O O7 0.543498 0.773470 0.030946
O O8 0.665568 0.737108 0.036525
O O9 0.899626 0.522680 0.854389
O O10 0.809840 0.688099 0.747390
O O11 0.947605 0.744443 0.448849
O O12 0.722111 0.494832 0.683126
O O13 0.983001 0.976063 0.689286
O O14 0.079896 0.833265 0.207181
O O15 0.212293 0.736744 0.951307
O O16 0.177127 0.983413 0.735156
#
# Coordination Sequence:
#
# PCOD8052574 Si02
#       8
#     2   2   2   2   2   2   2   2
#     4  10  19  30  45  72 104 139 153 211 258 321
#     4  10  14  22  36  59  90 137 163 194 233 312
#     4  10  16  23  39  61  96 136 166 190 243 315
#     4  10  21  35  55  85 118 145 173 235 284 329
#     4  10  16  27  41  66 105 139 158 205 271 309
#     4  10  21  40  61  80 109 149 192 226 267 334
#     4  10  21  37  56  75  96 131 176 223 253 299
#     4  10  18  32  47  68 100 128 163 200 265 303
#
# _framework density 19.893024
#
# number of rings (size 3 to 8) (size 9 to 14) (size 15 to 20)
#    0.000    2.000    2.500    5.250    0.000    0.000 
#    4.500    0.000    0.000    0.000    0.000    0.000 
#    0.000   34.000    0.000    0.000    0.000    0.000 
#
# Total GULP energy -198252.283271 kJ/mol
# GULP energy per Si atom -12390.767704 kJ/mol
# Density = 1.984775 g / cm^3
# Si number density = 19.893024 Si / 1000 Ang^3
#
#
#
# Elastic Constant Matrix: (Units=GPa)
#
#
# Indices 1 2 3 4 5 6 
#
# 1 146.5815 31.8409 73.3347 0.0000 -0.9824 0.0000
# 2 31.8409 22.8048 15.3068 0.0000 -18.8185 0.0000
# 3 73.3347 15.3068 129.9823 0.0000 17.3237 0.0000
# 4 0.0000 0.0000 0.0000 6.4914 0.0000 3.5042
# 5 -0.9824 -18.8185 17.3237 0.0000 65.7479 0.0000
# 6 0.0000 0.0000 0.0000 3.5042 0.0000 4.8585
#
#
#
# Elastic Compliance Matrix: (Units=1/GPa)
#
#
# Indices 1 2 3 4 5 6 
#
# 1 0.013152 -0.018289 -0.004762 0.000000 -0.003783 0.000000
# 2 -0.018289 0.096134 -0.004802 0.000000 0.028507 0.000000
# 3 -0.004762 -0.004802 0.011544 0.000000 -0.004487 0.000000
# 4 0.000000 0.000000 0.000000 0.252268 0.000000 -0.181948
# 5 -0.003783 0.028507 -0.004487 0.000000 0.024495 0.000000
# 6 0.000000 0.000000 0.000000 -0.181948 0.000000 0.337054
#
#
# Mechanical properties :
#
#
# Convention : Reuss Voigt Hill
#
# Bulk Modulus (GPa) = 15.35551 60.03707 37.69629
# Shear Modulus (GPa) = 6.15718 27.34531 16.75124
#
# Velocity S-wave (km/s) = 1.76121 3.71161 2.90499
# Velocity P-wave (km/s) = 3.44552 6.97234 5.49932
#
# Compressibility (1/GPa) = 0.06512322
#
# Stress axis : x y z
#
# Youngs Moduli (GPa) = 76.03268 10.40219 86.62731
#
# Poissons Ratio (x) = 0.19025 0.41255
# Poissons Ratio (y) = 1.39058 0.41595
# Poissons Ratio (z) = 0.36210 0.04995
#
# Static dielectric constant tensor:
#      x y z
#    x 4.465250 0.000000 0.762780 
#    y 0.000000 2.729020 0.000000 
#    z 0.762780 0.000000 4.835150 
# 
# 
# High freq. dielectric constant tensor:
#      x y z
#    x 1.804480 0.000000 0.016860 
#    y 0.000000 1.683460 0.000000 
#    z 0.016860 0.000000 1.811050 
# 
# From -- ./inp_files/1247.got.cif
#   From: 2010.03.12/outbox.cif.g09.slc.cpg/sg7_cif.got.tgz:1247.got - 2010.03.30 08:40:41.
