data_PCOD8052735
_publ_section_title
;
Structure prediction by ZEFSAII (Michael W. Deem and Ramdas Pophale) SiO2 
 PCOD8052735
Probable space group: C M
;
_chemical_formula_sum "Si O2"
_cell_formula_units_Z 32
_cell_length_a 23.253579
_cell_length_b 8.612570
_cell_length_c 21.981425
_cell_angle_alpha 90.000000
_cell_angle_beta 24.587386
_cell_angle_gamma 90.000000
_cell_volume 1831.706512
_symmetry_space_group_name_H-M "C M"
_symmetry_group_IT_number 8
_symmetry_cell_setting 'monoclinic'
loop_
_space_group_symop_operation_xyz
x,y,z
x,-y,z
1/2+x,1/2+y,z
1/2+x,1/2-y,z
loop_
_atom_site_type_symbol
_atom_site_label
_atom_site_fract_x
_atom_site_fract_y
_atom_site_fract_z
Si Si1 0.941530 0.318673 0.761390
Si Si2 0.167344 0.828957 0.613294
Si Si3 0.862588 0.683227 0.083996
Si Si4 0.651870 0.318180 0.827358
Si Si5 0.883455 0.173613 0.937005
Si Si6 0.334951 0.318542 0.548491
Si Si7 0.070036 0.183582 0.407365
Si Si8 0.866078 0.817027 0.706437
O O1 0.924551 0.500000 0.766431
O O2 0.893071 0.224655 0.749729
O O3 0.103120 0.276893 0.620749
O O4 0.844828 0.261664 0.910854
O O5 0.304840 0.759425 0.511896
O O6 0.201016 0.000000 0.554658
O O7 0.050761 0.840179 0.778662
O O8 0.887606 0.500000 0.065876
O O9 0.833056 0.725210 0.042159
O O10 0.727743 0.741058 0.251320
O O11 0.990492 0.776382 0.989096
O O12 0.669640 0.500000 0.797604
O O13 0.715059 0.218344 0.711945
O O14 0.728870 0.271504 0.815781
O O15 0.818249 0.000000 0.001197
O O16 0.337092 0.500000 0.534662
O O17 0.479862 0.255265 0.436337
O O18 0.998138 0.239108 0.539138
O O19 0.067089 0.000000 0.406781
O O20 0.842119 0.000000 0.722451
#
# Coordination Sequence:
#
# PCOD8052735 Si02
#       8
#     4   4   4   4   4   4   4   4
#     4  10  18  30  49  75  99 126 163 205 246 288
#     4   9  17  28  45  71  99 125 156 198 242 285
#     4  11  19  32  51  74 101 133 165 201 248 296
#     4  11  20  30  46  71  99 128 164 206 243 288
#     4   9  18  30  46  72 100 127 159 200 242 286
#     4  10  17  30  49  72  98 128 164 205 247 289
#     4   8  19  33  49  72 102 133 163 198 245 297
#     4  10  19  35  53  73  98 130 166 205 245 289
#
# _framework density 17.470047999999998
#
# number of rings (size 3 to 8) (size 9 to 14) (size 15 to 20)
#    0.750    1.500    1.250    4.500    0.000    0.000 
#    0.000    7.500    0.000    1.500    0.000    7.000 
#    0.000    0.000    0.000    0.000    0.000    0.000 
#
# Total GULP energy -198269.512521 kJ/mol
# GULP energy per Si atom -12391.844533 kJ/mol
# Density = 1.743028 g / cm^3
# Si number density = 17.470048 Si / 1000 Ang^3
#
#
#
# Elastic Constant Matrix: (Units=GPa)
#
#
# Indices 1 2 3 4 5 6 
#
# 1 94.4200 7.0886 30.7916 -0.0014 -5.2002 0.0006
# 2 7.0886 69.6288 13.6787 -0.0025 -0.3757 0.0009
# 3 30.7916 13.6787 78.6094 -0.0023 -8.8157 0.0004
# 4 -0.0014 -0.0025 -0.0023 12.1839 0.0006 -4.6137
# 5 -5.2002 -0.3757 -8.8157 0.0006 18.3670 -0.0003
# 6 0.0006 0.0009 0.0004 -4.6137 -0.0003 31.9042
#
#
#
# Elastic Compliance Matrix: (Units=1/GPa)
#
#
# Indices 1 2 3 4 5 6 
#
# 1 0.012175 -0.000335 -0.004571 0.000000 0.001246 0.000000
# 2 -0.000335 0.014896 -0.002576 0.000003 -0.001027 0.000000
# 3 -0.004571 -0.002576 0.015651 0.000002 0.006165 0.000000
# 4 0.000000 0.000003 0.000002 0.086830 -0.000001 0.012557
# 5 0.001246 -0.001027 0.006165 -0.000001 0.057736 0.000000
# 6 0.000000 0.000000 0.000000 0.012557 0.000000 0.033160
#
#
# Mechanical properties :
#
#
# Convention : Reuss Voigt Hill
#
# Bulk Modulus (GPa) = 36.02408 38.41956 37.22182
# Shear Modulus (GPa) = 20.43594 25.23098 22.83346
#
# Velocity S-wave (km/s) = 3.42390 3.80444 3.61918
# Velocity P-wave (km/s) = 6.02462 6.42945 6.23032
#
# Compressibility (1/GPa) = 0.02775921
#
# Stress axis : x y z
#
# Youngs Moduli (GPa) = 82.13239 67.12991 63.89226
#
# Poissons Ratio (x) = 0.02247 0.29206
# Poissons Ratio (y) = 0.02750 0.16459
# Poissons Ratio (z) = 0.37544 0.17293
#
# Static dielectric constant tensor:
#      x y z
#    x 3.161800 0.000000 -0.168470 
#    y 0.000000 3.205540 0.000000 
#    z -0.168470 0.000000 3.123340 
# 
# 
# High freq. dielectric constant tensor:
#      x y z
#    x 1.667450 0.000000 -0.016320 
#    y 0.000000 1.681450 0.000000 
#    z -0.016320 0.000000 1.631680 
# 
# From -- ./inp_files/33135.got.cif
#   From: 2010.03.12/outbox.cif.g09.slc.cpg/sg8_17_cif.got.tgz:33135.got - 2010.03.31 10:45:26.
