data_PCOD8052476
_publ_section_title
;
Structure prediction by ZEFSAII (Michael W. Deem and Ramdas Pophale) SiO2 
 PCOD8052476
Probable space group: P M
;
_chemical_formula_sum "Si O2"
_cell_formula_units_Z 16
_cell_length_a 9.192116
_cell_length_b 8.412570
_cell_length_c 11.103997
_cell_angle_alpha 90.000000
_cell_angle_beta 65.791842
_cell_angle_gamma 90.000000
_cell_volume 783.155065
_symmetry_space_group_name_H-M "P M"
_symmetry_group_IT_number 6
_symmetry_cell_setting 'monoclinic'
loop_
_space_group_symop_operation_xyz
x,y,z
x,-y,z
loop_
_atom_site_type_symbol
_atom_site_label
_atom_site_fract_x
_atom_site_fract_y
_atom_site_fract_z
Si Si1 0.805680 0.184917 0.062120
Si Si2 0.335655 0.187097 0.591173
Si Si3 0.034006 0.316035 0.573178
Si Si4 0.168191 0.185271 0.292539
Si Si5 0.492892 0.812629 0.296196
Si Si6 0.124941 0.317755 0.053491
Si Si7 0.425918 0.183833 0.826157
Si Si8 0.736523 0.683015 0.832040
O O1 0.660009 0.256359 0.191684
O O2 0.961587 0.284309 0.039809
O O3 0.835786 0.000000 0.080170
O O4 0.762263 0.204775 0.937592
O O5 0.169719 0.276664 0.625172
O O6 0.464291 0.236049 0.445016
O O7 0.404496 0.240315 0.695822
O O8 0.299578 0.000000 0.598832
O O9 0.043473 0.500000 0.535124
O O10 0.053651 0.213257 0.445600
O O11 0.864242 0.270037 0.687083
O O12 0.345429 0.249650 0.265056
O O13 0.101480 0.282211 0.202351
O O14 0.168367 0.000000 0.260426
O O15 0.497115 0.000000 0.280469
O O16 0.172389 0.500000 0.017389
O O17 0.262412 0.206390 0.953766
O O18 0.561420 0.290918 0.838839
O O19 0.475874 0.000000 0.815754
O O20 0.756450 0.500000 0.864283
#
# Coordination Sequence:
#
# PCOD8052476 Si02
#       8
#     2   2   2   2   2   2   2   2
#     4  11  22  38  61  86 115 153 199 245 290 347
#     4   9  19  37  60  85 114 150 194 240 286 341
#     4  10  21  37  58  86 119 154 191 234 292 353
#     4  10  20  38  63  88 115 150 195 241 287 345
#     4   8  17  35  59  86 113 143 184 237 288 335
#     4  12  25  40  58  84 120 155 191 241 301 355
#     4  11  23  39  61  87 114 152 202 246 289 347
#     4  11  24  40  58  84 120 157 194 242 299 351
#
# _framework density 20.43018
#
# number of rings (size 3 to 8) (size 9 to 14) (size 15 to 20)
#    0.000    1.750    0.000    5.250    0.000    7.000 
#    0.000    6.875    0.000    0.000    0.000    0.000 
#    0.000    0.000    0.000    0.000    0.000    0.000 
#
# Total GULP energy -198479.714203 kJ/mol
# GULP energy per Si atom -12404.982138 kJ/mol
# Density = 2.038368 g / cm^3
# Si number density = 20.430180 Si / 1000 Ang^3
#
#
#
# Elastic Constant Matrix: (Units=GPa)
#
#
# Indices 1 2 3 4 5 6 
#
# 1 112.8670 11.3039 61.9425 0.0000 -0.5964 0.0000
# 2 11.3039 47.7721 18.4604 0.0000 0.6856 0.0000
# 3 61.9425 18.4604 110.0783 0.0000 -3.5931 0.0000
# 4 0.0000 0.0000 0.0000 26.8602 0.0000 0.1342
# 5 -0.5964 0.6856 -3.5931 0.0000 42.8308 0.0000
# 6 0.0000 0.0000 0.0000 0.1342 0.0000 31.6390
#
#
#
# Elastic Compliance Matrix: (Units=1/GPa)
#
#
# Indices 1 2 3 4 5 6 
#
# 1 0.012829 -0.000251 -0.007191 0.000000 -0.000421 0.000000
# 2 -0.000251 0.022408 -0.003638 0.000000 -0.000667 0.000000
# 3 -0.007191 -0.003638 0.013777 0.000000 0.001114 0.000000
# 4 0.000000 0.000000 0.000000 0.037231 0.000000 -0.000158
# 5 -0.000421 -0.000667 0.001114 0.000000 0.023446 0.000000
# 6 0.000000 0.000000 0.000000 -0.000158 0.000000 0.031607
#
#
# Mechanical properties :
#
#
# Convention : Reuss Voigt Hill
#
# Bulk Modulus (GPa) = 37.23848 50.45902 43.84875
# Shear Modulus (GPa) = 29.00065 32.20002 30.60034
#
# Velocity S-wave (km/s) = 3.77171 3.97432 3.87434
# Velocity P-wave (km/s) = 6.10201 6.76847 6.44386
#
# Compressibility (1/GPa) = 0.02685394
#
# Stress axis : x y z
#
# Youngs Moduli (GPa) = 77.94647 44.62758 72.58273
#
# Poissons Ratio (x) = 0.01120 0.52193
# Poissons Ratio (y) = 0.01956 0.26409
# Poissons Ratio (z) = 0.56050 0.16237
#
# Static dielectric constant tensor:
#      x y z
#    x 3.667440 0.000000 -0.060790 
#    y 0.000000 3.493510 0.000000 
#    z -0.060790 0.000000 3.917170 
# 
# 
# High freq. dielectric constant tensor:
#      x y z
#    x 1.795820 0.000000 0.000840 
#    y 0.000000 1.789300 0.000000 
#    z 0.000840 0.000000 1.810840 
# 
# From -- ./inp_files/3753.got.cif
#   From: 2010.03.12/outbox.cif.g09.slc.cpg/sg6_2_cif.got.tgz:3753.got - 2010.03.30 10:24:59.
