data_PCOD8052116
_publ_section_title
;
Structure prediction by ZEFSAII (Michael W. Deem and Ramdas Pophale) SiO2 
 PCOD8052116
Probable space group: C 2
;
_chemical_formula_sum "Si O2"
_cell_formula_units_Z 28
_cell_length_a 9.524333
_cell_length_b 12.728007
_cell_length_c 13.329242
_cell_angle_alpha 90.000000
_cell_angle_beta 58.891613
_cell_angle_gamma 90.000000
_cell_volume 1383.475026
_symmetry_space_group_name_H-M "C 2"
_symmetry_group_IT_number 5
_symmetry_cell_setting 'monoclinic'
loop_
_space_group_symop_operation_xyz
x,y,z
-x,y,-z
1/2+x,1/2+y,z
1/2-x,1/2+y,-z
loop_
_atom_site_type_symbol
_atom_site_label
_atom_site_fract_x
_atom_site_fract_y
_atom_site_fract_z
Si Si1 0.185966 0.353430 0.423942
Si Si2 0.906005 0.149860 0.835195
Si Si3 0.785320 0.264260 0.244193
Si Si4 0.311731 0.448140 0.582470
Si Si5 0.777973 0.042639 0.254594
Si Si6 0.191365 0.652608 0.721106
Si Si7 0.678654 0.148082 0.105672
O O1 0.244884 0.394021 0.508434
O O2 0.194874 0.444977 0.338048
O O3 0.299012 0.256753 0.350036
O O4 0.000000 0.314133 0.500000
O O5 0.834622 0.152905 0.750131
O O6 0.015998 0.255464 0.814083
O O7 0.023199 0.046325 0.803806
O O8 0.758205 0.143136 0.967608
O O9 0.709009 0.369107 0.316580
O O10 0.710575 0.156191 0.323428
O O11 0.739870 0.253956 0.142197
O O12 0.500000 0.478814 0.500000
O O13 0.209883 0.553072 0.641115
O O14 0.733506 0.045307 0.151615
O O15 0.015961 0.649287 0.839304
#
# Coordination Sequence:
#
# PCOD8052116 Si02
#       7
#     4   4   4   4   4   4   4
#     4  12  25  39  60  84 119 158 190 238 290 332
#     4   9  19  40  63  87 118 145 189 246 293 326
#     4   8  20  40  62  82 115 146 205 225 276 352
#     4  12  25  39  60  84 119 158 190 238 290 332
#     4   8  20  40  62  82 115 146 205 225 276 352
#     4  12  24  37  56  92 122 143 196 238 286 350
#     4   9  19  39  64  85 117 152 189 236 289 342
#
# _framework density 20.238890999999999
#
# number of rings (size 3 to 8) (size 9 to 14) (size 15 to 20)
#    1.714    0.000    0.000    6.000    2.000    0.571 
#    0.000    8.571    0.000    0.000    0.000    0.000 
#    0.000    0.000    0.000    0.000    0.000    0.000 
#
# Total GULP energy -173442.845448 kJ/mol
# GULP energy per Si atom -12388.774675 kJ/mol
# Density = 2.019283 g / cm^3
# Si number density = 20.238891 Si / 1000 Ang^3
#
#
#
# Elastic Constant Matrix: (Units=GPa)
#
#
# Indices 1 2 3 4 5 6 
#
# 1 89.6118 2.1477 18.7098 0.0000 -4.6868 0.0000
# 2 2.1477 62.9219 6.3083 0.0000 -2.0218 0.0000
# 3 18.7098 6.3083 70.2906 0.0000 -6.3116 0.0000
# 4 0.0000 0.0000 0.0000 16.5598 0.0000 -1.3263
# 5 -4.6868 -2.0218 -6.3116 0.0000 43.1810 0.0000
# 6 0.0000 0.0000 0.0000 -1.3263 0.0000 15.8078
#
#
#
# Elastic Compliance Matrix: (Units=1/GPa)
#
#
# Indices 1 2 3 4 5 6 
#
# 1 0.011846 -0.000070 -0.003072 0.000000 0.000833 0.000000
# 2 -0.000070 0.016050 -0.001373 0.000000 0.000543 0.000000
# 3 -0.003072 -0.001373 0.015333 0.000000 0.001843 0.000000
# 4 0.000000 0.000000 0.000000 0.060796 0.000000 0.005101
# 5 0.000833 0.000543 0.001843 0.000000 0.023544 0.000000
# 6 0.000000 0.000000 0.000000 0.005101 0.000000 0.063688
#
#
# Mechanical properties :
#
#
# Convention : Reuss Voigt Hill
#
# Bulk Modulus (GPa) = 29.23997 30.79509 30.01753
# Shear Modulus (GPa) = 23.61991 28.15362 25.88677
#
# Velocity S-wave (km/s) = 3.41993 3.73375 3.58028
# Velocity P-wave (km/s) = 5.48391 5.81693 5.65287
#
# Compressibility (1/GPa) = 0.03419976
#
# Stress axis : x y z
#
# Youngs Moduli (GPa) = 84.41732 62.30442 65.21825
#
# Poissons Ratio (x) = 0.00433 0.20035
# Poissons Ratio (y) = 0.00587 0.08956
# Poissons Ratio (z) = 0.25933 0.08555
#
# Static dielectric constant tensor:
#      x y z
#    x 2.276710 0.000000 0.316740 
#    y 0.000000 3.427780 0.000000 
#    z 0.316740 0.000000 3.344260 
# 
# 
# High freq. dielectric constant tensor:
#      x y z
#    x 1.804780 0.000000 -0.000290 
#    y 0.000000 1.764230 0.000000 
#    z -0.000290 0.000000 1.777370 
# 
# From -- ./inp_files/36287.got.cif
#   From: 2010.03.12/outbox.cif.g09.slc.cpg/sg5_19_cif.got.tgz:36287.got - 2010.03.31 09:47:26.
