data_PCOD8052290
_publ_section_title
;
Structure prediction by ZEFSAII (Michael W. Deem and Ramdas Pophale) SiO2 
 PCOD8052290
Probable space group: P M
;
_chemical_formula_sum "Si O2"
_cell_formula_units_Z 13
_cell_length_a 10.557703
_cell_length_b 11.179159
_cell_length_c 7.255987
_cell_angle_alpha 90.000000
_cell_angle_beta 139.245679
_cell_angle_gamma 90.000000
_cell_volume 559.070333
_symmetry_space_group_name_H-M "P M"
_symmetry_group_IT_number 6
_symmetry_cell_setting 'monoclinic'
loop_
_space_group_symop_operation_xyz
x,y,z
x,-y,z
loop_
_atom_site_type_symbol
_atom_site_label
_atom_site_fract_x
_atom_site_fract_y
_atom_site_fract_z
Si Si1 0.314070 0.137235 0.210650
Si Si2 0.964790 0.861871 0.355728
Si Si3 0.546569 0.500000 0.119940
Si Si4 0.661195 0.752365 0.748265
Si Si5 0.881434 0.132574 0.687995
Si Si6 0.974598 0.500000 0.653292
Si Si7 0.258560 0.301187 0.817494
Si Si8 0.702369 0.500000 0.675697
O O1 0.441889 0.197127 0.514684
O O2 0.375767 0.000000 0.246371
O O3 0.352071 0.207718 0.062434
O O4 0.089113 0.145267 0.019490
O O5 0.897392 0.841107 0.490568
O O6 0.152493 0.775271 0.537647
O O7 0.021529 0.000000 0.381014
O O8 0.788425 0.824056 0.033485
O O9 0.430990 0.382088 0.920383
O O10 0.773108 0.500000 0.309017
O O11 0.534417 0.500000 0.332533
O O12 0.735216 0.775145 0.620102
O O13 0.674538 0.610070 0.786487
O O14 0.799377 0.000000 0.631125
O O15 0.912569 0.500000 0.802478
O O16 0.098349 0.382699 0.744961
#
# Coordination Sequence:
#
# PCOD8052290 Si02
#       8
#     2   2   1   2   2   1   2   1
#     4  10  19  33  58  87 114 156 203 240 294 359
#     4  10  22  38  61  94 122 154 203 249 299 362
#     4   9  19  35  56  92 115 153 208 239 282 370
#     4  12  22  40  61  86 126 161 196 253 299 349
#     4   9  20  39  62  88 117 157 201 244 304 360
#     4   9  19  35  60  86 114 152 194 247 291 344
#     4  10  18  35  60  83 120 157 190 249 298 339
#     4  10  20  34  56  90 113 151 212 232 285 364
#
# _framework density 23.252890000000001
#
# number of rings (size 3 to 8) (size 9 to 14) (size 15 to 20)
#    0.462    1.538    1.538    4.615    0.000    1.231 
#    0.000    5.385    0.000   12.923    0.000    0.000 
#    0.000    0.000    0.000    0.000    0.000    0.000 
#
# Total GULP energy -161149.530300 kJ/mol
# GULP energy per Si atom -12396.117715 kJ/mol
# Density = 2.319997 g / cm^3
# Si number density = 23.252890 Si / 1000 Ang^3
#
#
#
# Elastic Constant Matrix: (Units=GPa)
#
#
# Indices 1 2 3 4 5 6 
#
# 1 35.1923 15.7653 12.5497 0.0000 17.0564 0.0000
# 2 15.7653 165.3564 36.5088 0.0000 4.6308 0.0000
# 3 12.5497 36.5088 120.0435 0.0000 8.0010 0.0000
# 4 0.0000 0.0000 0.0000 37.4258 0.0000 -1.3374
# 5 17.0564 4.6308 8.0010 0.0000 20.5411 0.0000
# 6 0.0000 0.0000 0.0000 -1.3374 0.0000 12.6809
#
#
#
# Elastic Compliance Matrix: (Units=1/GPa)
#
#
# Indices 1 2 3 4 5 6 
#
# 1 0.049851 -0.003291 -0.001541 0.000000 -0.040051 0.000000
# 2 -0.003291 0.006710 -0.001825 0.000000 0.001931 0.000000
# 3 -0.001541 -0.001825 0.009172 0.000000 -0.001881 0.000000
# 4 0.000000 0.000000 0.000000 0.026821 0.000000 0.002829
# 5 -0.040051 0.001931 -0.001881 0.000000 0.082237 0.000000
# 6 0.000000 0.000000 0.000000 0.002829 0.000000 0.079157
#
#
# Mechanical properties :
#
#
# Convention : Reuss Voigt Hill
#
# Bulk Modulus (GPa) = 19.07756 50.02665 34.55211
# Shear Modulus (GPa) = 17.56018 31.18079 24.37048
#
# Velocity S-wave (km/s) = 2.75104 3.66586 3.24089
# Velocity P-wave (km/s) = 4.27939 6.28323 5.37550
#
# Compressibility (1/GPa) = 0.05241760
#
# Stress axis : x y z
#
# Youngs Moduli (GPa) = 20.05998 149.02537 109.02750
#
# Poissons Ratio (x) = 0.49043 0.16804
# Poissons Ratio (y) = 0.06602 0.19902
# Poissons Ratio (z) = 0.03092 0.27204
#
# Static dielectric constant tensor:
#      x y z
#    x 3.626480 0.000000 0.271130 
#    y 0.000000 4.473480 0.000000 
#    z 0.271130 0.000000 4.232690 
# 
# 
# High freq. dielectric constant tensor:
#      x y z
#    x 1.873300 0.000000 0.020350 
#    y 0.000000 1.941610 0.000000 
#    z 0.020350 0.000000 1.920140 
# 
# From -- ./inp_files/4156.got.cif
#   From: 2010.03.12/outbox.cif.g09.slc.cpg/sg6_3_cif.got.tgz:4156.got - 2010.03.30 10:24:59.
