data_PCOD8052982
_publ_section_title
;
Structure prediction by ZEFSAII (Michael W. Deem and Ramdas Pophale) SiO2 
 PCOD8052982
Probable space group: C M
;
_chemical_formula_sum "Si O2"
_cell_formula_units_Z 32
_cell_length_a 20.709431
_cell_length_b 8.877845
_cell_length_c 17.924544
_cell_angle_alpha 90.000000
_cell_angle_beta 29.977599
_cell_angle_gamma 90.000000
_cell_volume 1646.643621
_symmetry_space_group_name_H-M "C M"
_symmetry_group_IT_number 8
_symmetry_cell_setting 'monoclinic'
loop_
_space_group_symop_operation_xyz
x,y,z
x,-y,z
1/2+x,1/2+y,z
1/2+x,1/2-y,z
loop_
_atom_site_type_symbol
_atom_site_label
_atom_site_fract_x
_atom_site_fract_y
_atom_site_fract_z
Si Si1 0.864650 0.179293 0.240820
Si Si2 0.597784 0.821478 0.252004
Si Si3 0.856095 0.176148 0.418798
Si Si4 0.863795 0.320682 0.736662
Si Si5 0.612097 0.321246 0.904856
Si Si6 0.838344 0.321824 0.930745
Si Si7 0.116807 0.679383 0.401998
Si Si8 0.092298 0.675008 0.765646
O O1 0.864082 0.236800 0.326271
O O2 0.741007 0.244501 0.320800
O O3 0.860860 0.000000 0.243608
O O4 0.990962 0.242179 0.072705
O O5 0.457593 0.766580 0.366767
O O6 0.620114 0.763535 0.313779
O O7 0.602749 0.000000 0.242293
O O8 0.708855 0.754126 0.089506
O O9 0.712365 0.209511 0.591628
O O10 0.890064 0.000000 0.389189
O O11 0.864889 0.500000 0.733848
O O12 0.740359 0.257270 0.815727
O O13 0.860758 0.263276 0.824475
O O14 0.990491 0.255316 0.569476
O O15 0.611062 0.500000 0.906627
O O16 0.606779 0.269007 0.825709
O O17 0.818690 0.500000 0.952221
O O18 0.961727 0.271739 0.855536
O O19 0.115475 0.500000 0.405905
O O20 0.085724 0.500000 0.792724
#
# Coordination Sequence:
#
# PCOD8052982 Si02
#       8
#     4   4   4   4   4   4   4   4
#     4   9  17  31  52  75  98 131 176 218 253 295
#     4  11  22  35  54  81 110 139 172 214 266 317
#     4  10  20  36  57  79 105 138 177 219 260 307
#     4   9  17  31  52  75  98 131 176 218 253 295
#     4  10  19  32  52  76 103 136 172 212 258 308
#     4  10  20  36  57  79 105 138 177 219 260 307
#     4   9  17  30  50  76 102 129 170 220 258 295
#     4  10  21  35  54  81 109 138 172 214 266 316
#
# _framework density 19.433471000000001
#
# number of rings (size 3 to 8) (size 9 to 14) (size 15 to 20)
#    0.000    2.250    0.000    3.375    0.000    8.000 
#    0.000    2.500    0.000    3.000    0.000    0.000 
#    0.000    0.000    0.000    0.000    0.000    0.000 
#
# Total GULP energy -198438.027243 kJ/mol
# GULP energy per Si atom -12402.376703 kJ/mol
# Density = 1.938924 g / cm^3
# Si number density = 19.433471 Si / 1000 Ang^3
#
#
#
# Elastic Constant Matrix: (Units=GPa)
#
#
# Indices 1 2 3 4 5 6 
#
# 1 130.0526 16.5233 33.5069 -0.0003 -0.0920 0.0001
# 2 16.5233 19.2360 13.7394 -0.0006 0.7618 0.0002
# 3 33.5069 13.7394 119.0904 -0.0003 0.1118 0.0001
# 4 -0.0003 -0.0006 -0.0003 15.7760 0.0001 1.8740
# 5 -0.0920 0.7618 0.1118 0.0001 46.6624 0.0000
# 6 0.0001 0.0002 0.0001 1.8740 0.0000 26.1736
#
#
#
# Elastic Compliance Matrix: (Units=1/GPa)
#
#
# Indices 1 2 3 4 5 6 
#
# 1 0.008965 -0.006435 -0.001780 0.000000 0.000127 0.000000
# 2 -0.006435 0.061311 -0.005262 0.000002 -0.001001 -0.000001
# 3 -0.001780 -0.005262 0.009505 0.000000 0.000060 0.000000
# 4 0.000000 0.000002 0.000000 0.063931 0.000000 -0.004577
# 5 0.000127 -0.001001 0.000060 0.000000 0.021447 0.000000
# 6 0.000000 -0.000001 0.000000 -0.004577 0.000000 0.038534
#
#
# Mechanical properties :
#
#
# Convention : Reuss Voigt Hill
#
# Bulk Modulus (GPa) = 18.92946 43.99090 31.46018
# Shear Modulus (GPa) = 20.14040 31.36302 25.75171
#
# Velocity S-wave (km/s) = 3.22277 4.02165 3.64417
# Velocity P-wave (km/s) = 4.85903 6.65212 5.82498
#
# Compressibility (1/GPa) = 0.05282771
#
# Stress axis : x y z
#
# Youngs Moduli (GPa) = 111.53891 16.31020 105.20892
#
# Poissons Ratio (x) = 0.10495 0.18730
# Poissons Ratio (y) = 0.71771 0.55362
# Poissons Ratio (z) = 0.19857 0.08583
#
# Static dielectric constant tensor:
#      x y z
#    x 3.784190 0.000000 -0.084550 
#    y 0.000000 3.066890 0.000000 
#    z -0.084550 0.000000 3.926320 
# 
# 
# High freq. dielectric constant tensor:
#      x y z
#    x 1.776260 0.000000 -0.001170 
#    y 0.000000 1.705740 0.000000 
#    z -0.001170 0.000000 1.777570 
# 
# From -- ./inp_files/16213.got.cif
#   From: 2010.03.12/outbox.cif.g09.slc.cpg/sg8_9_cif.got.tgz:16213.got - 2010.03.31 10:45:26.
