data_PCOD8052284
_publ_section_title
;
Structure prediction by ZEFSAII (Michael W. Deem and Ramdas Pophale) SiO2 
 PCOD8052284
Probable space group: P M
;
_chemical_formula_sum "Si O2"
_cell_formula_units_Z 14
_cell_length_a 10.998295
_cell_length_b 12.803758
_cell_length_c 7.671671
_cell_angle_alpha 90.000000
_cell_angle_beta 45.037801
_cell_angle_gamma 90.000000
_cell_volume 764.406077
_symmetry_space_group_name_H-M "P M"
_symmetry_group_IT_number 6
_symmetry_cell_setting 'monoclinic'
loop_
_space_group_symop_operation_xyz
x,y,z
x,-y,z
loop_
_atom_site_type_symbol
_atom_site_label
_atom_site_fract_x
_atom_site_fract_y
_atom_site_fract_z
Si Si1 0.238580 0.879900 0.664850
Si Si2 0.429540 0.620848 0.029130
Si Si3 0.674459 0.116798 0.566212
Si Si4 0.310446 0.806567 0.958487
Si Si5 0.761825 0.263861 0.780121
Si Si6 0.137081 0.255107 0.459607
Si Si7 0.638803 0.881606 0.210619
O O1 0.209018 0.825490 0.882318
O O2 0.124047 0.814934 0.645630
O O3 0.434302 0.871555 0.406577
O O4 0.176235 0.000000 0.736054
O O5 0.413557 0.500000 0.000217
O O6 0.285782 0.655431 0.319308
O O7 0.390645 0.688075 0.892472
O O8 0.620823 0.644620 0.907848
O O9 0.469497 0.113591 0.812155
O O10 0.770721 0.195851 0.595352
O O11 0.705081 0.151926 0.335098
O O12 0.744489 0.000000 0.526219
O O13 0.181502 0.822843 0.252214
O O14 0.952440 0.310595 0.615388
O O15 0.720567 0.191722 0.985228
O O16 0.694528 0.000000 0.114273
#
# Coordination Sequence:
#
# PCOD8052284 Si02
#       7
#     2   2   2   2   2   2   2
#     4  10  18  33  57  83 115 154 182 213 266 327
#     4   9  20  41  61  77 104 144 186 235 285 318
#     4   9  17  31  53  78 110 151 184 216 262 321
#     4   8  18  35  55  79 110 140 187 227 268 318
#     4  11  20  34  56  80 111 141 180 227 275 323
#     4  10  22  35  54  85 113 143 180 228 269 331
#     4   9  17  31  52  78 111 149 183 216 261 324
#
# _framework density 18.314872999999999
#
# number of rings (size 3 to 8) (size 9 to 14) (size 15 to 20)
#    0.857    1.714    1.429    1.714    0.000    5.143 
#    0.000    2.143    0.000    0.000    0.000    0.000 
#    0.000    0.000    0.000    0.000    0.000    0.000 
#
# Total GULP energy -173487.687135 kJ/mol
# GULP energy per Si atom -12391.977652 kJ/mol
# Density = 1.827319 g / cm^3
# Si number density = 18.314873 Si / 1000 Ang^3
#
#
#
# Elastic Constant Matrix: (Units=GPa)
#
#
# Indices 1 2 3 4 5 6 
#
# 1 100.2340 40.8884 35.3855 0.0000 0.6257 0.0000
# 2 40.8884 91.9996 14.6159 0.0000 3.2087 0.0000
# 3 35.3855 14.6159 33.9278 0.0000 5.3210 0.0000
# 4 0.0000 0.0000 0.0000 11.4153 0.0000 2.7535
# 5 0.6257 3.2087 5.3210 0.0000 33.5786 0.0000
# 6 0.0000 0.0000 0.0000 2.7535 0.0000 12.3201
#
#
#
# Elastic Compliance Matrix: (Units=1/GPa)
#
#
# Indices 1 2 3 4 5 6 
#
# 1 0.018238 -0.005488 -0.017112 0.000000 0.002896 0.000000
# 2 -0.005488 0.013323 0.000173 0.000000 -0.001198 0.000000
# 3 -0.017112 0.000173 0.048403 0.000000 -0.007368 0.000000
# 4 0.000000 0.000000 0.000000 0.092593 0.000000 -0.020694
# 5 0.002896 -0.001198 -0.007368 0.000000 0.031009 0.000000
# 6 0.000000 0.000000 0.000000 -0.020694 0.000000 0.085793
#
#
# Mechanical properties :
#
#
# Convention : Reuss Voigt Hill
#
# Bulk Modulus (GPa) = 28.48288 45.32678 36.90483
# Shear Modulus (GPa) = 14.45428 20.48090 17.46759
#
# Velocity S-wave (km/s) = 2.81234 3.34768 3.09162
# Velocity P-wave (km/s) = 5.11187 6.30436 5.73917
#
# Compressibility (1/GPa) = 0.03510881
#
# Stress axis : x y z
#
# Youngs Moduli (GPa) = 54.82920 75.05675 20.66001
#
# Poissons Ratio (x) = 0.41194 0.35353
# Poissons Ratio (y) = 0.30092 -0.00356
# Poissons Ratio (z) = 0.93823 -0.01295
#
# Static dielectric constant tensor:
#      x y z
#    x 3.420950 0.000000 0.032750 
#    y 0.000000 2.963070 0.000000 
#    z 0.032750 0.000000 3.286620 
# 
# 
# High freq. dielectric constant tensor:
#      x y z
#    x 1.709870 0.000000 0.000870 
#    y 0.000000 1.669270 0.000000 
#    z 0.000870 0.000000 1.703950 
# 
# From -- ./inp_files/2840.got.cif
#   From: 2010.03.12/outbox.cif.g09.slc.cpg/sg6_2_cif.got.tgz:2840.got - 2010.03.30 10:24:59.
