data_PCOD8052400
_publ_section_title
;
Structure prediction by ZEFSAII (Michael W. Deem and Ramdas Pophale) SiO2 
 PCOD8052400
Probable space group: P M
;
_chemical_formula_sum "Si O2"
_cell_formula_units_Z 16
_cell_length_a 12.640174
_cell_length_b 9.167573
_cell_length_c 12.640164
_cell_angle_alpha 90.000000
_cell_angle_beta 35.427446
_cell_angle_gamma 90.000000
_cell_volume 849.067347
_symmetry_space_group_name_H-M "P M"
_symmetry_group_IT_number 6
_symmetry_cell_setting 'monoclinic'
loop_
_space_group_symop_operation_xyz
x,y,z
x,-y,z
loop_
_atom_site_type_symbol
_atom_site_label
_atom_site_fract_x
_atom_site_fract_y
_atom_site_fract_z
Si Si1 0.511010 0.333402 0.112270
Si Si2 0.897751 0.666597 0.725530
Si Si3 0.513376 0.167964 0.322383
Si Si4 0.126800 0.673280 0.341319
Si Si5 0.107863 0.832036 0.727897
Si Si6 0.003193 0.327206 0.217715
Si Si7 0.621092 0.328953 0.438541
Si Si8 0.224021 0.328953 0.835613
O O1 0.477459 0.500000 0.176291
O O2 0.565307 0.239471 0.169408
O O3 0.330510 0.271097 0.202301
O O4 0.678528 0.323720 0.893047
O O5 0.961772 0.500000 0.691979
O O6 0.987782 0.728903 0.545029
O O7 0.954887 0.760529 0.779827
O O8 0.299019 0.189148 0.513539
O O9 0.625050 0.246306 0.323992
O O10 0.571695 0.000000 0.273567
O O11 0.122452 0.500000 0.336972
O O12 0.064966 0.741631 0.279487
O O13 0.109471 0.753695 0.839571
O O14 0.059047 0.000000 0.786216
O O15 0.007339 0.500000 0.221862
O O16 0.797115 0.275266 0.360692
O O17 0.146172 0.275267 0.011635
O O18 0.630771 0.500000 0.405814
O O19 0.439144 0.289927 0.653664
O O20 0.191294 0.500000 0.845290
#
# Coordination Sequence:
#
# PCOD8052400 Si02
#       8
#     2   2   2   2   2   2   2   2
#     4  10  20  33  53  79 105 139 177 214 262 316
#     4  10  20  33  53  79 105 139 177 214 262 316
#     4  10  20  34  53  77 108 141 174 217 266 314
#     4   9  18  34  53  77 109 137 172 223 264 305
#     4  10  20  34  53  77 108 141 174 217 266 314
#     4   9  18  32  53  79 105 137 176 215 258 311
#     4   9  18  32  51  76 105 137 172 214 261 310
#     4   9  18  32  51  76 105 137 172 214 261 310
#
# _framework density 18.844204999999999
#
# number of rings (size 3 to 8) (size 9 to 14) (size 15 to 20)
#    0.000    2.500    1.250    0.750    1.750    2.500 
#    0.000    5.000    0.000    3.000    0.000    3.500 
#    0.000    0.000    0.000    0.000    0.000    0.000 
#
# Total GULP energy -198407.928058 kJ/mol
# GULP energy per Si atom -12400.495504 kJ/mol
# Density = 1.880132 g / cm^3
# Si number density = 18.844205 Si / 1000 Ang^3
#
#
#
# Elastic Constant Matrix: (Units=GPa)
#
#
# Indices 1 2 3 4 5 6 
#
# 1 158.7967 39.3486 86.5371 0.0000 8.8915 0.0000
# 2 39.3486 50.9418 29.7222 0.0000 4.0394 0.0000
# 3 86.5371 29.7222 129.4400 0.0000 3.4238 0.0000
# 4 0.0000 0.0000 0.0000 11.7905 0.0000 -4.6421
# 5 8.8915 4.0394 3.4238 0.0000 27.8265 0.0000
# 6 0.0000 0.0000 0.0000 -4.6421 0.0000 0.7250
#
#
#
# Elastic Compliance Matrix: (Units=1/GPa)
#
#
# Indices 1 2 3 4 5 6 
#
# 1 0.010944 -0.004680 -0.006188 0.000000 -0.002056 0.000000
# 2 -0.004680 0.024866 -0.002533 0.000000 -0.001802 0.000000
# 3 -0.006188 -0.002533 0.012422 0.000000 0.000816 0.000000
# 4 0.000000 0.000000 0.000000 -0.055768 0.000000 -0.357062
# 5 -0.002056 -0.001802 0.000816 0.000000 0.036755 0.000000
# 6 0.000000 0.000000 0.000000 -0.357062 0.000000 -0.906901
#
#
# Mechanical properties :
#
#
# Convention : Reuss Voigt Hill
#
# Bulk Modulus (GPa) = 46.66199 72.26604 59.46402
# Shear Modulus (GPa) = -5.92604 20.30646 7.19021
#
# Velocity S-wave (km/s) = -1.77527 3.28624 1.95548
# Velocity P-wave (km/s) = 4.54022 7.26854 6.05992
#
# Compressibility (1/GPa) = 0.02143072
#
# Stress axis : x y z
#
# Youngs Moduli (GPa) = 91.37211 40.21507 80.49938
#
# Poissons Ratio (x) = 0.18822 0.49811
# Poissons Ratio (y) = 0.42765 0.20392
# Poissons Ratio (z) = 0.56538 0.10187
#
# Static dielectric constant tensor:
#      x y z
#    x 3.543000 0.000000 -0.013630 
#    y 0.000000 3.140090 0.000000 
#    z -0.013630 0.000000 3.575480 
# 
# 
# High freq. dielectric constant tensor:
#      x y z
#    x 1.726720 0.000000 -0.006420 
#    y 0.000000 1.696030 0.000000 
#    z -0.006420 0.000000 1.742030 
# 
# From -- ./inp_files/3547.got.cif
#   From: 2010.03.12/outbox.cif.g09.slc.cpg/sg6_2_cif.got.tgz:3547.got - 2010.03.30 10:24:59.
