data_PCOD8052713
_publ_section_title
;
Structure prediction by ZEFSAII (Michael W. Deem and Ramdas Pophale) SiO2 
 PCOD8052713
Probable space group: C M
;
_chemical_formula_sum "Si O2"
_cell_formula_units_Z 32
_cell_length_a 24.971638
_cell_length_b 9.022337
_cell_length_c 9.598756
_cell_angle_alpha 90.000000
_cell_angle_beta 118.088396
_cell_angle_gamma 90.000000
_cell_volume 1907.915032
_symmetry_space_group_name_H-M "C M"
_symmetry_group_IT_number 8
_symmetry_cell_setting 'monoclinic'
loop_
_space_group_symop_operation_xyz
x,y,z
x,-y,z
1/2+x,1/2+y,z
1/2+x,1/2-y,z
loop_
_atom_site_type_symbol
_atom_site_label
_atom_site_fract_x
_atom_site_fract_y
_atom_site_fract_z
Si Si1 0.149020 0.670570 0.934060
Si Si2 0.594100 0.327041 0.383078
Si Si3 0.061944 0.169026 0.032547
Si Si4 0.203757 0.671248 0.412568
Si Si5 0.464019 0.670475 0.698022
Si Si6 0.051253 0.672436 0.593807
Si Si7 0.742069 0.674476 0.199473
Si Si8 0.330216 0.668940 0.483181
O O1 0.165485 0.500000 0.975052
O O2 0.116579 0.699764 0.746704
O O3 0.103265 0.718302 0.999120
O O4 0.212645 0.762973 0.019919
O O5 0.603378 0.500000 0.421381
O O6 0.561612 0.292940 0.195894
O O7 0.660254 0.246934 0.473190
O O8 0.550828 0.259318 0.447771
O O9 0.084808 0.000000 0.035569
O O10 0.993668 0.188802 0.887377
O O11 0.184851 0.500000 0.369157
O O12 0.193997 0.765209 0.257541
O O13 0.276547 0.683759 0.535631
O O14 0.467543 0.500000 0.653899
O O15 0.497078 0.767884 0.622474
O O16 0.394044 0.726207 0.621735
O O17 0.039742 0.500000 0.552247
O O18 0.745376 0.500000 0.199656
O O19 0.808995 0.738622 0.319148
O O20 0.335822 0.500000 0.440639
#
# Coordination Sequence:
#
# PCOD8052713 Si02
#       8
#     4   4   4   4   4   4   4   4
#     4  10  18  30  47  69  96 125 162 202 243 289
#     4  11  20  31  48  74 101 131 164 197 246 296
#     4   9  17  28  48  72  95 122 160 203 241 284
#     4   9  17  29  47  72  97 123 157 199 241 285
#     4   9  17  33  52  73  98 127 163 203 242 285
#     4  10  22  34  47  70 101 135 165 198 244 292
#     4  10  17  26  45  72  97 121 153 196 242 285
#     4   8  16  29  48  72  97 126 160 200 243 284
#
# _framework density 16.772234000000001
#
# number of rings (size 3 to 8) (size 9 to 14) (size 15 to 20)
#    0.750    1.750    1.250    2.250    0.000    2.500 
#    0.000    0.000    0.000    1.500    0.000    8.750 
#    0.000    0.000    0.000    0.000    0.000    0.000 
#
# Total GULP energy -198215.462361 kJ/mol
# GULP energy per Si atom -12388.466398 kJ/mol
# Density = 1.673406 g / cm^3
# Si number density = 16.772234 Si / 1000 Ang^3
#
#
#
# Elastic Constant Matrix: (Units=GPa)
#
#
# Indices 1 2 3 4 5 6 
#
# 1 76.9870 38.0419 45.6786 0.0000 14.9854 0.0000
# 2 38.0419 103.3964 44.1705 0.0000 6.0794 0.0000
# 3 45.6786 44.1705 83.8383 0.0000 7.8338 0.0000
# 4 0.0000 0.0000 0.0000 22.0850 0.0000 -0.7747
# 5 14.9854 6.0794 7.8338 0.0000 30.3304 0.0000
# 6 0.0000 0.0000 0.0000 -0.7747 0.0000 23.3395
#
#
#
# Elastic Compliance Matrix: (Units=1/GPa)
#
#
# Indices 1 2 3 4 5 6 
#
# 1 0.021731 -0.003605 -0.009228 0.000000 -0.007631 0.000000
# 2 -0.003605 0.013098 -0.004978 0.000000 0.000441 0.000000
# 3 -0.009228 -0.004978 0.019530 0.000000 0.000513 0.000000
# 4 0.000000 0.000000 0.000000 0.045332 0.000000 0.001505
# 5 -0.007631 0.000441 0.000513 0.000000 0.036520 0.000000
# 6 0.000000 0.000000 0.000000 0.001505 0.000000 0.042896
#
#
# Mechanical properties :
#
#
# Convention : Reuss Voigt Hill
#
# Bulk Modulus (GPa) = 53.36647 57.77819 55.57233
# Shear Modulus (GPa) = 22.62706 24.23969 23.43337
#
# Velocity S-wave (km/s) = 3.67696 3.80574 3.74191
# Velocity P-wave (km/s) = 7.06500 7.33724 7.20240
#
# Compressibility (1/GPa) = 0.01873836
#
# Stress axis : x y z
#
# Youngs Moduli (GPa) = 46.01787 76.34478 51.20243
#
# Poissons Ratio (x) = 0.27519 0.47248
# Poissons Ratio (y) = 0.16587 0.25490
# Poissons Ratio (z) = 0.42464 0.38007
#
# Static dielectric constant tensor:
#      x y z
#    x 2.983930 0.000000 0.307880 
#    y 0.000000 3.168000 0.000000 
#    z 0.307880 0.000000 3.172350 
# 
# 
# High freq. dielectric constant tensor:
#      x y z
#    x 1.613410 0.000000 0.025120 
#    y 0.000000 1.658040 0.000000 
#    z 0.025120 0.000000 1.628110 
# 
# From -- ./inp_files/16771.got.cif
#   From: 2010.03.12/outbox.cif.g09.slc.cpg/sg8_9_cif.got.tgz:16771.got - 2010.03.31 10:45:26.
