data_PCOD8052722
_publ_section_title
;
Structure prediction by ZEFSAII (Michael W. Deem and Ramdas Pophale) SiO2 
 PCOD8052722
Probable space group: C M
;
_chemical_formula_sum "Si O2"
_cell_formula_units_Z 32
_cell_length_a 24.772161
_cell_length_b 9.048449
_cell_length_c 19.053911
_cell_angle_alpha 90.000000
_cell_angle_beta 153.546756
_cell_angle_gamma 90.000000
_cell_volume 1902.558653
_symmetry_space_group_name_H-M "C M"
_symmetry_group_IT_number 8
_symmetry_cell_setting 'monoclinic'
loop_
_space_group_symop_operation_xyz
x,y,z
x,-y,z
1/2+x,1/2+y,z
1/2+x,1/2-y,z
loop_
_atom_site_type_symbol
_atom_site_label
_atom_site_fract_x
_atom_site_fract_y
_atom_site_fract_z
Si Si1 0.699310 0.167679 0.176080
Si Si2 0.432340 0.826149 0.464681
Si Si3 0.660297 0.669863 0.728625
Si Si4 0.204570 0.331868 0.639580
Si Si5 0.495770 0.170422 0.291584
Si Si6 0.873728 0.831517 0.264308
Si Si7 0.430364 0.829555 0.063494
Si Si8 0.476665 0.668865 0.975068
O O1 0.807557 0.249303 0.346425
O O2 0.736102 0.174092 0.135576
O O3 0.690792 0.000000 0.193252
O O4 0.571730 0.246013 0.037087
O O5 0.554183 0.764722 0.644412
O O6 0.454457 0.775292 0.408956
O O7 0.421029 0.000000 0.460370
O O8 0.621230 0.500000 0.686977
O O9 0.674586 0.715012 0.664333
O O10 0.788545 0.699428 0.915574
O O11 0.180326 0.500000 0.638178
O O12 0.126002 0.296613 0.478596
O O13 0.346663 0.313533 0.786221
O O14 0.388829 0.266215 0.204013
O O15 0.457759 0.000000 0.253971
O O16 0.503845 0.214745 0.219205
O O17 0.921774 0.000000 0.322881
O O18 0.478437 0.730464 0.056184
O O19 0.450858 0.000000 0.066259
O O20 0.517549 0.500000 0.027134
#
# Coordination Sequence:
#
# PCOD8052722 Si02
#       8
#     4   4   4   4   4   4   4   4
#     4   9  18  31  48  71  96 123 158 200 243 286
#     4  10  17  27  46  71  95 120 152 195 240 284
#     4  10  17  28  45  69  98 125 160 199 238 283
#     4   9  17  28  46  69  93 122 162 203 238 279
#     4  10  18  31  50  72  99 131 163 195 238 287
#     4   9  18  29  46  73  97 121 154 197 242 284
#     4   9  20  33  47  69 101 136 164 194 236 287
#     4  10  19  31  48  72  97 126 163 203 243 282
#
# _framework density 16.819457
#
# number of rings (size 3 to 8) (size 9 to 14) (size 15 to 20)
#    0.750    1.750    1.250    2.250    0.000    1.500 
#    0.000    0.000    0.000    1.500    0.000    7.000 
#    0.000    0.000    0.000    0.000    0.000    0.000 
#
# Total GULP energy -198235.109346 kJ/mol
# GULP energy per Si atom -12389.694334 kJ/mol
# Density = 1.678117 g / cm^3
# Si number density = 16.819457 Si / 1000 Ang^3
#
#
#
# Elastic Constant Matrix: (Units=GPa)
#
#
# Indices 1 2 3 4 5 6 
#
# 1 64.0371 40.4349 38.6365 0.0000 8.8495 0.0000
# 2 40.4349 112.3327 39.8524 0.0000 10.8008 0.0000
# 3 38.6365 39.8524 83.6694 0.0000 2.1531 0.0000
# 4 0.0000 0.0000 0.0000 22.7720 0.0000 7.1665
# 5 8.8495 10.8008 2.1531 0.0000 27.6551 0.0000
# 6 0.0000 0.0000 0.0000 7.1665 0.0000 28.3651
#
#
#
# Elastic Compliance Matrix: (Units=1/GPa)
#
#
# Indices 1 2 3 4 5 6 
#
# 1 0.025102 -0.005376 -0.008896 0.000000 -0.005240 0.000000
# 2 -0.005376 0.012276 -0.003292 0.000000 -0.002818 0.000000
# 3 -0.008896 -0.003292 0.017557 0.000000 0.002766 0.000000
# 4 0.000000 0.000000 0.000000 0.047707 0.000000 -0.012053
# 5 -0.005240 -0.002818 0.002766 0.000000 0.038722 0.000000
# 6 0.000000 0.000000 0.000000 -0.012053 0.000000 0.038300
#
#
# Mechanical properties :
#
#
# Convention : Reuss Voigt Hill
#
# Bulk Modulus (GPa) = 50.48825 55.32073 52.90449
# Shear Modulus (GPa) = 22.58420 25.16614 23.87517
#
# Velocity S-wave (km/s) = 3.66832 3.87234 3.77171
# Velocity P-wave (km/s) = 6.93001 7.27706 7.10566
#
# Compressibility (1/GPa) = 0.01980659
#
# Stress axis : x y z
#
# Youngs Moduli (GPa) = 39.83761 81.45905 56.95793
#
# Poissons Ratio (x) = 0.43789 0.50670
# Poissons Ratio (y) = 0.21415 0.18753
# Poissons Ratio (z) = 0.35440 0.26819
#
# Static dielectric constant tensor:
#      x y z
#    x 2.831570 0.000000 0.178590 
#    y 0.000000 3.213450 0.000000 
#    z 0.178590 0.000000 3.196340 
# 
# 
# High freq. dielectric constant tensor:
#      x y z
#    x 1.609990 0.000000 0.024800 
#    y 0.000000 1.661730 0.000000 
#    z 0.024800 0.000000 1.632760 
# 
# From -- ./inp_files/23582.got.cif
#   From: 2010.03.12/outbox.cif.g09.slc.cpg/sg8_12_cif.got.tgz:23582.got - 2010.03.31 10:45:26.
