data_PCOD8052712
_publ_section_title
;
Structure prediction by ZEFSAII (Michael W. Deem and Ramdas Pophale) SiO2 
 PCOD8052712
Probable space group: C M
;
_chemical_formula_sum "Si O2"
_cell_formula_units_Z 32
_cell_length_a 22.964040
_cell_length_b 8.742618
_cell_length_c 11.529230
_cell_angle_alpha 90.000000
_cell_angle_beta 130.827308
_cell_angle_gamma 90.000000
_cell_volume 1751.476794
_symmetry_space_group_name_H-M "C M"
_symmetry_group_IT_number 8
_symmetry_cell_setting 'monoclinic'
loop_
_space_group_symop_operation_xyz
x,y,z
x,-y,z
1/2+x,1/2+y,z
1/2+x,1/2-y,z
loop_
_atom_site_type_symbol
_atom_site_label
_atom_site_fract_x
_atom_site_fract_y
_atom_site_fract_z
Si Si1 0.488290 0.177300 0.331060
Si Si2 0.192450 0.175026 0.932955
Si Si3 0.710310 0.321262 0.505579
Si Si4 0.339437 0.322079 0.237256
Si Si5 0.562205 0.176993 0.196067
Si Si6 0.653608 0.177881 0.644944
Si Si7 0.277182 0.324328 0.392697
Si Si8 0.631930 0.674983 0.093966
O O1 0.422531 0.284631 0.295187
O O2 0.493712 0.208053 0.198892
O O3 0.567207 0.225427 0.497329
O O4 0.469381 0.000000 0.330827
O O5 0.167183 0.282240 0.795758
O O6 0.127186 0.193729 0.948764
O O7 0.196647 0.000000 0.896307
O O8 0.275994 0.220900 0.089390
O O9 0.695252 0.500000 0.479418
O O10 0.640072 0.226018 0.361513
O O11 0.716516 0.268445 0.647688
O O12 0.784299 0.275812 0.521124
O O13 0.319999 0.500000 0.191758
O O14 0.341555 0.285357 0.378901
O O15 0.565665 0.000000 0.168456
O O16 0.554681 0.273028 0.064681
O O17 0.667329 0.000000 0.642440
O O18 0.281031 0.500000 0.434956
O O19 0.197148 0.288794 0.224405
O O20 0.652380 0.500000 0.152505
#
# Coordination Sequence:
#
# PCOD8052712 Si02
#       8
#     4   4   4   4   4   4   4   4
#     4   9  19  33  49  71  99 129 160 200 245 288
#     4  10  20  33  50  73 101 130 161 199 242 289
#     4  10  17  26  44  69  94 122 157 198 242 283
#     4  10  20  32  50  74  99 130 164 200 241 286
#     4   9  16  27  44  67  94 124 158 198 241 282
#     4  10  20  34  51  72  99 130 163 199 242 289
#     4   9  16  27  43  66  94 122 156 197 239 282
#     4   9  16  26  43  68  94 121 155 197 240 281
#
# _framework density 18.270295999999998
#
# number of rings (size 3 to 8) (size 9 to 14) (size 15 to 20)
#    0.000    2.500    0.000    5.625    0.000    6.000 
#    0.000    0.000    0.000    1.500    0.000    3.500 
#    0.000    0.000    0.000    0.000    0.000    0.000 
#
# Total GULP energy -198241.242184 kJ/mol
# GULP energy per Si atom -12390.077637 kJ/mol
# Density = 1.822871 g / cm^3
# Si number density = 18.270296 Si / 1000 Ang^3
#
#
#
# Elastic Constant Matrix: (Units=GPa)
#
#
# Indices 1 2 3 4 5 6 
#
# 1 130.8546 46.0003 36.8881 0.0000 -30.2302 0.0000
# 2 46.0003 56.3523 19.5915 0.0000 -11.6983 0.0000
# 3 36.8881 19.5915 49.2606 0.0000 -20.7296 0.0000
# 4 0.0000 0.0000 0.0000 22.5722 0.0000 -6.2715
# 5 -30.2302 -11.6983 -20.7296 0.0000 26.5319 0.0000
# 6 0.0000 0.0000 0.0000 -6.2715 0.0000 32.7742
#
#
#
# Elastic Compliance Matrix: (Units=1/GPa)
#
#
# Indices 1 2 3 4 5 6 
#
# 1 0.013486 -0.008019 -0.002877 0.000000 0.009582 0.000000
# 2 -0.008019 0.025649 -0.004890 0.000000 -0.001648 0.000000
# 3 -0.002877 -0.004890 0.032944 0.000000 0.020305 0.000000
# 4 0.000000 0.000000 0.000000 0.046790 0.000000 0.008953
# 5 0.009582 -0.001648 0.020305 0.000000 0.063746 0.000000
# 6 0.000000 0.000000 0.000000 0.008953 0.000000 0.032225
#
#
# Mechanical properties :
#
#
# Convention : Reuss Voigt Hill
#
# Bulk Modulus (GPa) = 24.68663 49.04748 36.86706
# Shear Modulus (GPa) = 19.23713 25.30818 22.27265
#
# Velocity S-wave (km/s) = 3.24839 3.72588 3.49530
# Velocity P-wave (km/s) = 5.25458 6.73894 6.04251
#
# Compressibility (1/GPa) = 0.04050775
#
# Stress axis : x y z
#
# Youngs Moduli (GPa) = 74.15247 38.98757 30.35443
#
# Poissons Ratio (x) = 0.31264 0.08733
# Poissons Ratio (y) = 0.59463 0.14842
# Poissons Ratio (z) = 0.21335 0.19063
#
# Static dielectric constant tensor:
#      x y z
#    x 4.155390 0.000000 -0.664760 
#    y 0.000000 3.371850 0.000000 
#    z -0.664760 0.000000 2.969050 
# 
# 
# High freq. dielectric constant tensor:
#      x y z
#    x 1.720560 0.000000 -0.047360 
#    y 0.000000 1.722190 0.000000 
#    z -0.047360 0.000000 1.644470 
# 
# From -- ./inp_files/24322.got.cif
#   From: 2010.03.12/outbox.cif.g09.slc.cpg/sg8_13_cif.got.tgz:24322.got - 2010.03.31 10:45:26.
