data_PCOD8052824
_publ_section_title
;
Structure prediction by ZEFSAII (Michael W. Deem and Ramdas Pophale) SiO2 
 PCOD8052824
Probable space group: C M
;
_chemical_formula_sum "Si O2"
_cell_formula_units_Z 28
_cell_length_a 15.286773
_cell_length_b 13.414926
_cell_length_c 13.966546
_cell_angle_alpha 90.000000
_cell_angle_beta 36.386832
_cell_angle_gamma 90.000000
_cell_volume 1699.100488
_symmetry_space_group_name_H-M "C M"
_symmetry_group_IT_number 8
_symmetry_cell_setting 'monoclinic'
loop_
_space_group_symop_operation_xyz
x,y,z
x,-y,z
1/2+x,1/2+y,z
1/2+x,1/2-y,z
loop_
_atom_site_type_symbol
_atom_site_label
_atom_site_fract_x
_atom_site_fract_y
_atom_site_fract_z
Si Si1 0.649280 0.387953 0.958760
Si Si2 0.504329 0.753821 0.226297
Si Si3 0.317456 0.117989 0.270491
Si Si4 0.800026 0.724648 0.082540
Si Si5 0.446329 0.883759 0.786674
Si Si6 0.534268 0.386543 0.853950
Si Si7 0.688018 0.273777 0.549015
O O1 0.633336 0.500000 0.009808
O O2 0.814275 0.349956 0.833447
O O3 0.632592 0.377445 0.861092
O O4 0.525924 0.329926 0.126764
O O5 0.472519 0.854140 0.189229
O O6 0.640206 0.752942 0.179934
O O7 0.355528 0.733929 0.419099
O O8 0.292511 0.177834 0.194144
O O9 0.184728 0.157113 0.456274
O O10 0.309096 0.000000 0.259949
O O11 0.893686 0.644307 0.939754
O O12 0.882114 0.830033 0.007039
O O13 0.587945 0.823681 0.626124
O O14 0.485358 0.000000 0.747534
O O15 0.493810 0.500000 0.864732
O O16 0.632921 0.341376 0.683757
#
# Coordination Sequence:
#
# PCOD8052824 Si02
#       7
#     4   4   4   4   4   4   4
#     4   9  17  32  54  77 103 134 176 221 267 312
#     4   9  20  35  52  80 105 139 178 226 264 321
#     4  10  20  36  55  78 108 144 177 218 273 322
#     4  10  19  35  57  79 103 141 184 225 264 318
#     4   9  18  33  54  79 104 139 178 220 267 318
#     4  10  18  32  52  76 105 139 176 218 266 317
#     4   9  20  33  50  75 110 142 171 222 265 324
#
# _framework density 16.479308
#
# number of rings (size 3 to 8) (size 9 to 14) (size 15 to 20)
#    0.857    1.714    1.429    0.857    0.000    2.857 
#    0.000    0.714    0.000    0.000    0.000    0.000 
#    0.000    0.000    0.000    0.000    0.000    0.000 
#
# Total GULP energy -173437.187186 kJ/mol
# GULP energy per Si atom -12388.370513 kJ/mol
# Density = 1.644180 g / cm^3
# Si number density = 16.479308 Si / 1000 Ang^3
#
#
#
# Elastic Constant Matrix: (Units=GPa)
#
#
# Indices 1 2 3 4 5 6 
#
# 1 86.3213 50.4978 47.9815 0.0001 -1.5190 -0.0001
# 2 50.4978 118.8202 68.5437 0.0001 -5.2623 -0.0001
# 3 47.9815 68.5437 110.8512 0.0002 -2.1066 -0.0002
# 4 0.0001 0.0001 0.0002 22.9799 -0.0001 -0.6604
# 5 -1.5190 -5.2623 -2.1066 -0.0001 26.3363 0.0002
# 6 -0.0001 -0.0001 -0.0002 -0.6604 0.0002 23.0101
#
#
#
# Elastic Compliance Matrix: (Units=1/GPa)
#
#
# Indices 1 2 3 4 5 6 
#
# 1 0.016703 -0.004567 -0.004412 0.000000 -0.000302 0.000000
# 2 -0.004567 0.014434 -0.006909 0.000000 0.002068 0.000000
# 3 -0.004412 -0.006909 0.015195 0.000000 -0.000420 0.000000
# 4 0.000000 0.000000 0.000000 0.043552 0.000000 0.001250
# 5 -0.000302 0.002068 -0.000420 0.000000 0.038333 0.000000
# 6 0.000000 0.000000 0.000000 0.001250 0.000000 0.043495
#
#
# Mechanical properties :
#
#
# Convention : Reuss Voigt Hill
#
# Bulk Modulus (GPa) = 68.69735 72.22650 70.46192
# Shear Modulus (GPa) = 23.99917 24.39659 24.19788
#
# Velocity S-wave (km/s) = 3.82032 3.85182 3.83610
# Velocity P-wave (km/s) = 7.82543 7.98159 7.90389
#
# Compressibility (1/GPa) = 0.01455660
#
# Stress axis : x y z
#
# Youngs Moduli (GPa) = 59.86833 69.27903 65.81181
#
# Poissons Ratio (x) = 0.31642 0.29033
# Poissons Ratio (y) = 0.27344 0.45470
# Poissons Ratio (z) = 0.26411 0.47866
#
# Static dielectric constant tensor:
#      x y z
#    x 3.136680 0.000000 0.039510 
#    y 0.000000 3.114130 0.000000 
#    z 0.039510 0.000000 3.033130 
# 
# 
# High freq. dielectric constant tensor:
#      x y z
#    x 1.632440 0.000000 0.007310 
#    y 0.000000 1.635700 0.000000 
#    z 0.007310 0.000000 1.632680 
# 
# From -- ./inp_files/13176.got.cif
#   From: 2010.03.12/outbox.cif.g09.slc.cpg/sg8_7_cif.got.tgz:13176.got - 2010.03.31 10:45:26.
