data_PCOD8052970
_publ_section_title
;
Structure prediction by ZEFSAII (Michael W. Deem and Ramdas Pophale) SiO2 
 PCOD8052970
Probable space group: C M
;
_chemical_formula_sum "Si O2"
_cell_formula_units_Z 32
_cell_length_a 22.591990
_cell_length_b 9.089829
_cell_length_c 11.337891
_cell_angle_alpha 90.000000
_cell_angle_beta 48.659409
_cell_angle_gamma 90.000000
_cell_volume 1748.093434
_symmetry_space_group_name_H-M "C M"
_symmetry_group_IT_number 8
_symmetry_cell_setting 'monoclinic'
loop_
_space_group_symop_operation_xyz
x,y,z
x,-y,z
1/2+x,1/2+y,z
1/2+x,1/2-y,z
loop_
_atom_site_type_symbol
_atom_site_label
_atom_site_fract_x
_atom_site_fract_y
_atom_site_fract_z
Si Si1 0.360110 0.325184 0.165400
Si Si2 0.165904 0.674457 0.792546
Si Si3 0.055714 0.827289 0.543831
Si Si4 0.979815 0.173383 0.403014
Si Si5 0.196598 0.673936 0.484980
Si Si6 0.391642 0.325293 0.865297
Si Si7 0.514923 0.325099 0.098573
Si Si8 0.319997 0.675241 0.721578
O O1 0.358740 0.500000 0.162616
O O2 0.281594 0.265523 0.331808
O O3 0.435419 0.271390 0.139579
O O4 0.364953 0.259772 0.026134
O O5 0.156605 0.500000 0.815270
O O6 0.182619 0.724189 0.637105
O O7 0.237692 0.734311 0.778759
O O8 0.087043 0.751415 0.937734
O O9 0.131902 0.740782 0.484262
O O10 0.040881 0.786282 0.426365
O O11 0.980689 0.774290 0.719309
O O12 0.070136 0.000000 0.540989
O O13 0.892762 0.236882 0.547322
O O14 0.011610 0.235335 0.237130
O O15 0.970822 0.000000 0.403710
O O16 0.192682 0.500000 0.478237
O O17 0.390614 0.500000 0.869393
O O18 0.331909 0.270409 0.841178
O O19 0.524873 0.500000 0.079177
O O20 0.321241 0.500000 0.714576
#
# Coordination Sequence:
#
# PCOD8052970 Si02
#       8
#     4   4   4   4   4   4   4   4
#     4   9  17  29  46  68  92 121 159 196 227 269
#     4  10  20  32  47  70  98 125 155 194 238 279
#     4   9  17  31  51  73  96 122 154 192 234 279
#     4   8  15  29  50  73  94 121 159 195 226 271
#     4  10  20  32  47  69  97 126 157 194 234 277
#     4   8  14  26  47  72  92 116 157 198 225 264
#     4  10  19  32  51  71  93 124 160 196 232 273
#     4   8  14  27  47  68  92 123 155 189 230 274
#
# _framework density 18.305657
#
# number of rings (size 3 to 8) (size 9 to 14) (size 15 to 20)
#    0.000    3.000    0.000    3.000    0.000    5.500 
#    0.000    2.500    0.000    6.000    0.000    0.000 
#    0.000    0.000    0.000    0.000    0.000    0.000 
#
# Total GULP energy -198337.700899 kJ/mol
# GULP energy per Si atom -12396.106306 kJ/mol
# Density = 1.826399 g / cm^3
# Si number density = 18.305657 Si / 1000 Ang^3
#
#
#
# Elastic Constant Matrix: (Units=GPa)
#
#
# Indices 1 2 3 4 5 6 
#
# 1 168.0662 23.7040 104.9552 0.0000 -2.4356 0.0000
# 2 23.7040 11.2754 25.4641 0.0000 -0.3082 0.0000
# 3 104.9552 25.4641 178.8287 0.0000 8.6463 0.0000
# 4 0.0000 0.0000 0.0000 20.8684 0.0000 -3.3980
# 5 -2.4356 -0.3082 8.6463 0.0000 36.4199 0.0000
# 6 0.0000 0.0000 0.0000 -3.3980 0.0000 20.8747
#
#
#
# Elastic Compliance Matrix: (Units=1/GPa)
#
#
# Indices 1 2 3 4 5 6 
#
# 1 0.010470 -0.011649 -0.004568 0.000000 0.001686 0.000000
# 2 -0.011649 0.144824 -0.013967 0.000000 0.003762 0.000000
# 3 -0.004568 -0.013967 0.010401 0.000000 -0.002893 0.000000
# 4 0.000000 0.000000 0.000000 0.049224 0.000000 0.008013
# 5 0.001686 0.003762 -0.002893 0.000000 0.028289 0.000000
# 6 0.000000 0.000000 0.000000 0.008013 0.000000 0.049209
#
#
# Mechanical properties :
#
#
# Convention : Reuss Voigt Hill
#
# Bulk Modulus (GPa) = 9.49417 74.04634 41.77026
# Shear Modulus (GPa) = 12.89012 29.23573 21.06292
#
# Velocity S-wave (km/s) = 2.65648 4.00069 3.39576
# Velocity P-wave (km/s) = 3.82190 7.86629 6.18407
#
# Compressibility (1/GPa) = 0.10532777
#
# Stress axis : x y z
#
# Youngs Moduli (GPa) = 95.51248 6.90493 96.14163
#
# Poissons Ratio (x) = 0.08044 0.43913
# Poissons Ratio (y) = 1.11265 1.34281
# Poissons Ratio (z) = 0.43625 0.09644
#
# Static dielectric constant tensor:
#      x y z
#    x 3.646150 0.000000 0.194880 
#    y 0.000000 2.769010 0.000000 
#    z 0.194880 0.000000 3.675410 
# 
# 
# High freq. dielectric constant tensor:
#      x y z
#    x 1.725830 0.000000 0.006590 
#    y 0.000000 1.646050 0.000000 
#    z 0.006590 0.000000 1.718850 
# 
# From -- ./inp_files/21857.got.cif
#   From: 2010.03.12/outbox.cif.g09.slc.cpg/sg8_11_cif.got.tgz:21857.got - 2010.03.31 10:45:26.
