data_PCOD8052558
_publ_section_title
;
Structure prediction by ZEFSAII (Michael W. Deem and Ramdas Pophale) SiO2 
 PCOD8052558
Probable space group: P M
;
_chemical_formula_sum "Si O2"
_cell_formula_units_Z 16
_cell_length_a 19.841282
_cell_length_b 9.030519
_cell_length_c 15.812790
_cell_angle_alpha 90.000000
_cell_angle_beta 18.270444
_cell_angle_gamma 90.000000
_cell_volume 888.243759
_symmetry_space_group_name_H-M "P M"
_symmetry_group_IT_number 6
_symmetry_cell_setting 'monoclinic'
loop_
_space_group_symop_operation_xyz
x,y,z
x,-y,z
loop_
_atom_site_type_symbol
_atom_site_label
_atom_site_fract_x
_atom_site_fract_y
_atom_site_fract_z
Si Si1 0.577400 0.174470 0.789480
Si Si2 0.665395 0.328174 0.344115
Si Si3 0.950720 0.671790 0.773575
Si Si4 0.450722 0.671790 0.773575
Si Si5 0.476648 0.330878 0.390283
Si Si6 0.077384 0.825530 0.789504
Si Si7 0.976650 0.669121 0.390287
Si Si8 0.165406 0.671824 0.344100
O O1 0.571976 0.236517 0.701010
O O2 0.800515 0.218648 0.566367
O O3 0.558354 0.000000 0.808556
O O4 0.384143 0.236579 0.076620
O O5 0.730421 0.500000 0.270367
O O6 0.539345 0.276460 0.577565
O O7 0.511234 0.298279 0.448206
O O8 0.884146 0.236581 0.076632
O O9 0.998595 0.500000 0.734359
O O10 0.071943 0.763480 0.701055
O O11 0.039381 0.723543 0.577526
O O12 0.696354 0.701557 0.078051
O O13 0.498595 0.500000 0.734362
O O14 0.196363 0.701570 0.078055
O O15 0.401470 0.500000 0.465515
O O16 0.300519 0.218644 0.566357
O O17 0.058330 0.000000 0.808586
O O18 0.901493 0.500000 0.465484
O O19 0.011217 0.701706 0.448233
O O20 0.230436 0.500000 0.270348
#
# Coordination Sequence:
#
# PCOD8052558 Si02
#       8
#     2   2   2   2   2   2   2   2
#     4  11  22  34  51  79 113 143 169 205 260 320
#     4   9  19  37  59  79 100 133 179 224 260 299
#     4   9  19  37  59  79 100 133 179 224 260 299
#     4   9  19  37  59  79 100 133 179 224 260 299
#     4   9  18  34  55  79 105 135 175 219 260 304
#     4  11  22  34  51  79 113 143 169 205 260 320
#     4   9  18  34  55  79 105 135 175 219 260 304
#     4   9  19  37  59  79 100 133 179 224 260 299
#
# _framework density 18.013074
#
# number of rings (size 3 to 8) (size 9 to 14) (size 15 to 20)
#    0.000    2.500    0.000    3.750    0.000    7.000 
#    0.000    5.000    0.000    0.000    0.000    0.000 
#    0.000    0.000    0.000    0.000    0.000    0.000 
#
# Total GULP energy -198446.848602 kJ/mol
# GULP energy per Si atom -12402.928038 kJ/mol
# Density = 1.797208 g / cm^3
# Si number density = 18.013074 Si / 1000 Ang^3
#
#
#
# Elastic Constant Matrix: (Units=GPa)
#
#
# Indices 1 2 3 4 5 6 
#
# 1 126.5586 62.4215 97.4640 0.0000 19.7390 0.0000
# 2 62.4215 97.9694 62.9218 0.0000 -2.0712 0.0000
# 3 97.4640 62.9218 118.1608 0.0000 12.5239 0.0000
# 4 0.0000 0.0000 0.0000 12.4130 0.0000 3.8155
# 5 19.7390 -2.0712 12.5239 0.0000 40.5762 0.0000
# 6 0.0000 0.0000 0.0000 3.8155 0.0000 13.3883
#
#
#
# Elastic Compliance Matrix: (Units=1/GPa)
#
#
# Indices 1 2 3 4 5 6 
#
# 1 0.024175 -0.004879 -0.016613 0.000000 -0.006882 0.000000
# 2 -0.004879 0.016980 -0.005543 0.000000 0.004951 0.000000
# 3 -0.016613 -0.005543 0.025113 0.000000 0.000048 0.000000
# 4 0.000000 0.000000 0.000000 0.088295 0.000000 -0.025163
# 5 -0.006882 0.004951 0.000048 0.000000 0.028231 0.000000
# 6 0.000000 0.000000 0.000000 -0.025163 0.000000 0.081863
#
#
# Mechanical properties :
#
#
# Convention : Reuss Voigt Hill
#
# Bulk Modulus (GPa) = 81.97526 87.58925 84.78226
# Shear Modulus (GPa) = 15.48978 21.26760 18.37869
#
# Velocity S-wave (km/s) = 2.93562 3.43982 3.19767
# Velocity P-wave (km/s) = 7.55632 8.03165 7.79761
#
# Compressibility (1/GPa) = 0.01219880
#
# Stress axis : x y z
#
# Youngs Moduli (GPa) = 41.36478 58.89174 39.82010
#
# Poissons Ratio (x) = 0.28731 0.66154
# Poissons Ratio (y) = 0.20181 0.22071
# Poissons Ratio (z) = 0.68721 0.32643
#
# Static dielectric constant tensor:
#      x y z
#    x 3.483620 0.000000 0.263970 
#    y 0.000000 3.176270 0.000000 
#    z 0.263970 0.000000 3.415130 
# 
# 
# High freq. dielectric constant tensor:
#      x y z
#    x 1.700770 0.000000 0.004560 
#    y 0.000000 1.686520 0.000000 
#    z 0.004560 0.000000 1.699540 
# 
# From -- ./inp_files/1333.got.cif
#   From: 2010.03.12/outbox.cif.g09.slc.cpg/sg6_1_cif.got.tgz:1333.got - 2010.03.30 10:24:59.
