data_PCOD8052337
_publ_section_title
;
Structure prediction by ZEFSAII (Michael W. Deem and Ramdas Pophale) SiO2 
 PCOD8052337
Probable space group: P M
;
_chemical_formula_sum "Si O2"
_cell_formula_units_Z 16
_cell_length_a 10.027880
_cell_length_b 8.929007
_cell_length_c 12.042597
_cell_angle_alpha 90.000000
_cell_angle_beta 126.605366
_cell_angle_gamma 90.000000
_cell_volume 865.603597
_symmetry_space_group_name_H-M "P M"
_symmetry_group_IT_number 6
_symmetry_cell_setting 'monoclinic'
loop_
_space_group_symop_operation_xyz
x,y,z
x,-y,z
loop_
_atom_site_type_symbol
_atom_site_label
_atom_site_fract_x
_atom_site_fract_y
_atom_site_fract_z
Si Si1 0.879000 0.324989 0.501450
Si Si2 0.548103 0.677001 0.450652
Si Si3 0.014860 0.825146 0.939569
Si Si4 0.388145 0.824107 0.750641
Si Si5 0.207203 0.173497 0.258037
Si Si6 0.093604 0.825740 0.438027
Si Si7 0.660718 0.677555 0.748933
Si Si8 0.170211 0.323573 0.815388
O O1 0.874278 0.500000 0.478631
O O2 0.699673 0.263142 0.449851
O O3 0.932204 0.250996 0.411711
O O4 0.008570 0.284117 0.662497
O O5 0.540253 0.500000 0.439705
O O6 0.379200 0.743579 0.318832
O O7 0.576830 0.727650 0.591712
O O8 0.152152 0.761464 0.923081
O O9 0.849311 0.730200 0.842521
O O10 0.981930 0.000000 0.900047
O O11 0.081041 0.797782 0.095939
O O12 0.256895 0.785699 0.589305
O O13 0.565229 0.758417 0.801952
O O14 0.333583 0.741401 0.836404
O O15 0.403963 0.000000 0.780967
O O16 0.121268 0.236394 0.327450
O O17 0.250530 0.000000 0.295324
O O18 0.056214 0.000000 0.418696
O O19 0.654584 0.500000 0.761944
O O20 0.191103 0.500000 0.845222
#
# Coordination Sequence:
#
# PCOD8052337 Si02
#       8
#     2   2   2   2   2   2   2   2
#     4   9  18  33  53  81 111 139 176 227 276 324
#     4  10  20  35  56  83 111 143 185 232 278 328
#     4  11  23  38  57  81 113 153 192 232 280 335
#     4  10  19  33  56  86 114 143 185 233 280 333
#     4  10  22  39  56  80 114 149 186 228 277 333
#     4   9  18  33  53  80 110 142 179 223 274 328
#     4  11  21  36  57  84 114 147 190 235 280 330
#     4  10  19  35  56  81 115 148 183 232 283 333
#
# _framework density 18.484211999999999
#
# number of rings (size 3 to 8) (size 9 to 14) (size 15 to 20)
#    0.000    2.000    2.500    1.500    0.000    3.500 
#    0.000    1.250    0.000    4.500    0.000    0.000 
#    0.000    0.000    0.000    0.000    0.000    0.000 
#
# Total GULP energy -198450.637149 kJ/mol
# GULP energy per Si atom -12403.164822 kJ/mol
# Density = 1.844214 g / cm^3
# Si number density = 18.484212 Si / 1000 Ang^3
#
#
#
# Elastic Constant Matrix: (Units=GPa)
#
#
# Indices 1 2 3 4 5 6 
#
# 1 125.6054 33.2824 19.7638 0.0000 -17.7168 0.0000
# 2 33.2824 50.3712 23.0343 0.0000 -5.4825 0.0000
# 3 19.7638 23.0343 44.8442 0.0000 -10.1908 0.0000
# 4 0.0000 0.0000 0.0000 21.1450 0.0000 -1.7094
# 5 -17.7168 -5.4825 -10.1908 0.0000 28.1433 0.0000
# 6 0.0000 0.0000 0.0000 -1.7094 0.0000 38.5873
#
#
#
# Elastic Compliance Matrix: (Units=1/GPa)
#
#
# Indices 1 2 3 4 5 6 
#
# 1 0.010374 -0.006193 -0.000198 0.000000 0.005253 0.000000
# 2 -0.006193 0.029645 -0.013154 0.000000 -0.002887 0.000000
# 3 -0.000198 -0.013154 0.031091 0.000000 0.008571 0.000000
# 4 0.000000 0.000000 0.000000 0.047463 0.000000 0.002103
# 5 0.005253 -0.002887 0.008571 0.000000 0.041381 0.000000
# 6 0.000000 0.000000 0.000000 0.002103 0.000000 0.026008
#
#
# Mechanical properties :
#
#
# Convention : Reuss Voigt Hill
#
# Bulk Modulus (GPa) = 31.22857 41.44243 36.33550
# Shear Modulus (GPa) = 21.21114 27.22447 24.21781
#
# Velocity S-wave (km/s) = 3.39119 3.84194 3.62358
# Velocity P-wave (km/s) = 5.68023 6.49228 6.09978
#
# Compressibility (1/GPa) = 0.03202196
#
# Stress axis : x y z
#
# Youngs Moduli (GPa) = 96.39121 33.73198 32.16376
#
# Poissons Ratio (x) = 0.20889 0.00636
# Poissons Ratio (y) = 0.59692 0.42309
# Poissons Ratio (z) = 0.01905 0.44371
#
# Static dielectric constant tensor:
#      x y z
#    x 3.632910 0.000000 -0.179770 
#    y 0.000000 3.341250 0.000000 
#    z -0.179770 0.000000 3.156960 
# 
# 
# High freq. dielectric constant tensor:
#      x y z
#    x 1.733850 0.000000 -0.011140 
#    y 0.000000 1.719440 0.000000 
#    z -0.011140 0.000000 1.684540 
# 
# From -- ./inp_files/3469.got.cif
#   From: 2010.03.12/outbox.cif.g09.slc.cpg/sg6_2_cif.got.tgz:3469.got - 2010.03.30 10:24:59.
