data_PCOD8052257
_publ_section_title
;
Structure prediction by ZEFSAII (Michael W. Deem and Ramdas Pophale) SiO2 
 PCOD8052257
Probable space group: P M
;
_chemical_formula_sum "Si O2"
_cell_formula_units_Z 16
_cell_length_a 11.506497
_cell_length_b 8.759676
_cell_length_c 9.634140
_cell_angle_alpha 90.000000
_cell_angle_beta 109.260700
_cell_angle_gamma 90.000000
_cell_volume 916.703184
_symmetry_space_group_name_H-M "P M"
_symmetry_group_IT_number 6
_symmetry_cell_setting 'monoclinic'
loop_
_space_group_symop_operation_xyz
x,y,z
x,-y,z
loop_
_atom_site_type_symbol
_atom_site_label
_atom_site_fract_x
_atom_site_fract_y
_atom_site_fract_z
Si Si1 0.640060 0.819149 0.602220
Si Si2 0.459165 0.679341 0.317854
Si Si3 0.200680 0.822455 0.253696
Si Si4 0.836976 0.825791 0.459951
Si Si5 0.973666 0.668365 0.074646
Si Si6 0.624961 0.176584 0.161384
Si Si7 0.043548 0.667292 0.398990
Si Si8 0.705046 0.680874 0.912111
O O1 0.520367 0.770397 0.469096
O O2 0.762423 0.769250 0.565684
O O3 0.637208 0.731437 0.745908
O O4 0.636387 0.000000 0.623777
O O5 0.475800 0.500000 0.347851
O O6 0.316510 0.722299 0.255961
O O7 0.518983 0.727580 0.195747
O O8 0.157465 0.774761 0.393668
O O9 0.090911 0.781462 0.099861
O O10 0.232335 0.000000 0.260464
O O11 0.753586 0.802231 0.291342
O O12 0.965007 0.734315 0.496003
O O13 0.875080 0.000000 0.492333
O O14 0.003657 0.500000 0.024218
O O15 0.950892 0.652466 0.231416
O O16 0.848143 0.734821 0.959405
O O17 0.585308 0.000000 0.144720
O O18 0.635616 0.236724 0.009828
O O19 0.094144 0.500000 0.462161
O O20 0.697517 0.500000 0.930015
#
# Coordination Sequence:
#
# PCOD8052257 Si02
#       8
#     2   2   2   2   2   2   2   2
#     4  10  22  36  50  73 107 141 172 209 255 308
#     4  11  21  35  53  75 102 134 173 215 257 303
#     4  10  18  30  50  75 101 130 168 210 254 300
#     4   9  17  30  48  72 100 130 167 208 252 299
#     4   8  17  30  47  74 102 128 162 205 248 295
#     4  10  19  31  50  74 101 133 170 212 255 300
#     4   9  16  27  46  73 100 126 158 203 249 292
#     4  11  20  33  52  78 107 138 172 208 256 307
#
# _framework density 17.453849999999999
#
# number of rings (size 3 to 8) (size 9 to 14) (size 15 to 20)
#    0.750    1.500    1.250    4.125    0.000    3.500 
#    0.000    0.000    0.000    1.500    0.000    7.000 
#    0.000    0.000    0.000    0.000    0.000    0.000 
#
# Total GULP energy -198289.291138 kJ/mol
# GULP energy per Si atom -12393.080696 kJ/mol
# Density = 1.741412 g / cm^3
# Si number density = 17.453850 Si / 1000 Ang^3
#
#
#
# Elastic Constant Matrix: (Units=GPa)
#
#
# Indices 1 2 3 4 5 6 
#
# 1 82.1978 25.7658 19.7013 0.0000 -2.0924 0.0000
# 2 25.7658 76.2845 8.9486 0.0000 -7.2079 0.0000
# 3 19.7013 8.9486 67.4216 0.0000 -9.9524 0.0000
# 4 0.0000 0.0000 0.0000 21.5385 0.0000 -2.8391
# 5 -2.0924 -7.2079 -9.9524 0.0000 15.4985 0.0000
# 6 0.0000 0.0000 0.0000 -2.8391 0.0000 31.6528
#
#
#
# Elastic Compliance Matrix: (Units=1/GPa)
#
#
# Indices 1 2 3 4 5 6 
#
# 1 0.014536 -0.004702 -0.004040 0.000000 -0.002818 0.000000
# 2 -0.004702 0.015290 0.000332 0.000000 0.006689 0.000000
# 3 -0.004040 0.000332 0.017577 0.000000 0.010896 0.000000
# 4 0.000000 0.000000 0.000000 0.046984 0.000000 0.004214
# 5 -0.002818 0.006689 0.010896 0.000000 0.074250 0.000000
# 6 0.000000 0.000000 0.000000 0.004214 0.000000 0.031971
#
#
# Mechanical properties :
#
#
# Convention : Reuss Voigt Hill
#
# Bulk Modulus (GPa) = 32.69704 37.19282 34.94493
# Shear Modulus (GPa) = 21.96631 25.17052 23.56841
#
# Velocity S-wave (km/s) = 3.55143 3.80164 3.67867
# Velocity P-wave (km/s) = 5.96582 6.37381 6.17319
#
# Compressibility (1/GPa) = 0.03058381
#
# Stress axis : x y z
#
# Youngs Moduli (GPa) = 68.79381 65.40162 56.89330
#
# Poissons Ratio (x) = 0.30753 0.22982
# Poissons Ratio (y) = 0.32348 -0.01889
# Poissons Ratio (z) = 0.27790 -0.02172
#
# Static dielectric constant tensor:
#      x y z
#    x 3.095030 0.000000 -0.091370 
#    y 0.000000 3.269280 0.000000 
#    z -0.091370 0.000000 2.904910 
# 
# 
# High freq. dielectric constant tensor:
#      x y z
#    x 1.664180 0.000000 -0.011700 
#    y 0.000000 1.687150 0.000000 
#    z -0.011700 0.000000 1.631520 
# 
# From -- ./inp_files/3638.got.cif
#   From: 2010.03.12/outbox.cif.g09.slc.cpg/sg6_2_cif.got.tgz:3638.got - 2010.03.30 10:24:59.
