data_PCOD8052624
_publ_section_title
;
Structure prediction by ZEFSAII (Michael W. Deem and Ramdas Pophale) SiO2 
 PCOD8052624
Probable space group: P C
;
_chemical_formula_sum "Si O2"
_cell_formula_units_Z 16
_cell_length_a 8.905127
_cell_length_b 18.122101
_cell_length_c 5.118372
_cell_angle_alpha 90.000000
_cell_angle_beta 119.740132
_cell_angle_gamma 90.000000
_cell_volume 717.203568
_symmetry_space_group_name_H-M "P C"
_symmetry_group_IT_number 7
_symmetry_cell_setting 'monoclinic'
loop_
_space_group_symop_operation_xyz
x,y,z
x,-y,1/2+z
loop_
_atom_site_type_symbol
_atom_site_label
_atom_site_fract_x
_atom_site_fract_y
_atom_site_fract_z
Si Si1 0.035380 0.540297 0.866010
Si Si2 0.971465 0.213807 0.651204
Si Si3 0.432392 0.707972 0.180475
Si Si4 0.049198 0.300189 0.210237
Si Si5 0.627068 0.170596 0.580868
Si Si6 0.532823 0.049328 0.833929
Si Si7 0.331839 0.158967 0.933462
Si Si8 0.446324 0.457782 0.747426
O O1 0.962264 0.483936 0.584080
O O2 0.972903 0.621767 0.736289
O O3 0.240966 0.537396 0.060738
O O4 0.791981 0.170661 0.532949
O O5 0.984178 0.240295 0.364081
O O6 0.132153 0.158778 0.851352
O O7 0.975818 0.281119 0.861631
O O8 0.383983 0.758210 0.387849
O O9 0.503687 0.627807 0.326779
O O10 0.257286 0.698135 0.860336
O O11 0.583607 0.747154 0.144917
O O12 0.665387 0.114732 0.858274
O O13 0.459906 0.138170 0.282325
O O14 0.354543 0.097459 0.720881
O O15 0.554860 0.986760 0.635993
O O16 0.523552 0.495573 0.554666
#
# Coordination Sequence:
#
# PCOD8052624 Si02
#       8
#     2   2   2   2   2   2   2   2
#     4   9  16  28  50  77 111 155 204 251 313 373
#     4  11  24  38  62  95 125 155 210 256 304 363
#     4   9  20  35  61  88 124 165 211 258 317 365
#     4  10  20  36  56  88 123 157 207 268 307 367
#     4  11  23  41  69  94 127 167 204 257 308 364
#     4  11  23  43  70  96 129 167 203 245 307 373
#     4  10  22  42  67  95 125 165 206 256 308 365
#     4   9  18  29  49  83 116 155 207 259 306 368
#
# _framework density 22.308869999999999
#
# number of rings (size 3 to 8) (size 9 to 14) (size 15 to 20)
#    0.000    2.000    2.500    0.750    5.250    3.000 
#    0.000    1.250    0.000    4.500    0.000    0.000 
#    0.000    0.000    0.000    0.000    0.000    0.000 
#
# Total GULP energy -198241.147551 kJ/mol
# GULP energy per Si atom -12390.071722 kJ/mol
# Density = 2.225809 g / cm^3
# Si number density = 22.308870 Si / 1000 Ang^3
#
#
#
# Elastic Constant Matrix: (Units=GPa)
#
#
# Indices 1 2 3 4 5 6 
#
# 1 103.7438 16.2373 10.1481 0.0000 -2.4586 0.0000
# 2 16.2373 88.5707 -0.8576 0.0000 -11.2713 0.0000
# 3 10.1481 -0.8576 46.0135 0.0000 -21.1901 0.0000
# 4 0.0000 0.0000 0.0000 29.3479 0.0000 -17.4224
# 5 -2.4586 -11.2713 -21.1901 0.0000 32.5426 0.0000
# 6 0.0000 0.0000 0.0000 -17.4224 0.0000 21.9846
#
#
#
# Elastic Compliance Matrix: (Units=1/GPa)
#
#
# Indices 1 2 3 4 5 6 
#
# 1 0.010251 -0.002180 -0.003274 0.000000 -0.002113 0.000000
# 2 -0.002180 0.012573 0.003777 0.000000 0.006650 0.000000
# 3 -0.003274 0.003777 0.032871 0.000000 0.022465 0.000000
# 4 0.000000 0.000000 0.000000 0.064346 0.000000 0.050993
# 5 -0.002113 0.006650 0.022465 0.000000 0.047500 0.000000
# 6 0.000000 0.000000 0.000000 0.050993 0.000000 0.085897
#
#
# Mechanical properties :
#
#
# Convention : Reuss Voigt Hill
#
# Bulk Modulus (GPa) = 19.10553 32.15373 25.62963
# Shear Modulus (GPa) = 18.23234 30.96171 24.59703
#
# Velocity S-wave (km/s) = 2.86189 3.72945 3.32410
# Velocity P-wave (km/s) = 4.41625 5.74363 5.12311
#
# Compressibility (1/GPa) = 0.05234086
#
# Stress axis : x y z
#
# Youngs Moduli (GPa) = 97.55617 79.53674 30.42221
#
# Poissons Ratio (x) = 0.17337 0.09961
# Poissons Ratio (y) = 0.21265 -0.11491
# Poissons Ratio (z) = 0.31942 -0.30044
#
# Static dielectric constant tensor:
#      x y z
#    x 3.925740 0.000000 -0.302230 
#    y 0.000000 4.191400 0.000000 
#    z -0.302230 0.000000 3.853010 
# 
# 
# High freq. dielectric constant tensor:
#      x y z
#    x 1.862060 0.000000 -0.033080 
#    y 0.000000 1.878580 0.000000 
#    z -0.033080 0.000000 1.857040 
# 
# From -- ./inp_files/852.got.cif
#   From: 2010.03.12/outbox.cif.g09.slc.cpg/sg7_cif.got.tgz:852.got - 2010.03.30 08:40:41.
