data_PCOD8052015
_publ_section_title
;
Structure prediction by ZEFSAII (Michael W. Deem and Ramdas Pophale) SiO2 
 PCOD8052015
Probable space group: C 2
;
_chemical_formula_sum "Si O2"
_cell_formula_units_Z 28
_cell_length_a 25.859115
_cell_length_b 8.248187
_cell_length_c 9.482710
_cell_angle_alpha 90.000000
_cell_angle_beta 141.028104
_cell_angle_gamma 90.000000
_cell_volume 1272.076512
_symmetry_space_group_name_H-M "C 2"
_symmetry_group_IT_number 5
_symmetry_cell_setting 'monoclinic'
loop_
_space_group_symop_operation_xyz
x,y,z
-x,y,-z
1/2+x,1/2+y,z
1/2-x,1/2+y,-z
loop_
_atom_site_type_symbol
_atom_site_label
_atom_site_fract_x
_atom_site_fract_y
_atom_site_fract_z
Si Si1 0.757855 0.827440 0.851927
Si Si2 0.500000 0.060073 0.000000
Si Si3 0.307838 0.597830 0.752515
Si Si4 0.150426 0.571255 0.777115
Si Si5 0.500000 0.871085 0.500000
Si Si6 0.977438 0.272058 0.151464
Si Si7 0.635282 0.598313 0.433420
Si Si8 0.365284 0.235157 0.541204
O O1 0.682667 0.719312 0.637403
O O2 0.799898 0.924052 0.812330
O O3 0.726700 0.952756 0.905046
O O4 0.824724 0.715496 0.067239
O O5 0.575360 0.174356 0.207620
O O6 0.468098 0.949703 0.062368
O O7 0.311685 0.568587 0.594404
O O8 0.229749 0.709518 0.620052
O O9 0.389898 0.686287 0.977435
O O10 0.079459 0.476830 0.707802
O O11 0.112407 0.634164 0.550173
O O12 0.514907 0.768799 0.389696
O O13 0.046530 0.175781 0.206779
O O14 0.620682 0.422187 0.469394
#
# Coordination Sequence:
#
# PCOD8052015 Si02
#       8
#     4   2   4   4   2   4   4   4
#     4  11  25  45  73 102 148 185 241 304 357 431
#     4  12  24  50  70 100 152 190 236 314 348 432
#     4  11  26  44  72 109 134 194 245 293 367 427
#     4  11  25  47  67 105 142 192 236 295 361 432
#     4  12  26  44  70 102 138 194 232 286 370 422
#     4  12  26  45  75 100 147 190 239 300 366 424
#     4  12  24  47  70 107 143 187 242 306 352 437
#     4  11  27  43  73 105 143 188 246 295 363 431
#
# _framework density 22.011254000000001
#
# number of rings (size 3 to 8) (size 9 to 14) (size 15 to 20)
#    0.000    0.571    4.286    2.571   10.000    3.429 
#    0.000    0.000    0.000    0.000    0.000    0.000 
#    0.000    0.000    0.000    0.000    0.000    0.000 
#
# Total GULP energy -173667.270766 kJ/mol
# GULP energy per Si atom -12404.805055 kJ/mol
# Density = 2.196116 g / cm^3
# Si number density = 22.011254 Si / 1000 Ang^3
#
#
#
# Elastic Constant Matrix: (Units=GPa)
#
#
# Indices 1 2 3 4 5 6 
#
# 1 77.6267 20.1154 21.6176 0.0000 8.5706 0.0000
# 2 20.1154 118.8155 38.8115 0.0000 11.7711 0.0000
# 3 21.6176 38.8115 113.2806 0.0000 13.8496 0.0000
# 4 0.0000 0.0000 0.0000 52.0185 0.0000 -1.3805
# 5 8.5706 11.7711 13.8496 0.0000 37.4437 0.0000
# 6 0.0000 0.0000 0.0000 -1.3805 0.0000 31.2275
#
#
#
# Elastic Compliance Matrix: (Units=1/GPa)
#
#
# Indices 1 2 3 4 5 6 
#
# 1 0.014037 -0.001556 -0.001898 0.000000 -0.002022 0.000000
# 2 -0.001556 0.009775 -0.002849 0.000000 -0.001663 0.000000
# 3 -0.001898 -0.002849 0.010477 0.000000 -0.002545 0.000000
# 4 0.000000 0.000000 0.000000 0.019247 0.000000 0.000851
# 5 -0.002022 -0.001663 -0.002545 0.000000 0.028634 0.000000
# 6 0.000000 0.000000 0.000000 0.000851 0.000000 0.032061
#
#
# Mechanical properties :
#
#
# Convention : Reuss Voigt Hill
#
# Bulk Modulus (GPa) = 46.11938 52.31244 49.21591
# Shear Modulus (GPa) = 37.29536 39.41649 38.35593
#
# Velocity S-wave (km/s) = 4.12075 4.23631 4.17893
# Velocity P-wave (km/s) = 6.60597 6.90986 6.75963
#
# Compressibility (1/GPa) = 0.02168286
#
# Stress axis : x y z
#
# Youngs Moduli (GPa) = 71.23881 102.29968 95.44588
#
# Poissons Ratio (x) = 0.15919 0.18120
# Poissons Ratio (y) = 0.11085 0.27191
# Poissons Ratio (z) = 0.13524 0.29144
#
# Static dielectric constant tensor:
#      x y z
#    x 3.887850 0.000000 -0.072620 
#    y 0.000000 4.006460 0.000000 
#    z -0.072620 0.000000 3.908800 
# 
# 
# High freq. dielectric constant tensor:
#      x y z
#    x 1.869430 0.000000 -0.001840 
#    y 0.000000 1.868760 0.000000 
#    z -0.001840 0.000000 1.874380 
# 
# From -- ./inp_files/31790.got.cif
#   From: 2010.03.12/outbox.cif.g09.slc.cpg/sg5_16_cif.got.tgz:31790.got - 2010.03.31 09:47:26.
