data_PCOD8052745
_publ_section_title
;
Structure prediction by ZEFSAII (Michael W. Deem and Ramdas Pophale) SiO2 
 PCOD8052745
Probable space group: C M
;
_chemical_formula_sum "Si O2"
_cell_formula_units_Z 32
_cell_length_a 15.079164
_cell_length_b 16.960578
_cell_length_c 9.386980
_cell_angle_alpha 90.000000
_cell_angle_beta 140.622413
_cell_angle_gamma 90.000000
_cell_volume 1523.092484
_symmetry_space_group_name_H-M "C M"
_symmetry_group_IT_number 8
_symmetry_cell_setting 'monoclinic'
loop_
_space_group_symop_operation_xyz
x,y,z
x,-y,z
1/2+x,1/2+y,z
1/2+x,1/2-y,z
loop_
_atom_site_type_symbol
_atom_site_label
_atom_site_fract_x
_atom_site_fract_y
_atom_site_fract_z
Si Si1 0.028100 0.909291 0.939150
Si Si2 0.781462 0.704776 0.208947
Si Si3 0.307621 0.687981 0.510587
Si Si4 0.734101 0.855148 0.015792
Si Si5 0.977307 0.408679 0.547034
Si Si6 0.014284 0.088937 0.244358
Si Si7 0.082952 0.409242 0.111289
Si Si8 0.323300 0.148372 0.641474
O O1 0.921847 0.879114 0.686356
O O2 0.069385 0.000000 0.954936
O O3 0.161426 0.853334 0.111800
O O4 0.964654 0.903219 0.018880
O O5 0.828543 0.769848 0.384418
O O6 0.726022 0.758864 0.010388
O O7 0.914107 0.647097 0.342462
O O8 0.156133 0.644442 0.323950
O O9 0.324683 0.756459 0.648930
O O10 0.672315 0.898103 0.078094
O O11 0.895875 0.874264 0.196644
O O12 0.639590 0.886025 0.767846
O O13 0.962548 0.500000 0.488011
O O14 0.884565 0.388804 0.571908
O O15 0.163322 0.126364 0.465064
O O16 0.030209 0.000000 0.310980
O O17 0.085501 0.500000 0.161500
O O18 0.922253 0.381868 0.892169
#
# Coordination Sequence:
#
# PCOD8052745 Si02
#       8
#     4   4   4   4   4   4   4   4
#     4  11  21  35  59  89 118 147 188 240 285 336
#     4  10  19  35  56  81 112 148 191 231 274 336
#     4  10  19  33  53  83 112 143 185 232 281 326
#     4  10  21  35  54  82 115 146 185 237 282 333
#     4  10  17  32  55  79 106 142 188 230 271 331
#     4  11  21  36  57  89 119 148 187 238 291 335
#     4  10  19  34  57  81 106 145 190 232 274 332
#     4  10  19  32  57  80 110 147 190 234 274 329
#
# _framework density 21.009886999999999
#
# number of rings (size 3 to 8) (size 9 to 14) (size 15 to 20)
#    0.000    1.750    2.500    6.750    0.000    0.000 
#    2.250    0.000    0.000    0.000    0.000    0.000 
#    0.000    0.000    0.000    0.000    0.000    0.000 
#
# Total GULP energy -198259.559716 kJ/mol
# GULP energy per Si atom -12391.222482 kJ/mol
# Density = 2.096207 g / cm^3
# Si number density = 21.009887 Si / 1000 Ang^3
#
#
#
# Elastic Constant Matrix: (Units=GPa)
#
#
# Indices 1 2 3 4 5 6 
#
# 1 45.4558 27.3544 21.5441 0.0000 25.7175 0.0000
# 2 27.3544 189.0199 52.9099 0.0000 5.5244 0.0000
# 3 21.5441 52.9099 120.2482 0.0000 20.3245 0.0000
# 4 0.0000 0.0000 0.0000 44.7756 0.0000 1.3248
# 5 25.7175 5.5244 20.3245 0.0000 30.4130 0.0000
# 6 0.0000 0.0000 0.0000 1.3248 0.0000 13.6871
#
#
#
# Elastic Compliance Matrix: (Units=1/GPa)
#
#
# Indices 1 2 3 4 5 6 
#
# 1 0.047742 -0.005970 0.000804 0.000000 -0.039824 0.000000
# 2 -0.005970 0.006796 -0.002892 0.000000 0.005747 0.000000
# 3 0.000804 -0.002892 0.010677 0.000000 -0.007290 0.000000
# 4 0.000000 0.000000 0.000000 0.022398 0.000000 -0.002168
# 5 -0.039824 0.005747 -0.007290 0.000000 0.070384 0.000000
# 6 0.000000 0.000000 0.000000 -0.002168 0.000000 0.073272
#
#
# Mechanical properties :
#
#
# Convention : Reuss Voigt Hill
#
# Bulk Modulus (GPa) = 20.36691 62.03785 41.20238
# Shear Modulus (GPa) = 18.95731 34.63617 26.79674
#
# Velocity S-wave (km/s) = 3.00710 4.06466 3.57520
# Velocity P-wave (km/s) = 4.66603 7.18475 6.05774
#
# Compressibility (1/GPa) = 0.04909925
#
# Stress axis : x y z
#
# Youngs Moduli (GPa) = 20.94581 147.14536 93.66255
#
# Poissons Ratio (x) = 0.87851 -0.07535
# Poissons Ratio (y) = 0.12505 0.27087
# Poissons Ratio (z) = -0.01685 0.42553
#
# Static dielectric constant tensor:
#      x y z
#    x 3.124720 0.000000 0.096610 
#    y 0.000000 4.210030 0.000000 
#    z 0.096610 0.000000 4.272830 
# 
# 
# High freq. dielectric constant tensor:
#      x y z
#    x 1.748080 0.000000 0.017500 
#    y 0.000000 1.847820 0.000000 
#    z 0.017500 0.000000 1.840550 
# 
# From -- ./inp_files/23411.got.cif
#   From: 2010.03.12/outbox.cif.g09.slc.cpg/sg8_12_cif.got.tgz:23411.got - 2010.03.31 10:45:26.
