data_PCOD8052392
_publ_section_title
;
Structure prediction by ZEFSAII (Michael W. Deem and Ramdas Pophale) SiO2 
 PCOD8052392
Probable space group: P M
;
_chemical_formula_sum "Si O2"
_cell_formula_units_Z 16
_cell_length_a 12.097822
_cell_length_b 8.522537
_cell_length_c 9.768618
_cell_angle_alpha 90.000000
_cell_angle_beta 128.645735
_cell_angle_gamma 90.000000
_cell_volume 786.633805
_symmetry_space_group_name_H-M "P M"
_symmetry_group_IT_number 6
_symmetry_cell_setting 'monoclinic'
loop_
_space_group_symop_operation_xyz
x,y,z
x,-y,z
loop_
_atom_site_type_symbol
_atom_site_label
_atom_site_fract_x
_atom_site_fract_y
_atom_site_fract_z
Si Si1 0.169740 0.814104 0.137010
Si Si2 0.692843 0.318435 0.107337
Si Si3 0.965072 0.176193 0.214977
Si Si4 0.021167 0.186799 0.745828
Si Si5 0.473409 0.683567 0.433078
Si Si6 0.179388 0.824455 0.615588
Si Si7 0.711762 0.184783 0.422370
Si Si8 0.469383 0.813753 0.727384
O O1 0.321123 0.732455 0.256833
O O2 0.076699 0.756588 0.192708
O O3 0.195400 0.000000 0.161462
O O4 0.079728 0.759014 0.936768
O O5 0.681434 0.500000 0.136727
O O6 0.830259 0.288029 0.119857
O O7 0.697171 0.219675 0.250147
O O8 0.562158 0.267038 0.914640
O O9 0.038088 0.174378 0.417828
O O10 0.916508 0.000000 0.135438
O O11 0.862033 0.248740 0.596568
O O12 0.131731 0.259080 0.720005
O O13 0.018831 0.000000 0.728785
O O14 0.476501 0.500000 0.460216
O O15 0.588917 0.729342 0.410175
O O16 0.510369 0.765235 0.605620
O O17 0.311255 0.747557 0.637951
O O18 0.230071 0.000000 0.688596
O O19 0.696362 0.000000 0.433271
O O20 0.484374 0.000000 0.747949
#
# Coordination Sequence:
#
# PCOD8052392 Si02
#       8
#     2   2   2   2   2   2   2   2
#     4  10  21  39  65  94 122 162 215 264 309 375
#     4  12  26  42  61  95 134 168 206 264 330 383
#     4  10  19  38  65  91 120 160 214 266 308 372
#     4   9  19  36  63  96 120 150 208 269 311 357
#     4  12  26  43  61  92 135 171 205 264 329 382
#     4   9  17  35  63  93 118 148 207 272 310 353
#     4  11  23  43  68  92 123 171 219 264 311 378
#     4  11  23  42  68  95 122 168 220 263 310 380
#
# _framework density 20.339832000000001
#
# number of rings (size 3 to 8) (size 9 to 14) (size 15 to 20)
#    0.000    1.500    2.500    3.000    3.500    0.500 
#    0.000    1.250    0.000    0.000    0.000    0.000 
#    0.000    0.000    0.000    0.000    0.000    0.000 
#
# Total GULP energy -198391.421862 kJ/mol
# GULP energy per Si atom -12399.463866 kJ/mol
# Density = 2.029354 g / cm^3
# Si number density = 20.339832 Si / 1000 Ang^3
#
#
#
# Elastic Constant Matrix: (Units=GPa)
#
#
# Indices 1 2 3 4 5 6 
#
# 1 127.5875 16.7428 33.3197 0.0000 -0.0175 0.0000
# 2 16.7428 51.3799 9.3996 0.0000 9.5960 0.0000
# 3 33.3197 9.3996 109.5890 0.0000 0.7536 0.0000
# 4 0.0000 0.0000 0.0000 18.0315 0.0000 -4.3677
# 5 -0.0175 9.5960 0.7536 0.0000 31.2731 0.0000
# 6 0.0000 0.0000 0.0000 -4.3677 0.0000 9.0704
#
#
#
# Elastic Compliance Matrix: (Units=1/GPa)
#
#
# Indices 1 2 3 4 5 6 
#
# 1 0.008821 -0.002583 -0.002466 0.000000 0.000857 0.000000
# 2 -0.002583 0.021735 -0.001033 0.000000 -0.006646 0.000000
# 3 -0.002466 -0.001033 0.009963 0.000000 0.000076 0.000000
# 4 0.000000 0.000000 0.000000 0.062781 0.000000 0.030231
# 5 0.000857 -0.006646 0.000076 0.000000 0.034014 0.000000
# 6 0.000000 0.000000 0.000000 0.030231 0.000000 0.124806
#
#
# Mechanical properties :
#
#
# Convention : Reuss Voigt Hill
#
# Bulk Modulus (GPa) = 35.26911 45.27564 40.27238
# Shear Modulus (GPa) = 17.62198 26.94796 22.28497
#
# Velocity S-wave (km/s) = 2.94662 3.64385 3.31362
# Velocity P-wave (km/s) = 5.38092 6.32546 5.87221
#
# Compressibility (1/GPa) = 0.02835342
#
# Stress axis : x y z
#
# Youngs Moduli (GPa) = 113.36655 46.00902 100.37189
#
# Poissons Ratio (x) = 0.11886 0.24754
# Poissons Ratio (y) = 0.29286 0.10369
# Poissons Ratio (z) = 0.27959 0.04753
#
# Static dielectric constant tensor:
#      x y z
#    x 3.925840 0.000000 0.001660 
#    y 0.000000 3.388630 0.000000 
#    z 0.001660 0.000000 3.722650 
# 
# 
# High freq. dielectric constant tensor:
#      x y z
#    x 1.814460 0.000000 -0.001740 
#    y 0.000000 1.762420 0.000000 
#    z -0.001740 0.000000 1.802520 
# 
# From -- ./inp_files/3765.got.cif
#   From: 2010.03.12/outbox.cif.g09.slc.cpg/sg6_2_cif.got.tgz:3765.got - 2010.03.30 10:24:59.
