data_PCOD8052348
_publ_section_title
;
Structure prediction by ZEFSAII (Michael W. Deem and Ramdas Pophale) SiO2 
 PCOD8052348
Probable space group: P M
;
_chemical_formula_sum "Si O2"
_cell_formula_units_Z 16
_cell_length_a 21.216660
_cell_length_b 8.872949
_cell_length_c 9.386934
_cell_angle_alpha 90.000000
_cell_angle_beta 150.541639
_cell_angle_gamma 90.000000
_cell_volume 869.059004
_symmetry_space_group_name_H-M "P M"
_symmetry_group_IT_number 6
_symmetry_cell_setting 'monoclinic'
loop_
_space_group_symop_operation_xyz
x,y,z
x,-y,z
loop_
_atom_site_type_symbol
_atom_site_label
_atom_site_fract_x
_atom_site_fract_y
_atom_site_fract_z
Si Si1 0.170600 0.671468 0.675780
Si Si2 0.671331 0.320556 0.902497
Si Si3 0.175922 0.174103 0.396465
Si Si4 0.919994 0.678087 0.869277
Si Si5 0.692412 0.178737 0.250632
Si Si6 0.893763 0.673145 0.141315
Si Si7 0.456778 0.177345 0.976177
Si Si8 0.447542 0.327495 0.261970
O O1 0.168678 0.500000 0.606965
O O2 0.175920 0.796356 0.564791
O O3 0.035460 0.695980 0.492277
O O4 0.299135 0.692400 0.023309
O O5 0.680522 0.500000 0.943951
O O6 0.539428 0.268427 0.567604
O O7 0.677124 0.237796 0.062353
O O8 0.787062 0.253472 0.032757
O O9 0.320509 0.220372 0.632333
O O10 0.146952 0.000000 0.307908
O O11 0.063845 0.273281 0.103403
O O12 0.907428 0.500000 0.830817
O O13 0.821513 0.756098 0.570428
O O14 0.893864 0.737058 0.979579
O O15 0.700012 0.000000 0.265305
O O16 0.570645 0.237767 0.100787
O O17 0.856225 0.500000 0.055294
O O18 0.464053 0.000000 0.010896
O O19 0.474005 0.245758 0.166084
O O20 0.481187 0.500000 0.298075
#
# Coordination Sequence:
#
# PCOD8052348 Si02
#       8
#     2   2   2   2   2   2   2   2
#     4   8  14  27  47  73 101 127 158 203 250 294
#     4  10  20  34  49  69  98 133 169 208 249 292
#     4   9  16  29  50  77 105 131 161 204 251 299
#     4  10  19  34  56  80 102 129 165 209 256 302
#     4  11  23  37  50  70 102 140 175 209 248 296
#     4   8  15  29  51  74  97 124 158 200 248 295
#     4   9  19  34  53  76 104 135 168 205 250 299
#     4   9  17  30  52  77  99 125 164 208 250 295
#
# _framework density 18.410717999999999
#
# number of rings (size 3 to 8) (size 9 to 14) (size 15 to 20)
#    0.000    2.750    0.000    2.625    0.000    3.000 
#    0.000    4.375    0.000    1.500    0.000    0.000 
#    0.000    0.000    0.000    0.000    0.000    0.000 
#
# Total GULP energy -198246.673621 kJ/mol
# GULP energy per Si atom -12390.417101 kJ/mol
# Density = 1.836881 g / cm^3
# Si number density = 18.410718 Si / 1000 Ang^3
#
#
#
# Elastic Constant Matrix: (Units=GPa)
#
#
# Indices 1 2 3 4 5 6 
#
# 1 60.5566 23.4445 80.6293 0.0000 -3.0332 0.0000
# 2 23.4445 41.7182 39.8960 0.0000 0.8140 0.0000
# 3 80.6293 39.8960 180.0016 0.0000 16.9716 0.0000
# 4 0.0000 0.0000 0.0000 24.7418 0.0000 0.0595
# 5 -3.0332 0.8140 16.9716 0.0000 23.2847 0.0000
# 6 0.0000 0.0000 0.0000 0.0595 0.0000 15.9942
#
#
#
# Elastic Compliance Matrix: (Units=1/GPa)
#
#
# Indices 1 2 3 4 5 6 
#
# 1 0.053479 -0.006798 -0.024835 0.000000 0.025305 0.000000
# 2 -0.006798 0.031657 -0.004063 0.000000 0.000969 0.000000
# 3 -0.024835 -0.004063 0.019191 0.000000 -0.017081 0.000000
# 4 0.000000 0.000000 0.000000 0.040418 0.000000 -0.000150
# 5 0.025305 0.000969 -0.017081 0.000000 0.058659 0.000000
# 6 0.000000 0.000000 0.000000 -0.000150 0.000000 0.062523
#
#
# Mechanical properties :
#
#
# Convention : Reuss Voigt Hill
#
# Bulk Modulus (GPa) = 30.36145 63.35734 46.85939
# Shear Modulus (GPa) = 14.35558 22.02459 18.19009
#
# Velocity S-wave (km/s) = 2.79541 3.46250 3.14668
# Velocity P-wave (km/s) = 5.19096 7.10445 6.22171
#
# Compressibility (1/GPa) = 0.03293651
#
# Stress axis : x y z
#
# Youngs Moduli (GPa) = 18.69884 31.58843 52.10827
#
# Poissons Ratio (x) = 0.21473 1.29409
# Poissons Ratio (y) = 0.12711 0.21171
# Poissons Ratio (z) = 0.46438 0.12834
#
# Static dielectric constant tensor:
#      x y z
#    x 3.345560 0.000000 0.453320 
#    y 0.000000 3.236010 0.000000 
#    z 0.453320 0.000000 3.773990 
# 
# 
# High freq. dielectric constant tensor:
#      x y z
#    x 1.682220 0.000000 0.030990 
#    y 0.000000 1.700500 0.000000 
#    z 0.030990 0.000000 1.729220 
# 
# From -- ./inp_files/3408.got.cif
#   From: 2010.03.12/outbox.cif.g09.slc.cpg/sg6_2_cif.got.tgz:3408.got - 2010.03.30 10:24:59.
