data_PCOD8052880
_publ_section_title
;
Structure prediction by ZEFSAII (Michael W. Deem and Ramdas Pophale) SiO2 
 PCOD8052880
Probable space group: C M
;
_chemical_formula_sum "Si O2"
_cell_formula_units_Z 32
_cell_length_a 12.224092
_cell_length_b 16.738293
_cell_length_c 9.566295
_cell_angle_alpha 90.000000
_cell_angle_beta 119.478650
_cell_angle_gamma 90.000000
_cell_volume 1703.961744
_symmetry_space_group_name_H-M "C M"
_symmetry_group_IT_number 8
_symmetry_cell_setting 'monoclinic'
loop_
_space_group_symop_operation_xyz
x,y,z
x,-y,z
1/2+x,1/2+y,z
1/2+x,1/2-y,z
loop_
_atom_site_type_symbol
_atom_site_label
_atom_site_fract_x
_atom_site_fract_y
_atom_site_fract_z
Si Si1 0.929590 0.204469 0.078950
Si Si2 0.299478 0.309987 0.271247
Si Si3 0.411628 0.083498 0.302046
Si Si4 0.048429 0.372768 0.131872
Si Si5 0.969157 0.291762 0.554949
Si Si6 0.160426 0.841738 0.073555
Si Si7 0.397298 0.905250 0.768158
Si Si8 0.709889 0.703535 0.805666
O O1 0.896407 0.164639 0.208707
O O2 0.001609 0.286307 0.153115
O O3 0.022334 0.143625 0.054165
O O4 0.808874 0.226905 0.908742
O O5 0.200571 0.380913 0.245037
O O6 0.365869 0.277164 0.454314
O O7 0.209116 0.245270 0.143876
O O8 0.476395 0.069276 0.192299
O O9 0.480882 0.154644 0.424329
O O10 0.261491 0.094786 0.191443
O O11 0.427561 0.000000 0.394970
O O12 0.010426 0.395144 0.949695
O O13 0.930429 0.350791 0.655225
O O14 0.100788 0.248549 0.655389
O O15 0.149860 0.842873 0.899466
O O16 0.269999 0.866648 0.749385
O O17 0.378783 0.000000 0.720168
#
# Coordination Sequence:
#
# PCOD8052880 Si02
#       8
#     4   4   4   4   4   4   4   4
#     4   9  15  32  53  82 110 140 187 241 280 326
#     4   9  18  31  53  82 111 145 185 240 274 334
#     4  11  21  36  56  80 111 149 191 237 287 340
#     4  10  18  34  56  79 109 150 195 230 280 340
#     4  11  22  34  53  89 120 148 188 238 291 342
#     4   9  17  32  54  81 109 139 188 239 278 329
#     4  11  22  36  58  86 118 151 190 244 296 343
#     4  10  19  33  55  85 114 154 190 233 282 348
#
# _framework density 18.779764
#
# number of rings (size 3 to 8) (size 9 to 14) (size 15 to 20)
#    0.000    2.000    5.000    3.750    1.750    1.000 
#    0.000    0.000    0.000    6.000    0.000    0.000 
#    0.000    0.000    0.000    0.000    0.000    0.000 
#
# Total GULP energy -198212.072887 kJ/mol
# GULP energy per Si atom -12388.254555 kJ/mol
# Density = 1.873702 g / cm^3
# Si number density = 18.779764 Si / 1000 Ang^3
#
#
#
# Elastic Constant Matrix: (Units=GPa)
#
#
# Indices 1 2 3 4 5 6 
#
# 1 136.7420 44.3672 54.0852 0.0000 4.1335 0.0000
# 2 44.3672 68.1169 35.0007 0.0000 11.7390 0.0000
# 3 54.0852 35.0007 106.4296 0.0000 6.5998 0.0000
# 4 0.0000 0.0000 0.0000 9.4493 0.0000 1.3371
# 5 4.1335 11.7390 6.5998 0.0000 27.7876 0.0000
# 6 0.0000 0.0000 0.0000 1.3371 0.0000 4.3137
#
#
#
# Elastic Compliance Matrix: (Units=1/GPa)
#
#
# Indices 1 2 3 4 5 6 
#
# 1 0.010391 -0.005132 -0.003685 0.000000 0.001498 0.000000
# 2 -0.005132 0.021310 -0.003947 0.000000 -0.007302 0.000000
# 3 -0.003685 -0.003947 0.012615 0.000000 -0.000781 0.000000
# 4 0.000000 0.000000 0.000000 0.110683 0.000000 -0.034309
# 5 0.001498 -0.007302 -0.000781 0.000000 0.039034 0.000000
# 6 0.000000 0.000000 0.000000 -0.034309 0.000000 0.242455
#
#
# Mechanical properties :
#
#
# Convention : Reuss Voigt Hill
#
# Bulk Modulus (GPa) = 53.23058 64.24386 58.73722
# Shear Modulus (GPa) = 10.67737 20.16581 15.42159
#
# Velocity S-wave (km/s) = 2.38703 3.28045 2.86873
# Velocity P-wave (km/s) = 6.00028 6.97365 6.50520
#
# Compressibility (1/GPa) = 0.01878620
#
# Stress axis : x y z
#
# Youngs Moduli (GPa) = 96.24043 46.92631 79.26957
#
# Poissons Ratio (x) = 0.24084 0.29214
# Poissons Ratio (y) = 0.49393 0.31289
# Poissons Ratio (z) = 0.35468 0.18523
#
# Static dielectric constant tensor:
#      x y z
#    x 4.164430 0.000000 -0.106810 
#    y 0.000000 3.246580 0.000000 
#    z -0.106810 0.000000 3.392900 
# 
# 
# High freq. dielectric constant tensor:
#      x y z
#    x 1.737710 0.000000 -0.009490 
#    y 0.000000 1.689890 0.000000 
#    z -0.009490 0.000000 1.721010 
# 
# From -- ./inp_files/11362.got.cif
#   From: 2010.03.12/outbox.cif.g09.slc.cpg/sg8_6_cif.got.tgz:11362.got - 2010.03.31 10:45:26.
