data_PCOD8052642
_publ_section_title
;
Structure prediction by ZEFSAII (Michael W. Deem and Ramdas Pophale) SiO2 
 PCOD8052642
Probable space group: P C
;
_chemical_formula_sum "Si O2"
_cell_formula_units_Z 12
_cell_length_a 12.121592
_cell_length_b 7.777695
_cell_length_c 5.313824
_cell_angle_alpha 90.000000
_cell_angle_beta 116.000850
_cell_angle_gamma 90.000000
_cell_volume 450.271834
_symmetry_space_group_name_H-M "P C"
_symmetry_group_IT_number 7
_symmetry_cell_setting 'monoclinic'
loop_
_space_group_symop_operation_xyz
x,y,z
x,-y,1/2+z
loop_
_atom_site_type_symbol
_atom_site_label
_atom_site_fract_x
_atom_site_fract_y
_atom_site_fract_z
Si Si1 0.251960 0.913073 0.863670
Si Si2 0.879595 0.889774 0.560157
Si Si3 0.092109 0.610224 0.772680
Si Si4 0.719739 0.413071 0.831449
Si Si5 0.519598 0.946877 0.593395
Si Si6 0.452103 0.553122 0.525893
O O1 0.220899 0.713044 0.874220
O O2 0.194910 0.980529 0.543146
O O3 0.398639 0.934516 0.010406
O O4 0.750802 0.786958 0.404118
O O5 0.985849 0.749995 0.631708
O O6 0.888147 0.028613 0.345966
O O7 0.083561 0.471380 0.541394
O O8 0.776788 0.480533 0.625028
O O9 0.573059 0.434510 0.684821
O O10 0.485852 0.749999 0.525390
O O11 0.595186 0.020581 0.428050
O O12 0.376514 0.479421 0.209367
#
# Coordination Sequence:
#
# PCOD8052642 Si02
#       6
#     2   2   2   2   2   2
#     4  10  21  41  62  90 127 163 209 260 308 374
#     4  12  24  41  66  95 128 168 208 258 315 375
#     4  12  24  41  66  95 128 168 208 258 315 375
#     4  10  21  41  62  90 127 163 209 260 308 374
#     4  10  21  40  63  89 123 165 209 262 314 369
#     4  10  21  40  63  89 123 165 209 262 314 369
#
# _framework density 26.650566999999999
#
# number of rings (size 3 to 8) (size 9 to 14) (size 15 to 20)
#    0.000    1.333    0.000    6.000    0.000    0.000 
#    0.000   40.000    0.000    0.000    0.000    0.000 
#    0.000    0.000    0.000    0.000    0.000    0.000 
#
# Total GULP energy -148736.891793 kJ/mol
# GULP energy per Si atom -12394.740983 kJ/mol
# Density = 2.658991 g / cm^3
# Si number density = 26.650567 Si / 1000 Ang^3
#
#
#
# Elastic Constant Matrix: (Units=GPa)
#
#
# Indices 1 2 3 4 5 6 
#
# 1 27.8443 7.5472 -2.3768 0.0000 4.2666 0.0000
# 2 7.5472 100.4605 36.3595 0.0000 -13.8028 0.0000
# 3 -2.3768 36.3595 183.0220 0.0000 -78.6049 0.0000
# 4 0.0000 0.0000 0.0000 71.9180 0.0000 -5.5325
# 5 4.2666 -13.8028 -78.6049 0.0000 50.3567 0.0000
# 6 0.0000 0.0000 0.0000 -5.5325 0.0000 60.3699
#
#
#
# Elastic Compliance Matrix: (Units=1/GPa)
#
#
# Indices 1 2 3 4 5 6 
#
# 1 0.037669 -0.003103 -0.001913 0.000000 -0.007028 0.000000
# 2 -0.003103 0.011004 -0.002482 0.000000 -0.000595 0.000000
# 3 -0.001913 -0.002482 0.017323 0.000000 0.026522 0.000000
# 4 0.000000 0.000000 0.000000 0.014003 0.000000 0.001283
# 5 -0.007028 -0.000595 0.026522 0.000000 0.061691 0.000000
# 6 0.000000 0.000000 0.000000 0.001283 0.000000 0.016682
#
#
# Mechanical properties :
#
#
# Convention : Reuss Voigt Hill
#
# Bulk Modulus (GPa) = 19.60791 43.82073 31.71432
# Shear Modulus (GPa) = 26.26507 54.51539 40.39023
#
# Velocity S-wave (km/s) = 3.14273 4.52770 3.89723
# Velocity P-wave (km/s) = 4.53237 6.61905 5.67248
#
# Compressibility (1/GPa) = 0.05099982
#
# Stress axis : x y z
#
# Youngs Moduli (GPa) = 26.54726 90.87762 57.72730
#
# Poissons Ratio (x) = 0.28201 0.11041
# Poissons Ratio (y) = 0.08238 0.14328
# Poissons Ratio (z) = 0.05077 0.22555
#
# Static dielectric constant tensor:
#      x y z
#    x 5.032460 0.000000 -1.005260 
#    y 0.000000 4.529750 0.000000 
#    z -1.005260 0.000000 7.130900 
# 
# 
# High freq. dielectric constant tensor:
#      x y z
#    x 2.045770 0.000000 -0.027360 
#    y 0.000000 2.078740 0.000000 
#    z -0.027360 0.000000 2.102880 
# 
# From -- ./inp_files/1187.got.cif
#   From: 2010.03.12/outbox.cif.g09.slc.cpg/sg7_cif.got.tgz:1187.got - 2010.03.30 08:40:41.
