data_PCOD8052525
_publ_section_title
;
Structure prediction by ZEFSAII (Michael W. Deem and Ramdas Pophale) SiO2 
 PCOD8052525
Probable space group: P M
;
_chemical_formula_sum "Si O2"
_cell_formula_units_Z 10
_cell_length_a 5.223232
_cell_length_b 13.951944
_cell_length_c 5.090097
_cell_angle_alpha 90.000000
_cell_angle_beta 86.084988
_cell_angle_gamma 90.000000
_cell_volume 370.071343
_symmetry_space_group_name_H-M "P M"
_symmetry_group_IT_number 6
_symmetry_cell_setting 'monoclinic'
loop_
_space_group_symop_operation_xyz
x,y,z
x,-y,z
loop_
_atom_site_type_symbol
_atom_site_label
_atom_site_fract_x
_atom_site_fract_y
_atom_site_fract_z
Si Si1 0.576830 0.203559 0.720660
Si Si2 0.246673 0.798176 0.260974
Si Si3 0.921839 0.340737 0.965687
Si Si4 0.623937 0.000000 0.817841
Si Si5 0.175305 0.500000 0.645583
Si Si6 0.696291 0.500000 0.292804
Si Si7 0.101215 0.000000 0.151822
O O1 0.378085 0.241268 0.517115
O O2 0.813735 0.277000 0.730776
O O3 0.675183 0.095944 0.640189
O O4 0.454689 0.197089 0.016882
O O5 0.130444 0.903926 0.324958
O O6 0.022568 0.725778 0.194392
O O7 0.149204 0.406518 0.832737
O O8 0.695626 0.406637 0.104405
O O9 0.324627 0.000000 0.917923
O O10 0.818850 0.000000 0.047492
O O11 0.956482 0.500000 0.441669
O O12 0.453175 0.500000 0.497324
#
# Coordination Sequence:
#
# PCOD8052525 Si02
#       7
#     2   2   2   1   1   1   1
#     4  11  26  46  79 117 165 212 270 326 400 482
#     4  11  26  46  79 117 165 212 270 326 400 482
#     4  11  28  49  80 120 158 211 278 337 410 492
#     4  10  21  48  74 117 165 213 260 327 391 474
#     4  11  30  53  83 112 164 206 272 346 424 484
#     4  11  30  53  83 112 164 206 272 346 424 484
#     4  10  21  48  74 117 165 213 260 327 391 474
#
# _framework density 27.021818
#
# number of rings (size 3 to 8) (size 9 to 14) (size 15 to 20)
#    0.000    1.200    2.000    0.600   11.200    1.600 
#    0.000    7.000    0.000    0.000    0.000    1.400 
#    0.000    0.000    0.000    0.000    0.000    0.000 
#
# Total GULP energy -124040.434938 kJ/mol
# GULP energy per Si atom -12404.043494 kJ/mol
# Density = 2.696031 g / cm^3
# Si number density = 27.021818 Si / 1000 Ang^3
#
#
#
# Elastic Constant Matrix: (Units=GPa)
#
#
# Indices 1 2 3 4 5 6 
#
# 1 108.7662 47.8595 34.2208 0.0000 4.8865 0.0000
# 2 47.8595 225.7587 60.0241 0.0000 15.3002 0.0000
# 3 34.2208 60.0241 126.8053 0.0000 38.0512 0.0000
# 4 0.0000 0.0000 0.0000 -15.1350 0.0000 9.5856
# 5 4.8865 15.3002 38.0512 0.0000 60.0312 0.0000
# 6 0.0000 0.0000 0.0000 9.5856 0.0000 18.3964
#
#
#
# Elastic Compliance Matrix: (Units=1/GPa)
#
#
# Indices 1 2 3 4 5 6 
#
# 1 0.010644 -0.001693 -0.002397 0.000000 0.001084 0.000000
# 2 -0.001693 0.005340 -0.002104 0.000000 0.000110 0.000000
# 3 -0.002397 -0.002104 0.011496 0.000000 -0.006555 0.000000
# 4 0.000000 0.000000 0.000000 -0.049678 0.000000 0.025885
# 5 0.001084 0.000110 -0.006555 0.000000 0.020697 0.000000
# 6 0.000000 0.000000 0.000000 0.025885 0.000000 0.040871
#
#
# Mechanical properties :
#
#
# Convention : Reuss Voigt Hill
#
# Bulk Modulus (GPa) = 66.25369 82.83765 74.54567
# Shear Modulus (GPa) = 88.04611 33.94024 60.99318
#
# Velocity S-wave (km/s) = 5.71437 3.54790 4.75614
# Velocity P-wave (km/s) = 8.25291 6.89245 7.60317
#
# Compressibility (1/GPa) = 0.01509350
#
# Stress axis : x y z
#
# Youngs Moduli (GPa) = 93.94780 187.25390 86.98654
#
# Poissons Ratio (x) = 0.31698 0.20847
# Poissons Ratio (y) = 0.15903 0.18304
# Poissons Ratio (z) = 0.22515 0.39402
#
# Static dielectric constant tensor:
#      x y z
#    x 4.659180 0.000000 0.048230 
#    y 0.000000 5.717700 0.000000 
#    z 0.048230 0.000000 4.615140 
# 
# 
# High freq. dielectric constant tensor:
#      x y z
#    x 2.080060 0.000000 0.003440 
#    y 0.000000 2.113180 0.000000 
#    z 0.003440 0.000000 2.077550 
# 
# From -- ./inp_files/166.got.cif
#   From: 2010.03.12/outbox.cif.g09.slc.cpg/sg6_1_cif.got.tgz:166.got - 2010.03.30 10:24:59.
