data_PCOD8052855
_publ_section_title
;
Structure prediction by ZEFSAII (Michael W. Deem and Ramdas Pophale) SiO2 
 PCOD8052855
Probable space group: C M
;
_chemical_formula_sum "Si O2"
_cell_formula_units_Z 32
_cell_length_a 20.667054
_cell_length_b 9.105756
_cell_length_c 12.156371
_cell_angle_alpha 90.000000
_cell_angle_beta 127.596542
_cell_angle_gamma 90.000000
_cell_volume 1812.602989
_symmetry_space_group_name_H-M "C M"
_symmetry_group_IT_number 8
_symmetry_cell_setting 'monoclinic'
loop_
_space_group_symop_operation_xyz
x,y,z
x,-y,z
1/2+x,1/2+y,z
1/2+x,1/2-y,z
loop_
_atom_site_type_symbol
_atom_site_label
_atom_site_fract_x
_atom_site_fract_y
_atom_site_fract_z
Si Si1 0.834630 0.328939 0.310710
Si Si2 0.869427 0.171193 0.008699
Si Si3 0.810676 0.825556 0.716002
Si Si4 0.631138 0.174680 0.567921
Si Si5 0.400401 0.674837 0.589248
Si Si6 0.974914 0.670045 0.281878
Si Si7 0.230814 0.668896 0.036417
Si Si8 0.071072 0.328383 0.741796
O O1 0.822848 0.500000 0.323889
O O2 0.846779 0.241884 0.435927
O O3 0.913562 0.298049 0.318256
O O4 0.754129 0.268960 0.165088
O O5 0.858172 0.231960 0.873433
O O6 0.887266 0.000000 0.027150
O O7 0.948117 0.247258 0.143913
O O8 0.787514 0.209145 0.991252
O O9 0.718510 0.761116 0.621440
O O10 0.857468 0.771757 0.656790
O O11 0.805496 0.000000 0.715678
O O12 0.563483 0.229385 0.410484
O O13 0.608183 0.230287 0.665823
O O14 0.632917 0.000000 0.572900
O O15 0.402044 0.500000 0.579565
O O16 0.491738 0.735140 0.687588
O O17 0.977196 0.500000 0.254945
O O18 0.244165 0.500000 0.083764
O O19 0.137239 0.698807 0.906400
O O20 0.047283 0.500000 0.708133
#
# Coordination Sequence:
#
# PCOD8052855 Si02
#       8
#     4   4   4   4   4   4   4   4
#     4  10  19  33  52  75 106 140 172 211 264 310
#     4   9  16  30  52  75 100 129 165 208 255 303
#     4   9  18  33  53  75 101 137 172 209 255 305
#     4   9  15  30  54  76  98 129 174 214 250 300
#     4  11  22  34  51  77 109 141 176 212 255 312
#     4   9  17  29  50  77 101 126 163 212 259 301
#     4   9  17  30  54  82 102 127 171 221 261 305
#     4  10  18  33  56  79 103 135 175 217 261 306
#
# _framework density 17.654170000000001
#
# number of rings (size 3 to 8) (size 9 to 14) (size 15 to 20)
#    0.000    2.500    2.500    0.750    0.000    1.000 
#    0.000    2.500    0.000    8.250    0.000    0.000 
#    0.000    0.000    0.000    0.000    0.000    0.000 
#
# Total GULP energy -198389.628311 kJ/mol
# GULP energy per Si atom -12399.351769 kJ/mol
# Density = 1.761399 g / cm^3
# Si number density = 17.654170 Si / 1000 Ang^3
#
#
#
# Elastic Constant Matrix: (Units=GPa)
#
#
# Indices 1 2 3 4 5 6 
#
# 1 105.1816 37.8544 73.1136 0.0000 -0.9084 0.0000
# 2 37.8544 53.4394 53.2355 0.0000 -4.8458 0.0000
# 3 73.1136 53.2355 167.9989 0.0000 -2.8002 0.0000
# 4 0.0000 0.0000 0.0000 32.3228 0.0000 2.7213
# 5 -0.9084 -4.8458 -2.8002 0.0000 24.1621 0.0000
# 6 0.0000 0.0000 0.0000 2.7213 0.0000 18.0716
#
#
#
# Elastic Compliance Matrix: (Units=1/GPa)
#
#
# Indices 1 2 3 4 5 6 
#
# 1 0.014856 -0.006095 -0.004554 0.000000 -0.001192 0.000000
# 2 -0.006095 0.030340 -0.006877 0.000000 0.005059 0.000000
# 3 -0.004554 -0.006877 0.010107 0.000000 -0.000379 0.000000
# 4 0.000000 0.000000 0.000000 0.031335 0.000000 -0.004719
# 5 -0.001192 0.005059 -0.000379 0.000000 0.042313 0.000000
# 6 0.000000 0.000000 0.000000 -0.004719 0.000000 0.056046
#
#
# Mechanical properties :
#
#
# Convention : Reuss Voigt Hill
#
# Bulk Modulus (GPa) = 49.38029 72.78076 61.08053
# Shear Modulus (GPa) = 22.04583 25.73905 23.89244
#
# Velocity S-wave (km/s) = 3.53761 3.82246 3.68279
# Velocity P-wave (km/s) = 6.68714 7.79724 7.26343
#
# Compressibility (1/GPa) = 0.02025100
#
# Stress axis : x y z
#
# Youngs Moduli (GPa) = 67.31215 32.95978 98.93915
#
# Poissons Ratio (x) = 0.20089 0.45056
# Poissons Ratio (y) = 0.41027 0.68043
# Poissons Ratio (z) = 0.30653 0.22667
#
# Static dielectric constant tensor:
#      x y z
#    x 3.172560 0.000000 0.059020 
#    y 0.000000 3.035220 0.000000 
#    z 0.059020 0.000000 3.511660 
# 
# 
# High freq. dielectric constant tensor:
#      x y z
#    x 1.656450 0.000000 0.005940 
#    y 0.000000 1.657030 0.000000 
#    z 0.005940 0.000000 1.700970 
# 
# From -- ./inp_files/23703.got.cif
#   From: 2010.03.12/outbox.cif.g09.slc.cpg/sg8_12_cif.got.tgz:23703.got - 2010.03.31 10:45:26.
