data_PCOD8052354
_publ_section_title
;
Structure prediction by ZEFSAII (Michael W. Deem and Ramdas Pophale) SiO2 
 PCOD8052354
Probable space group: P M
;
_chemical_formula_sum "Si O2"
_cell_formula_units_Z 16
_cell_length_a 12.521542
_cell_length_b 9.088886
_cell_length_c 12.374917
_cell_angle_alpha 90.000000
_cell_angle_beta 144.141221
_cell_angle_gamma 90.000000
_cell_volume 824.996857
_symmetry_space_group_name_H-M "P M"
_symmetry_group_IT_number 6
_symmetry_cell_setting 'monoclinic'
loop_
_space_group_symop_operation_xyz
x,y,z
x,-y,z
loop_
_atom_site_type_symbol
_atom_site_label
_atom_site_fract_x
_atom_site_fract_y
_atom_site_fract_z
Si Si1 0.592230 0.326298 0.837900
Si Si2 0.865283 0.331331 0.250254
Si Si3 0.114115 0.171930 0.961516
Si Si4 0.505506 0.172684 0.352814
Si Si5 0.218867 0.170702 0.582118
Si Si6 0.738343 0.174267 0.748158
Si Si7 0.611368 0.330475 0.233783
Si Si8 0.271401 0.830643 0.869171
O O1 0.568608 0.500000 0.806659
O O2 0.394668 0.254403 0.683294
O O3 0.697534 0.262301 0.822193
O O4 0.708527 0.282853 0.038427
O O5 0.920861 0.500000 0.275665
O O6 0.794423 0.308532 0.314353
O O7 0.042124 0.231308 0.375134
O O8 0.124762 0.209649 0.842292
O O9 0.930813 0.239136 0.862041
O O10 0.100140 0.000000 0.968327
O O11 0.296916 0.231005 0.171457
O O12 0.582061 0.212630 0.532869
O O13 0.630344 0.246794 0.363034
O O14 0.515454 0.000000 0.338469
O O15 0.185793 0.198987 0.682145
O O16 0.243343 0.000000 0.574430
O O17 0.744253 0.000000 0.775897
O O18 0.572428 0.500000 0.225908
O O19 0.447421 0.269813 0.026594
O O20 0.333361 0.000000 0.932960
#
# Coordination Sequence:
#
# PCOD8052354 Si02
#       8
#     2   2   2   2   2   2   2   2
#     4  11  24  44  62  81 122 165 201 245 298 357
#     4  10  23  40  58  84 120 163 199 240 302 358
#     4   8  16  33  54  80 113 146 181 232 291 343
#     4   9  19  35  56  83 117 152 188 241 300 344
#     4  11  23  37  62  93 117 151 203 253 298 354
#     4  10  21  37  60  84 112 153 201 247 291 344
#     4  10  19  34  57  85 120 158 195 235 289 358
#     4   9  18  34  57  86 119 152 190 241 301 352
#
# _framework density 19.394013999999999
#
# number of rings (size 3 to 8) (size 9 to 14) (size 15 to 20)
#    0.000    2.250    1.250    1.875    1.750    4.000 
#    0.000    3.750    0.000    0.000    0.000    0.000 
#    0.000    0.000    0.000    0.000    0.000    0.000 
#
# Total GULP energy -198395.473747 kJ/mol
# GULP energy per Si atom -12399.717109 kJ/mol
# Density = 1.934987 g / cm^3
# Si number density = 19.394014 Si / 1000 Ang^3
#
#
#
# Elastic Constant Matrix: (Units=GPa)
#
#
# Indices 1 2 3 4 5 6 
#
# 1 121.8952 43.2447 41.7647 0.0000 10.8852 0.0000
# 2 43.2447 70.0603 35.1258 0.0000 4.2759 0.0000
# 3 41.7647 35.1258 68.4770 0.0000 12.9283 0.0000
# 4 0.0000 0.0000 0.0000 24.6722 0.0000 1.8332
# 5 10.8852 4.2759 12.9283 0.0000 30.9751 0.0000
# 6 0.0000 0.0000 0.0000 1.8332 0.0000 32.4679
#
#
#
# Elastic Compliance Matrix: (Units=1/GPa)
#
#
# Indices 1 2 3 4 5 6 
#
# 1 0.011532 -0.004909 -0.004210 0.000000 -0.001618 0.000000
# 2 -0.004909 0.021377 -0.008402 0.000000 0.002281 0.000000
# 3 -0.004210 -0.008402 0.022778 0.000000 -0.006867 0.000000
# 4 0.000000 0.000000 0.000000 0.040702 0.000000 -0.002298
# 5 -0.001618 0.002281 -0.006867 0.000000 0.035404 0.000000
# 6 0.000000 0.000000 0.000000 -0.002298 0.000000 0.030929
#
#
# Mechanical properties :
#
#
# Convention : Reuss Voigt Hill
#
# Bulk Modulus (GPa) = 48.43874 55.63365 52.03619
# Shear Modulus (GPa) = 24.43247 26.97620 25.70434
#
# Velocity S-wave (km/s) = 3.55321 3.73360 3.64452
# Velocity P-wave (km/s) = 6.47025 6.88001 6.67827
#
# Compressibility (1/GPa) = 0.02064463
#
# Stress axis : x y z
#
# Youngs Moduli (GPa) = 86.71357 46.78010 43.90239
#
# Poissons Ratio (x) = 0.22963 0.18484
# Poissons Ratio (y) = 0.42565 0.36887
# Poissons Ratio (z) = 0.36509 0.39305
#
# Static dielectric constant tensor:
#      x y z
#    x 3.604200 0.000000 0.026220 
#    y 0.000000 3.383180 0.000000 
#    z 0.026220 0.000000 3.575690 
# 
# 
# High freq. dielectric constant tensor:
#      x y z
#    x 1.756910 0.000000 0.001550 
#    y 0.000000 1.740330 0.000000 
#    z 0.001550 0.000000 1.753160 
# 
# From -- ./inp_files/5072.got.cif
#   From: 2010.03.12/outbox.cif.g09.slc.cpg/sg6_3_cif.got.tgz:5072.got - 2010.03.30 10:24:59.
