data_PCOD8052538
_publ_section_title
;
Structure prediction by ZEFSAII (Michael W. Deem and Ramdas Pophale) SiO2 
 PCOD8052538
Probable space group: P M
;
_chemical_formula_sum "Si O2"
_cell_formula_units_Z 13
_cell_length_a 11.617287
_cell_length_b 7.890061
_cell_length_c 7.748131
_cell_angle_alpha 90.000000
_cell_angle_beta 70.208538
_cell_angle_gamma 90.000000
_cell_volume 668.251466
_symmetry_space_group_name_H-M "P M"
_symmetry_group_IT_number 6
_symmetry_cell_setting 'monoclinic'
loop_
_space_group_symop_operation_xyz
x,y,z
x,-y,z
loop_
_atom_site_type_symbol
_atom_site_label
_atom_site_fract_x
_atom_site_fract_y
_atom_site_fract_z
Si Si1 0.064240 0.000000 0.861320
Si Si2 0.492634 0.182066 0.942322
Si Si3 0.079776 0.000000 0.473114
Si Si4 0.913140 0.305392 0.449633
Si Si5 0.257375 0.000000 0.068680
Si Si6 0.622769 0.695178 0.206069
Si Si7 0.904557 0.690381 0.048529
Si Si8 0.644740 0.308125 0.568594
O O1 0.131352 0.000000 0.642101
O O2 0.982413 0.830945 0.910290
O O3 0.163737 0.000000 0.960226
O O4 0.543023 0.307831 0.770391
O O5 0.550323 0.000000 0.861759
O O6 0.344208 0.168232 0.013375
O O7 0.532034 0.220819 0.116387
O O8 0.191968 0.000000 0.285400
O O9 0.003512 0.172898 0.491405
O O10 0.937564 0.500000 0.500945
O O11 0.931838 0.293297 0.236168
O O12 0.775957 0.239638 0.567540
O O13 0.587169 0.500000 0.221822
O O14 0.762649 0.725247 0.079086
O O15 0.600664 0.776410 0.409633
O O16 0.939645 0.500000 0.967254
O O17 0.673988 0.500000 0.499208
#
# Coordination Sequence:
#
# PCOD8052538 Si02
#       8
#     1   2   1   2   1   2   2   2
#     4  12  24  39  63  85 119 164 208 253 298 348
#     4  10  23  37  60  82 119 157 205 242 293 345
#     4  12  24  39  63  85 119 164 208 253 298 348
#     4   9  19  37  62  92 128 157 188 245 311 370
#     4  10  26  46  52  84 120 166 218 238 284 360
#     4   9  19  36  59  92 123 150 188 241 307 367
#     4   9  19  37  62  92 128 157 188 245 311 370
#     4   9  19  36  59  92 123 150 188 241 307 367
#
# _framework density 19.453755000000001
#
# number of rings (size 3 to 8) (size 9 to 14) (size 15 to 20)
#    0.462    1.846    1.538    2.308    4.308    2.462 
#    0.000    3.077    0.000    0.000    0.000    0.000 
#    0.000    0.000    0.000    0.000    0.000    0.000 
#
# Total GULP energy -161077.397477 kJ/mol
# GULP energy per Si atom -12390.569037 kJ/mol
# Density = 1.940948 g / cm^3
# Si number density = 19.453755 Si / 1000 Ang^3
#
#
#
# Elastic Constant Matrix: (Units=GPa)
#
#
# Indices 1 2 3 4 5 6 
#
# 1 72.6719 27.3290 45.7829 0.0000 -5.7279 0.0000
# 2 27.3290 77.1522 24.3417 0.0000 -4.7641 0.0000
# 3 45.7829 24.3417 130.6144 0.0000 -4.3715 0.0000
# 4 0.0000 0.0000 0.0000 18.5234 0.0000 4.5700
# 5 -5.7279 -4.7641 -4.3715 0.0000 24.8817 0.0000
# 6 0.0000 0.0000 0.0000 4.5700 0.0000 10.2593
#
#
#
# Elastic Compliance Matrix: (Units=1/GPa)
#
#
# Indices 1 2 3 4 5 6 
#
# 1 0.019475 -0.004904 -0.005828 0.000000 0.002520 0.000000
# 2 -0.004904 0.015127 -0.001047 0.000000 0.001583 0.000000
# 3 -0.005828 -0.001047 0.009901 0.000000 0.000197 0.000000
# 4 0.000000 0.000000 0.000000 0.060651 0.000000 -0.027017
# 5 0.002520 0.001583 0.000197 0.000000 0.041108 0.000000
# 6 0.000000 0.000000 0.000000 -0.027017 0.000000 0.109507
#
#
# Mechanical properties :
#
#
# Convention : Reuss Voigt Hill
#
# Bulk Modulus (GPa) = 47.74658 52.81619 50.28138
# Shear Modulus (GPa) = 17.46367 22.93187 20.19777
#
# Velocity S-wave (km/s) = 2.99942 3.43707 3.22568
# Velocity P-wave (km/s) = 6.04915 6.55438 6.30683
#
# Compressibility (1/GPa) = 0.02094391
#
# Stress axis : x y z
#
# Youngs Moduli (GPa) = 51.34784 66.10843 101.00276
#
# Poissons Ratio (x) = 0.32420 0.58865
# Poissons Ratio (y) = 0.25181 0.10576
# Poissons Ratio (z) = 0.29926 0.06922
#
# Static dielectric constant tensor:
#      x y z
#    x 3.362300 0.000000 0.110560 
#    y 0.000000 3.590670 0.000000 
#    z 0.110560 0.000000 3.404230 
# 
# 
# High freq. dielectric constant tensor:
#      x y z
#    x 1.737970 0.000000 0.016520 
#    y 0.000000 1.753380 0.000000 
#    z 0.016520 0.000000 1.755550 
# 
# From -- ./inp_files/3376.got.cif
#   From: 2010.03.12/outbox.cif.g09.slc.cpg/sg6_2_cif.got.tgz:3376.got - 2010.03.30 10:24:59.
