data_PCOD8052225
_publ_section_title
;
Structure prediction by ZEFSAII (Michael W. Deem and Ramdas Pophale) SiO2 
 PCOD8052225
Probable space group: P M
;
_chemical_formula_sum "Si O2"
_cell_formula_units_Z 16
_cell_length_a 19.046493
_cell_length_b 8.672269
_cell_length_c 12.461839
_cell_angle_alpha 90.000000
_cell_angle_beta 26.764282
_cell_angle_gamma 90.000000
_cell_volume 926.941050
_symmetry_space_group_name_H-M "P M"
_symmetry_group_IT_number 6
_symmetry_cell_setting 'monoclinic'
loop_
_space_group_symop_operation_xyz
x,y,z
x,-y,z
loop_
_atom_site_type_symbol
_atom_site_label
_atom_site_fract_x
_atom_site_fract_y
_atom_site_fract_z
Si Si1 0.522590 0.821957 0.837950
Si Si2 0.308891 0.675500 0.975895
Si Si3 0.098172 0.180158 0.879950
Si Si4 0.229017 0.675300 0.310194
Si Si5 0.339992 0.178394 0.721717
Si Si6 0.990725 0.682367 0.809651
Si Si7 0.688440 0.180777 0.297456
Si Si8 0.798033 0.679985 0.365627
O O1 0.688585 0.733472 0.614741
O O2 0.553797 0.000000 0.813617
O O3 0.453197 0.786726 0.813097
O O4 0.397017 0.760781 0.097298
O O5 0.369539 0.500000 0.886001
O O6 0.181581 0.687769 0.247412
O O7 0.249723 0.731232 0.940910
O O8 0.261158 0.222387 0.715997
O O9 0.084854 0.278763 0.789791
O O10 0.086960 0.000000 0.866749
O O11 0.959602 0.226153 0.150630
O O12 0.256725 0.500000 0.307664
O O13 0.093714 0.745423 0.569048
O O14 0.522790 0.222224 0.468862
O O15 0.313608 0.000000 0.781452
O O16 0.961233 0.500000 0.843134
O O17 0.826147 0.771681 0.027115
O O18 0.713641 0.282437 0.368572
O O19 0.701079 0.000000 0.308317
O O20 0.833158 0.500000 0.326628
#
# Coordination Sequence:
#
# PCOD8052225 Si02
#       8
#     2   2   2   2   2   2   2   2
#     4  10  17  27  47  73  97 122 154 197 244 287
#     4   9  17  29  48  73  97 124 156 198 243 288
#     4  10  21  34  48  70 102 135 166 201 244 291
#     4   8  17  31  47  71  98 125 161 206 244 283
#     4  10  20  33  49  72 102 132 163 201 244 293
#     4  10  19  33  50  72 100 129 164 204 245 289
#     4  10  18  29  48  71  95 126 164 204 244 286
#     4  11  19  30  47  72  99 127 162 201 246 291
#
# _framework density 17.261075999999999
#
# number of rings (size 3 to 8) (size 9 to 14) (size 15 to 20)
#    0.750    1.500    1.250    4.875    0.000    2.500 
#    0.000    0.000    0.000    1.500    0.000    7.000 
#    0.000    0.000    0.000    0.000    0.000    0.000 
#
# Total GULP energy -198217.507505 kJ/mol
# GULP energy per Si atom -12388.594219 kJ/mol
# Density = 1.722179 g / cm^3
# Si number density = 17.261076 Si / 1000 Ang^3
#
#
#
# Elastic Constant Matrix: (Units=GPa)
#
#
# Indices 1 2 3 4 5 6 
#
# 1 58.2471 15.5643 42.1349 0.0000 -3.4257 0.0000
# 2 15.5643 57.5236 19.9162 0.0000 3.0578 0.0000
# 3 42.1349 19.9162 108.8260 0.0000 9.8471 0.0000
# 4 0.0000 0.0000 0.0000 21.8618 0.0000 4.0438
# 5 -3.4257 3.0578 9.8471 0.0000 30.5566 0.0000
# 6 0.0000 0.0000 0.0000 4.0438 0.0000 14.9516
#
#
#
# Elastic Compliance Matrix: (Units=1/GPa)
#
#
# Indices 1 2 3 4 5 6 
#
# 1 0.025687 -0.003894 -0.009815 0.000000 0.006432 0.000000
# 2 -0.003894 0.019169 -0.001841 0.000000 -0.001761 0.000000
# 3 -0.009815 -0.001841 0.013812 0.000000 -0.005367 0.000000
# 4 0.000000 0.000000 0.000000 0.048151 0.000000 -0.013023
# 5 0.006432 -0.001761 -0.005367 0.000000 0.035353 0.000000
# 6 0.000000 0.000000 0.000000 -0.013023 0.000000 0.070405
#
#
# Mechanical properties :
#
#
# Convention : Reuss Voigt Hill
#
# Bulk Modulus (GPa) = 36.27422 42.20305 39.23864
# Shear Modulus (GPa) = 19.77343 23.27275 21.52309
#
# Velocity S-wave (km/s) = 3.38827 3.67588 3.53500
# Velocity P-wave (km/s) = 6.03057 6.52066 6.28040
#
# Compressibility (1/GPa) = 0.02756778
#
# Stress axis : x y z
#
# Youngs Moduli (GPa) = 38.93038 52.16801 72.40296
#
# Poissons Ratio (x) = 0.20314 0.71062
# Poissons Ratio (y) = 0.15159 0.13330
# Poissons Ratio (z) = 0.38209 0.09604
#
# Static dielectric constant tensor:
#      x y z
#    x 2.905420 0.000000 0.099420 
#    y 0.000000 3.188060 0.000000 
#    z 0.099420 0.000000 3.474880 
# 
# 
# High freq. dielectric constant tensor:
#      x y z
#    x 1.615450 0.000000 0.010280 
#    y 0.000000 1.676930 0.000000 
#    z 0.010280 0.000000 1.665590 
# 
# From -- ./inp_files/5662.got.cif
#   From: 2010.03.12/outbox.cif.g09.slc.cpg/sg6_3_cif.got.tgz:5662.got - 2010.03.30 10:24:59.
