data_PCOD8052357
_publ_section_title
;
Structure prediction by ZEFSAII (Michael W. Deem and Ramdas Pophale) SiO2 
 PCOD8052357
Probable space group: P M
;
_chemical_formula_sum "Si O2"
_cell_formula_units_Z 14
_cell_length_a 4.828392
_cell_length_b 8.227620
_cell_length_c 15.626671
_cell_angle_alpha 90.000000
_cell_angle_beta 57.641085
_cell_angle_gamma 90.000000
_cell_volume 524.386913
_symmetry_space_group_name_H-M "P M"
_symmetry_group_IT_number 6
_symmetry_cell_setting 'monoclinic'
loop_
_space_group_symop_operation_xyz
x,y,z
x,-y,z
loop_
_atom_site_type_symbol
_atom_site_label
_atom_site_fract_x
_atom_site_fract_y
_atom_site_fract_z
Si Si1 0.700480 0.687254 0.854960
Si Si2 0.512898 0.684485 0.208456
Si Si3 0.104247 0.500000 0.520988
Si Si4 0.341217 0.500000 0.667188
Si Si5 0.974340 0.175871 0.476262
Si Si6 0.951979 0.684503 0.987307
Si Si7 0.506753 0.176944 0.715066
Si Si8 0.761854 0.687193 0.341641
O O1 0.806350 0.500000 0.812841
O O2 0.328529 0.690002 0.951549
O O3 0.718342 0.794864 0.765988
O O4 0.904573 0.767276 0.900911
O O5 0.643394 0.500000 0.199576
O O6 0.135039 0.688535 0.245682
O O7 0.564163 0.768525 0.293640
O O8 0.730550 0.768883 0.097785
O O9 0.128252 0.500000 0.617738
O O10 0.227294 0.331102 0.451907
O O11 0.712686 0.500000 0.571667
O O12 0.264038 0.334068 0.736975
O O13 0.748082 0.205591 0.430543
O O14 0.752022 0.174055 0.596037
O O15 0.152180 0.000000 0.439233
O O16 0.822265 0.500000 0.996486
O O17 0.328500 0.000000 0.749221
O O18 0.655083 0.500000 0.384739
#
# Coordination Sequence:
#
# PCOD8052357 Si02
#       8
#     2   2   1   1   2   2   2   2
#     4  10  19  34  58  87 119 158 200 247 303 358
#     4   9  18  33  57  88 119 154 200 250 304 365
#     4  10  22  40  62  86 117 158 205 250 296 354
#     4  10  22  40  62  86 117 158 205 250 296 354
#     4  10  22  41  63  91 127 167 207 253 306 363
#     4   9  18  33  57  88 119 154 200 250 304 365
#     4  10  22  41  63  91 127 167 207 253 306 363
#     4  10  19  34  58  87 119 158 200 247 303 358
#
# _framework density 26.697844
#
# number of rings (size 3 to 8) (size 9 to 14) (size 15 to 20)
#    0.000    2.286    1.429    0.857    0.000    8.571 
#    0.000    7.143    0.000    5.143    0.000    0.000 
#    0.000    0.000    0.000    0.000    0.000    0.000 
#
# Total GULP energy -173577.932950 kJ/mol
# GULP energy per Si atom -12398.423782 kJ/mol
# Density = 2.663708 g / cm^3
# Si number density = 26.697844 Si / 1000 Ang^3
#
#
#
# Elastic Constant Matrix: (Units=GPa)
#
#
# Indices 1 2 3 4 5 6 
#
# 1 103.9082 47.2606 23.2439 0.0000 17.4605 0.0000
# 2 47.2606 186.1273 43.6635 0.0000 3.8906 0.0000
# 3 23.2439 43.6635 169.9138 0.0000 20.7708 0.0000
# 4 0.0000 0.0000 0.0000 -1.9727 0.0000 -4.7614
# 5 17.4605 3.8906 20.7708 0.0000 45.6587 0.0000
# 6 0.0000 0.0000 0.0000 -4.7614 0.0000 24.4747
#
#
#
# Elastic Compliance Matrix: (Units=1/GPa)
#
#
# Indices 1 2 3 4 5 6 
#
# 1 0.011656 -0.002785 -0.000384 0.000000 -0.004045 0.000000
# 2 -0.002785 0.006384 -0.001401 0.000000 0.001158 0.000000
# 3 -0.000384 -0.001401 0.006634 0.000000 -0.002752 0.000000
# 4 0.000000 0.000000 0.000000 -0.344952 0.000000 -0.067108
# 5 -0.004045 0.001158 -0.002752 0.000000 0.024602 0.000000
# 6 0.000000 0.000000 0.000000 -0.067108 0.000000 0.027803
#
#
# Mechanical properties :
#
#
# Convention : Reuss Voigt Hill
#
# Bulk Modulus (GPa) = 64.37567 76.47612 70.42589
# Shear Modulus (GPa) = -19.71973 36.68425 8.48226
#
# Velocity S-wave (km/s) = -2.72072 3.71084 1.78439
# Velocity P-wave (km/s) = 3.78091 6.86059 5.53909
#
# Compressibility (1/GPa) = 0.01553382
#
# Stress axis : x y z
#
# Youngs Moduli (GPa) = 85.79030 156.63375 150.73011
#
# Poissons Ratio (x) = 0.43622 0.05794
# Poissons Ratio (y) = 0.23893 0.21121
# Poissons Ratio (z) = 0.03298 0.21948
#
# Static dielectric constant tensor:
#      x y z
#    x 4.950280 0.000000 -0.038250 
#    y 0.000000 6.086300 0.000000 
#    z -0.038250 0.000000 5.128220 
# 
# 
# High freq. dielectric constant tensor:
#      x y z
#    x 2.092520 0.000000 -0.015940 
#    y 0.000000 2.023860 0.000000 
#    z -0.015940 0.000000 2.112090 
# 
# From -- ./inp_files/5377.got.cif
#   From: 2010.03.12/outbox.cif.g09.slc.cpg/sg6_3_cif.got.tgz:5377.got - 2010.03.30 10:24:59.
