data_PCOD8052858
_publ_section_title
;
Structure prediction by ZEFSAII (Michael W. Deem and Ramdas Pophale) SiO2 
 PCOD8052858
Probable space group: C M
;
_chemical_formula_sum "Si O2"
_cell_formula_units_Z 32
_cell_length_a 20.523843
_cell_length_b 9.027109
_cell_length_c 25.249182
_cell_angle_alpha 90.000000
_cell_angle_beta 157.506285
_cell_angle_gamma 90.000000
_cell_volume 1789.696192
_symmetry_space_group_name_H-M "C M"
_symmetry_group_IT_number 8
_symmetry_cell_setting 'monoclinic'
loop_
_space_group_symop_operation_xyz
x,y,z
x,-y,z
1/2+x,1/2+y,z
1/2+x,1/2-y,z
loop_
_atom_site_type_symbol
_atom_site_label
_atom_site_fract_x
_atom_site_fract_y
_atom_site_fract_z
Si Si1 0.851870 0.825801 0.183250
Si Si2 0.731460 0.326244 0.485029
Si Si3 0.324159 0.828810 0.050048
Si Si4 0.211289 0.326601 0.786517
Si Si5 0.096054 0.172351 0.068615
Si Si6 0.543051 0.670316 0.757728
Si Si7 0.117397 0.174760 0.205989
Si Si8 0.379078 0.826217 0.485500
O O1 0.827702 0.749428 0.108947
O O2 0.707826 0.772991 0.114853
O O3 0.034451 0.784719 0.346413
O O4 0.837928 0.000000 0.163436
O O5 0.764370 0.500000 0.515462
O O6 0.780542 0.267474 0.463362
O O7 0.855775 0.245213 0.620251
O O8 0.455234 0.756478 0.107783
O O9 0.372209 0.000000 0.093620
O O10 0.134902 0.811154 0.883413
O O11 0.197590 0.500000 0.789794
O O12 0.163573 0.242866 0.804116
O O13 0.078788 0.281976 0.639910
O O14 0.400068 0.286254 0.909333
O O15 0.140697 0.214816 0.162264
O O16 0.132598 0.000000 0.084559
O O17 0.518673 0.500000 0.724334
O O18 0.287375 0.234808 0.363826
O O19 0.087345 0.000000 0.190768
O O20 0.358619 0.000000 0.468571
#
# Coordination Sequence:
#
# PCOD8052858 Si02
#       8
#     4   4   4   4   4   4   4   4
#     4  11  23  39  58  78 109 151 189 228 277 332
#     4   9  18  34  55  78 105 142 185 226 272 328
#     4  11  22  35  54  83 115 142 181 232 276 322
#     4   9  17  32  53  77 109 146 180 218 265 322
#     4  10  21  35  54  79 111 150 186 223 271 326
#     4  10  20  32  52  83 113 140 176 228 278 320
#     4  10  18  33  56  81 109 142 184 224 267 324
#     4   8  14  28  52  79 103 131 177 223 260 312
#
# _framework density 17.880129
#
# number of rings (size 3 to 8) (size 9 to 14) (size 15 to 20)
#    0.000    2.250    2.500    1.875    0.000    3.500 
#    0.000    1.250    0.000    3.000    0.000    0.000 
#    0.000    0.000    0.000    0.000    0.000    0.000 
#
# Total GULP energy -198345.021197 kJ/mol
# GULP energy per Si atom -12396.563825 kJ/mol
# Density = 1.783943 g / cm^3
# Si number density = 17.880129 Si / 1000 Ang^3
#
#
#
# Elastic Constant Matrix: (Units=GPa)
#
#
# Indices 1 2 3 4 5 6 
#
# 1 68.3655 46.3792 47.8157 0.0012 4.3210 0.0002
# 2 46.3792 81.0675 55.6387 -0.0016 0.3740 -0.0011
# 3 47.8157 55.6387 144.6085 0.0063 -1.8182 -0.0005
# 4 0.0012 -0.0016 0.0063 25.3112 0.0013 2.4309
# 5 4.3210 0.3740 -1.8182 0.0013 25.4169 0.0003
# 6 0.0002 -0.0011 -0.0005 2.4309 0.0003 27.3171
#
#
#
# Elastic Compliance Matrix: (Units=1/GPa)
#
#
# Indices 1 2 3 4 5 6 
#
# 1 0.025866 -0.012050 -0.003973 -0.000001 -0.004504 -0.000001
# 2 -0.012050 0.022388 -0.004612 0.000003 0.001389 0.000001
# 3 -0.003973 -0.004612 0.010022 -0.000003 0.001460 0.000000
# 4 -0.000001 0.000003 -0.000003 0.039849 -0.000002 -0.003546
# 5 -0.004504 0.001389 0.001460 -0.000002 0.040194 0.000000
# 6 -0.000001 0.000001 0.000000 -0.003546 0.000000 0.036923
#
#
# Mechanical properties :
#
#
# Convention : Reuss Voigt Hill
#
# Bulk Modulus (GPa) = 58.80542 65.96763 62.38653
# Shear Modulus (GPa) = 22.50429 25.22289 23.86359
#
# Velocity S-wave (km/s) = 3.55155 3.75996 3.65724
# Velocity P-wave (km/s) = 7.05536 7.47156 7.26644
#
# Compressibility (1/GPa) = 0.01700523
#
# Stress axis : x y z
#
# Youngs Moduli (GPa) = 38.66142 44.66589 99.78332
#
# Poissons Ratio (x) = 0.53824 0.39642
# Poissons Ratio (y) = 0.46589 0.46020
# Poissons Ratio (z) = 0.15359 0.20600
#
# Static dielectric constant tensor:
#      x y z
#    x 3.142620 0.000000 -0.218820 
#    y 0.000000 3.218550 0.000000 
#    z -0.218820 0.000000 3.862480 
# 
# 
# High freq. dielectric constant tensor:
#      x y z
#    x 1.659710 0.000000 -0.011480 
#    y 0.000000 1.682500 0.000000 
#    z -0.011480 0.000000 1.713380 
# 
# From -- ./inp_files/31340.got.cif
#   From: 2010.03.12/outbox.cif.g09.slc.cpg/sg8_16_cif.got.tgz:31340.got - 2010.03.31 10:45:26.
