data_PCOD8052962
_publ_section_title
;
Structure prediction by ZEFSAII (Michael W. Deem and Ramdas Pophale) SiO2 
 PCOD8052962
Probable space group: C M
;
_chemical_formula_sum "Si O2"
_cell_formula_units_Z 32
_cell_length_a 19.750307
_cell_length_b 8.933841
_cell_length_c 24.678177
_cell_angle_alpha 90.000000
_cell_angle_beta 23.485841
_cell_angle_gamma 90.000000
_cell_volume 1735.313383
_symmetry_space_group_name_H-M "C M"
_symmetry_group_IT_number 8
_symmetry_cell_setting 'monoclinic'
loop_
_space_group_symop_operation_xyz
x,y,z
x,-y,z
1/2+x,1/2+y,z
1/2+x,1/2-y,z
loop_
_atom_site_type_symbol
_atom_site_label
_atom_site_fract_x
_atom_site_fract_y
_atom_site_fract_z
Si Si1 0.538730 0.827881 0.346360
Si Si2 0.759004 0.175028 0.622467
Si Si3 0.495137 0.325984 0.546542
Si Si4 0.981998 0.827005 0.281832
Si Si5 0.466079 0.676430 0.782307
Si Si6 0.087952 0.325570 0.583319
Si Si7 0.266925 0.329773 0.276796
Si Si8 0.621401 0.327344 0.062404
O O1 0.384499 0.732712 0.483767
O O2 0.577166 0.769644 0.257871
O O3 0.708630 0.806273 0.257507
O O4 0.481643 0.000000 0.386810
O O5 0.833181 0.210365 0.627452
O O6 0.578167 0.256644 0.749278
O O7 0.733753 0.000000 0.631368
O O8 0.505632 0.500000 0.553200
O O9 0.473476 0.232611 0.617472
O O10 0.666360 0.281228 0.389704
O O11 0.782767 0.789569 0.426451
O O12 0.062445 0.781647 0.165670
O O13 0.012705 0.000000 0.272413
O O14 0.482644 0.500000 0.770215
O O15 0.534740 0.738696 0.675655
O O16 0.272000 0.721305 0.933267
O O17 0.053573 0.500000 0.617448
O O18 0.228366 0.500000 0.324713
O O19 0.466932 0.297569 0.134074
O O20 0.679681 0.500000 0.017535
#
# Coordination Sequence:
#
# PCOD8052962 Si02
#       8
#     4   4   4   4   4   4   4   4
#     4  10  19  31  55  87 116 144 183 240 283 324
#     4  10  20  36  56  81 115 154 189 228 285 342
#     4  10  20  33  56  88 117 144 186 240 284 328
#     4  10  20  35  58  84 112 148 191 231 278 340
#     4  12  25  39  57  85 116 150 193 239 283 336
#     4  11  21  37  60  85 115 151 190 233 282 340
#     4   9  18  35  56  81 113 151 191 226 279 341
#     4  10  21  40  60  79 110 154 193 229 280 345
#
# _framework density 18.440472
#
# number of rings (size 3 to 8) (size 9 to 14) (size 15 to 20)
#    0.000    1.750    2.500    2.625    0.000    3.500 
#    0.000    1.250    0.000    3.000    0.000    0.000 
#    0.000    0.000    0.000    0.000    0.000    0.000 
#
# Total GULP energy -198455.009110 kJ/mol
# GULP energy per Si atom -12403.438069 kJ/mol
# Density = 1.839850 g / cm^3
# Si number density = 18.440472 Si / 1000 Ang^3
#
#
#
# Elastic Constant Matrix: (Units=GPa)
#
#
# Indices 1 2 3 4 5 6 
#
# 1 109.9711 58.2204 32.3078 -0.0106 -18.1371 -0.0046
# 2 58.2204 109.0931 46.0644 0.0435 -8.6261 0.0112
# 3 32.3078 46.0644 76.2035 0.0653 -15.1830 0.0162
# 4 -0.0106 0.0435 0.0653 25.7694 0.0116 1.7069
# 5 -18.1371 -8.6261 -15.1830 0.0116 23.6420 0.0009
# 6 -0.0046 0.0112 0.0162 1.7069 0.0009 34.9243
#
#
#
# Elastic Compliance Matrix: (Units=1/GPa)
#
#
# Indices 1 2 3 4 5 6 
#
# 1 0.014103 -0.006772 -0.000255 0.000014 0.008185 0.000003
# 2 -0.006772 0.015562 -0.007385 -0.000008 -0.004259 -0.000002
# 3 -0.000255 -0.007385 0.019631 -0.000041 0.009717 -0.000005
# 4 0.000014 -0.000008 -0.000041 0.038932 -0.000038 -0.001903
# 5 0.008185 -0.004259 0.009717 -0.000038 0.053263 -0.000002
# 6 0.000003 -0.000002 -0.000005 -0.001903 -0.000002 0.028726
#
#
# Mechanical properties :
#
#
# Convention : Reuss Voigt Hill
#
# Bulk Modulus (GPa) = 48.84482 63.16143 56.00313
# Shear Modulus (GPa) = 24.28791 27.44548 25.86669
#
# Velocity S-wave (km/s) = 3.63312 3.86207 3.74934
# Velocity P-wave (km/s) = 6.64415 7.36297 7.01278
#
# Compressibility (1/GPa) = 0.02047300
#
# Stress axis : x y z
#
# Youngs Moduli (GPa) = 70.90628 64.26047 50.94000
#
# Poissons Ratio (x) = 0.43515 0.01300
# Poissons Ratio (y) = 0.48015 0.37617
# Poissons Ratio (z) = 0.01809 0.47454
#
# Static dielectric constant tensor:
#      x y z
#    x 3.676230 0.000000 -0.182430 
#    y 0.000000 3.437530 0.000030 
#    z -0.182430 0.000030 3.178490 
# 
# 
# High freq. dielectric constant tensor:
#      x y z
#    x 1.730530 0.000000 -0.012020 
#    y 0.000000 1.723030 0.000000 
#    z -0.012020 0.000000 1.682790 
# 
# From -- ./inp_files/24318.got.cif
#   From: 2010.03.12/outbox.cif.g09.slc.cpg/sg8_13_cif.got.tgz:24318.got - 2010.03.31 10:45:26.
