data_PCOD8052043
_publ_section_title
;
Structure prediction by ZEFSAII (Michael W. Deem and Ramdas Pophale) SiO2 
 PCOD8052043
Probable space group: C 2
;
_chemical_formula_sum "Si O2"
_cell_formula_units_Z 18
_cell_length_a 6.398287
_cell_length_b 18.184990
_cell_length_c 7.794668
_cell_angle_alpha 90.000000
_cell_angle_beta 121.499826
_cell_angle_gamma 90.000000
_cell_volume 773.287518
_symmetry_space_group_name_H-M "C 2"
_symmetry_group_IT_number 5
_symmetry_cell_setting 'monoclinic'
loop_
_space_group_symop_operation_xyz
x,y,z
-x,y,-z
1/2+x,1/2+y,z
1/2-x,1/2+y,-z
loop_
_atom_site_type_symbol
_atom_site_label
_atom_site_fract_x
_atom_site_fract_y
_atom_site_fract_z
Si Si1 0.006219 0.604900 0.808540
Si Si2 0.249428 0.325175 0.697872
Si Si3 0.323250 0.494039 0.765397
Si Si4 0.000000 0.067485 0.500000
Si Si5 0.725694 0.260599 0.924384
O O1 0.087301 0.543547 0.705976
O O2 0.183297 0.674807 0.867283
O O3 0.726563 0.622147 0.633471
O O4 0.000000 0.574197 0.000000
O O5 0.227238 0.410996 0.725166
O O6 0.518387 0.307467 0.726414
O O7 0.000000 0.298281 0.500000
O O8 0.285518 0.274192 0.878233
O O9 0.453979 0.514392 0.643492
O O10 0.500000 0.508366 0.000000
O O11 0.000000 0.286214 0.000000
#
# Coordination Sequence:
#
# PCOD8052043 Si02
#       5
#     4   4   4   2   4
#     4  12  25  46  74 111 152 196 251 309 374 449
#     4  11  25  49  74 107 151 194 252 310 376 455
#     4  12  25  50  78 112 152 196 256 314 375 450
#     4  12  28  46  80 108 152 204 252 308 384 446
#     4  11  26  46  72 108 149 197 246 309 377 442
#
# _framework density 23.277241
#
# number of rings (size 3 to 8) (size 9 to 14) (size 15 to 20)
#    0.000    0.444    6.667    2.667    1.556    5.333 
#    4.000    0.000    0.000    0.000    0.000    0.000 
#    0.000    0.000    0.000    0.000    0.000    0.000 
#
# Total GULP energy -111534.895939 kJ/mol
# GULP energy per Si atom -12392.766215 kJ/mol
# Density = 2.322426 g / cm^3
# Si number density = 23.277241 Si / 1000 Ang^3
#
#
#
# Elastic Constant Matrix: (Units=GPa)
#
#
# Indices 1 2 3 4 5 6 
#
# 1 136.1385 39.9529 75.3354 0.0000 34.5297 0.0000
# 2 39.9529 123.7665 26.5078 0.0000 11.0302 0.0000
# 3 75.3354 26.5078 153.0215 0.0000 33.7171 0.0000
# 4 0.0000 0.0000 0.0000 20.3166 0.0000 4.1360
# 5 34.5297 11.0302 33.7171 0.0000 67.3936 0.0000
# 6 0.0000 0.0000 0.0000 4.1360 0.0000 29.5274
#
#
#
# Elastic Compliance Matrix: (Units=1/GPa)
#
#
# Indices 1 2 3 4 5 6 
#
# 1 0.011328 -0.002419 -0.004458 0.000000 -0.003178 0.000000
# 2 -0.002419 0.008939 -0.000347 0.000000 -0.000050 0.000000
# 3 -0.004458 -0.000347 0.009299 0.000000 -0.002312 0.000000
# 4 0.000000 0.000000 0.000000 0.050666 0.000000 -0.007097
# 5 -0.003178 -0.000050 -0.002312 0.000000 0.017631 0.000000
# 6 0.000000 0.000000 0.000000 -0.007097 0.000000 0.034861
#
#
# Mechanical properties :
#
#
# Convention : Reuss Voigt Hill
#
# Bulk Modulus (GPa) = 66.13761 77.39096 71.76428
# Shear Modulus (GPa) = 32.84913 41.52288 37.18600
#
# Velocity S-wave (km/s) = 3.76069 4.22814 4.00124
# Velocity P-wave (km/s) = 6.87980 7.56015 7.22798
#
# Compressibility (1/GPa) = 0.01511999
#
# Stress axis : x y z
#
# Youngs Moduli (GPa) = 88.27503 111.86585 107.53735
#
# Poissons Ratio (x) = 0.27059 0.47939
# Poissons Ratio (y) = 0.21353 0.03727
# Poissons Ratio (z) = 0.39352 0.03877
#
# Static dielectric constant tensor:
#      x y z
#    x 5.375920 0.000000 0.676070 
#    y 0.000000 3.839360 0.000000 
#    z 0.676070 0.000000 4.629320 
# 
# 
# High freq. dielectric constant tensor:
#      x y z
#    x 1.928740 0.000000 0.027340 
#    y 0.000000 1.907330 0.000000 
#    z 0.027340 0.000000 1.938320 
# 
# From -- ./inp_files/12605.got.cif
#   From: 2010.03.12/outbox.cif.g09.slc.cpg/sg5_7_cif.got.tgz:12605.got - 2010.03.31 09:47:26.
