data_PCOD8052319
_publ_section_title
;
Structure prediction by ZEFSAII (Michael W. Deem and Ramdas Pophale) SiO2 
 PCOD8052319
Probable space group: P M
;
_chemical_formula_sum "Si O2"
_cell_formula_units_Z 16
_cell_length_a 12.047515
_cell_length_b 9.317919
_cell_length_c 9.918797
_cell_angle_alpha 90.000000
_cell_angle_beta 125.971648
_cell_angle_gamma 90.000000
_cell_volume 901.133446
_symmetry_space_group_name_H-M "P M"
_symmetry_group_IT_number 6
_symmetry_cell_setting 'monoclinic'
loop_
_space_group_symop_operation_xyz
x,y,z
x,-y,z
loop_
_atom_site_type_symbol
_atom_site_label
_atom_site_fract_x
_atom_site_fract_y
_atom_site_fract_z
Si Si1 0.125000 0.666802 0.777600
Si Si2 0.603021 0.337065 0.930232
Si Si3 0.361568 0.165789 0.442158
Si Si4 0.591606 0.665822 0.224484
Si Si5 0.669541 0.168797 0.728165
Si Si6 0.811548 0.665607 0.603653
Si Si7 0.321259 0.169002 0.107691
Si Si8 0.292420 0.335088 0.641323
O O1 0.161266 0.500000 0.828777
O O2 0.182518 0.716660 0.673587
O O3 0.963897 0.695818 0.660896
O O4 0.191468 0.760233 0.943241
O O5 0.632916 0.500000 0.906020
O O6 0.685765 0.231393 0.890472
O O7 0.441318 0.304237 0.809649
O O8 0.652021 0.309801 0.117821
O O9 0.520814 0.212719 0.563593
O O10 0.305161 0.202574 0.254528
O O11 0.270629 0.249384 0.486873
O O12 0.348171 0.000000 0.468113
O O13 0.546962 0.500000 0.211347
O O14 0.709952 0.711840 0.411684
O O15 0.461156 0.765523 0.151996
O O16 0.784147 0.238691 0.715247
O O17 0.693561 0.000000 0.749686
O O18 0.790375 0.500000 0.627893
O O19 0.324191 0.000000 0.081483
O O20 0.270525 0.500000 0.589111
#
# Coordination Sequence:
#
# PCOD8052319 Si02
#       8
#     2   2   2   2   2   2   2   2
#     4  10  21  38  55  79 111 142 180 222 266 320
#     4   9  17  31  52  78 106 137 177 223 267 313
#     4   9  19  33  50  77 109 138 173 220 264 312
#     4  10  19  34  56  82 108 138 178 226 269 312
#     4  10  19  33  52  77 111 144 176 218 266 316
#     4  10  21  36  57  80 108 145 180 218 268 322
#     4  11  21  34  54  81 109 141 180 223 267 316
#     4   9  17  31  52  76 104 139 176 218 265 313
#
# _framework density 17.755416
#
# number of rings (size 3 to 8) (size 9 to 14) (size 15 to 20)
#    0.000    2.250    2.500    0.750    0.000    3.000 
#    0.000    1.250    0.000    3.000    0.000    0.000 
#    0.000    0.000    0.000    0.000    0.000    0.000 
#
# Total GULP energy -198445.112000 kJ/mol
# GULP energy per Si atom -12402.819500 kJ/mol
# Density = 1.771500 g / cm^3
# Si number density = 17.755416 Si / 1000 Ang^3
#
#
#
# Elastic Constant Matrix: (Units=GPa)
#
#
# Indices 1 2 3 4 5 6 
#
# 1 95.2559 42.6491 38.4499 0.0000 -21.8143 0.0000
# 2 42.6491 68.8250 39.5693 0.0000 -14.6023 0.0000
# 3 38.4499 39.5693 79.4206 0.0000 -15.7630 0.0000
# 4 0.0000 0.0000 0.0000 26.7843 0.0000 -4.5481
# 5 -21.8143 -14.6023 -15.7630 0.0000 29.3639 0.0000
# 6 0.0000 0.0000 0.0000 -4.5481 0.0000 16.6395
#
#
#
# Elastic Compliance Matrix: (Units=1/GPa)
#
#
# Indices 1 2 3 4 5 6 
#
# 1 0.016485 -0.006905 -0.003124 0.000000 0.007136 0.000000
# 2 -0.006905 0.024001 -0.008130 0.000000 0.002441 0.000000
# 3 -0.003124 -0.008130 0.018906 0.000000 0.003785 0.000000
# 4 0.000000 0.000000 0.000000 0.039152 0.000000 0.010702
# 5 0.007136 0.002441 0.003785 0.000000 0.042602 0.000000
# 6 0.000000 0.000000 0.000000 0.010702 0.000000 0.063023
#
#
# Mechanical properties :
#
#
# Convention : Reuss Voigt Hill
#
# Bulk Modulus (GPa) = 43.34292 53.87091 48.60692
# Shear Modulus (GPa) = 20.14675 22.74641 21.44658
#
# Velocity S-wave (km/s) = 3.37216 3.58312 3.47924
# Velocity P-wave (km/s) = 6.29492 6.89382 6.60117
#
# Compressibility (1/GPa) = 0.02307182
#
# Stress axis : x y z
#
# Youngs Moduli (GPa) = 60.66161 41.66532 52.89417
#
# Poissons Ratio (x) = 0.28770 0.16526
# Poissons Ratio (y) = 0.41887 0.43005
# Poissons Ratio (z) = 0.18953 0.33875
#
# Static dielectric constant tensor:
#      x y z
#    x 3.168560 0.000000 -0.183590 
#    y 0.000000 3.298270 0.000000 
#    z -0.183590 0.000000 3.310160 
# 
# 
# High freq. dielectric constant tensor:
#      x y z
#    x 1.674070 0.000000 -0.021580 
#    y 0.000000 1.686090 0.000000 
#    z -0.021580 0.000000 1.681030 
# 
# From -- ./inp_files/3485.got.cif
#   From: 2010.03.12/outbox.cif.g09.slc.cpg/sg6_2_cif.got.tgz:3485.got - 2010.03.30 10:24:59.
