data_PCOD8052833
_publ_section_title
;
Structure prediction by ZEFSAII (Michael W. Deem and Ramdas Pophale) SiO2 
 PCOD8052833
Probable space group: C M
;
_chemical_formula_sum "Si O2"
_cell_formula_units_Z 32
_cell_length_a 16.297635
_cell_length_b 14.832681
_cell_length_c 11.074357
_cell_angle_alpha 90.000000
_cell_angle_beta 148.243893
_cell_angle_gamma 90.000000
_cell_volume 1408.963991
_symmetry_space_group_name_H-M "C M"
_symmetry_group_IT_number 8
_symmetry_cell_setting 'monoclinic'
loop_
_space_group_symop_operation_xyz
x,y,z
x,-y,z
1/2+x,1/2+y,z
1/2+x,1/2-y,z
loop_
_atom_site_type_symbol
_atom_site_label
_atom_site_fract_x
_atom_site_fract_y
_atom_site_fract_z
Si Si1 0.715240 0.401586 0.763470
Si Si2 0.670468 0.899587 0.869236
Si Si3 0.186552 0.102844 0.001123
Si Si4 0.487304 0.397206 0.142314
Si Si5 0.863165 0.903723 0.346320
Si Si6 0.924842 0.714685 0.438895
Si Si7 0.383277 0.399099 0.751580
Si Si8 0.661989 0.261718 0.526374
O O1 0.797152 0.500000 0.851104
O O2 0.726215 0.365317 0.914502
O O3 0.533102 0.411528 0.495959
O O4 0.782018 0.324702 0.756993
O O5 0.525016 0.833261 0.668067
O O6 0.611632 0.000000 0.765787
O O7 0.729124 0.892943 0.079162
O O8 0.809314 0.872666 0.953240
O O9 0.999839 0.113001 0.783867
O O10 0.238714 0.000000 0.081046
O O11 0.274982 0.158365 0.213648
O O12 0.528995 0.500000 0.236491
O O13 0.603566 0.323635 0.343099
O O14 0.494702 0.389092 0.007507
O O15 0.864782 0.809890 0.422335
O O16 0.835619 0.000000 0.383571
O O17 0.023059 0.727924 0.438733
O O18 0.307475 0.500000 0.655100
O O19 0.247767 0.324644 0.577277
#
# Coordination Sequence:
#
# PCOD8052833 Si02
#       8
#     4   4   4   4   4   4   4   4
#     4   9  18  35  61  90 122 157 199 252 306 365
#     4  10  18  32  54  87 121 147 194 256 304 347
#     4  10  23  41  59  88 130 168 200 245 316 376
#     4  10  19  36  61  87 119 156 200 251 305 359
#     4   9  19  33  53  82 117 157 193 242 305 354
#     4  11  21  31  60  88 120 153 206 257 292 347
#     4  10  23  43  62  84 124 170 202 242 306 376
#     4  11  21  33  64  94 115 150 210 259 300 352
#
# _framework density 22.711722999999999
#
# number of rings (size 3 to 8) (size 9 to 14) (size 15 to 20)
#    0.000    2.000    3.750    0.750    5.250    0.500 
#    4.500    0.000    0.000    2.250    0.000    0.000 
#    0.000    0.000    0.000    0.000    0.000    0.000 
#
# Total GULP energy -198233.256347 kJ/mol
# GULP energy per Si atom -12389.578522 kJ/mol
# Density = 2.266003 g / cm^3
# Si number density = 22.711723 Si / 1000 Ang^3
#
#
#
# Elastic Constant Matrix: (Units=GPa)
#
#
# Indices 1 2 3 4 5 6 
#
# 1 19.4417 20.8478 2.3398 0.0000 -0.9597 0.0000
# 2 20.8478 182.7895 73.9154 0.0000 -0.3476 0.0000
# 3 2.3398 73.9154 96.9189 0.0000 -6.5605 0.0000
# 4 0.0000 0.0000 0.0000 41.3447 0.0000 -4.3706
# 5 -0.9597 -0.3476 -6.5605 0.0000 17.1438 0.0000
# 6 0.0000 0.0000 0.0000 -4.3706 0.0000 12.0947
#
#
#
# Elastic Compliance Matrix: (Units=1/GPa)
#
#
# Indices 1 2 3 4 5 6 
#
# 1 0.061073 -0.009414 0.006081 0.000000 0.005555 0.000000
# 2 -0.009414 0.009443 -0.007184 0.000000 -0.003084 0.000000
# 3 0.006081 -0.007184 0.016079 0.000000 0.006348 0.000000
# 4 0.000000 0.000000 0.000000 0.025148 0.000000 0.009087
# 5 0.005555 -0.003084 0.006348 0.000000 0.061008 0.000000
# 6 0.000000 0.000000 0.000000 0.009087 0.000000 0.085964
#
#
# Mechanical properties :
#
#
# Convention : Reuss Voigt Hill
#
# Bulk Modulus (GPa) = 15.25247 54.81732 35.03490
# Shear Modulus (GPa) = 16.57808 27.58645 22.08226
#
# Velocity S-wave (km/s) = 2.70466 3.48894 3.12153
# Velocity P-wave (km/s) = 4.06003 6.35758 5.33398
#
# Compressibility (1/GPa) = 0.06556315
#
# Stress axis : x y z
#
# Youngs Moduli (GPa) = 16.37381 105.89301 62.19142
#
# Poissons Ratio (x) = 0.99690 -0.37821
# Poissons Ratio (y) = 0.15415 0.44676
# Poissons Ratio (z) = -0.09957 0.76069
#
# Static dielectric constant tensor:
#      x y z
#    x 3.546290 0.000000 -0.253790 
#    y 0.000000 4.755760 0.000000 
#    z -0.253790 0.000000 3.749260 
# 
# 
# High freq. dielectric constant tensor:
#      x y z
#    x 1.839900 0.000000 -0.032220 
#    y 0.000000 1.926900 0.000000 
#    z -0.032220 0.000000 1.876940 
# 
# From -- ./inp_files/23337.got.cif
#   From: 2010.03.12/outbox.cif.g09.slc.cpg/sg8_12_cif.got.tgz:23337.got - 2010.03.31 10:45:26.
