data_PCOD8052992
_publ_section_title
;
Structure prediction by ZEFSAII (Michael W. Deem and Ramdas Pophale) SiO2 
 PCOD8052992
Probable space group: C M
;
_chemical_formula_sum "Si O2"
_cell_formula_units_Z 32
_cell_length_a 14.408736
_cell_length_b 9.011329
_cell_length_c 28.858183
_cell_angle_alpha 90.000000
_cell_angle_beta 28.855380
_cell_angle_gamma 90.000000
_cell_volume 1808.303988
_symmetry_space_group_name_H-M "C M"
_symmetry_group_IT_number 8
_symmetry_cell_setting 'monoclinic'
loop_
_space_group_symop_operation_xyz
x,y,z
x,-y,z
1/2+x,1/2+y,z
1/2+x,1/2-y,z
loop_
_atom_site_type_symbol
_atom_site_label
_atom_site_fract_x
_atom_site_fract_y
_atom_site_fract_z
Si Si1 0.433140 0.664767 0.679800
Si Si2 0.184848 0.324466 0.004907
Si Si3 0.066797 0.822527 0.149267
Si Si4 0.092565 0.824491 0.789288
Si Si5 0.180765 0.175167 0.292289
Si Si6 0.302926 0.674427 0.512029
Si Si7 0.778320 0.674013 0.147980
Si Si8 0.198941 0.834462 0.642563
O O1 0.410846 0.500000 0.668290
O O2 0.233399 0.752339 0.765175
O O3 0.608146 0.750311 0.576554
O O4 0.489331 0.656391 0.709544
O O5 0.179863 0.500000 0.017235
O O6 0.182619 0.239992 0.054716
O O7 0.001956 0.276290 0.053599
O O8 0.375130 0.274378 0.894301
O O9 0.173224 0.758646 0.148850
O O10 0.849824 0.761495 0.244753
O O11 0.063518 0.000000 0.148779
O O12 0.164022 0.764204 0.708200
O O13 0.109301 0.000000 0.784436
O O14 0.172675 0.222819 0.241803
O O15 0.980549 0.223369 0.402707
O O16 0.220028 0.000000 0.280088
O O17 0.273614 0.500000 0.525204
O O18 0.338111 0.732260 0.549698
O O19 0.766391 0.500000 0.147679
O O20 0.288805 0.000000 0.606859
#
# Coordination Sequence:
#
# PCOD8052992 Si02
#       8
#     4   4   4   4   4   4   4   4
#     4   9  19  34  51  73 104 135 168 216 258 294
#     4   9  19  35  54  73 102 136 169 207 253 305
#     4  10  19  32  53  79 103 128 168 214 254 299
#     4  10  19  34  55  76  99 138 180 210 251 308
#     4   9  18  35  55  73 101 137 171 204 250 307
#     4   9  17  33  55  75 102 138 173 211 256 303
#     4   8  16  33  53  73  98 132 168 203 246 304
#     4   8  18  34  50  72 103 136 171 211 254 298
#
# _framework density 17.69614
#
# number of rings (size 3 to 8) (size 9 to 14) (size 15 to 20)
#    0.750    2.250    0.000    1.500    0.000    3.000 
#    2.250    7.500    0.000    0.000    0.000    0.000 
#    0.000    0.000    0.000    0.000    0.000    0.000 
#
# Total GULP energy -198258.655622 kJ/mol
# GULP energy per Si atom -12391.165976 kJ/mol
# Density = 1.765586 g / cm^3
# Si number density = 17.696140 Si / 1000 Ang^3
#
#
#
# Elastic Constant Matrix: (Units=GPa)
#
#
# Indices 1 2 3 4 5 6 
#
# 1 96.0411 26.3469 28.2150 0.0003 -1.3837 -0.0004
# 2 26.3469 46.0278 38.1759 0.0003 -1.7222 0.0003
# 3 28.2150 38.1759 102.0143 0.0004 -3.3583 -0.0019
# 4 0.0003 0.0003 0.0004 26.2089 -0.0007 -2.7879
# 5 -1.3837 -1.7222 -3.3583 -0.0007 20.3706 0.0001
# 6 -0.0004 0.0003 -0.0019 -2.7879 0.0001 25.4049
#
#
#
# Elastic Compliance Matrix: (Units=1/GPa)
#
#
# Indices 1 2 3 4 5 6 
#
# 1 0.012441 -0.006186 -0.001121 0.000000 0.000137 0.000000
# 2 -0.006186 0.034591 -0.011212 0.000000 0.000656 -0.000001
# 3 -0.001121 -0.011212 0.014353 0.000000 0.001342 0.000001
# 4 0.000000 0.000000 0.000000 0.038606 0.000001 0.004237
# 5 0.000137 0.000656 0.001342 0.000001 0.049376 0.000000
# 6 0.000000 -0.000001 0.000001 0.004237 0.000000 0.039827
#
#
# Mechanical properties :
#
#
# Convention : Reuss Voigt Hill
#
# Bulk Modulus (GPa) = 41.07575 47.72877 44.40226
# Shear Modulus (GPa) = 21.33581 24.48657 22.91119
#
# Velocity S-wave (km/s) = 3.47605 3.72388 3.60210
# Velocity P-wave (km/s) = 6.27476 6.74682 6.51507
#
# Compressibility (1/GPa) = 0.02434527
#
# Stress axis : x y z
#
# Youngs Moduli (GPa) = 80.38186 28.90928 69.67321
#
# Poissons Ratio (x) = 0.17883 0.07813
# Poissons Ratio (y) = 0.49724 0.78119
# Poissons Ratio (z) = 0.09014 0.32414
#
# Static dielectric constant tensor:
#      x y z
#    x 3.304130 0.000000 0.017600 
#    y 0.000000 3.129820 0.000000 
#    z 0.017600 0.000000 3.267130 
# 
# 
# High freq. dielectric constant tensor:
#      x y z
#    x 1.674980 0.000000 -0.000870 
#    y 0.000000 1.674190 0.000000 
#    z -0.000870 0.000000 1.677750 
# 
# From -- ./inp_files/26452.got.cif
#   From: 2010.03.12/outbox.cif.g09.slc.cpg/sg8_14_cif.got.tgz:26452.got - 2010.03.31 10:45:26.
