data_PCOD8052860
_publ_section_title
;
Structure prediction by ZEFSAII (Michael W. Deem and Ramdas Pophale) SiO2 
 PCOD8052860
Probable space group: C M
;
_chemical_formula_sum "Si O2"
_cell_formula_units_Z 32
_cell_length_a 25.387444
_cell_length_b 8.592923
_cell_length_c 24.104701
_cell_angle_alpha 90.000000
_cell_angle_beta 162.190585
_cell_angle_gamma 90.000000
_cell_volume 1608.320611
_symmetry_space_group_name_H-M "C M"
_symmetry_group_IT_number 8
_symmetry_cell_setting 'monoclinic'
loop_
_space_group_symop_operation_xyz
x,y,z
x,-y,z
1/2+x,1/2+y,z
1/2+x,1/2-y,z
loop_
_atom_site_type_symbol
_atom_site_label
_atom_site_fract_x
_atom_site_fract_y
_atom_site_fract_z
Si Si1 0.727420 0.182267 0.592000
Si Si2 0.529989 0.314498 0.207435
Si Si3 0.843085 0.683795 0.319985
Si Si4 0.219414 0.816910 0.700611
Si Si5 0.339352 0.817032 0.593449
Si Si6 0.026193 0.184098 0.078149
Si Si7 0.856850 0.183818 0.218016
Si Si8 0.715830 0.181521 0.961681
O O1 0.788947 0.265711 0.710037
O O2 0.844269 0.232134 0.657578
O O3 0.535576 0.232546 0.384835
O O4 0.740082 0.000000 0.615056
O O5 0.532305 0.500000 0.209917
O O6 0.692255 0.251413 0.405417
O O7 0.543533 0.254123 0.158324
O O8 0.356763 0.243060 0.061722
O O9 0.853767 0.500000 0.324489
O O10 0.701966 0.734728 0.223763
O O11 0.777912 0.755769 0.196498
O O12 0.032311 0.744033 0.526519
O O13 0.197723 0.000000 0.680522
O O14 0.357441 0.763735 0.884082
O O15 0.316467 0.000000 0.581525
O O16 0.522709 0.779267 0.748126
O O17 0.999422 0.000000 0.048065
O O18 0.735118 0.234292 0.045091
O O19 0.887512 0.000000 0.252534
O O20 0.752925 0.000000 0.996622
#
# Coordination Sequence:
#
# PCOD8052860 Si02
#       8
#     4   4   4   4   4   4   4   4
#     4  11  21  35  56  84 118 153 188 237 294 347
#     4   9  18  36  59  84 115 149 193 240 282 336
#     4  10  21  37  57  87 122 154 190 239 295 351
#     4  11  23  39  60  85 116 157 198 243 290 345
#     4  10  19  34  57  85 114 149 190 235 286 342
#     4  10  22  39  62  89 117 155 198 243 293 345
#     4  10  18  33  56  84 117 152 191 235 283 342
#     4   9  18  31  55  88 113 143 190 236 279 334
#
# _framework density 19.896531
#
# number of rings (size 3 to 8) (size 9 to 14) (size 15 to 20)
#    0.000    2.000    1.250    4.500    1.750    2.000 
#    0.000    5.000    0.000    1.500    0.000    0.000 
#    0.000    0.000    0.000    0.000    0.000    0.000 
#
# Total GULP energy -198375.266839 kJ/mol
# GULP energy per Si atom -12398.454177 kJ/mol
# Density = 1.985125 g / cm^3
# Si number density = 19.896531 Si / 1000 Ang^3
#
#
#
# Elastic Constant Matrix: (Units=GPa)
#
#
# Indices 1 2 3 4 5 6 
#
# 1 170.6338 43.7487 89.6681 -0.0027 5.8893 -0.0028
# 2 43.7487 97.9295 34.4222 0.0260 1.3135 0.0102
# 3 89.6681 34.4222 127.5055 0.0247 2.6348 0.0120
# 4 -0.0027 0.0260 0.0247 21.2956 0.0158 -2.2417
# 5 5.8893 1.3135 2.6348 0.0158 28.9013 0.0031
# 6 -0.0028 0.0102 0.0120 -2.2417 0.0031 23.2912
#
#
#
# Elastic Compliance Matrix: (Units=1/GPa)
#
#
# Indices 1 2 3 4 5 6 
#
# 1 0.009733 -0.002137 -0.006241 0.000013 -0.001317 0.000007
# 2 -0.002137 0.011753 -0.001671 -0.000013 0.000054 -0.000006
# 3 -0.006241 -0.001671 0.012679 -0.000014 0.000192 -0.000008
# 4 0.000013 -0.000013 -0.000014 0.047439 -0.000027 0.004566
# 5 -0.001317 0.000054 0.000192 -0.000027 0.034849 -0.000007
# 6 0.000007 -0.000006 -0.000008 0.004566 -0.000007 0.043374
#
#
# Mechanical properties :
#
#
# Convention : Reuss Voigt Hill
#
# Bulk Modulus (GPa) = 71.08782 81.30519 76.19650
# Shear Modulus (GPa) = 27.08351 29.91295 28.49823
#
# Velocity S-wave (km/s) = 3.69347 3.88161 3.78871
# Velocity P-wave (km/s) = 7.34815 7.81293 7.58410
#
# Compressibility (1/GPa) = 0.01406711
#
# Stress axis : x y z
#
# Youngs Moduli (GPa) = 102.73834 85.08635 78.87110
#
# Poissons Ratio (x) = 0.18182 0.49223
# Poissons Ratio (y) = 0.21955 0.13181
# Poissons Ratio (z) = 0.64118 0.14219
#
# Static dielectric constant tensor:
#      x y z
#    x 3.807960 0.000000 0.007250 
#    y 0.000000 3.386150 -0.000010 
#    z 0.007250 -0.000010 3.666480 
# 
# 
# High freq. dielectric constant tensor:
#      x y z
#    x 1.777170 0.000000 0.003360 
#    y 0.000000 1.750480 0.000000 
#    z 0.003360 0.000000 1.781810 
# 
# From -- ./inp_files/32442.got.cif
#   From: 2010.03.12/outbox.cif.g09.slc.cpg/sg8_17_cif.got.tgz:32442.got - 2010.03.31 10:45:26.
