data_PCOD8052734
_publ_section_title
;
Structure prediction by ZEFSAII (Michael W. Deem and Ramdas Pophale) SiO2 
 PCOD8052734
Probable space group: C M
;
_chemical_formula_sum "Si O2"
_cell_formula_units_Z 32
_cell_length_a 23.248391
_cell_length_b 8.939227
_cell_length_c 9.615036
_cell_angle_alpha 90.000000
_cell_angle_beta 109.661133
_cell_angle_gamma 90.000000
_cell_volume 1881.723854
_symmetry_space_group_name_H-M "C M"
_symmetry_group_IT_number 8
_symmetry_cell_setting 'monoclinic'
loop_
_space_group_symop_operation_xyz
x,y,z
x,-y,z
1/2+x,1/2+y,z
1/2+x,1/2-y,z
loop_
_atom_site_type_symbol
_atom_site_label
_atom_site_fract_x
_atom_site_fract_y
_atom_site_fract_z
Si Si1 0.887720 0.667921 0.294290
Si Si2 0.639890 0.824217 0.060215
Si Si3 0.009657 0.822327 0.456647
Si Si4 0.854454 0.332021 0.968163
Si Si5 0.555757 0.328368 0.196730
Si Si6 0.452845 0.326844 0.886823
Si Si7 0.540851 0.822905 0.756158
Si Si8 0.775876 0.822171 0.108591
O O1 0.883339 0.500000 0.352908
O O2 0.941394 0.757184 0.413601
O O3 0.822990 0.755438 0.262445
O O4 0.900471 0.660916 0.138331
O O5 0.613726 0.758786 0.182293
O O6 0.708352 0.765808 0.091941
O O7 0.638685 0.000000 0.074755
O O8 0.598673 0.773530 0.896036
O O9 0.041315 0.769203 0.339528
O O10 0.049715 0.754634 0.614094
O O11 0.005823 0.000000 0.463327
O O12 0.837576 0.500000 0.904846
O O13 0.886904 0.242701 0.869902
O O14 0.793387 0.243967 0.969722
O O15 0.574799 0.500000 0.217339
O O16 0.496515 0.303828 0.054012
O O17 0.444945 0.500000 0.841087
O O18 0.479007 0.238570 0.775940
O O19 0.536096 0.000000 0.735060
O O20 0.781106 0.000000 0.108671
#
# Coordination Sequence:
#
# PCOD8052734 Si02
#       8
#     4   4   4   4   4   4   4   4
#     4   9  18  29  47  74  98 125 157 199 247 288
#     4   9  19  33  50  72  98 129 166 203 244 289
#     4  11  20  33  50  74 102 132 165 199 244 300
#     4   9  17  27  45  73  98 123 155 197 246 288
#     4   9  18  29  47  70  95 124 161 204 244 286
#     4  10  17  30  49  72  98 128 162 203 248 290
#     4  10  21  34  48  71 104 136 163 200 245 295
#     4   9  16  29  48  72  97 125 163 207 244 286
#
# _framework density 17.005683999999999
#
# number of rings (size 3 to 8) (size 9 to 14) (size 15 to 20)
#    0.750    1.750    1.250    1.875    0.000    3.000 
#    0.000    0.000    0.000    1.500    0.000    5.250 
#    0.000    0.000    0.000    0.000    0.000    0.000 
#
# Total GULP energy -198315.563561 kJ/mol
# GULP energy per Si atom -12394.722723 kJ/mol
# Density = 1.696698 g / cm^3
# Si number density = 17.005684 Si / 1000 Ang^3
#
#
#
# Elastic Constant Matrix: (Units=GPa)
#
#
# Indices 1 2 3 4 5 6 
#
# 1 128.9142 49.3048 39.0445 0.0000 -4.5253 0.0000
# 2 49.3048 89.5150 30.0432 0.0000 -3.0859 0.0000
# 3 39.0445 30.0432 75.6727 0.0000 -10.7334 0.0000
# 4 0.0000 0.0000 0.0000 25.4192 0.0000 -3.8622
# 5 -4.5253 -3.0859 -10.7334 0.0000 17.7080 0.0000
# 6 0.0000 0.0000 0.0000 -3.8622 0.0000 28.6548
#
#
#
# Elastic Compliance Matrix: (Units=1/GPa)
#
#
# Indices 1 2 3 4 5 6 
#
# 1 0.010635 -0.004629 -0.003697 0.000000 -0.000329 0.000000
# 2 -0.004629 0.014917 -0.003647 0.000000 -0.000794 0.000000
# 3 -0.003697 -0.003647 0.017883 0.000000 0.009259 0.000000
# 4 0.000000 0.000000 0.000000 0.040163 0.000000 0.005413
# 5 -0.000329 -0.000794 0.009259 0.000000 0.061862 0.000000
# 6 0.000000 0.000000 0.000000 0.005413 0.000000 0.035628
#
#
# Mechanical properties :
#
#
# Convention : Reuss Voigt Hill
#
# Bulk Modulus (GPa) = 51.30296 58.98742 55.14519
# Shear Modulus (GPa) = 23.63731 26.07033 24.85382
#
# Velocity S-wave (km/s) = 3.73227 3.91965 3.82711
# Velocity P-wave (km/s) = 6.98618 7.43284 7.21297
#
# Compressibility (1/GPa) = 0.01949205
#
# Stress axis : x y z
#
# Youngs Moduli (GPa) = 94.02540 67.03602 55.91817
#
# Poissons Ratio (x) = 0.31029 0.20671
# Poissons Ratio (y) = 0.43521 0.20392
# Poissons Ratio (z) = 0.34757 0.24446
#
# Static dielectric constant tensor:
#      x y z
#    x 3.109230 0.000000 -0.095660 
#    y 0.000000 3.195010 0.000000 
#    z -0.095660 0.000000 2.928380 
# 
# 
# High freq. dielectric constant tensor:
#      x y z
#    x 1.642280 0.000000 -0.012160 
#    y 0.000000 1.669850 0.000000 
#    z -0.012160 0.000000 1.618730 
# 
# From -- ./inp_files/17260.got.cif
#   From: 2010.03.12/outbox.cif.g09.slc.cpg/sg8_9_cif.got.tgz:17260.got - 2010.03.31 10:45:26.
