data_PCOD8052543
_publ_section_title
;
Structure prediction by ZEFSAII (Michael W. Deem and Ramdas Pophale) SiO2 
 PCOD8052543
Probable space group: P M
;
_chemical_formula_sum "Si O2"
_cell_formula_units_Z 14
_cell_length_a 6.748560
_cell_length_b 13.347988
_cell_length_c 9.844992
_cell_angle_alpha 90.000000
_cell_angle_beta 129.334035
_cell_angle_gamma 90.000000
_cell_volume 685.933949
_symmetry_space_group_name_H-M "P M"
_symmetry_group_IT_number 6
_symmetry_cell_setting 'monoclinic'
loop_
_space_group_symop_operation_xyz
x,y,z
x,-y,z
loop_
_atom_site_type_symbol
_atom_site_label
_atom_site_fract_x
_atom_site_fract_y
_atom_site_fract_z
Si Si1 0.183600 0.882066 0.913210
Si Si2 0.784822 0.393049 0.319385
Si Si3 0.392143 0.753230 0.236729
Si Si4 0.473626 0.748806 0.843949
Si Si5 0.020478 0.389974 0.707520
Si Si6 0.950780 0.613003 0.103971
Si Si7 0.657286 0.772997 0.634993
O O1 0.400348 0.848450 0.897196
O O2 0.892953 0.851699 0.745753
O O3 0.195973 0.000000 0.927083
O O4 0.252541 0.841176 0.093740
O O5 0.629059 0.500000 0.249721
O O6 0.621640 0.291183 0.245900
O O7 0.975068 0.390691 0.275898
O O8 0.967066 0.393126 0.526528
O O9 0.491618 0.793415 0.426203
O O10 0.220375 0.653549 0.170410
O O11 0.284926 0.668571 0.831297
O O12 0.460952 0.777679 0.677733
O O13 0.749915 0.699488 0.978601
O O14 0.053534 0.500000 0.786085
O O15 0.789071 0.336919 0.688054
O O16 0.893572 0.500000 0.021473
#
# Coordination Sequence:
#
# PCOD8052543 Si02
#       7
#     2   2   2   2   2   2   2
#     4  11  25  45  66  88 118 160 212 267 320 363
#     4   9  18  34  55  85 125 165 203 245 292 358
#     4  11  21  41  65  89 124 163 205 251 308 365
#     4  11  21  40  58  92 126 167 200 259 305 366
#     4   9  19  34  56  87 125 168 208 243 295 364
#     4  11  21  33  59  95 130 166 201 241 299 371
#     4  10  23  41  65  90 126 159 207 260 309 365
#
# _framework density 20.410126999999999
#
# number of rings (size 3 to 8) (size 9 to 14) (size 15 to 20)
#    0.000    1.714    2.857    1.714    0.000    2.857 
#    0.000    0.000    0.000    0.000    0.000    0.000 
#    0.000    0.000    0.000    0.000    0.000    0.000 
#
# Total GULP energy -173448.673397 kJ/mol
# GULP energy per Si atom -12389.190957 kJ/mol
# Density = 2.036367 g / cm^3
# Si number density = 20.410127 Si / 1000 Ang^3
#
#
#
# Elastic Constant Matrix: (Units=GPa)
#
#
# Indices 1 2 3 4 5 6 
#
# 1 69.9720 17.6788 24.3692 0.0000 -18.6252 0.0000
# 2 17.6788 127.4725 37.2455 0.0000 -8.4003 0.0000
# 3 24.3692 37.2455 81.7525 0.0000 -6.9986 0.0000
# 4 0.0000 0.0000 0.0000 14.3041 0.0000 -4.2405
# 5 -18.6252 -8.4003 -6.9986 0.0000 32.6157 0.0000
# 6 0.0000 0.0000 0.0000 -4.2405 0.0000 22.4743
#
#
#
# Elastic Compliance Matrix: (Units=1/GPa)
#
#
# Indices 1 2 3 4 5 6 
#
# 1 0.018509 -0.000656 -0.004409 0.000000 0.009455 0.000000
# 2 -0.000656 0.009143 -0.003871 0.000000 0.001150 0.000000
# 3 -0.004409 -0.003871 0.015290 0.000000 -0.000234 0.000000
# 4 0.000000 0.000000 0.000000 0.074052 0.000000 0.013972
# 5 0.009455 0.001150 -0.000234 0.000000 0.036305 0.000000
# 6 0.000000 0.000000 0.000000 0.013972 0.000000 0.047132
#
#
# Mechanical properties :
#
#
# Convention : Reuss Voigt Hill
#
# Bulk Modulus (GPa) = 39.88914 48.64265 44.26590
# Shear Modulus (GPa) = 22.05942 27.20571 24.63257
#
# Velocity S-wave (km/s) = 3.29113 3.65492 3.47779
# Velocity P-wave (km/s) = 5.83338 6.45721 6.15321
#
# Compressibility (1/GPa) = 0.02506948
#
# Stress axis : x y z
#
# Youngs Moduli (GPa) = 54.02672 109.37696 65.40165
#
# Poissons Ratio (x) = 0.07171 0.28837
# Poissons Ratio (y) = 0.03542 0.25320
# Poissons Ratio (z) = 0.23822 0.42345
#
# Static dielectric constant tensor:
#      x y z
#    x 3.763390 0.000000 -0.127480 
#    y 0.000000 3.589770 0.000000 
#    z -0.127480 0.000000 3.830150 
# 
# 
# High freq. dielectric constant tensor:
#      x y z
#    x 1.800310 0.000000 -0.015170 
#    y 0.000000 1.774640 0.000000 
#    z -0.015170 0.000000 1.802010 
# 
# From -- ./inp_files/2192.got.cif
#   From: 2010.03.12/outbox.cif.g09.slc.cpg/sg6_2_cif.got.tgz:2192.got - 2010.03.30 10:24:59.
