data_PCOD8052723
_publ_section_title
;
Structure prediction by ZEFSAII (Michael W. Deem and Ramdas Pophale) SiO2 
 PCOD8052723
Probable space group: C M
;
_chemical_formula_sum "Si O2"
_cell_formula_units_Z 32
_cell_length_a 23.020215
_cell_length_b 8.846366
_cell_length_c 21.741734
_cell_angle_alpha 90.000000
_cell_angle_beta 155.450053
_cell_angle_gamma 90.000000
_cell_volume 1839.607625
_symmetry_space_group_name_H-M "C M"
_symmetry_group_IT_number 8
_symmetry_cell_setting 'monoclinic'
loop_
_space_group_symop_operation_xyz
x,y,z
x,-y,z
1/2+x,1/2+y,z
1/2+x,1/2-y,z
loop_
_atom_site_type_symbol
_atom_site_label
_atom_site_fract_x
_atom_site_fract_y
_atom_site_fract_z
Si Si1 0.283730 0.171387 0.218560
Si Si2 0.976941 0.823663 0.129039
Si Si3 0.679427 0.177863 0.237719
Si Si4 0.991294 0.823715 0.338494
Si Si5 0.160503 0.674520 0.851792
Si Si6 0.660078 0.825274 0.408733
Si Si7 0.902321 0.174086 0.553606
Si Si8 0.745223 0.328078 0.048352
O O1 0.212100 0.277023 0.199493
O O2 0.438834 0.236748 0.349724
O O3 0.300033 0.000000 0.258586
O O4 0.187758 0.177142 0.063744
O O5 0.041792 0.769221 0.126408
O O6 0.050135 0.725662 0.251613
O O7 0.008309 0.000000 0.170143
O O8 0.811523 0.790031 0.968051
O O9 0.811403 0.224202 0.407181
O O10 0.649612 0.000000 0.213577
O O11 0.139212 0.764859 0.453450
O O12 0.997838 0.000000 0.358688
O O13 0.881941 0.781628 0.177946
O O14 0.139833 0.500000 0.846202
O O15 0.137852 0.764764 0.894405
O O16 0.043249 0.728025 0.690721
O O17 0.815499 0.796036 0.532750
O O18 0.634172 0.000000 0.397583
O O19 0.944775 0.000000 0.588756
O O20 0.787407 0.500000 0.072466
#
# Coordination Sequence:
#
# PCOD8052723 Si02
#       8
#     4   4   4   4   4   4   4   4
#     4   9  18  31  50  75 100 131 166 207 252 295
#     4  10  19  30  48  72  99 129 166 211 251 298
#     4  10  20  34  52  75 100 132 171 211 250 298
#     4  10  17  27  47  75 101 126 159 204 248 292
#     4  11  21  32  50  77 104 134 169 205 253 303
#     4  10  18  31  49  73 100 131 169 207 251 301
#     4   9  21  35  49  71 104 139 168 201 251 305
#     4   9  18  30  49  74 100 130 162 202 248 294
#
# _framework density 17.395015000000001
#
# number of rings (size 3 to 8) (size 9 to 14) (size 15 to 20)
#    0.750    1.500    1.250    3.750    0.000    4.500 
#    0.000    0.000    0.000    1.500    0.000    8.750 
#    0.000    0.000    0.000    0.000    0.000    0.000 
#
# Total GULP energy -198265.402697 kJ/mol
# GULP energy per Si atom -12391.587669 kJ/mol
# Density = 1.735542 g / cm^3
# Si number density = 17.395015 Si / 1000 Ang^3
#
#
#
# Elastic Constant Matrix: (Units=GPa)
#
#
# Indices 1 2 3 4 5 6 
#
# 1 91.6990 26.4501 23.9833 0.0000 3.6578 0.0000
# 2 26.4501 90.7737 33.1433 0.0002 4.4981 0.0001
# 3 23.9833 33.1433 65.9106 0.0002 8.1118 0.0001
# 4 0.0000 0.0002 0.0002 22.8022 0.0001 3.1260
# 5 3.6578 4.4981 8.1118 0.0001 17.0872 0.0000
# 6 0.0000 0.0001 0.0001 3.1260 0.0000 29.5362
#
#
#
# Elastic Compliance Matrix: (Units=1/GPa)
#
#
# Indices 1 2 3 4 5 6 
#
# 1 0.012476 -0.002420 -0.003263 0.000000 -0.000485 0.000000
# 2 -0.002420 0.013965 -0.006110 0.000000 -0.000258 0.000000
# 3 -0.003263 -0.006110 0.020336 0.000000 -0.007347 0.000000
# 4 0.000000 0.000000 0.000000 0.044501 0.000000 -0.004710
# 5 -0.000485 -0.000258 -0.007347 0.000000 0.062183 0.000000
# 6 0.000000 0.000000 0.000000 -0.004710 0.000000 0.034355
#
#
# Mechanical properties :
#
#
# Convention : Reuss Voigt Hill
#
# Bulk Modulus (GPa) = 43.12042 46.17073 44.64558
# Shear Modulus (GPa) = 22.81713 24.87224 23.84468
#
# Velocity S-wave (km/s) = 3.62568 3.78544 3.70642
# Velocity P-wave (km/s) = 6.50923 6.76063 6.63612
#
# Compressibility (1/GPa) = 0.02319087
#
# Stress axis : x y z
#
# Youngs Moduli (GPa) = 80.15360 71.60638 49.17322
#
# Poissons Ratio (x) = 0.17328 0.16047
# Poissons Ratio (y) = 0.19396 0.30046
# Poissons Ratio (z) = 0.26156 0.43753
#
# Static dielectric constant tensor:
#      x y z
#    x 3.314680 0.000000 0.139070 
#    y 0.000000 3.267450 0.000000 
#    z 0.139070 0.000000 2.857450 
# 
# 
# High freq. dielectric constant tensor:
#      x y z
#    x 1.669920 0.000000 0.009900 
#    y 0.000000 1.688140 0.000000 
#    z 0.009900 0.000000 1.619770 
# 
# From -- ./inp_files/17272.got.cif
#   From: 2010.03.12/outbox.cif.g09.slc.cpg/sg8_9_cif.got.tgz:17272.got - 2010.03.31 10:45:26.
