data_PCOD8052553
_publ_section_title
;
Structure prediction by ZEFSAII (Michael W. Deem and Ramdas Pophale) SiO2 
 PCOD8052553
Probable space group: P M
;
_chemical_formula_sum "Si O2"
_cell_formula_units_Z 16
_cell_length_a 5.036900
_cell_length_b 13.791760
_cell_length_c 13.542882
_cell_angle_alpha 90.000000
_cell_angle_beta 79.077730
_cell_angle_gamma 90.000000
_cell_volume 923.750745
_symmetry_space_group_name_H-M "P M"
_symmetry_group_IT_number 6
_symmetry_cell_setting 'monoclinic'
loop_
_space_group_symop_operation_xyz
x,y,z
x,-y,z
loop_
_atom_site_type_symbol
_atom_site_label
_atom_site_fract_x
_atom_site_fract_y
_atom_site_fract_z
Si Si1 0.424510 0.384658 0.702600
Si Si2 0.986438 0.615277 0.584231
Si Si3 0.564518 0.302859 0.259533
Si Si4 0.380739 0.894704 0.214359
Si Si5 0.948495 0.895019 0.080366
Si Si6 0.390660 0.611935 0.928472
Si Si7 0.022053 0.612231 0.358080
Si Si8 0.848190 0.695255 0.028153
O O1 0.421765 0.500000 0.698851
O O2 0.704918 0.342576 0.642889
O O3 0.364754 0.350548 0.818093
O O4 0.204534 0.340606 0.643847
O O5 0.988461 0.500000 0.588623
O O6 0.049234 0.648872 0.468659
O O7 0.441499 0.194188 0.284442
O O8 0.310616 0.375510 0.284147
O O9 0.785188 0.324066 0.327063
O O10 0.706692 0.316646 0.144038
O O11 0.112475 0.871538 0.169440
O O12 0.631279 0.902565 0.122955
O O13 0.345251 0.000000 0.271285
O O14 0.046145 0.000000 0.029684
O O15 0.976371 0.803691 0.004525
O O16 0.480019 0.500000 0.927690
O O17 0.100701 0.622405 0.002109
O O18 0.624643 0.675361 0.961557
O O19 0.935330 0.500000 0.357685
#
# Coordination Sequence:
#
# PCOD8052553 Si02
#       8
#     2   2   2   2   2   2   2   2
#     4   9  17  31  49  66  86 115 155 205 249 272
#     4   9  17  31  49  66  86 115 155 205 249 272
#     4  11  21  33  47  68 100 133 163 191 224 276
#     4   9  17  31  50  68  88 119 159 203 244 270
#     4   9  17  31  50  68  88 119 159 203 244 270
#     4  11  22  33  47  69  98 132 165 193 226 278
#     4  11  22  33  47  69  98 132 165 193 226 278
#     4  11  21  33  47  68 100 133 163 191 224 276
#
# _framework density 17.320689999999999
#
# number of rings (size 3 to 8) (size 9 to 14) (size 15 to 20)
#    0.000    2.000    0.000    6.000    0.000    7.000 
#    0.000    0.000    0.000    0.000    0.000    0.000 
#    0.000   20.000    0.000    0.000    0.000    0.000 
#
# Total GULP energy -198303.974402 kJ/mol
# GULP energy per Si atom -12393.998400 kJ/mol
# Density = 1.728127 g / cm^3
# Si number density = 17.320690 Si / 1000 Ang^3
#
#
#
# Elastic Constant Matrix: (Units=GPa)
#
#
# Indices 1 2 3 4 5 6 
#
# 1 118.1949 31.4725 44.9250 0.0000 17.1725 0.0000
# 2 31.4725 72.6199 52.8699 0.0000 13.0943 0.0000
# 3 44.9250 52.8699 91.3316 0.0000 16.8574 0.0000
# 4 0.0000 0.0000 0.0000 3.3888 0.0000 6.9581
# 5 17.1725 13.0943 16.8574 0.0000 35.1903 0.0000
# 6 0.0000 0.0000 0.0000 6.9581 0.0000 22.6930
#
#
#
# Elastic Compliance Matrix: (Units=1/GPa)
#
#
# Indices 1 2 3 4 5 6 
#
# 1 0.010736 -0.001171 -0.004077 0.000000 -0.002850 0.000000
# 2 -0.001171 0.024127 -0.012988 0.000000 -0.002185 0.000000
# 3 -0.004077 -0.012988 0.021077 0.000000 -0.003274 0.000000
# 4 0.000000 0.000000 0.000000 0.796580 0.000000 -0.244246
# 5 -0.002850 -0.002185 -0.003274 0.000000 0.032189 0.000000
# 6 0.000000 0.000000 0.000000 -0.244246 0.000000 0.118957
#
#
# Mechanical properties :
#
#
# Convention : Reuss Voigt Hill
#
# Bulk Modulus (GPa) = 51.36189 60.07570 55.71880
# Shear Modulus (GPa) = 4.77725 22.44634 13.61179
#
# Velocity S-wave (km/s) = 1.66256 3.60380 2.80638
# Velocity P-wave (km/s) = 5.77956 7.21638 6.53757
#
# Compressibility (1/GPa) = 0.01946969
#
# Stress axis : x y z
#
# Youngs Moduli (GPa) = 93.14305 41.44729 47.44444
#
# Poissons Ratio (x) = 0.04852 0.19345
# Poissons Ratio (y) = 0.10903 0.61619
# Poissons Ratio (z) = 0.37977 0.53830
#
# Static dielectric constant tensor:
#      x y z
#    x 3.464500 0.000000 0.069240 
#    y 0.000000 3.456700 0.000000 
#    z 0.069240 0.000000 3.106590 
# 
# 
# High freq. dielectric constant tensor:
#      x y z
#    x 1.695900 0.000000 0.011750 
#    y 0.000000 1.640990 0.000000 
#    z 0.011750 0.000000 1.637090 
# 
# From -- ./inp_files/4420.got.cif
#   From: 2010.03.12/outbox.cif.g09.slc.cpg/sg6_3_cif.got.tgz:4420.got - 2010.03.30 10:24:59.
