data_PCOD8052103
_publ_section_title
;
Structure prediction by ZEFSAII (Michael W. Deem and Ramdas Pophale) SiO2 
 PCOD8052103
Probable space group: C 2
;
_chemical_formula_sum "Si O2"
_cell_formula_units_Z 32
_cell_length_a 14.438710
_cell_length_b 17.608638
_cell_length_c 11.453238
_cell_angle_alpha 90.000000
_cell_angle_beta 150.821126
_cell_angle_gamma 90.000000
_cell_volume 1419.680789
_symmetry_space_group_name_H-M "C 2"
_symmetry_group_IT_number 5
_symmetry_cell_setting 'monoclinic'
loop_
_space_group_symop_operation_xyz
x,y,z
-x,y,-z
1/2+x,1/2+y,z
1/2-x,1/2+y,-z
loop_
_atom_site_type_symbol
_atom_site_label
_atom_site_fract_x
_atom_site_fract_y
_atom_site_fract_z
Si Si1 0.597196 0.558850 0.989376
Si Si2 0.218573 0.719000 0.757014
Si Si3 0.631346 0.001139 0.884959
Si Si4 0.097195 0.768577 0.989375
Si Si5 0.781424 0.108427 0.242985
Si Si6 0.631347 0.826285 0.884957
Si Si7 0.244461 0.250437 0.459263
Si Si8 0.255541 0.076990 0.540731
O O1 0.447208 0.544446 0.720408
O O2 0.500000 0.526468 0.000000
O O3 0.652972 0.646786 0.068879
O O4 0.782682 0.512317 0.151171
O O5 0.293271 0.757973 0.720287
O O6 0.000000 0.693755 0.500000
O O7 0.238031 0.780205 0.880442
O O8 0.418084 0.032853 0.649287
O O9 0.630282 0.913711 0.920064
O O10 0.761960 0.047217 0.119557
O O11 0.947203 0.782981 0.720406
O O12 0.152975 0.680641 0.068876
O O13 0.282682 0.815110 0.151174
O O14 0.000000 0.800957 0.000000
O O15 0.706721 0.069464 0.279712
O O16 0.000000 0.133670 0.500000
O O17 0.418089 0.794565 0.649292
O O18 0.250006 0.163711 0.499986
#
# Coordination Sequence:
#
# PCOD8052103 Si02
#       8
#     4   4   4   4   4   4   4   4
#     4  12  25  44  74 101 138 184 239 287 335 409
#     4  12  23  43  77 106 136 179 235 289 343 408
#     4  12  28  46  68 105 145 182 228 287 352 413
#     4  12  25  44  74 101 138 184 239 287 335 409
#     4  12  23  43  77 106 136 179 235 289 343 408
#     4  12  28  46  68 105 145 182 228 287 352 413
#     4  12  23  45  73 104 135 181 235 288 341 405
#     4  12  23  45  73 104 135 181 235 288 341 405
#
# _framework density 22.540277
#
# number of rings (size 3 to 8) (size 9 to 14) (size 15 to 20)
#    0.000    0.000    7.500    3.000    0.000    4.000 
#    0.000    1.250    0.000    0.000    0.000    0.000 
#    0.000    0.000    0.000    0.000    0.000    0.000 
#
# Total GULP energy -198420.533566 kJ/mol
# GULP energy per Si atom -12401.283348 kJ/mol
# Density = 2.248897 g / cm^3
# Si number density = 22.540277 Si / 1000 Ang^3
#
#
#
# Elastic Constant Matrix: (Units=GPa)
#
#
# Indices 1 2 3 4 5 6 
#
# 1 165.4382 41.6644 42.6905 0.0000 19.6155 0.0000
# 2 41.6644 68.2049 36.2746 0.0000 2.5217 0.0000
# 3 42.6905 36.2746 126.7846 0.0000 14.2205 0.0000
# 4 0.0000 0.0000 0.0000 19.3013 0.0000 4.8570
# 5 19.6155 2.5217 14.2205 0.0000 39.7005 0.0000
# 6 0.0000 0.0000 0.0000 4.8570 0.0000 15.4122
#
#
#
# Elastic Compliance Matrix: (Units=1/GPa)
#
#
# Indices 1 2 3 4 5 6 
#
# 1 0.007713 -0.004013 -0.001094 0.000000 -0.003164 0.000000
# 2 -0.004013 0.019400 -0.004463 0.000000 0.002349 0.000000
# 3 -0.001094 -0.004463 0.009835 0.000000 -0.002699 0.000000
# 4 0.000000 0.000000 0.000000 0.056272 0.000000 -0.017734
# 5 -0.003164 0.002349 -0.002699 0.000000 0.027569 0.000000
# 6 0.000000 0.000000 0.000000 -0.017734 0.000000 0.070472
#
#
# Mechanical properties :
#
#
# Convention : Reuss Voigt Hill
#
# Bulk Modulus (GPa) = 56.15240 66.85408 61.50324
# Shear Modulus (GPa) = 23.11213 30.86936 26.99074
#
# Velocity S-wave (km/s) = 3.20561 3.70472 3.46417
# Velocity P-wave (km/s) = 6.21831 6.92994 6.58375
#
# Compressibility (1/GPa) = 0.01780868
#
# Stress axis : x y z
#
# Youngs Moduli (GPa) = 129.65931 51.54769 101.67396
#
# Poissons Ratio (x) = 0.20684 0.11123
# Poissons Ratio (y) = 0.52026 0.45375
# Poissons Ratio (z) = 0.14185 0.23005
#
# Static dielectric constant tensor:
#      x y z
#    x 5.551890 0.000000 -0.108010 
#    y 0.000000 3.651680 0.000000 
#    z -0.108010 0.000000 4.841700 
# 
# 
# High freq. dielectric constant tensor:
#      x y z
#    x 1.914030 0.000000 0.014380 
#    y 0.000000 1.844860 0.000000 
#    z 0.014380 0.000000 1.902630 
# 
# From -- ./inp_files/43375.got.cif
#   From: 2010.03.12/outbox.cif.g09.slc.cpg/sg5_22_cif.got.tgz:43375.got - 2010.03.31 09:47:26.
