data_PCOD8052657
_publ_section_title
;
Structure prediction by ZEFSAII (Michael W. Deem and Ramdas Pophale) SiO2 
 PCOD8052657
Probable space group: P C
;
_chemical_formula_sum "Si O2"
_cell_formula_units_Z 14
_cell_length_a 8.705096
_cell_length_b 16.914013
_cell_length_c 5.159631
_cell_angle_alpha 90.000000
_cell_angle_beta 59.921133
_cell_angle_gamma 90.000000
_cell_volume 657.391085
_symmetry_space_group_name_H-M "P C"
_symmetry_group_IT_number 7
_symmetry_cell_setting 'monoclinic'
loop_
_space_group_symop_operation_xyz
x,y,z
x,-y,1/2+z
loop_
_atom_site_type_symbol
_atom_site_label
_atom_site_fract_x
_atom_site_fract_y
_atom_site_fract_z
Si Si1 0.671590 0.816519 0.746870
Si Si2 0.386542 0.947727 0.090112
Si Si3 0.064319 0.162825 0.854366
Si Si4 0.570779 0.448543 0.362201
Si Si5 0.123803 0.736655 0.802419
Si Si6 0.777947 0.663934 0.961304
Si Si7 0.493337 0.685201 0.601032
O O1 0.572047 0.771680 0.598302
O O2 0.855091 0.858306 0.495351
O O3 0.535921 0.880249 0.972917
O O4 0.724126 0.751708 0.915960
O O5 0.187144 0.914156 0.225052
O O6 0.415970 0.992408 0.332554
O O7 0.118541 0.227191 0.594409
O O8 0.098317 0.195910 0.111738
O O9 0.532813 0.491072 0.663868
O O10 0.763968 0.404603 0.249223
O O11 0.453945 0.369964 0.389028
O O12 0.312792 0.695922 0.595479
O O13 0.977267 0.667453 0.900385
O O14 0.639355 0.638847 0.304075
#
# Coordination Sequence:
#
# PCOD8052657 Si02
#       7
#     2   2   2   2   2   2   2
#     4  10  23  40  68  94 124 169 221 266 316 381
#     4  12  27  42  63  93 133 172 211 263 335 388
#     4  11  23  42  63  92 129 161 212 275 318 374
#     4  11  23  41  64  94 137 176 207 260 325 384
#     4  11  23  38  68  99 122 157 222 273 312 370
#     4  10  22  41  69  98 123 171 222 265 317 379
#     4  11  21  40  71  94 126 168 221 264 319 372
#
# _framework density 21.296299999999999
#
# number of rings (size 3 to 8) (size 9 to 14) (size 15 to 20)
#    0.000    1.143    4.286    1.714    4.000    1.143 
#    0.000    1.429    0.000    0.000    0.000    0.000 
#    0.000    0.000    0.000    0.000    0.000    0.000 
#
# Total GULP energy -173451.342366 kJ/mol
# GULP energy per Si atom -12389.381598 kJ/mol
# Density = 2.124783 g / cm^3
# Si number density = 21.296300 Si / 1000 Ang^3
#
#
#
# Elastic Constant Matrix: (Units=GPa)
#
#
# Indices 1 2 3 4 5 6 
#
# 1 138.6949 35.1308 44.3889 0.0000 -9.9416 0.0000
# 2 35.1308 69.2111 27.3222 0.0000 4.6971 0.0000
# 3 44.3889 27.3222 94.3673 0.0000 10.7654 0.0000
# 4 0.0000 0.0000 0.0000 32.9575 0.0000 11.8859
# 5 -9.9416 4.6971 10.7654 0.0000 53.0252 0.0000
# 6 0.0000 0.0000 0.0000 11.8859 0.0000 24.4734
#
#
#
# Elastic Compliance Matrix: (Units=1/GPa)
#
#
# Indices 1 2 3 4 5 6 
#
# 1 0.009521 -0.003534 -0.003782 0.000000 0.002866 0.000000
# 2 -0.003534 0.017638 -0.003266 0.000000 -0.001562 0.000000
# 3 -0.003782 -0.003266 0.013687 0.000000 -0.003199 0.000000
# 4 0.000000 0.000000 0.000000 0.036785 0.000000 -0.017865
# 5 0.002866 -0.001562 -0.003199 0.000000 0.020184 0.000000
# 6 0.000000 0.000000 0.000000 -0.017865 0.000000 0.049537
#
#
# Mechanical properties :
#
#
# Convention : Reuss Voigt Hill
#
# Bulk Modulus (GPa) = 50.81209 57.32857 54.07033
# Shear Modulus (GPa) = 28.55880 35.11997 31.83939
#
# Velocity S-wave (km/s) = 3.66597 4.06533 3.87080
# Velocity P-wave (km/s) = 6.46765 7.00099 6.73960
#
# Compressibility (1/GPa) = 0.01968035
#
# Stress axis : x y z
#
# Youngs Moduli (GPa) = 105.02815 56.69629 73.06444
#
# Poissons Ratio (x) = 0.20038 0.27635
# Poissons Ratio (y) = 0.37120 0.23863
# Poissons Ratio (z) = 0.39725 0.18517
#
# Static dielectric constant tensor:
#      x y z
#    x 4.108730 0.000000 0.020450 
#    y 0.000000 3.944750 0.000000 
#    z 0.020450 0.000000 3.866000 
# 
# 
# High freq. dielectric constant tensor:
#      x y z
#    x 1.847690 0.000000 0.018200 
#    y 0.000000 1.826980 0.000000 
#    z 0.018200 0.000000 1.825570 
# 
# From -- ./inp_files/729.got.cif
#   From: 2010.03.12/outbox.cif.g09.slc.cpg/sg7_cif.got.tgz:729.got - 2010.03.30 08:40:41.
