data_PCOD8052219
_publ_section_title
;
Structure prediction by ZEFSAII (Michael W. Deem and Ramdas Pophale) SiO2 
 PCOD8052219
Probable space group: P M
;
_chemical_formula_sum "Si O2"
_cell_formula_units_Z 16
_cell_length_a 5.103369
_cell_length_b 12.161206
_cell_length_c 17.044291
_cell_angle_alpha 90.000000
_cell_angle_beta 116.152609
_cell_angle_gamma 90.000000
_cell_volume 949.525532
_symmetry_space_group_name_H-M "P M"
_symmetry_group_IT_number 6
_symmetry_cell_setting 'monoclinic'
loop_
_space_group_symop_operation_xyz
x,y,z
x,-y,z
loop_
_atom_site_type_symbol
_atom_site_label
_atom_site_fract_x
_atom_site_fract_y
_atom_site_fract_z
Si Si1 0.770600 0.257210 0.146100
Si Si2 0.668304 0.779774 0.374674
Si Si3 0.481652 0.871182 0.970119
Si Si4 0.929447 0.129933 0.558986
Si Si5 0.833108 0.127087 0.860854
Si Si6 0.069087 0.121360 0.305973
Si Si7 0.579184 0.127784 0.668433
Si Si8 0.375387 0.371472 0.219839
O O1 0.888269 0.148648 0.204507
O O2 0.515246 0.311656 0.163402
O O3 0.031508 0.345081 0.172064
O O4 0.654569 0.212454 0.048563
O O5 0.762545 0.786794 0.477887
O O6 0.959694 0.802894 0.363006
O O7 0.525692 0.666545 0.322509
O O8 0.410822 0.868981 0.331572
O O9 0.603364 0.853807 0.899242
O O10 0.149856 0.827003 0.926748
O O11 0.510542 0.000000 0.999831
O O12 0.800027 0.150514 0.627412
O O13 0.260700 0.173302 0.604466
O O14 0.899988 0.000000 0.530566
O O15 0.707853 0.183446 0.764776
O O16 0.885371 0.000000 0.849235
O O17 0.996770 0.000000 0.323890
O O18 0.534202 0.000000 0.679382
O O19 0.425010 0.500000 0.219057
#
# Coordination Sequence:
#
# PCOD8052219 Si02
#       8
#     2   2   2   2   2   2   2   2
#     4  10  20  32  49  71  90 119 156 189 230 276
#     4  10  20  30  45  67  89 122 159 189 227 273
#     4  10  18  29  46  69  99 127 155 188 219 265
#     4  10  17  26  41  62  91 121 155 192 219 258
#     4   9  17  28  42  62  93 132 162 184 216 259
#     4  10  18  29  43  63  95 124 149 180 223 276
#     4   9  17  27  40  60  90 129 160 181 213 257
#     4  10  21  37  52  66  91 120 152 199 241 274
#
# _framework density 16.850522999999999
#
# number of rings (size 3 to 8) (size 9 to 14) (size 15 to 20)
#    0.000    2.250    0.000    4.125    0.000    4.000 
#    0.000    3.750    0.000    0.000    0.000    0.000 
#    0.000   20.000    0.000    0.000    0.000    0.000 
#
# Total GULP energy -198293.576217 kJ/mol
# GULP energy per Si atom -12393.348514 kJ/mol
# Density = 1.681217 g / cm^3
# Si number density = 16.850523 Si / 1000 Ang^3
#
#
#
# Elastic Constant Matrix: (Units=GPa)
#
#
# Indices 1 2 3 4 5 6 
#
# 1 77.7192 5.4345 8.1195 0.0000 2.8860 0.0000
# 2 5.4345 42.2578 25.6548 0.0000 4.4242 0.0000
# 3 8.1195 25.6548 99.9451 0.0000 1.8480 0.0000
# 4 0.0000 0.0000 0.0000 11.0154 0.0000 1.9809
# 5 2.8860 4.4242 1.8480 0.0000 23.3817 0.0000
# 6 0.0000 0.0000 0.0000 1.9809 0.0000 9.7815
#
#
#
# Elastic Compliance Matrix: (Units=1/GPa)
#
#
# Indices 1 2 3 4 5 6 
#
# 1 0.013072 -0.001078 -0.000760 0.000000 -0.001349 0.000000
# 2 -0.001078 0.028657 -0.007181 0.000000 -0.004722 0.000000
# 3 -0.000760 -0.007181 0.011901 0.000000 0.000512 0.000000
# 4 0.000000 0.000000 0.000000 0.094213 0.000000 -0.019079
# 5 -0.001349 -0.004722 0.000512 0.000000 0.043788 0.000000
# 6 0.000000 0.000000 0.000000 -0.019079 0.000000 0.106098
#
#
# Mechanical properties :
#
#
# Convention : Reuss Voigt Hill
#
# Bulk Modulus (GPa) = 28.09721 33.14886 30.62304
# Shear Modulus (GPa) = 15.26105 20.88326 18.07216
#
# Velocity S-wave (km/s) = 3.01270 3.52422 3.27845
# Velocity P-wave (km/s) = 5.36772 6.02289 5.70472
#
# Compressibility (1/GPa) = 0.03559072
#
# Stress axis : x y z
#
# Youngs Moduli (GPa) = 76.50084 34.89560 84.02604
#
# Poissons Ratio (x) = 0.03763 0.06388
# Poissons Ratio (y) = 0.08249 0.60339
# Poissons Ratio (z) = 0.05816 0.25059
#
# Static dielectric constant tensor:
#      x y z
#    x 3.333760 0.000000 0.096690 
#    y 0.000000 2.683590 0.000000 
#    z 0.096690 0.000000 3.242760 
# 
# 
# High freq. dielectric constant tensor:
#      x y z
#    x 1.675360 0.000000 0.001660 
#    y 0.000000 1.579680 0.000000 
#    z 0.001660 0.000000 1.654780 
# 
# From -- ./inp_files/1671.got.cif
#   From: 2010.03.12/outbox.cif.g09.slc.cpg/sg6_1_cif.got.tgz:1671.got - 2010.03.30 10:24:59.
