data_PCOD8052533
_publ_section_title
;
Structure prediction by ZEFSAII (Michael W. Deem and Ramdas Pophale) SiO2 
 PCOD8052533
Probable space group: P M
;
_chemical_formula_sum "Si O2"
_cell_formula_units_Z 16
_cell_length_a 9.577857
_cell_length_b 8.610757
_cell_length_c 19.287539
_cell_angle_alpha 90.000000
_cell_angle_beta 29.193638
_cell_angle_gamma 90.000000
_cell_volume 775.880989
_symmetry_space_group_name_H-M "P M"
_symmetry_group_IT_number 6
_symmetry_cell_setting 'monoclinic'
loop_
_space_group_symop_operation_xyz
x,y,z
x,-y,z
loop_
_atom_site_type_symbol
_atom_site_label
_atom_site_fract_x
_atom_site_fract_y
_atom_site_fract_z
Si Si1 0.359030 0.179603 0.304930
Si Si2 0.254601 0.180255 0.999714
Si Si3 0.344606 0.675388 0.455148
Si Si4 0.863653 0.682401 0.437567
Si Si5 0.857638 0.818957 0.299032
Si Si6 0.850950 0.321653 0.772454
Si Si7 0.945241 0.682851 0.004294
Si Si8 0.223381 0.315920 0.740657
O O1 0.400046 0.205479 0.368904
O O2 0.641645 0.232483 0.142014
O O3 0.081728 0.279062 0.404603
O O4 0.304941 0.000000 0.312979
O O5 0.071479 0.230219 0.145546
O O6 0.154945 0.278989 0.976985
O O7 0.213668 0.000000 0.999592
O O8 0.580068 0.213627 0.878039
O O9 0.398324 0.500000 0.405678
O O10 0.568215 0.719095 0.418195
O O11 0.032052 0.691193 0.623409
O O12 0.857302 0.500000 0.426842
O O13 0.989767 0.770004 0.315470
O O14 0.547939 0.747568 0.593376
O O15 0.788139 0.000000 0.327290
O O16 0.758157 0.500000 0.825659
O O17 0.028370 0.256385 0.761399
O O18 0.890751 0.500000 0.025599
O O19 0.091272 0.743584 0.870273
O O20 0.234559 0.500000 0.734347
#
# Coordination Sequence:
#
# PCOD8052533 Si02
#       8
#     2   2   2   2   2   2   2   2
#     4  12  26  43  62  94 133 166 206 263 321 379
#     4  11  25  42  61  93 131 168 208 258 317 376
#     4  11  22  41  69  94 120 164 216 263 311 375
#     4  11  23  43  68  94 124 165 214 262 311 379
#     4  11  23  41  64  93 129 164 205 264 321 373
#     4  10  22  42  66  94 124 162 211 263 312 371
#     4  11  23  42  67  93 123 168 216 260 310 375
#     4   9  21  42  65  93 124 157 208 265 311 362
#
# _framework density 20.621718999999999
#
# number of rings (size 3 to 8) (size 9 to 14) (size 15 to 20)
#    0.000    1.250    2.500    3.000    3.500    2.500 
#    0.000    2.500    0.000    0.000    0.000    0.000 
#    0.000    0.000    0.000    0.000    0.000    0.000 
#
# Total GULP energy -198491.459584 kJ/mol
# GULP energy per Si atom -12405.716224 kJ/mol
# Density = 2.057478 g / cm^3
# Si number density = 20.621719 Si / 1000 Ang^3
#
#
#
# Elastic Constant Matrix: (Units=GPa)
#
#
# Indices 1 2 3 4 5 6 
#
# 1 84.7638 19.3602 46.0106 0.0000 -1.3263 0.0000
# 2 19.3602 66.7548 41.6535 0.0000 5.7803 0.0000
# 3 46.0106 41.6535 109.6964 0.0000 1.9038 0.0000
# 4 0.0000 0.0000 0.0000 21.8935 0.0000 -3.6432
# 5 -1.3263 5.7803 1.9038 0.0000 43.1563 0.0000
# 6 0.0000 0.0000 0.0000 -3.6432 0.0000 29.6121
#
#
#
# Elastic Compliance Matrix: (Units=1/GPa)
#
#
# Indices 1 2 3 4 5 6 
#
# 1 0.015321 -0.000651 -0.006194 0.000000 0.000831 0.000000
# 2 -0.000651 0.019891 -0.007239 0.000000 -0.002365 0.000000
# 3 -0.006194 -0.007239 0.014460 0.000000 0.000141 0.000000
# 4 0.000000 0.000000 0.000000 0.046630 0.000000 0.005737
# 5 0.000831 -0.002365 0.000141 0.000000 0.023508 0.000000
# 6 0.000000 0.000000 0.000000 0.005737 0.000000 0.034476
#
#
# Mechanical properties :
#
#
# Convention : Reuss Voigt Hill
#
# Bulk Modulus (GPa) = 46.49960 52.80706 49.65333
# Shear Modulus (GPa) = 26.36855 29.21177 27.79016
#
# Velocity S-wave (km/s) = 3.57974 3.76780 3.67497
# Velocity P-wave (km/s) = 6.29951 6.67768 6.49135
#
# Compressibility (1/GPa) = 0.02150556
#
# Stress axis : x y z
#
# Youngs Moduli (GPa) = 65.26977 50.27522 69.15597
#
# Poissons Ratio (x) = 0.03272 0.42832
# Poissons Ratio (y) = 0.04247 0.50060
# Poissons Ratio (z) = 0.40425 0.36393
#
# Static dielectric constant tensor:
#      x y z
#    x 3.716550 0.000000 0.060210 
#    y 0.000000 3.509160 0.000000 
#    z 0.060210 0.000000 3.830470 
# 
# 
# High freq. dielectric constant tensor:
#      x y z
#    x 1.815570 0.000000 0.002230 
#    y 0.000000 1.797510 0.000000 
#    z 0.002230 0.000000 1.815070 
# 
# From -- ./inp_files/2718.got.cif
#   From: 2010.03.12/outbox.cif.g09.slc.cpg/sg6_2_cif.got.tgz:2718.got - 2010.03.30 10:24:59.
