data_PCOD8052463
_publ_section_title
;
Structure prediction by ZEFSAII (Michael W. Deem and Ramdas Pophale) SiO2 
 PCOD8052463
Probable space group: P M
;
_chemical_formula_sum "Si O2"
_cell_formula_units_Z 16
_cell_length_a 12.082873
_cell_length_b 8.518577
_cell_length_c 10.116945
_cell_angle_alpha 90.000000
_cell_angle_beta 127.625758
_cell_angle_gamma 90.000000
_cell_volume 824.745976
_symmetry_space_group_name_H-M "P M"
_symmetry_group_IT_number 6
_symmetry_cell_setting 'monoclinic'
loop_
_space_group_symop_operation_xyz
x,y,z
x,-y,z
loop_
_atom_site_type_symbol
_atom_site_label
_atom_site_fract_x
_atom_site_fract_y
_atom_site_fract_z
Si Si1 0.839240 0.820323 0.877550
Si Si2 0.536808 0.683114 0.062396
Si Si3 0.813140 0.818068 0.352321
Si Si4 0.977100 0.319786 0.229972
Si Si5 0.550908 0.818865 0.791427
Si Si6 0.956444 0.319542 0.705168
Si Si7 0.238259 0.817860 0.837455
Si Si8 0.242557 0.179717 0.531447
O O1 0.674251 0.788196 0.777888
O O2 0.891449 0.705965 0.801718
O O3 0.865463 0.000000 0.855342
O O4 0.921183 0.788418 0.072256
O O5 0.538472 0.500000 0.093765
O O6 0.651414 0.767918 0.237247
O O7 0.574751 0.711805 0.936837
O O8 0.387288 0.753095 0.992658
O O9 0.895789 0.717245 0.304999
O O10 0.876959 0.789271 0.542729
O O11 0.829017 0.000000 0.327421
O O12 0.954089 0.500000 0.174900
O O13 0.141919 0.288513 0.371239
O O14 0.403367 0.778041 0.613983
O O15 0.547427 0.000000 0.838072
O O16 0.938981 0.500000 0.651687
O O17 0.119508 0.274703 0.830425
O O18 0.215850 0.787486 0.666143
O O19 0.229227 0.000000 0.866641
O O20 0.208028 0.000000 0.472209
#
# Coordination Sequence:
#
# PCOD8052463 Si02
#       8
#     2   2   2   2   2   2   2   2
#     4  11  23  41  63  86 119 163 202 242 300 367
#     4  11  21  34  58  91 123 152 195 253 304 344
#     4  12  23  39  61  87 119 159 205 248 299 361
#     4  12  23  36  58  91 122 153 199 252 301 347
#     4   9  19  36  59  85 117 156 201 241 292 359
#     4  12  25  41  61  89 123 157 200 254 307 355
#     4  10  20  37  60  86 120 160 200 239 296 365
#     4   9  18  34  58  87 117 152 196 245 293 350
#
# _framework density 19.399913000000002
#
# number of rings (size 3 to 8) (size 9 to 14) (size 15 to 20)
#    0.000    1.250    2.500    6.000    0.000    2.500 
#    0.000    1.250    0.000    1.500    0.000    0.000 
#    0.000    0.000    0.000    0.000    0.000    0.000 
#
# Total GULP energy -198495.676664 kJ/mol
# GULP energy per Si atom -12405.979792 kJ/mol
# Density = 1.935576 g / cm^3
# Si number density = 19.399913 Si / 1000 Ang^3
#
#
#
# Elastic Constant Matrix: (Units=GPa)
#
#
# Indices 1 2 3 4 5 6 
#
# 1 114.0078 30.0193 46.4458 0.0000 18.3528 0.0000
# 2 30.0193 91.4357 14.5892 0.0000 12.5294 0.0000
# 3 46.4458 14.5892 81.8822 0.0000 19.5701 0.0000
# 4 0.0000 0.0000 0.0000 28.2929 0.0000 0.1311
# 5 18.3528 12.5294 19.5701 0.0000 33.1098 0.0000
# 6 0.0000 0.0000 0.0000 0.1311 0.0000 26.3109
#
#
#
# Elastic Compliance Matrix: (Units=1/GPa)
#
#
# Indices 1 2 3 4 5 6 
#
# 1 0.012282 -0.002777 -0.005934 0.000000 -0.002250 0.000000
# 2 -0.002777 0.012261 0.000153 0.000000 -0.003191 0.000000
# 3 -0.005934 0.000153 0.017210 0.000000 -0.006941 0.000000
# 4 0.000000 0.000000 0.000000 0.035345 0.000000 -0.000176
# 5 -0.002250 -0.003191 -0.006941 0.000000 0.036760 0.000000
# 6 0.000000 0.000000 0.000000 -0.000176 0.000000 0.038008
#
#
# Mechanical properties :
#
#
# Convention : Reuss Voigt Hill
#
# Bulk Modulus (GPa) = 40.58852 52.15936 46.37394
# Shear Modulus (GPa) = 28.21734 30.62751 29.42242
#
# Velocity S-wave (km/s) = 3.81794 3.97765 3.89861
# Velocity P-wave (km/s) = 6.35633 6.93112 6.64994
#
# Compressibility (1/GPa) = 0.02463751
#
# Stress axis : x y z
#
# Youngs Moduli (GPa) = 81.41758 81.55769 58.10429
#
# Poissons Ratio (x) = 0.22651 0.34481
# Poissons Ratio (y) = 0.22612 -0.00891
# Poissons Ratio (z) = 0.48316 -0.01251
#
# Static dielectric constant tensor:
#      x y z
#    x 3.573140 0.000000 0.341490 
#    y 0.000000 3.515080 0.000000 
#    z 0.341490 0.000000 3.479280 
# 
# 
# High freq. dielectric constant tensor:
#      x y z
#    x 1.749050 0.000000 0.029840 
#    y 0.000000 1.762710 0.000000 
#    z 0.029840 0.000000 1.742970 
# 
# From -- ./inp_files/3812.got.cif
#   From: 2010.03.12/outbox.cif.g09.slc.cpg/sg6_2_cif.got.tgz:3812.got - 2010.03.30 10:24:59.
