data_PCOD8052685
_publ_section_title
;
Structure prediction by ZEFSAII (Michael W. Deem and Ramdas Pophale) SiO2 
 PCOD8052685
Probable space group: P C
;
_chemical_formula_sum "Si O2"
_cell_formula_units_Z 16
_cell_length_a 5.611812
_cell_length_b 28.263293
_cell_length_c 4.879920
_cell_angle_alpha 90.000000
_cell_angle_beta 52.041232
_cell_angle_gamma 90.000000
_cell_volume 610.259737
_symmetry_space_group_name_H-M "P C"
_symmetry_group_IT_number 7
_symmetry_cell_setting 'monoclinic'
loop_
_space_group_symop_operation_xyz
x,y,z
x,-y,1/2+z
loop_
_atom_site_type_symbol
_atom_site_label
_atom_site_fract_x
_atom_site_fract_y
_atom_site_fract_z
Si Si1 0.813190 0.784606 0.180390
Si Si2 0.301642 0.846835 0.641263
Si Si3 0.336343 0.032131 0.603202
Si Si4 0.360996 0.657640 0.039018
Si Si5 0.371625 0.403789 0.022453
Si Si6 0.906212 0.531754 0.098920
Si Si7 0.837980 0.902581 0.574596
Si Si8 0.887703 0.721793 0.619604
O O1 0.492516 0.808841 0.322453
O O2 0.730589 0.757970 0.520659
O O3 0.944020 0.749070 0.860280
O O4 0.085607 0.823028 0.026491
O O5 0.578113 0.874853 0.590729
O O6 0.064068 0.873126 0.611546
O O7 0.658328 0.058332 0.375328
O O8 0.311975 0.986446 0.429343
O O9 0.066461 0.068810 0.713458
O O10 0.259081 0.613538 0.303670
O O11 0.184955 0.704970 0.246982
O O12 0.330198 0.641716 0.745793
O O13 0.706735 0.673865 0.822531
O O14 0.229339 0.450364 0.260807
O O15 0.709065 0.420833 0.712496
O O16 0.853505 0.513861 0.444307
#
# Coordination Sequence:
#
# PCOD8052685 Si02
#       8
#     2   2   2   2   2   2   2   2
#     4  12  26  47  73 106 144 190 240 298 365 437
#     4  12  27  49  76 110 150 196 248 306 370 445
#     4  12  27  50  77 112 151 198 249 308 371 442
#     4  12  24  43  67  98 134 178 230 288 351 423
#     4  12  24  42  66  96 131 176 227 284 348 422
#     4  12  24  42  64  94 131 174 223 282 348 420
#     4  12  27  50  77 112 151 198 249 308 371 442
#     4  12  25  45  70 102 140 184 234 294 358 429
#
# _framework density 26.218343999999998
#
# number of rings (size 3 to 8) (size 9 to 14) (size 15 to 20)
#    0.000    0.000    0.000   10.500    0.000    4.000 
#    0.000    0.000    0.000    0.000    0.000    0.000 
#    0.000    0.000    0.000    0.000    0.000    0.000 
#
# Total GULP energy -198256.091239 kJ/mol
# GULP energy per Si atom -12391.005702 kJ/mol
# Density = 2.615867 g / cm^3
# Si number density = 26.218344 Si / 1000 Ang^3
#
#
#
# Elastic Constant Matrix: (Units=GPa)
#
#
# Indices 1 2 3 4 5 6 
#
# 1 91.5369 23.9878 25.1612 0.0000 -8.2518 0.0000
# 2 23.9878 65.8951 9.4599 0.0000 -3.6938 0.0000
# 3 25.1612 9.4599 105.1760 0.0000 -6.2893 0.0000
# 4 0.0000 0.0000 0.0000 37.7000 0.0000 -33.7254
# 5 -8.2518 -3.6938 -6.2893 0.0000 43.2367 0.0000
# 6 0.0000 0.0000 0.0000 -33.7254 0.0000 3.2632
#
#
#
# Elastic Compliance Matrix: (Units=1/GPa)
#
#
# Indices 1 2 3 4 5 6 
#
# 1 0.012903 -0.004227 -0.002604 0.000000 0.001723 0.000000
# 2 -0.004227 0.016813 -0.000467 0.000000 0.000562 0.000000
# 3 -0.002604 -0.000467 0.010230 0.000000 0.000951 0.000000
# 4 0.000000 0.000000 0.000000 -0.003217 0.000000 -0.033247
# 5 0.001723 0.000562 0.000951 0.000000 0.023644 0.000000
# 6 0.000000 0.000000 0.000000 -0.033247 0.000000 -0.037166
#
#
# Mechanical properties :
#
#
# Convention : Reuss Voigt Hill
#
# Bulk Modulus (GPa) = 39.44773 42.20286 40.82529
# Shear Modulus (GPa) = 108.10186 30.43992 69.27089
#
# Velocity S-wave (km/s) = 6.42813 3.41107 5.14569
# Velocity P-wave (km/s) = 8.37694 5.62543 7.13507
#
# Compressibility (1/GPa) = 0.02535000
#
# Stress axis : x y z
#
# Youngs Moduli (GPa) = 77.50016 59.47809 97.75493
#
# Poissons Ratio (x) = 0.25140 0.25452
# Poissons Ratio (y) = 0.32758 0.04569
# Poissons Ratio (z) = 0.20178 0.02780
#
# Static dielectric constant tensor:
#      x y z
#    x 4.337870 0.000000 -0.250840 
#    y 0.000000 5.191380 0.000000 
#    z -0.250840 0.000000 5.109200 
# 
# 
# High freq. dielectric constant tensor:
#      x y z
#    x 2.026330 0.000000 -0.007220 
#    y 0.000000 2.068370 0.000000 
#    z -0.007220 0.000000 2.082670 
# 
# From -- ./inp_files/452.got.cif
#   From: 2010.03.12/outbox.cif.g09.slc.cpg/sg7_cif.got.tgz:452.got - 2010.03.30 08:40:41.
