data_PCOD8052345
_publ_section_title
;
Structure prediction by ZEFSAII (Michael W. Deem and Ramdas Pophale) SiO2 
 PCOD8052345
Probable space group: P M
;
_chemical_formula_sum "Si O2"
_cell_formula_units_Z 16
_cell_length_a 21.699020
_cell_length_b 8.499031
_cell_length_c 9.239444
_cell_angle_alpha 90.000000
_cell_angle_beta 28.514483
_cell_angle_gamma 90.000000
_cell_volume 813.430401
_symmetry_space_group_name_H-M "P M"
_symmetry_group_IT_number 6
_symmetry_cell_setting 'monoclinic'
loop_
_space_group_symop_operation_xyz
x,y,z
x,-y,z
loop_
_atom_site_type_symbol
_atom_site_label
_atom_site_fract_x
_atom_site_fract_y
_atom_site_fract_z
Si Si1 0.760350 0.185126 0.165700
Si Si2 0.717218 0.684519 0.942507
Si Si3 0.489642 0.183689 0.237878
Si Si4 0.948952 0.686071 0.267460
Si Si5 0.993931 0.314818 0.851270
Si Si6 0.526928 0.817126 0.834338
Si Si7 0.246331 0.817493 0.393821
Si Si8 0.226936 0.680781 0.741251
O O1 0.643599 0.259563 0.502995
O O2 0.773465 0.000000 0.161787
O O3 0.731838 0.220311 0.059021
O O4 0.891730 0.268753 0.940816
O O5 0.734749 0.500000 0.935633
O O6 0.825091 0.751381 0.608610
O O7 0.576473 0.718152 0.168779
O O8 0.338474 0.215591 0.587341
O O9 0.518433 0.000000 0.196122
O O10 0.519752 0.247595 0.013597
O O11 0.941197 0.500000 0.273264
O O12 0.948516 0.750767 0.102948
O O13 0.080091 0.733774 0.085186
O O14 0.014348 0.500000 0.808875
O O15 0.130507 0.231617 0.524844
O O16 0.555070 0.000000 0.786838
O O17 0.390284 0.786866 0.032866
O O18 0.231691 0.702131 0.559519
O O19 0.235180 0.000000 0.464717
O O20 0.251779 0.500000 0.730745
#
# Coordination Sequence:
#
# PCOD8052345 Si02
#       8
#     2   2   2   2   2   2   2   2
#     4  11  22  37  53  74 104 140 175 214 257 304
#     4  11  22  37  53  74 104 140 175 214 257 304
#     4  10  19  34  55  81 106 134 170 212 257 308
#     4   8  17  33  55  79 105 133 169 212 257 304
#     4  10  19  34  55  81 106 134 170 212 257 308
#     4   8  17  33  55  79 105 133 169 212 257 304
#     4   9  16  30  52  80 107 133 165 210 259 306
#     4   9  16  30  52  80 107 133 165 210 259 306
#
# _framework density 19.669782999999999
#
# number of rings (size 3 to 8) (size 9 to 14) (size 15 to 20)
#    0.000    2.500    0.000    4.500    0.000    0.000 
#    0.000   15.000    0.000    0.000    0.000    0.000 
#    0.000    0.000    0.000    0.000    0.000    0.000 
#
# Total GULP energy -198303.227426 kJ/mol
# GULP energy per Si atom -12393.951714 kJ/mol
# Density = 1.962501 g / cm^3
# Si number density = 19.669783 Si / 1000 Ang^3
#
#
#
# Elastic Constant Matrix: (Units=GPa)
#
#
# Indices 1 2 3 4 5 6 
#
# 1 100.3471 8.6997 50.0726 0.0000 -24.5293 0.0000
# 2 8.6997 45.3370 15.0851 0.0000 -4.7045 0.0000
# 3 50.0726 15.0851 58.4103 0.0000 -30.4874 0.0000
# 4 0.0000 0.0000 0.0000 21.4180 0.0000 -5.7906
# 5 -24.5293 -4.7045 -30.4874 0.0000 32.7229 0.0000
# 6 0.0000 0.0000 0.0000 -5.7906 0.0000 30.7385
#
#
#
# Elastic Compliance Matrix: (Units=1/GPa)
#
#
# Indices 1 2 3 4 5 6 
#
# 1 0.017616 0.001956 -0.016678 0.000000 -0.002052 0.000000
# 2 0.001956 0.024701 -0.010584 0.000000 -0.004844 0.000000
# 3 -0.016678 -0.010584 0.052231 0.000000 0.034639 0.000000
# 4 0.000000 0.000000 0.000000 0.049195 0.000000 0.009268
# 5 -0.002052 -0.004844 0.034639 0.000000 0.060598 0.000000
# 6 0.000000 0.000000 0.000000 0.009268 0.000000 0.034278
#
#
# Mechanical properties :
#
#
# Convention : Reuss Voigt Hill
#
# Bulk Modulus (GPa) = 22.76048 39.08989 30.92519
# Shear Modulus (GPa) = 16.45398 25.65835 21.05616
#
# Velocity S-wave (km/s) = 2.89539 3.61564 3.27537
# Velocity P-wave (km/s) = 4.77222 6.11119 5.48274
#
# Compressibility (1/GPa) = 0.04393580
#
# Stress axis : x y z
#
# Youngs Moduli (GPa) = 56.76504 40.48446 19.14565
#
# Poissons Ratio (x) = -0.07919 0.31931
# Poissons Ratio (y) = -0.11103 0.20264
# Poissons Ratio (z) = 0.94673 0.42850
#
# Static dielectric constant tensor:
#      x y z
#    x 3.418090 0.000000 -0.328360 
#    y 0.000000 3.327060 0.000000 
#    z -0.328360 0.000000 3.992750 
# 
# 
# High freq. dielectric constant tensor:
#      x y z
#    x 1.746100 0.000000 -0.036540 
#    y 0.000000 1.752240 0.000000 
#    z -0.036540 0.000000 1.764460 
# 
# From -- ./inp_files/4285.got.cif
#   From: 2010.03.12/outbox.cif.g09.slc.cpg/sg6_3_cif.got.tgz:4285.got - 2010.03.30 10:24:59.
