data_PCOD8052127
_publ_section_title
;
Structure prediction by ZEFSAII (Michael W. Deem and Ramdas Pophale) SiO2 
 PCOD8052127
Probable space group: C 2
;
_chemical_formula_sum "Si O2"
_cell_formula_units_Z 30
_cell_length_a 26.499692
_cell_length_b 8.661707
_cell_length_c 8.155491
_cell_angle_alpha 90.000000
_cell_angle_beta 138.473159
_cell_angle_gamma 90.000000
_cell_volume 1241.048777
_symmetry_space_group_name_H-M "C 2"
_symmetry_group_IT_number 5
_symmetry_cell_setting 'monoclinic'
loop_
_space_group_symop_operation_xyz
x,y,z
-x,y,-z
1/2+x,1/2+y,z
1/2-x,1/2+y,-z
loop_
_atom_site_type_symbol
_atom_site_label
_atom_site_fract_x
_atom_site_fract_y
_atom_site_fract_z
Si Si1 0.000000 0.506551 0.000000
Si Si2 0.714692 0.806312 0.241915
Si Si3 0.957530 0.719119 0.608507
Si Si4 0.342421 0.058124 0.084875
Si Si5 0.755665 0.006907 0.863757
Si Si6 0.388136 0.341941 0.030070
Si Si7 0.868086 0.950713 0.617073
Si Si8 0.141662 0.292035 0.401357
O O1 0.003294 0.611986 0.847166
O O2 0.925872 0.402941 0.813436
O O3 0.758284 0.663147 0.268573
O O4 0.777171 0.941273 0.409577
O O5 0.688200 0.750720 0.352649
O O6 0.646793 0.886858 0.969148
O O7 0.911522 0.606842 0.373518
O O8 0.900671 0.836037 0.559433
O O9 0.027024 0.813364 0.690596
O O10 0.262010 0.047299 0.989716
O O11 0.338369 0.183575 0.927415
O O12 0.843695 0.959818 0.044498
O O13 0.695546 0.875228 0.664549
O O14 0.398944 0.403783 0.872359
O O15 0.890245 0.125438 0.617188
#
# Coordination Sequence:
#
# PCOD8052127 Si02
#       8
#     2   4   4   4   4   4   4   4
#     4  12  24  42  76 100 148 200 258 320 382 468
#     4  12  24  44  74 106 148 197 253 319 386 464
#     4  12  26  50  75 112 153 208 258 312 401 466
#     4  12  27  46  72 109 153 201 251 315 388 460
#     4  12  25  47  72 114 148 196 258 318 390 452
#     4  12  25  46  78 106 155 198 255 316 382 467
#     4  12  25  45  78 110 147 198 265 321 389 458
#     4  12  25  43  73 110 148 193 261 331 385 462
#
# _framework density 24.173103000000001
#
# number of rings (size 3 to 8) (size 9 to 14) (size 15 to 20)
#    0.000    0.000    6.667    2.800    3.733    0.000 
#    0.000    0.000    2.933    0.000    0.000    0.000 
#    0.000    0.000    0.000    0.000    0.000    0.000 
#
# Total GULP energy -185913.443434 kJ/mol
# GULP energy per Si atom -12394.229562 kJ/mol
# Density = 2.411808 g / cm^3
# Si number density = 24.173103 Si / 1000 Ang^3
#
#
#
# Elastic Constant Matrix: (Units=GPa)
#
#
# Indices 1 2 3 4 5 6 
#
# 1 64.6502 14.9953 6.3593 0.0000 15.0948 0.0000
# 2 14.9953 132.2191 38.7072 0.0000 2.5455 0.0000
# 3 6.3593 38.7072 84.8473 0.0000 9.4777 0.0000
# 4 0.0000 0.0000 0.0000 35.8354 0.0000 4.6044
# 5 15.0948 2.5455 9.4777 0.0000 35.6725 0.0000
# 6 0.0000 0.0000 0.0000 4.6044 0.0000 48.1298
#
#
#
# Elastic Compliance Matrix: (Units=1/GPa)
#
#
# Indices 1 2 3 4 5 6 
#
# 1 0.017619 -0.001975 0.000410 0.000000 -0.007423 0.000000
# 2 -0.001975 0.008957 -0.004081 0.000000 0.001281 0.000000
# 3 0.000410 -0.004081 0.014020 0.000000 -0.003607 0.000000
# 4 0.000000 0.000000 0.000000 0.028253 0.000000 -0.002703
# 5 -0.007423 0.001281 -0.003607 0.000000 0.032041 0.000000
# 6 0.000000 0.000000 0.000000 -0.002703 0.000000 0.021036
#
#
# Mechanical properties :
#
#
# Convention : Reuss Voigt Hill
#
# Bulk Modulus (GPa) = 34.12666 44.64893 39.38779
# Shear Modulus (GPa) = 34.96824 38.70455 36.83639
#
# Velocity S-wave (km/s) = 3.80751 4.00577 3.90790
# Velocity P-wave (km/s) = 5.78600 6.31708 6.05736
#
# Compressibility (1/GPa) = 0.02930260
#
# Stress axis : x y z
#
# Youngs Moduli (GPa) = 56.75712 111.63965 71.32657
#
# Poissons Ratio (x) = 0.22052 -0.02923
# Poissons Ratio (y) = 0.11211 0.29111
# Poissons Ratio (z) = -0.02326 0.45565
#
# Static dielectric constant tensor:
#      x y z
#    x 4.591720 0.000000 -0.027050 
#    y 0.000000 4.579360 0.000000 
#    z -0.027050 0.000000 4.283120 
# 
# 
# High freq. dielectric constant tensor:
#      x y z
#    x 1.969650 0.000000 -0.004390 
#    y 0.000000 1.967220 0.000000 
#    z -0.004390 0.000000 1.951280 
# 
# From -- ./inp_files/31807.got.cif
#   From: 2010.03.12/outbox.cif.g09.slc.cpg/sg5_16_cif.got.tgz:31807.got - 2010.03.31 09:47:26.
