data_PCOD8052496
_publ_section_title
;
Structure prediction by ZEFSAII (Michael W. Deem and Ramdas Pophale) SiO2 
 PCOD8052496
Probable space group: P M
;
_chemical_formula_sum "Si O2"
_cell_formula_units_Z 16
_cell_length_a 18.874927
_cell_length_b 8.594873
_cell_length_c 13.728638
_cell_angle_alpha 90.000000
_cell_angle_beta 159.866935
_cell_angle_gamma 90.000000
_cell_volume 766.593373
_symmetry_space_group_name_H-M "P M"
_symmetry_group_IT_number 6
_symmetry_cell_setting 'monoclinic'
loop_
_space_group_symop_operation_xyz
x,y,z
x,-y,z
loop_
_atom_site_type_symbol
_atom_site_label
_atom_site_fract_x
_atom_site_fract_y
_atom_site_fract_z
Si Si1 0.716250 0.318800 0.985010
Si Si2 0.279190 0.818662 0.931583
Si Si3 0.874901 0.819874 0.527493
Si Si4 0.155991 0.181023 0.556300
Si Si5 0.986035 0.678515 0.871413
Si Si6 0.590167 0.677660 0.473032
Si Si7 0.419965 0.820127 0.445920
Si Si8 0.539353 0.319209 0.964587
O O1 0.677684 0.500000 0.915292
O O2 0.583075 0.218963 0.738982
O O3 0.653914 0.269692 0.013569
O O4 0.953862 0.280588 0.274072
O O5 0.248465 0.772287 0.780188
O O6 0.076265 0.771043 0.728249
O O7 0.330275 0.000000 0.009677
O O8 0.467801 0.719360 0.216610
O O9 0.913343 0.787583 0.689911
O O10 0.820197 0.000000 0.441844
O O11 0.683841 0.720611 0.242356
O O12 0.326335 0.224007 0.695717
O O13 0.098557 0.000000 0.477372
O O14 0.981791 0.500000 0.830782
O O15 0.832181 0.703500 0.763940
O O16 0.214252 0.722085 0.200278
O O17 0.545475 0.500000 0.444775
O O18 0.517679 0.786524 0.466864
O O19 0.360696 0.000000 0.373364
O O20 0.485257 0.500000 0.896338
#
# Coordination Sequence:
#
# PCOD8052496 Si02
#       8
#     2   2   2   2   2   2   2   2
#     4  11  25  45  67  90 123 165 210 262 312 368
#     4  10  21  37  61  94 130 167 205 250 309 371
#     4  11  21  37  63  95 131 167 205 254 311 372
#     4  11  23  41  66  95 129 166 208 258 309 370
#     4  11  24  42  65  95 128 165 208 255 311 373
#     4  11  24  41  65  94 128 166 206 256 311 372
#     4  12  26  44  67  92 122 163 211 262 312 369
#     4  11  24  41  64  95 129 167 209 255 311 373
#
# _framework density 20.871562000000001
#
# number of rings (size 3 to 8) (size 9 to 14) (size 15 to 20)
#    0.000    1.000    2.500    4.125    0.000    8.000 
#    0.000    1.250    0.000    0.000    0.000    0.000 
#    0.000    0.000    0.000    0.000    0.000    0.000 
#
# Total GULP energy -198530.863105 kJ/mol
# GULP energy per Si atom -12408.178944 kJ/mol
# Density = 2.082406 g / cm^3
# Si number density = 20.871562 Si / 1000 Ang^3
#
#
#
# Elastic Constant Matrix: (Units=GPa)
#
#
# Indices 1 2 3 4 5 6 
#
# 1 46.6325 26.7188 50.6752 0.0000 15.8233 0.0000
# 2 26.7188 66.1818 21.1123 0.0000 7.0468 0.0000
# 3 50.6752 21.1123 111.5294 0.0000 11.0465 0.0000
# 4 0.0000 0.0000 0.0000 36.9852 0.0000 -3.1699
# 5 15.8233 7.0468 11.0465 0.0000 37.7601 0.0000
# 6 0.0000 0.0000 0.0000 -3.1699 0.0000 25.8737
#
#
#
# Elastic Compliance Matrix: (Units=1/GPa)
#
#
# Indices 1 2 3 4 5 6 
#
# 1 0.060849 -0.015496 -0.023146 0.000000 -0.015836 0.000000
# 2 -0.015496 0.020202 0.003035 0.000000 0.001836 0.000000
# 3 -0.023146 0.003035 0.018541 0.000000 0.003709 0.000000
# 4 0.000000 0.000000 0.000000 0.027325 0.000000 0.003348
# 5 -0.015836 0.001836 0.003709 0.000000 0.031691 0.000000
# 6 0.000000 0.000000 0.000000 0.003348 0.000000 0.039059
#
#
# Mechanical properties :
#
#
# Convention : Reuss Voigt Hill
#
# Bulk Modulus (GPa) = 35.23841 46.81738 41.02789
# Shear Modulus (GPa) = 17.96359 28.51293 23.23826
#
# Velocity S-wave (km/s) = 2.93691 3.70011 3.34038
# Velocity P-wave (km/s) = 5.33110 6.38234 5.88026
#
# Compressibility (1/GPa) = 0.02837813
#
# Stress axis : x y z
#
# Youngs Moduli (GPa) = 16.43424 49.49924 53.93426
#
# Poissons Ratio (x) = 0.76704 1.24835
# Poissons Ratio (y) = 0.25466 -0.16368
# Poissons Ratio (z) = 0.38038 -0.15022
#
# Static dielectric constant tensor:
#      x y z
#    x 3.805130 0.000000 0.132240 
#    y 0.000000 3.714860 0.000000 
#    z 0.132240 0.000000 3.787180 
# 
# 
# High freq. dielectric constant tensor:
#      x y z
#    x 1.819070 0.000000 0.012940 
#    y 0.000000 1.823050 0.000000 
#    z 0.012940 0.000000 1.822740 
# 
# From -- ./inp_files/5678.got.cif
#   From: 2010.03.12/outbox.cif.g09.slc.cpg/sg6_3_cif.got.tgz:5678.got - 2010.03.30 10:24:59.
