data_PCOD8052331
_publ_section_title
;
Structure prediction by ZEFSAII (Michael W. Deem and Ramdas Pophale) SiO2 
 PCOD8052331
Probable space group: P M
;
_chemical_formula_sum "Si O2"
_cell_formula_units_Z 16
_cell_length_a 12.482119
_cell_length_b 8.878392
_cell_length_c 12.541521
_cell_angle_alpha 90.000000
_cell_angle_beta 143.573394
_cell_angle_gamma 90.000000
_cell_volume 825.291961
_symmetry_space_group_name_H-M "P M"
_symmetry_group_IT_number 6
_symmetry_cell_setting 'monoclinic'
loop_
_space_group_symop_operation_xyz
x,y,z
x,-y,z
loop_
_atom_site_type_symbol
_atom_site_label
_atom_site_fract_x
_atom_site_fract_y
_atom_site_fract_z
Si Si1 0.773650 0.674082 0.325320
Si Si2 0.882769 0.323081 0.180773
Si Si3 0.286050 0.678237 0.446917
Si Si4 0.401654 0.180028 0.319415
Si Si5 0.790412 0.178216 0.555679
Si Si6 0.520439 0.825290 0.818045
Si Si7 0.425931 0.828141 0.978555
Si Si8 0.150616 0.824745 0.933175
O O1 0.794712 0.500000 0.368209
O O2 0.881886 0.719930 0.305248
O O3 0.847679 0.764765 0.485081
O O4 0.565258 0.713102 0.141625
O O5 0.846917 0.500000 0.136507
O O6 0.077654 0.272512 0.293667
O O7 0.725574 0.234932 0.991994
O O8 0.302687 0.500000 0.454794
O O9 0.357655 0.751194 0.397209
O O10 0.410737 0.734990 0.642242
O O11 0.598472 0.239588 0.441476
O O12 0.399047 0.000000 0.324647
O O13 0.260501 0.247492 0.119642
O O14 0.945024 0.235321 0.762229
O O15 0.789209 0.000000 0.548811
O O16 0.530348 0.000000 0.793780
O O17 0.410355 0.800815 0.839765
O O18 0.489816 0.000000 0.052653
O O19 0.238846 0.793152 0.887971
O O20 0.150979 0.000000 0.957706
#
# Coordination Sequence:
#
# PCOD8052331 Si02
#       8
#     2   2   2   2   2   2   2   2
#     4  10  19  33  55  84 118 151 188 232 283 344
#     4   9  21  40  58  82 119 161 196 236 292 347
#     4  11  24  41  61  83 117 161 201 239 290 351
#     4  10  21  39  58  81 115 151 197 244 285 336
#     4  10  20  35  58  84 114 151 185 232 292 341
#     4  10  21  36  60  92 119 149 195 245 291 345
#     4   9  17  34  57  84 117 149 185 231 286 341
#     4   9  18  34  57  84 111 145 185 231 285 337
#
# _framework density 19.387079
#
# number of rings (size 3 to 8) (size 9 to 14) (size 15 to 20)
#    0.000    2.250    1.250    1.125    1.750    3.500 
#    0.000    2.500    0.000    0.000    0.000    0.000 
#    0.000    0.000    0.000    0.000    0.000    0.000 
#
# Total GULP energy -198357.461641 kJ/mol
# GULP energy per Si atom -12397.341353 kJ/mol
# Density = 1.934295 g / cm^3
# Si number density = 19.387079 Si / 1000 Ang^3
#
#
#
# Elastic Constant Matrix: (Units=GPa)
#
#
# Indices 1 2 3 4 5 6 
#
# 1 87.2899 23.8993 60.6677 0.0000 -5.6822 0.0000
# 2 23.8993 23.7943 22.3748 0.0000 3.6635 0.0000
# 3 60.6677 22.3748 138.1842 0.0000 0.2833 0.0000
# 4 0.0000 0.0000 0.0000 23.4969 0.0000 -3.8225
# 5 -5.6822 3.6635 0.2833 0.0000 27.0566 0.0000
# 6 0.0000 0.0000 0.0000 -3.8225 0.0000 24.3371
#
#
#
# Elastic Compliance Matrix: (Units=1/GPa)
#
#
# Indices 1 2 3 4 5 6 
#
# 1 0.020745 -0.015650 -0.006587 0.000000 0.006545 0.000000
# 2 -0.015650 0.062600 -0.003241 0.000000 -0.011729 0.000000
# 3 -0.006587 -0.003241 0.010656 0.000000 -0.001056 0.000000
# 4 0.000000 0.000000 0.000000 0.043675 0.000000 0.006860
# 5 0.006545 -0.011729 -0.001056 0.000000 0.039933 0.000000
# 6 0.000000 0.000000 0.000000 0.006860 0.000000 0.042167
#
#
# Mechanical properties :
#
#
# Convention : Reuss Voigt Hill
#
# Bulk Modulus (GPa) = 23.23222 51.46134 37.34678
# Shear Modulus (GPa) = 17.53888 24.46654 21.00271
#
# Velocity S-wave (km/s) = 3.01103 3.55632 3.29498
# Velocity P-wave (km/s) = 4.90895 6.59280 5.81218
#
# Compressibility (1/GPa) = 0.04304368
#
# Stress axis : x y z
#
# Youngs Moduli (GPa) = 48.20383 15.97446 93.84633
#
# Poissons Ratio (x) = 0.25000 0.61819
# Poissons Ratio (y) = 0.75440 0.30417
# Poissons Ratio (z) = 0.31753 0.05178
#
# Static dielectric constant tensor:
#      x y z
#    x 3.639150 0.000000 0.046900 
#    y 0.000000 3.381620 0.000000 
#    z 0.046900 0.000000 3.751750 
# 
# 
# High freq. dielectric constant tensor:
#      x y z
#    x 1.754780 0.000000 0.000080 
#    y 0.000000 1.736510 0.000000 
#    z 0.000080 0.000000 1.760790 
# 
# From -- ./inp_files/4170.got.cif
#   From: 2010.03.12/outbox.cif.g09.slc.cpg/sg6_3_cif.got.tgz:4170.got - 2010.03.30 10:24:59.
