data_PCOD8052630
_publ_section_title
;
Structure prediction by ZEFSAII (Michael W. Deem and Ramdas Pophale) SiO2 
 PCOD8052630
Probable space group: P C
;
_chemical_formula_sum "Si O2"
_cell_formula_units_Z 12
_cell_length_a 15.947389
_cell_length_b 7.736920
_cell_length_c 5.023090
_cell_angle_alpha 90.000000
_cell_angle_beta 71.640412
_cell_angle_gamma 90.000000
_cell_volume 588.220153
_symmetry_space_group_name_H-M "P C"
_symmetry_group_IT_number 7
_symmetry_cell_setting 'monoclinic'
loop_
_space_group_symop_operation_xyz
x,y,z
x,-y,1/2+z
loop_
_atom_site_type_symbol
_atom_site_label
_atom_site_fract_x
_atom_site_fract_y
_atom_site_fract_z
Si Si1 0.871680 0.383915 0.339920
Si Si2 0.721092 0.117047 0.417249
Si Si3 0.213919 0.108844 0.941631
Si Si4 0.564197 0.382953 0.574144
Si Si5 0.071370 0.391155 0.084179
Si Si6 0.413609 0.116085 0.797993
O O1 0.850594 0.468650 0.645055
O O2 0.813691 0.214105 0.358805
O O3 0.972577 0.317756 0.222215
O O4 0.642644 0.250000 0.548045
O O5 0.714199 0.958829 0.628633
O O6 0.142645 0.250000 0.092982
O O7 0.199906 0.946427 0.150959
O O8 0.312712 0.182244 0.882080
O O9 0.571090 0.541172 0.771741
O O10 0.471597 0.714105 0.200900
O O11 0.085383 0.553572 0.265483
O O12 0.434695 0.968650 0.560955
#
# Coordination Sequence:
#
# PCOD8052630 Si02
#       6
#     2   2   2   2   2   2
#     4  10  21  39  58  81 113 148 184 228 276 324
#     4  12  24  39  60  85 112 146 184 228 276 330
#     4  10  21  36  57  82 113 148 184 228 276 324
#     4  12  24  39  60  85 112 146 184 228 276 330
#     4  10  21  36  57  82 113 148 184 228 276 324
#     4  10  21  39  58  81 113 148 184 228 276 324
#
# _framework density 20.400523
#
# number of rings (size 3 to 8) (size 9 to 14) (size 15 to 20)
#    0.000    1.333    0.000    6.000    0.000    2.667 
#    0.000    0.000    0.000    0.000    0.000    0.000 
#    0.000    0.000    0.000    0.000    0.000    0.000 
#
# Total GULP energy -148885.655520 kJ/mol
# GULP energy per Si atom -12407.137960 kJ/mol
# Density = 2.035409 g / cm^3
# Si number density = 20.400523 Si / 1000 Ang^3
#
#
#
# Elastic Constant Matrix: (Units=GPa)
#
#
# Indices 1 2 3 4 5 6 
#
# 1 121.9062 62.2118 27.0696 0.0000 -13.4954 0.0000
# 2 62.2118 78.8342 11.4841 0.0000 -15.7270 0.0000
# 3 27.0696 11.4841 77.0962 0.0000 -0.3970 0.0000
# 4 0.0000 0.0000 0.0000 32.3607 0.0000 -3.5447
# 5 -13.4954 -15.7270 -0.3970 0.0000 29.7146 0.0000
# 6 0.0000 0.0000 0.0000 -3.5447 0.0000 43.7913
#
#
#
# Elastic Compliance Matrix: (Units=1/GPa)
#
#
# Indices 1 2 3 4 5 6 
#
# 1 0.014615 -0.010853 -0.003510 0.000000 0.000847 0.000000
# 2 -0.010853 0.022581 0.000483 0.000000 0.007029 0.000000
# 3 -0.003510 0.000483 0.014126 0.000000 -0.001150 0.000000
# 4 0.000000 0.000000 0.000000 0.031178 0.000000 0.002524
# 5 0.000847 0.007029 -0.001150 0.000000 0.037743 0.000000
# 6 0.000000 0.000000 0.000000 0.002524 0.000000 0.023040
#
#
# Mechanical properties :
#
#
# Convention : Reuss Voigt Hill
#
# Bulk Modulus (GPa) = 42.44293 53.26306 47.85299
# Shear Modulus (GPa) = 27.94912 32.97807 30.46359
#
# Velocity S-wave (km/s) = 3.70539 4.02497 3.86848
# Velocity P-wave (km/s) = 6.25752 6.91129 6.59251
#
# Compressibility (1/GPa) = 0.02356105
#
# Stress axis : x y z
#
# Youngs Moduli (GPa) = 68.42389 44.28447 70.79392
#
# Poissons Ratio (x) = 0.48062 0.24852
# Poissons Ratio (y) = 0.74260 -0.03421
# Poissons Ratio (z) = 0.24020 -0.02140
#
# Static dielectric constant tensor:
#      x y z
#    x 3.884340 0.000000 -0.012480 
#    y 0.000000 3.535020 0.000000 
#    z -0.012480 0.000000 3.844060 
# 
# 
# High freq. dielectric constant tensor:
#      x y z
#    x 1.812090 0.000000 0.001650 
#    y 0.000000 1.781330 0.000000 
#    z 0.001650 0.000000 1.817410 
# 
# From -- ./inp_files/1196.got.cif
#   From: 2010.03.12/outbox.cif.g09.slc.cpg/sg7_cif.got.tgz:1196.got - 2010.03.30 08:40:41.
