data_PCOD8052019
_publ_section_title
;
Structure prediction by ZEFSAII (Michael W. Deem and Ramdas Pophale) SiO2 
 PCOD8052019
Probable space group: C 2
;
_chemical_formula_sum "Si O2"
_cell_formula_units_Z 22
_cell_length_a 25.795104
_cell_length_b 6.834532
_cell_length_c 10.549091
_cell_angle_alpha 90.000000
_cell_angle_beta 151.398961
_cell_angle_gamma 90.000000
_cell_volume 890.290190
_symmetry_space_group_name_H-M "C 2"
_symmetry_group_IT_number 5
_symmetry_cell_setting 'monoclinic'
loop_
_space_group_symop_operation_xyz
x,y,z
-x,y,-z
1/2+x,1/2+y,z
1/2-x,1/2+y,-z
loop_
_atom_site_type_symbol
_atom_site_label
_atom_site_fract_x
_atom_site_fract_y
_atom_site_fract_z
Si Si1 0.500000 0.076150 0.500000
Si Si2 0.854899 0.700594 0.739754
Si Si3 0.856851 0.279432 0.084692
Si Si4 0.125087 0.266832 0.164206
Si Si5 0.478388 0.439350 0.791676
Si Si6 0.861769 0.925503 0.284654
O O1 0.402905 0.209381 0.340835
O O2 0.459040 0.927469 0.302728
O O3 0.902766 0.483827 0.850703
O O4 0.724154 0.688064 0.465833
O O5 0.895474 0.815792 0.700748
O O6 0.907659 0.816584 0.973317
O O7 0.881114 0.076533 0.211210
O O8 0.827584 0.241014 0.876672
O O9 0.763640 0.402022 0.954781
O O10 0.013420 0.143958 0.933561
O O11 0.429045 0.497298 0.551379
#
# Coordination Sequence:
#
# PCOD8052019 Si02
#       6
#     2   4   4   4   4   4
#     4  12  24  46  72 106 154 198 250 302 386 446
#     4  11  25  45  74 111 145 199 253 305 379 449
#     4  12  26  47  76 111 153 200 252 313 381 454
#     4  12  24  49  75 106 156 196 248 317 377 446
#     4  11  25  47  73 109 147 196 255 310 375 447
#     4  12  25  48  76 111 150 202 257 309 381 456
#
# _framework density 24.711047000000001
#
# number of rings (size 3 to 8) (size 9 to 14) (size 15 to 20)
#    0.000    0.364    5.455    3.818    0.000    2.909 
#    0.000    5.455    0.000    0.000    0.000    0.000 
#    0.000    0.000    0.000    0.000    0.000    0.000 
#
# Total GULP energy -136321.328394 kJ/mol
# GULP energy per Si atom -12392.848036 kJ/mol
# Density = 2.465480 g / cm^3
# Si number density = 24.711047 Si / 1000 Ang^3
#
#
#
# Elastic Constant Matrix: (Units=GPa)
#
#
# Indices 1 2 3 4 5 6 
#
# 1 83.1012 31.8047 7.9300 0.0000 -9.1905 0.0000
# 2 31.8047 170.0883 43.9018 0.0000 -14.5743 0.0000
# 3 7.9300 43.9018 117.6238 0.0000 -10.5639 0.0000
# 4 0.0000 0.0000 0.0000 41.0981 0.0000 5.3606
# 5 -9.1905 -14.5743 -10.5639 0.0000 22.9135 0.0000
# 6 0.0000 0.0000 0.0000 5.3606 0.0000 40.9396
#
#
#
# Elastic Compliance Matrix: (Units=1/GPa)
#
#
# Indices 1 2 3 4 5 6 
#
# 1 0.013303 -0.002215 0.000295 0.000000 0.004062 0.000000
# 2 -0.002215 0.007100 -0.002269 0.000000 0.002582 0.000000
# 3 0.000295 -0.002269 0.009607 0.000000 0.003105 0.000000
# 4 0.000000 0.000000 0.000000 0.024755 0.000000 -0.003241
# 5 0.004062 0.002582 0.003105 0.000000 0.048345 0.000000
# 6 0.000000 0.000000 0.000000 -0.003241 0.000000 0.024851
#
#
# Mechanical properties :
#
#
# Convention : Reuss Voigt Hill
#
# Bulk Modulus (GPa) = 46.22889 59.78735 53.00812
# Shear Modulus (GPa) = 34.83091 40.13535 37.48313
#
# Velocity S-wave (km/s) = 3.75844 4.03449 3.89891
# Velocity P-wave (km/s) = 6.13049 6.77864 6.46269
#
# Compressibility (1/GPa) = 0.02163150
#
# Stress axis : x y z
#
# Youngs Moduli (GPa) = 75.17345 140.83689 104.08565
#
# Poissons Ratio (x) = 0.31202 -0.03070
# Poissons Ratio (y) = 0.16654 0.23616
# Poissons Ratio (z) = -0.02217 0.31955
#
# Static dielectric constant tensor:
#      x y z
#    x 4.096350 0.000000 -0.001080 
#    y 0.000000 4.567150 0.000000 
#    z -0.001080 0.000000 4.694980 
# 
# 
# High freq. dielectric constant tensor:
#      x y z
#    x 1.962210 0.000000 0.004600 
#    y 0.000000 2.001340 0.000000 
#    z 0.004600 0.000000 2.002860 
# 
# From -- ./inp_files/47007.got.cif
#   From: 2010.03.12/outbox.cif.g09.slc.cpg/sg5_24_cif.got.tgz:47007.got - 2010.03.31 09:47:26.
