data_PCOD8052568
_publ_section_title
;
Structure prediction by ZEFSAII (Michael W. Deem and Ramdas Pophale) SiO2 
 PCOD8052568
Probable space group: P M
;
_chemical_formula_sum "Si O2"
_cell_formula_units_Z 16
_cell_length_a 11.528935
_cell_length_b 9.149918
_cell_length_c 11.525497
_cell_angle_alpha 90.000000
_cell_angle_beta 130.345240
_cell_angle_gamma 90.000000
_cell_volume 926.639316
_symmetry_space_group_name_H-M "P M"
_symmetry_group_IT_number 6
_symmetry_cell_setting 'monoclinic'
loop_
_space_group_symop_operation_xyz
x,y,z
x,-y,z
loop_
_atom_site_type_symbol
_atom_site_label
_atom_site_fract_x
_atom_site_fract_y
_atom_site_fract_z
Si Si1 0.042790 0.670981 0.375000
Si Si2 0.986037 0.327658 0.820401
Si Si3 0.860418 0.838444 0.939120
Si Si4 0.742833 0.171850 0.097426
Si Si5 0.600856 0.672650 0.198564
Si Si6 0.184083 0.834978 0.273715
Si Si7 0.906330 0.329385 0.518721
Si Si8 0.297888 0.328725 0.138085
O O1 0.055562 0.500000 0.354152
O O2 0.178930 0.755027 0.396321
O O3 0.881546 0.729405 0.228960
O O4 0.042954 0.699933 0.514408
O O5 0.974837 0.500000 0.809911
O O6 0.859876 0.272470 0.831093
O O7 0.951160 0.257971 0.671404
O O8 0.153864 0.276668 0.968198
O O9 0.839967 0.000000 0.873500
O O10 0.726731 0.805329 0.947016
O O11 0.016856 0.828173 0.111520
O O12 0.599031 0.237257 0.075271
O O13 0.768922 0.000000 0.141607
O O14 0.609855 0.500000 0.178251
O O15 0.743397 0.729572 0.368041
O O16 0.448249 0.715308 0.166571
O O17 0.300691 0.753298 0.263506
O O18 0.240720 0.000000 0.329131
O O19 0.886104 0.500000 0.525323
O O20 0.289627 0.500000 0.158752
#
# Coordination Sequence:
#
# PCOD8052568 Si02
#       8
#     2   2   2   2   2   2   2   2
#     4   9  15  25  42  62  85 112 141 174 212 250
#     4   9  16  27  44  64  84 108 139 172 206 248
#     4   8  15  26  39  59  85 109 134 170 211 245
#     4   9  16  26  41  62  86 110 140 177 213 248
#     4   9  17  29  44  63  87 112 139 173 212 252
#     4   9  16  26  41  62  87 111 139 176 213 248
#     4   8  15  27  43  63  86 110 135 169 212 251
#     4   9  17  28  44  65  86 110 141 175 209 248
#
# _framework density 17.266696
#
# number of rings (size 3 to 8) (size 9 to 14) (size 15 to 20)
#    0.000    3.250    0.000    2.625    0.000    4.000 
#    0.000    3.125    0.000    1.500    0.000    8.750 
#    0.000    0.000    0.000    0.000    0.000    0.000 
#
# Total GULP energy -198237.577403 kJ/mol
# GULP energy per Si atom -12389.848588 kJ/mol
# Density = 1.722740 g / cm^3
# Si number density = 17.266696 Si / 1000 Ang^3
#
#
#
# Elastic Constant Matrix: (Units=GPa)
#
#
# Indices 1 2 3 4 5 6 
#
# 1 155.0032 54.0400 48.6276 0.0000 -31.0953 0.0000
# 2 54.0400 61.8235 23.7167 0.0000 -15.3480 0.0000
# 3 48.6276 23.7167 53.9482 0.0000 -22.5630 0.0000
# 4 0.0000 0.0000 0.0000 8.4165 0.0000 -4.7906
# 5 -31.0953 -15.3480 -22.5630 0.0000 26.4169 0.0000
# 6 0.0000 0.0000 0.0000 -4.7906 0.0000 26.2986
#
#
#
# Elastic Compliance Matrix: (Units=1/GPa)
#
#
# Indices 1 2 3 4 5 6 
#
# 1 0.011473 -0.006751 -0.005236 0.000000 0.005110 0.000000
# 2 -0.006751 0.024109 -0.003079 0.000000 0.003431 0.000000
# 3 -0.005236 -0.003079 0.033112 0.000000 0.020329 0.000000
# 4 0.000000 0.000000 0.000000 0.132558 0.000000 0.024147
# 5 0.005110 0.003431 0.020329 0.000000 0.063226 0.000000
# 6 0.000000 0.000000 0.000000 0.024147 0.000000 0.042423
#
#
# Mechanical properties :
#
#
# Convention : Reuss Voigt Hill
#
# Bulk Modulus (GPa) = 25.93244 58.17151 42.05197
# Shear Modulus (GPa) = 14.29029 21.85244 18.07136
#
# Velocity S-wave (km/s) = 2.87996 3.56136 3.23863
# Velocity P-wave (km/s) = 5.10982 7.11858 6.19615
#
# Compressibility (1/GPa) = 0.03856174
#
# Stress axis : x y z
#
# Youngs Moduli (GPa) = 87.16011 41.47810 30.20066
#
# Poissons Ratio (x) = 0.28003 0.15814
# Poissons Ratio (y) = 0.58844 0.09297
# Poissons Ratio (z) = 0.45640 0.12769
#
# Static dielectric constant tensor:
#      x y z
#    x 3.621050 0.000000 -0.452460 
#    y 0.000000 3.169810 0.000000 
#    z -0.452460 0.000000 3.026330 
# 
# 
# High freq. dielectric constant tensor:
#      x y z
#    x 1.675800 0.000000 -0.036510 
#    y 0.000000 1.659060 0.000000 
#    z -0.036510 0.000000 1.611150 
# 
# From -- ./inp_files/4891.got.cif
#   From: 2010.03.12/outbox.cif.g09.slc.cpg/sg6_3_cif.got.tgz:4891.got - 2010.03.30 10:24:59.
