data_PCOD8052827
_publ_section_title
;
Structure prediction by ZEFSAII (Michael W. Deem and Ramdas Pophale) SiO2 
 PCOD8052827
Probable space group: C M
;
_chemical_formula_sum "Si O2"
_cell_formula_units_Z 32
_cell_length_a 14.328580
_cell_length_b 18.091838
_cell_length_c 13.827762
_cell_angle_alpha 90.000000
_cell_angle_beta 149.429645
_cell_angle_gamma 90.000000
_cell_volume 1823.100780
_symmetry_space_group_name_H-M "C M"
_symmetry_group_IT_number 8
_symmetry_cell_setting 'monoclinic'
loop_
_space_group_symop_operation_xyz
x,y,z
x,-y,z
1/2+x,1/2+y,z
1/2+x,1/2-y,z
loop_
_atom_site_type_symbol
_atom_site_label
_atom_site_fract_x
_atom_site_fract_y
_atom_site_fract_z
Si Si1 0.145450 0.726217 0.147060
Si Si2 0.170347 0.415327 0.792521
Si Si3 0.000204 0.695262 0.500618
Si Si4 0.158850 0.310811 0.950992
Si Si5 0.364930 0.080386 0.224621
Si Si6 0.478551 0.622338 0.922131
Si Si7 0.292986 0.279266 0.623320
Si Si8 0.478718 0.804972 0.191275
O O1 0.335878 0.747688 0.369706
O O2 0.020903 0.686942 0.115651
O O3 0.176261 0.672885 0.081796
O O4 0.047774 0.799333 0.022587
O O5 0.093318 0.500000 0.725420
O O6 0.196700 0.387056 0.926372
O O7 0.355725 0.416298 0.894680
O O8 0.034085 0.353361 0.626604
O O9 0.958897 0.635926 0.381316
O O10 0.174408 0.742140 0.615026
O O11 0.955717 0.278679 0.746842
O O12 0.317801 0.253832 0.064160
O O13 0.401504 0.114774 0.151738
O O14 0.457769 0.000000 0.315102
O O15 0.149234 0.069804 0.052665
O O16 0.374019 0.639641 0.727142
O O17 0.163312 0.282403 0.413886
#
# Coordination Sequence:
#
# PCOD8052827 Si02
#       8
#     4   4   4   4   4   4   4   4
#     4  10  18  34  54  79 101 138 183 225 255 308
#     4  11  21  32  50  81 114 146 172 213 279 332
#     4   9  18  33  54  80 108 136 176 223 276 315
#     4  11  20  35  54  77 108 139 185 221 258 317
#     4  10  18  32  52  80 113 137 170 221 274 324
#     4   9  17  31  52  77 108 134 172 217 269 316
#     4   9  17  32  53  79 103 133 173 224 268 304
#     4  11  19  33  55  77 105 137 181 220 267 312
#
# _framework density 17.552513000000001
#
# number of rings (size 3 to 8) (size 9 to 14) (size 15 to 20)
#    0.000    2.000    6.250    1.500    0.000    0.000 
#    0.000    1.250    0.000    0.000    0.000    0.000 
#    0.000    0.000    0.000    0.000    0.000    0.000 
#
# Total GULP energy -198209.132992 kJ/mol
# GULP energy per Si atom -12388.070812 kJ/mol
# Density = 1.751256 g / cm^3
# Si number density = 17.552513 Si / 1000 Ang^3
#
#
#
# Elastic Constant Matrix: (Units=GPa)
#
#
# Indices 1 2 3 4 5 6 
#
# 1 123.9230 36.3361 28.8222 0.0000 -4.0126 0.0000
# 2 36.3361 51.1805 11.5764 0.0000 1.5035 0.0000
# 3 28.8222 11.5764 78.3195 0.0000 11.6017 0.0000
# 4 0.0000 0.0000 0.0000 10.5497 0.0000 -0.7229
# 5 -4.0126 1.5035 11.6017 0.0000 23.9734 0.0000
# 6 0.0000 0.0000 0.0000 -0.7229 0.0000 11.5092
#
#
#
# Elastic Compliance Matrix: (Units=1/GPa)
#
#
# Indices 1 2 3 4 5 6 
#
# 1 0.011169 -0.007224 -0.003648 0.000000 0.004088 0.000000
# 2 -0.007224 0.024888 -0.000657 0.000000 -0.002452 0.000000
# 3 -0.003648 -0.000657 0.015396 0.000000 -0.008020 0.000000
# 4 0.000000 0.000000 0.000000 0.095199 0.000000 0.005980
# 5 0.004088 -0.002452 -0.008020 0.000000 0.046432 0.000000
# 6 0.000000 0.000000 0.000000 0.005980 0.000000 0.087262
#
#
# Mechanical properties :
#
#
# Convention : Reuss Voigt Hill
#
# Bulk Modulus (GPa) = 35.21797 45.21028 40.21412
# Shear Modulus (GPa) = 15.98114 20.98569 18.48342
#
# Velocity S-wave (km/s) = 3.02068 3.46149 3.24857
# Velocity P-wave (km/s) = 5.68102 6.46444 6.08535
#
# Compressibility (1/GPa) = 0.02839460
#
# Stress axis : x y z
#
# Youngs Moduli (GPa) = 89.53715 40.17968 64.95288
#
# Poissons Ratio (x) = 0.29027 0.23694
# Poissons Ratio (y) = 0.64683 0.04267
# Poissons Ratio (z) = 0.32662 0.02639
#
# Static dielectric constant tensor:
#      x y z
#    x 3.548030 0.000000 0.105600 
#    y 0.000000 2.923670 0.000000 
#    z 0.105600 0.000000 3.583850 
# 
# 
# High freq. dielectric constant tensor:
#      x y z
#    x 1.682680 0.000000 0.010900 
#    y 0.000000 1.630990 0.000000 
#    z 0.010900 0.000000 1.687640 
# 
# From -- ./inp_files/13462.got.cif
#   From: 2010.03.12/outbox.cif.g09.slc.cpg/sg8_7_cif.got.tgz:13462.got - 2010.03.31 10:45:26.
