data_PCOD8052935
_publ_section_title
;
Structure prediction by ZEFSAII (Michael W. Deem and Ramdas Pophale) SiO2 
 PCOD8052935
Probable space group: C M
;
_chemical_formula_sum "Si O2"
_cell_formula_units_Z 32
_cell_length_a 18.875048
_cell_length_b 8.936032
_cell_length_c 10.477841
_cell_angle_alpha 90.000000
_cell_angle_beta 88.234479
_cell_angle_gamma 90.000000
_cell_volume 1766.437872
_symmetry_space_group_name_H-M "C M"
_symmetry_group_IT_number 8
_symmetry_cell_setting 'monoclinic'
loop_
_space_group_symop_operation_xyz
x,y,z
x,-y,z
1/2+x,1/2+y,z
1/2+x,1/2-y,z
loop_
_atom_site_type_symbol
_atom_site_label
_atom_site_fract_x
_atom_site_fract_y
_atom_site_fract_z
Si Si1 0.988580 0.823721 0.045150
Si Si2 0.639026 0.820433 0.036933
Si Si3 0.231340 0.322097 0.265192
Si Si4 0.975453 0.335445 0.791680
Si Si5 0.643123 0.836546 0.765239
Si Si6 0.890534 0.176808 0.285489
Si Si7 0.972443 0.677515 0.509151
Si Si8 0.132561 0.679585 0.494661
O O1 0.934983 0.774326 0.159419
O O2 0.062473 0.745279 0.074960
O O3 0.000105 0.000000 0.040212
O O4 0.955696 0.773148 0.910464
O O5 0.696268 0.765049 0.136042
O O6 0.631276 0.000000 0.033846
O O7 0.666374 0.757365 0.896859
O O8 0.229770 0.500000 0.269753
O O9 0.310934 0.261283 0.270194
O O10 0.184297 0.256828 0.383597
O O11 0.942511 0.500000 0.820379
O O12 0.949077 0.274164 0.654760
O O13 0.059048 0.352850 0.776417
O O14 0.661058 0.754333 0.630141
O O15 0.679084 0.000000 0.760494
O O16 0.919755 0.247039 0.413099
O O17 0.890806 0.000000 0.302250
O O18 0.967769 0.500000 0.495625
O O19 0.052303 0.733675 0.472913
O O20 0.133124 0.500000 0.502277
#
# Coordination Sequence:
#
# PCOD8052935 Si02
#       8
#     4   4   4   4   4   4   4   4
#     4  10  19  30  46  70 100 128 153 186 232 283
#     4   9  16  29  50  69  86 115 157 199 231 264
#     4   9  17  29  44  63  90 123 156 189 225 269
#     4   8  15  29  49  72  94 116 152 198 234 271
#     4   7  11  21  40  67  89 102 131 187 238 263
#     4  10  21  33  43  65 102 133 155 186 231 280
#     4   9  17  31  53  76  92 114 155 201 238 274
#     4   8  13  24  45  70  89 107 143 192 231 266
#
# _framework density 18.115553999999999
#
# number of rings (size 3 to 8) (size 9 to 14) (size 15 to 20)
#    0.000    3.250    0.000    3.375    0.000    2.500 
#    0.000    1.875    0.000    5.250    0.000    3.500 
#    0.000    0.000    0.000    0.000    0.000    0.000 
#
# Total GULP energy -198219.191269 kJ/mol
# GULP energy per Si atom -12388.699454 kJ/mol
# Density = 1.807432 g / cm^3
# Si number density = 18.115554 Si / 1000 Ang^3
#
#
#
# Elastic Constant Matrix: (Units=GPa)
#
#
# Indices 1 2 3 4 5 6 
#
# 1 100.9696 17.4082 79.9528 0.0000 18.2635 0.0000
# 2 17.4082 25.3941 26.1053 0.0000 5.4245 0.0000
# 3 79.9528 26.1053 189.3864 0.0000 27.3733 0.0000
# 4 0.0000 0.0000 0.0000 23.7840 0.0000 3.1303
# 5 18.2635 5.4245 27.3733 0.0000 10.9539 0.0000
# 6 0.0000 0.0000 0.0000 3.1303 0.0000 16.7427
#
#
#
# Elastic Compliance Matrix: (Units=1/GPa)
#
#
# Indices 1 2 3 4 5 6 
#
# 1 0.016748 -0.003759 -0.004360 0.000000 -0.015167 0.000000
# 2 -0.003759 0.047560 -0.003867 0.000000 -0.007620 0.000000
# 3 -0.004360 -0.003867 0.009904 0.000000 -0.015564 0.000000
# 4 0.000000 0.000000 0.000000 0.043106 0.000000 -0.008059
# 5 -0.015167 -0.007620 -0.015564 0.000000 0.159245 0.000000
# 6 0.000000 0.000000 0.000000 -0.008059 0.000000 0.061234
#
#
# Mechanical properties :
#
#
# Convention : Reuss Voigt Hill
#
# Bulk Modulus (GPa) = 19.90529 62.52033 41.21281
# Shear Modulus (GPa) = 13.20951 23.11503 18.16227
#
# Velocity S-wave (km/s) = 2.70326 3.57596 3.16979
# Velocity P-wave (km/s) = 4.55580 7.18588 6.01632
#
# Compressibility (1/GPa) = 0.05023790
#
# Stress axis : x y z
#
# Youngs Moduli (GPa) = 59.70849 21.02624 100.97410
#
# Poissons Ratio (x) = 0.07904 0.44027
# Poissons Ratio (y) = 0.22445 0.39050
# Poissons Ratio (z) = 0.26034 0.08132
#
# Static dielectric constant tensor:
#      x y z
#    x 3.142920 0.000000 0.049270 
#    y 0.000000 2.906020 0.000000 
#    z 0.049270 0.000000 4.011410 
# 
# 
# High freq. dielectric constant tensor:
#      x y z
#    x 1.666150 0.000000 0.005090 
#    y 0.000000 1.653330 0.000000 
#    z 0.005090 0.000000 1.730620 
# 
# From -- ./inp_files/22755.got.cif
#   From: 2010.03.12/outbox.cif.g09.slc.cpg/sg8_12_cif.got.tgz:22755.got - 2010.03.31 10:45:26.
