data_PCOD8052095
_publ_section_title
;
Structure prediction by ZEFSAII (Michael W. Deem and Ramdas Pophale) SiO2 
 PCOD8052095
Probable space group: C 2
;
_chemical_formula_sum "Si O2"
_cell_formula_units_Z 28
_cell_length_a 21.435718
_cell_length_b 8.533366
_cell_length_c 8.318179
_cell_angle_alpha 90.000000
_cell_angle_beta 54.692944
_cell_angle_gamma 90.000000
_cell_volume 1241.687124
_symmetry_space_group_name_H-M "C 2"
_symmetry_group_IT_number 5
_symmetry_cell_setting 'monoclinic'
loop_
_space_group_symop_operation_xyz
x,y,z
-x,y,-z
1/2+x,1/2+y,z
1/2-x,1/2+y,-z
loop_
_atom_site_type_symbol
_atom_site_label
_atom_site_fract_x
_atom_site_fract_y
_atom_site_fract_z
Si Si1 0.598865 0.891580 0.015900
Si Si2 0.500000 0.420431 0.500000
Si Si3 0.414855 0.888970 0.613971
Si Si4 0.749510 0.859767 0.621490
Si Si5 0.509269 0.596294 0.813776
Si Si6 0.326830 0.685833 0.527784
Si Si7 0.906260 0.701318 0.441589
Si Si8 0.000000 0.641103 0.000000
O O1 0.610377 0.959291 0.178621
O O2 0.534777 0.759273 0.107077
O O3 0.572265 0.036510 0.946675
O O4 0.679921 0.818893 0.843566
O O5 0.479147 0.514857 0.694570
O O6 0.428573 0.310686 0.559328
O O7 0.500000 0.815597 0.500000
O O8 0.356932 0.748276 0.654782
O O9 0.415958 0.020244 0.473539
O O10 0.717270 0.830431 0.490247
O O11 0.818390 0.737872 0.538395
O O12 0.771237 0.038312 0.624917
O O13 0.599354 0.629665 0.679671
O O14 0.500000 0.503434 0.000000
O O15 0.963229 0.739951 0.204629
#
# Coordination Sequence:
#
# PCOD8052095 Si02
#       8
#     4   2   4   4   4   4   4   2
#     4  12  23  43  75 106 142 201 253 300 381 459
#     4  12  26  46  72 114 154 194 258 316 364 438
#     4  12  23  44  75 104 142 197 249 313 366 449
#     4  12  27  45  69 108 153 189 245 318 391 445
#     4  12  23  44  77 107 142 200 256 300 360 459
#     4  12  24  46  71 103 148 195 244 310 375 446
#     4  12  26  47  74 112 153 193 251 322 376 448
#     4  12  22  46  78 104 142 210 264 290 376 466
#
# _framework density 22.549965
#
# number of rings (size 3 to 8) (size 9 to 14) (size 15 to 20)
#    0.000    0.000    7.143    3.429    1.000    1.143 
#    0.000    1.429    0.000    0.000    0.000    0.000 
#    0.000    0.000    0.000    0.000    0.000    0.000 
#
# Total GULP energy -173529.232199 kJ/mol
# GULP energy per Si atom -12394.945157 kJ/mol
# Density = 2.249864 g / cm^3
# Si number density = 22.549965 Si / 1000 Ang^3
#
#
#
# Elastic Constant Matrix: (Units=GPa)
#
#
# Indices 1 2 3 4 5 6 
#
# 1 145.5136 32.0512 44.0463 0.0000 13.2469 0.0000
# 2 32.0512 52.5452 5.1140 0.0000 17.1297 0.0000
# 3 44.0463 5.1140 97.5225 0.0000 16.4790 0.0000
# 4 0.0000 0.0000 0.0000 32.6800 0.0000 0.6145
# 5 13.2469 17.1297 16.4790 0.0000 44.9363 0.0000
# 6 0.0000 0.0000 0.0000 0.6145 0.0000 41.3955
#
#
#
# Elastic Compliance Matrix: (Units=1/GPa)
#
#
# Indices 1 2 3 4 5 6 
#
# 1 0.009227 -0.005516 -0.004023 0.000000 0.000858 0.000000
# 2 -0.005516 0.025037 0.002683 0.000000 -0.008902 0.000000
# 3 -0.004023 0.002683 0.012689 0.000000 -0.004490 0.000000
# 4 0.000000 0.000000 0.000000 0.030608 0.000000 -0.000454
# 5 0.000858 -0.008902 -0.004490 0.000000 0.027041 0.000000
# 6 0.000000 0.000000 0.000000 -0.000454 0.000000 0.024164
#
#
# Mechanical properties :
#
#
# Convention : Reuss Voigt Hill
#
# Bulk Modulus (GPa) = 30.08467 50.88935 40.48701
# Shear Modulus (GPa) = 32.56074 38.09368 35.32721
#
# Velocity S-wave (km/s) = 3.80404 4.11457 3.96235
# Velocity P-wave (km/s) = 5.71530 6.72230 6.23915
#
# Compressibility (1/GPa) = 0.03323951
#
# Stress axis : x y z
#
# Youngs Moduli (GPa) = 108.37859 39.94098 78.80766
#
# Poissons Ratio (x) = 0.22033 0.31705
# Poissons Ratio (y) = 0.59786 -0.21142
# Poissons Ratio (z) = 0.43602 -0.10715
#
# Static dielectric constant tensor:
#      x y z
#    x 4.695490 0.000000 0.603710 
#    y 0.000000 3.991160 0.000000 
#    z 0.603710 0.000000 4.504560 
# 
# 
# High freq. dielectric constant tensor:
#      x y z
#    x 1.907940 0.000000 0.011220 
#    y 0.000000 1.888080 0.000000 
#    z 0.011220 0.000000 1.877050 
# 
# From -- ./inp_files/29120.got.cif
#   From: 2010.03.12/outbox.cif.g09.slc.cpg/sg5_15_cif.got.tgz:29120.got - 2010.03.31 09:47:26.
