data_PCOD8052825
_publ_section_title
;
Structure prediction by ZEFSAII (Michael W. Deem and Ramdas Pophale) SiO2 
 PCOD8052825
Probable space group: C M
;
_chemical_formula_sum "Si O2"
_cell_formula_units_Z 24
_cell_length_a 9.131406
_cell_length_b 16.349354
_cell_length_c 15.463785
_cell_angle_alpha 90.000000
_cell_angle_beta 147.351462
_cell_angle_gamma 90.000000
_cell_volume 1245.468770
_symmetry_space_group_name_H-M "C M"
_symmetry_group_IT_number 8
_symmetry_cell_setting 'monoclinic'
loop_
_space_group_symop_operation_xyz
x,y,z
x,-y,z
1/2+x,1/2+y,z
1/2+x,1/2-y,z
loop_
_atom_site_type_symbol
_atom_site_label
_atom_site_fract_x
_atom_site_fract_y
_atom_site_fract_z
Si Si1 0.967820 0.596872 0.348820
Si Si2 0.356328 0.345600 0.062578
Si Si3 0.349057 0.403096 0.690149
Si Si4 0.425516 0.164035 0.151799
Si Si5 0.348955 0.594181 0.878734
Si Si6 0.956164 0.407152 0.997890
O O1 0.001426 0.500000 0.352387
O O2 0.657914 0.618211 0.217324
O O3 0.076943 0.645778 0.317838
O O4 0.151230 0.631854 0.518100
O O5 0.337125 0.257760 0.098092
O O6 0.254080 0.347661 0.911265
O O7 0.150850 0.402292 0.012736
O O8 0.354270 0.500000 0.685564
O O9 0.227329 0.378687 0.724800
O O10 0.656233 0.369233 0.828827
O O11 0.592268 0.139874 0.148123
O O12 0.171214 0.102547 0.028251
O O13 0.277992 0.500000 0.865728
O O14 0.922146 0.500000 0.008539
#
# Coordination Sequence:
#
# PCOD8052825 Si02
#       6
#     4   4   4   4   4   4
#     4  10  19  36  55  72  98 139 172 198 243 305
#     4  11  20  31  51  79 103 126 164 213 250 285
#     4   8  17  33  55  75  97 130 172 206 242 297
#     4  10  19  32  50  74 103 135 165 200 247 303
#     4   9  17  34  55  74  96 134 173 202 242 304
#     4  10  18  32  52  76  98 126 168 213 245 284
#
# _framework density 19.269850999999999
#
# number of rings (size 3 to 8) (size 9 to 14) (size 15 to 20)
#    0.000    2.333    0.000    7.000    0.000    0.000 
#    0.000    8.333    0.000    4.000    0.000    0.000 
#    0.000    0.000    0.000    0.000    0.000    0.000 
#
# Total GULP energy -148678.002216 kJ/mol
# GULP energy per Si atom -12389.833518 kJ/mol
# Density = 1.922599 g / cm^3
# Si number density = 19.269851 Si / 1000 Ang^3
#
#
#
# Elastic Constant Matrix: (Units=GPa)
#
#
# Indices 1 2 3 4 5 6 
#
# 1 130.6295 21.0743 67.2473 0.0047 -29.9364 0.0021
# 2 21.0743 68.3913 27.5830 0.0075 -14.8933 0.0036
# 3 67.2473 27.5830 121.7550 0.0075 -41.0424 0.0099
# 4 0.0047 0.0075 0.0075 12.8924 0.0055 -8.2705
# 5 -29.9364 -14.8933 -41.0424 0.0055 38.4972 0.0017
# 6 0.0021 0.0036 0.0099 -8.2705 0.0017 28.1613
#
#
#
# Elastic Compliance Matrix: (Units=1/GPa)
#
#
# Indices 1 2 3 4 5 6 
#
# 1 0.010982 -0.000756 -0.004861 -0.000002 0.003065 0.000000
# 2 -0.000756 0.016480 -0.002131 -0.000013 0.003516 -0.000005
# 3 -0.004861 -0.002131 0.015342 -0.000018 0.011752 -0.000011
# 4 -0.000002 -0.000013 -0.000018 0.095570 -0.000040 0.028067
# 5 0.003065 0.003516 0.011752 -0.000040 0.042249 -0.000019
# 6 0.000000 -0.000005 -0.000011 0.028067 -0.000019 0.043753
#
#
# Mechanical properties :
#
#
# Convention : Reuss Voigt Hill
#
# Bulk Modulus (GPa) = 36.61849 61.39833 49.00841
# Shear Modulus (GPa) = 20.08243 29.56826 24.82534
#
# Velocity S-wave (km/s) = 3.23177 3.92143 3.59318
# Velocity P-wave (km/s) = 5.74195 7.24120 6.53472
#
# Compressibility (1/GPa) = 0.02730860
#
# Stress axis : x y z
#
# Youngs Moduli (GPa) = 91.05725 60.68072 65.17899
#
# Poissons Ratio (x) = 0.04588 0.31685
# Poissons Ratio (y) = 0.06884 0.13887
# Poissons Ratio (z) = 0.44264 0.12928
#
# Static dielectric constant tensor:
#      x y z
#    x 3.712910 -0.000010 -0.557160 
#    y -0.000010 3.279820 0.000000 
#    z -0.557160 0.000000 3.742890 
# 
# 
# High freq. dielectric constant tensor:
#      x y z
#    x 1.752850 0.000000 -0.036550 
#    y 0.000000 1.738770 0.000000 
#    z -0.036550 0.000000 1.722270 
# 
# From -- ./inp_files/7819.got.cif
#   From: 2010.03.12/outbox.cif.g09.slc.cpg/sg8_4_cif.got.tgz:7819.got - 2010.03.31 10:45:26.
