data_PCOD8052559
_publ_section_title
;
Structure prediction by ZEFSAII (Michael W. Deem and Ramdas Pophale) SiO2 
 PCOD8052559
Probable space group: P M
;
_chemical_formula_sum "Si O2"
_cell_formula_units_Z 16
_cell_length_a 8.777411
_cell_length_b 8.278118
_cell_length_c 10.154098
_cell_angle_alpha 90.000000
_cell_angle_beta 89.986283
_cell_angle_gamma 90.000000
_cell_volume 737.801248
_symmetry_space_group_name_H-M "P M"
_symmetry_group_IT_number 6
_symmetry_cell_setting 'monoclinic'
loop_
_space_group_symop_operation_xyz
x,y,z
x,-y,z
loop_
_atom_site_type_symbol
_atom_site_label
_atom_site_fract_x
_atom_site_fract_y
_atom_site_fract_z
Si Si1 0.120650 0.686849 0.930020
Si Si2 0.766827 0.187089 0.436714
Si Si3 0.611140 0.688080 0.688802
Si Si4 0.623505 0.308782 0.175853
Si Si5 0.280189 0.691526 0.193551
Si Si6 0.276132 0.185642 0.680010
Si Si7 0.096142 0.687236 0.442201
Si Si8 0.793571 0.186173 0.928485
O O1 0.160284 0.500000 0.903420
O O2 0.170676 0.794299 0.807279
O O3 0.941193 0.704678 0.953768
O O4 0.209675 0.753844 0.057186
O O5 0.661398 0.284448 0.538430
O O6 0.736197 0.251981 0.290519
O O7 0.943746 0.212454 0.469998
O O8 0.725033 0.000000 0.447599
O O9 0.613057 0.500000 0.722723
O O10 0.444507 0.756849 0.714847
O O11 0.727342 0.779582 0.784221
O O12 0.631345 0.500000 0.160265
O O13 0.453247 0.247350 0.208381
O O14 0.669471 0.228706 0.038402
O O15 0.275728 0.500000 0.199525
O O16 0.179262 0.759806 0.313427
O O17 0.210763 0.295065 0.563507
O O18 0.276182 0.000000 0.635773
O O19 0.052733 0.500000 0.424506
O O20 0.840229 0.000000 0.937873
#
# Coordination Sequence:
#
# PCOD8052559 Si02
#       8
#     2   2   2   2   2   2   2   2
#     4  11  22  41  66  93 124 166 212 257 309 376
#     4  12  25  42  63  94 130 166 209 266 323 372
#     4  12  25  44  67  92 122 166 216 262 313 382
#     4  11  22  41  66  94 126 167 214 261 312 380
#     4   9  21  39  64  92 120 155 206 259 304 360
#     4  12  25  42  63  94 130 164 204 260 317 372
#     4  11  22  41  66  93 124 166 212 257 309 376
#     4  12  25  42  63  94 130 166 209 266 323 372
#
# _framework density 21.686056000000001
#
# number of rings (size 3 to 8) (size 9 to 14) (size 15 to 20)
#    0.000    0.750    0.000    8.625    0.000    3.000 
#    0.000    5.625    0.000    0.000    0.000    0.000 
#    0.000    0.000    0.000    0.000    0.000    0.000 
#
# Total GULP energy -198559.108662 kJ/mol
# GULP energy per Si atom -12409.944291 kJ/mol
# Density = 2.163670 g / cm^3
# Si number density = 21.686056 Si / 1000 Ang^3
#
#
#
# Elastic Constant Matrix: (Units=GPa)
#
#
# Indices 1 2 3 4 5 6 
#
# 1 103.4877 19.9123 22.7091 0.0000 0.7854 0.0000
# 2 19.9123 75.4776 21.6285 0.0000 -2.7454 0.0000
# 3 22.7091 21.6285 114.4606 0.0000 -0.8042 0.0000
# 4 0.0000 0.0000 0.0000 25.5322 0.0000 -4.6063
# 5 0.7854 -2.7454 -0.8042 0.0000 46.0711 0.0000
# 6 0.0000 0.0000 0.0000 -4.6063 0.0000 22.4738
#
#
#
# Elastic Compliance Matrix: (Units=1/GPa)
#
#
# Indices 1 2 3 4 5 6 
#
# 1 0.010470 -0.002303 -0.001644 0.000000 -0.000344 0.000000
# 2 -0.002303 0.014543 -0.002285 0.000000 0.000866 0.000000
# 3 -0.001644 -0.002285 0.009495 0.000000 0.000058 0.000000
# 4 0.000000 0.000000 0.000000 0.040670 0.000000 0.008336
# 5 -0.000344 0.000866 0.000058 0.000000 0.021764 0.000000
# 6 0.000000 0.000000 0.000000 0.008336 0.000000 0.046205
#
#
# Mechanical properties :
#
#
# Convention : Reuss Voigt Hill
#
# Bulk Modulus (GPa) = 45.36758 46.88063 46.12410
# Shear Modulus (GPa) = 30.68247 34.09381 32.38814
#
# Velocity S-wave (km/s) = 3.76553 3.96934 3.86878
# Velocity P-wave (km/s) = 6.31436 6.53241 6.42431
#
# Compressibility (1/GPa) = 0.02204217
#
# Stress axis : x y z
#
# Youngs Moduli (GPa) = 95.51427 68.76203 105.31813
#
# Poissons Ratio (x) = 0.15839 0.17318
# Poissons Ratio (y) = 0.22001 0.24065
# Poissons Ratio (z) = 0.15706 0.15712
#
# Static dielectric constant tensor:
#      x y z
#    x 3.967890 0.000000 -0.013470 
#    y 0.000000 3.746850 0.000000 
#    z -0.013470 0.000000 3.975740 
# 
# 
# High freq. dielectric constant tensor:
#      x y z
#    x 1.865040 0.000000 -0.000960 
#    y 0.000000 1.848130 0.000000 
#    z -0.000960 0.000000 1.865010 
# 
# From -- ./inp_files/2697.got.cif
#   From: 2010.03.12/outbox.cif.g09.slc.cpg/sg6_2_cif.got.tgz:2697.got - 2010.03.30 10:24:59.
