data_PCOD8052128
_publ_section_title
;
Structure prediction by ZEFSAII (Michael W. Deem and Ramdas Pophale) SiO2 
 PCOD8052128
Probable space group: C 2
;
_chemical_formula_sum "Si O2"
_cell_formula_units_Z 18
_cell_length_a 24.684652
_cell_length_b 5.218372
_cell_length_c 17.710442
_cell_angle_alpha 90.000000
_cell_angle_beta 160.671773
_cell_angle_gamma 90.000000
_cell_volume 755.078846
_symmetry_space_group_name_H-M "C 2"
_symmetry_group_IT_number 5
_symmetry_cell_setting 'monoclinic'
loop_
_space_group_symop_operation_xyz
x,y,z
-x,y,-z
1/2+x,1/2+y,z
1/2-x,1/2+y,-z
loop_
_atom_site_type_symbol
_atom_site_label
_atom_site_fract_x
_atom_site_fract_y
_atom_site_fract_z
Si Si1 0.500000 0.928450 0.000000
Si Si2 0.334651 0.712934 0.081867
Si Si3 0.362312 0.569508 0.948491
Si Si4 0.804722 0.953490 0.607790
Si Si5 0.806747 0.294081 0.396490
O O1 0.542790 0.766134 0.981728
O O2 0.663711 0.093604 0.229212
O O3 0.515813 0.671494 0.355060
O O4 0.222917 0.496417 0.972260
O O5 0.312664 0.695900 0.962365
O O6 0.208542 0.422322 0.707171
O O7 0.505608 0.357695 0.148814
O O8 0.696502 0.713586 0.440967
O O9 0.732483 0.023907 0.595917
#
# Coordination Sequence:
#
# PCOD8052128 Si02
#       5
#     2   4   4   4   4
#     4  12  24  48  80 130 150 190 262 352 424 452
#     4  12  34  56  76 110 162 228 272 310 380 486
#     4  12  27  46  82 117 159 199 267 334 408 467
#     4  12  24  42  78 118 154 196 247 341 413 459
#     4  12  27  46  82 117 159 199 267 334 408 467
#
# _framework density 23.838569
#
# number of rings (size 3 to 8) (size 9 to 14) (size 15 to 20)
#    0.000    0.000    6.667    1.333    9.333    0.889 
#    0.000    0.000    0.000    0.000    0.000    0.000 
#    0.000    0.000    0.000    0.000    0.000    0.000 
#
# Total GULP energy -111500.614767 kJ/mol
# GULP energy per Si atom -12388.957196 kJ/mol
# Density = 2.378431 g / cm^3
# Si number density = 23.838569 Si / 1000 Ang^3
#
#
#
# Elastic Constant Matrix: (Units=GPa)
#
#
# Indices 1 2 3 4 5 6 
#
# 1 147.4525 29.3589 40.5494 0.0000 -26.2559 0.0000
# 2 29.3589 75.0370 22.5787 0.0002 -10.8896 0.0000
# 3 40.5494 22.5787 122.3738 0.0000 -13.3873 0.0000
# 4 0.0000 0.0002 0.0000 29.9560 0.0000 2.5652
# 5 -26.2559 -10.8896 -13.3873 0.0000 41.9635 0.0000
# 6 0.0000 0.0000 0.0000 2.5652 0.0000 34.4858
#
#
#
# Elastic Compliance Matrix: (Units=1/GPa)
#
#
# Indices 1 2 3 4 5 6 
#
# 1 0.008481 -0.002128 -0.001966 0.000000 0.004127 0.000000
# 2 -0.002128 0.015001 -0.001847 0.000000 0.001972 0.000000
# 3 -0.001966 -0.001847 0.009302 0.000000 0.001258 0.000000
# 4 0.000000 0.000000 0.000000 0.033596 0.000000 -0.002499
# 5 0.004127 0.001972 0.001258 0.000000 0.027326 0.000000
# 6 0.000000 0.000000 0.000000 -0.002499 0.000000 0.029183
#
#
# Mechanical properties :
#
#
# Convention : Reuss Voigt Hill
#
# Bulk Modulus (GPa) = 47.84224 58.87081 53.35652
# Shear Modulus (GPa) = 35.27626 38.10615 36.69120
#
# Velocity S-wave (km/s) = 3.85099 4.00247 3.92746
# Velocity P-wave (km/s) = 6.31556 6.79036 6.55726
#
# Compressibility (1/GPa) = 0.02090203
#
# Stress axis : x y z
#
# Youngs Moduli (GPa) = 117.90955 66.66110 107.50852
#
# Poissons Ratio (x) = 0.14184 0.21138
# Poissons Ratio (y) = 0.25088 0.19857
# Poissons Ratio (z) = 0.23183 0.12312
#
# Static dielectric constant tensor:
#      x y z
#    x 4.373430 0.000000 -0.485770 
#    y 0.000000 4.152800 0.000000 
#    z -0.485770 0.000000 4.939500 
# 
# 
# High freq. dielectric constant tensor:
#      x y z
#    x 1.942480 0.000000 -0.022180 
#    y 0.000000 1.937060 0.000000 
#    z -0.022180 0.000000 1.966350 
# 
# From -- ./inp_files/30224.got.cif
#   From: 2010.03.12/outbox.cif.g09.slc.cpg/sg5_16_cif.got.tgz:30224.got - 2010.03.31 09:47:26.
