data_PCOD8052264
_publ_section_title
;
Structure prediction by ZEFSAII (Michael W. Deem and Ramdas Pophale) SiO2 
 PCOD8052264
Probable space group: P M
;
_chemical_formula_sum "Si O2"
_cell_formula_units_Z 14
_cell_length_a 10.287852
_cell_length_b 10.057248
_cell_length_c 13.463773
_cell_angle_alpha 90.000000
_cell_angle_beta 146.073220
_cell_angle_gamma 90.000000
_cell_volume 777.514229
_symmetry_space_group_name_H-M "P M"
_symmetry_group_IT_number 6
_symmetry_cell_setting 'monoclinic'
loop_
_space_group_symop_operation_xyz
x,y,z
x,-y,z
loop_
_atom_site_type_symbol
_atom_site_label
_atom_site_fract_x
_atom_site_fract_y
_atom_site_fract_z
Si Si1 0.725600 0.739884 0.495110
Si Si2 0.519614 0.848631 0.549230
Si Si3 0.067244 0.843573 0.371923
Si Si4 0.547900 0.158195 0.035904
Si Si5 0.887558 0.646373 0.794989
Si Si6 0.144798 0.153924 0.638601
Si Si7 0.413192 0.650039 0.125776
O O1 0.554933 0.835448 0.452574
O O2 0.865274 0.644945 0.660112
O O3 0.570825 0.652463 0.323673
O O4 0.910591 0.827362 0.552609
O O5 0.262097 0.797257 0.416498
O O6 0.710288 0.756514 0.727534
O O7 0.558812 0.000000 0.608422
O O8 0.118507 0.778390 0.513146
O O9 0.810972 0.804231 0.169588
O O10 0.075696 0.000000 0.390813
O O11 0.498082 0.237045 0.105015
O O12 0.518837 0.000000 0.038631
O O13 0.371076 0.211300 0.839466
O O14 0.821633 0.500000 0.793671
O O15 0.149671 0.683743 0.990889
O O16 0.190637 0.000000 0.653371
O O17 0.426902 0.500000 0.089343
#
# Coordination Sequence:
#
# PCOD8052264 Si02
#       7
#     2   2   2   2   2   2   2
#     4  10  19  32  56  75 104 137 176 215 260 306
#     4   9  19  36  56  78 107 138 177 218 258 311
#     4   9  18  34  52  77 112 141 168 214 265 312
#     4  10  19  33  55  81 107 139 174 214 262 313
#     4   9  20  36  54  74 105 139 172 217 265 308
#     4  10  18  31  55  82 106 135 174 217 266 311
#     4  11  21  34  54  81 107 139 177 217 264 313
#
# _framework density 18.006101000000001
#
# number of rings (size 3 to 8) (size 9 to 14) (size 15 to 20)
#    0.857    1.429    2.857    0.857    0.000    1.143 
#    2.571    0.714    0.000    0.000    0.000    0.000 
#    0.000    0.000    0.000    0.000    0.000    0.000 
#
# Total GULP energy -173459.029389 kJ/mol
# GULP energy per Si atom -12389.930671 kJ/mol
# Density = 1.796512 g / cm^3
# Si number density = 18.006101 Si / 1000 Ang^3
#
#
#
# Elastic Constant Matrix: (Units=GPa)
#
#
# Indices 1 2 3 4 5 6 
#
# 1 109.8454 19.2036 46.6083 0.0000 22.4651 0.0000
# 2 19.2036 57.7749 19.3482 0.0000 16.6134 0.0000
# 3 46.6083 19.3482 131.6023 0.0000 16.0398 0.0000
# 4 0.0000 0.0000 0.0000 19.3324 0.0000 4.9461
# 5 22.4651 16.6134 16.0398 0.0000 30.2889 0.0000
# 6 0.0000 0.0000 0.0000 4.9461 0.0000 10.3658
#
#
#
# Elastic Compliance Matrix: (Units=1/GPa)
#
#
# Indices 1 2 3 4 5 6 
#
# 1 0.012037 -0.000985 -0.003310 0.000000 -0.006635 0.000000
# 2 -0.000985 0.021019 -0.001524 0.000000 -0.009992 0.000000
# 3 -0.003310 -0.001524 0.009187 0.000000 -0.001574 0.000000
# 4 0.000000 0.000000 0.000000 0.058920 0.000000 -0.028114
# 5 -0.006635 -0.009992 -0.001574 0.000000 0.044251 0.000000
# 6 0.000000 0.000000 0.000000 -0.028114 0.000000 0.109885
#
#
# Mechanical properties :
#
#
# Convention : Reuss Voigt Hill
#
# Bulk Modulus (GPa) = 32.67209 52.17143 42.42176
# Shear Modulus (GPa) = 18.04160 26.26825 22.15492
#
# Velocity S-wave (km/s) = 3.16883 3.82364 3.51153
# Velocity P-wave (km/s) = 5.61899 6.96641 6.32866
#
# Compressibility (1/GPa) = 0.03060716
#
# Stress axis : x y z
#
# Youngs Moduli (GPa) = 83.07626 47.57524 108.85305
#
# Poissons Ratio (x) = 0.04685 0.36026
# Poissons Ratio (y) = 0.08180 0.16586
# Poissons Ratio (z) = 0.27495 0.07249
#
# Static dielectric constant tensor:
#      x y z
#    x 3.262310 0.000000 0.134520 
#    y 0.000000 3.015710 0.000000 
#    z 0.134520 0.000000 3.582390 
# 
# 
# High freq. dielectric constant tensor:
#      x y z
#    x 1.677470 0.000000 0.015190 
#    y 0.000000 1.671030 0.000000 
#    z 0.015190 0.000000 1.705790 
# 
# From -- ./inp_files/5533.got.cif
#   From: 2010.03.12/outbox.cif.g09.slc.cpg/sg6_3_cif.got.tgz:5533.got - 2010.03.30 10:24:59.
