data_PCOD8052839
_publ_section_title
;
Structure prediction by ZEFSAII (Michael W. Deem and Ramdas Pophale) SiO2 
 PCOD8052839
Probable space group: C M
;
_chemical_formula_sum "Si O2"
_cell_formula_units_Z 32
_cell_length_a 20.679277
_cell_length_b 8.791136
_cell_length_c 25.377336
_cell_angle_alpha 90.000000
_cell_angle_beta 157.590480
_cell_angle_gamma 90.000000
_cell_volume 1758.760086
_symmetry_space_group_name_H-M "C M"
_symmetry_group_IT_number 8
_symmetry_cell_setting 'monoclinic'
loop_
_space_group_symop_operation_xyz
x,y,z
x,-y,z
1/2+x,1/2+y,z
1/2+x,1/2-y,z
loop_
_atom_site_type_symbol
_atom_site_label
_atom_site_fract_x
_atom_site_fract_y
_atom_site_fract_z
Si Si1 0.413980 0.319610 0.581700
Si Si2 0.932346 0.677829 0.871315
Si Si3 0.791322 0.319202 0.875155
Si Si4 0.682626 0.323169 0.597429
Si Si5 0.611760 0.679228 0.157274
Si Si6 0.274849 0.321307 0.177550
Si Si7 0.627036 0.179616 0.444006
Si Si8 0.350549 0.677052 0.416309
O O1 0.412087 0.500000 0.578356
O O2 0.599012 0.266913 0.741759
O O3 0.273367 0.256072 0.515914
O O4 0.378650 0.258753 0.496339
O O5 0.896167 0.500000 0.843862
O O6 0.839995 0.742293 0.853657
O O7 0.846805 0.740689 0.753383
O O8 0.133180 0.715084 0.026077
O O9 0.816418 0.500000 0.898483
O O10 0.917741 0.238435 0.011565
O O11 0.699865 0.500000 0.594935
O O12 0.669863 0.225081 0.535519
O O13 0.520008 0.294492 0.510943
O O14 0.616398 0.500000 0.153721
O O15 0.719996 0.754635 0.192179
O O16 0.695676 0.727589 0.275493
O O17 0.297832 0.500000 0.203250
O O18 0.450512 0.249714 0.290959
O O19 0.613009 0.000000 0.429611
O O20 0.301189 0.500000 0.379402
#
# Coordination Sequence:
#
# PCOD8052839 Si02
#       8
#     4   4   4   4   4   4   4   4
#     4   9  19  36  58  80 105 143 185 222 260 314
#     4   8  15  29  54  81  98 123 176 233 259 293
#     4   9  16  33  57  78 101 136 181 220 261 318
#     4  10  18  32  56  81 103 134 183 227 262 313
#     4  11  21  32  50  82 115 137 168 223 279 314
#     4  10  19  34  55  77 104 144 186 217 259 319
#     4  11  22  35  52  80 116 144 173 220 274 316
#     4  10  18  33  58  81 102 139 188 222 256 313
#
# _framework density 18.194637
#
# number of rings (size 3 to 8) (size 9 to 14) (size 15 to 20)
#    0.000    2.250    2.500    2.625    0.000    0.000 
#    0.000    7.500    0.000    4.500    0.000    0.000 
#    0.000    0.000    0.000    0.000    0.000    0.000 
#
# Total GULP energy -198369.126866 kJ/mol
# GULP energy per Si atom -12398.070429 kJ/mol
# Density = 1.815322 g / cm^3
# Si number density = 18.194637 Si / 1000 Ang^3
#
#
#
# Elastic Constant Matrix: (Units=GPa)
#
#
# Indices 1 2 3 4 5 6 
#
# 1 84.3192 31.1243 60.9856 -0.0047 8.6248 0.0003
# 2 31.1243 65.4469 47.2961 -0.0028 3.1448 -0.0008
# 3 60.9856 47.2961 172.6290 -0.0028 2.1697 -0.0008
# 4 -0.0047 -0.0028 -0.0028 18.3848 0.0018 4.1637
# 5 8.6248 3.1448 2.1697 0.0018 30.4001 0.0001
# 6 0.0003 -0.0008 -0.0008 4.1637 0.0001 16.7765
#
#
#
# Elastic Compliance Matrix: (Units=1/GPa)
#
#
# Indices 1 2 3 4 5 6 
#
# 1 0.017507 -0.004607 -0.004870 0.000004 -0.004143 -0.000002
# 2 -0.004607 0.020342 -0.003939 0.000001 -0.000516 0.000001
# 3 -0.004870 -0.003939 0.008578 -0.000001 0.001177 0.000000
# 4 0.000004 0.000001 -0.000001 0.057632 -0.000005 -0.014304
# 5 -0.004143 -0.000516 0.001177 -0.000005 0.034039 0.000001
# 6 -0.000002 0.000001 0.000000 -0.014304 0.000001 0.063157
#
#
# Mechanical properties :
#
#
# Convention : Reuss Voigt Hill
#
# Bulk Modulus (GPa) = 51.03751 66.80079 58.91915
# Shear Modulus (GPa) = 21.31113 25.31154 23.31134
#
# Velocity S-wave (km/s) = 3.42612 3.73386 3.58330
# Velocity P-wave (km/s) = 6.61535 7.44199 7.04081
#
# Compressibility (1/GPa) = 0.01959343
#
# Stress axis : x y z
#
# Youngs Moduli (GPa) = 57.12154 49.15957 116.57948
#
# Poissons Ratio (x) = 0.22647 0.56779
# Poissons Ratio (y) = 0.26314 0.45924
# Poissons Ratio (z) = 0.27821 0.19365
#
# Static dielectric constant tensor:
#      x y z
#    x 3.255120 0.000000 -0.079070 
#    y 0.000000 3.077840 0.000000 
#    z -0.079070 0.000000 3.773890 
# 
# 
# High freq. dielectric constant tensor:
#      x y z
#    x 1.675440 0.000000 -0.009740 
#    y 0.000000 1.680000 0.000000 
#    z -0.009740 0.000000 1.726040 
# 
# From -- ./inp_files/31356.got.cif
#   From: 2010.03.12/outbox.cif.g09.slc.cpg/sg8_16_cif.got.tgz:31356.got - 2010.03.31 10:45:26.
