data_PCOD8052285
_publ_section_title
;
Structure prediction by ZEFSAII (Michael W. Deem and Ramdas Pophale) SiO2 
 PCOD8052285
Probable space group: P M
;
_chemical_formula_sum "Si O2"
_cell_formula_units_Z 16
_cell_length_a 12.195192
_cell_length_b 9.064781
_cell_length_c 10.395592
_cell_angle_alpha 90.000000
_cell_angle_beta 52.293879
_cell_angle_gamma 90.000000
_cell_volume 909.198095
_symmetry_space_group_name_H-M "P M"
_symmetry_group_IT_number 6
_symmetry_cell_setting 'monoclinic'
loop_
_space_group_symop_operation_xyz
x,y,z
x,-y,z
loop_
_atom_site_type_symbol
_atom_site_label
_atom_site_fract_x
_atom_site_fract_y
_atom_site_fract_z
Si Si1 0.361280 0.172366 0.832970
Si Si2 0.324924 0.827939 0.571975
Si Si3 0.628684 0.828105 0.347230
Si Si4 0.042238 0.824181 0.666888
Si Si5 0.905425 0.827102 0.024741
Si Si6 0.933504 0.327936 0.491400
Si Si7 0.632793 0.671453 0.612493
Si Si8 0.071193 0.173127 0.152526
O O1 0.320547 0.234521 0.720665
O O2 0.501093 0.254668 0.778750
O O3 0.396172 0.000000 0.800183
O O4 0.235636 0.203531 0.020681
O O5 0.475270 0.791441 0.401548
O O6 0.200675 0.766305 0.573133
O O7 0.297022 0.000000 0.603440
O O8 0.743164 0.786157 0.158512
O O9 0.659388 0.738835 0.453571
O O10 0.639034 0.000000 0.376852
O O11 0.981787 0.746940 0.586746
O O12 0.031661 0.000000 0.656751
O O13 0.956434 0.764602 0.851948
O O14 0.993408 0.764104 0.081687
O O15 0.932187 0.000000 0.003503
O O16 0.967313 0.500000 0.470914
O O17 0.769622 0.298225 0.597738
O O18 0.018124 0.259500 0.313401
O O19 0.602446 0.500000 0.617854
O O20 0.040868 0.000000 0.193014
#
# Coordination Sequence:
#
# PCOD8052285 Si02
#       8
#     2   2   2   2   2   2   2   2
#     4   9  17  31  55  83 107 129 166 221 272 315
#     4   8  14  27  49  77 104 130 162 208 263 311
#     4   9  16  29  53  80 105 131 166 217 269 312
#     4  10  19  34  54  75 104 141 177 217 265 314
#     4   9  16  29  54  84 105 126 168 222 267 307
#     4  11  24  38  50  73 111 150 183 215 256 312
#     4  10  20  33  49  73 108 144 178 214 256 308
#     4  10  18  33  58  85 106 131 174 224 270 315
#
# _framework density 17.597923999999999
#
# number of rings (size 3 to 8) (size 9 to 14) (size 15 to 20)
#    0.000    2.500    2.500    1.500    0.000    2.000 
#    0.000    5.000    0.000    3.000    0.000    0.000 
#    0.000    0.000    0.000    0.000    0.000    0.000 
#
# Total GULP energy -198323.651802 kJ/mol
# GULP energy per Si atom -12395.228238 kJ/mol
# Density = 1.755787 g / cm^3
# Si number density = 17.597924 Si / 1000 Ang^3
#
#
#
# Elastic Constant Matrix: (Units=GPa)
#
#
# Indices 1 2 3 4 5 6 
#
# 1 142.9282 57.3772 84.9988 0.0000 -10.2971 0.0000
# 2 57.3772 62.1150 47.0346 0.0000 -4.7956 0.0000
# 3 84.9988 47.0346 130.4095 0.0000 -7.7777 0.0000
# 4 0.0000 0.0000 0.0000 6.6950 0.0000 -8.3002
# 5 -10.2971 -4.7956 -7.7777 0.0000 32.4207 0.0000
# 6 0.0000 0.0000 0.0000 -8.3002 0.0000 17.1171
#
#
#
# Elastic Compliance Matrix: (Units=1/GPa)
#
#
# Indices 1 2 3 4 5 6 
#
# 1 0.014045 -0.008233 -0.006078 0.000000 0.001785 0.000000
# 2 -0.008233 0.027035 -0.004364 0.000000 0.000337 0.000000
# 3 -0.006078 -0.004364 0.013240 0.000000 0.000600 0.000000
# 4 0.000000 0.000000 0.000000 0.374519 0.000000 0.181608
# 5 0.001785 0.000337 0.000600 0.000000 0.031605 0.000000
# 6 0.000000 0.000000 0.000000 0.181608 0.000000 0.146485
#
#
# Mechanical properties :
#
#
# Convention : Reuss Voigt Hill
#
# Bulk Modulus (GPa) = 58.93424 79.36377 69.14901
# Shear Modulus (GPa) = 7.69304 20.98267 14.33785
#
# Velocity S-wave (km/s) = 2.09310 3.45677 2.85747
# Velocity P-wave (km/s) = 6.27721 7.81848 7.08985
#
# Compressibility (1/GPa) = 0.01696806
#
# Stress axis : x y z
#
# Youngs Moduli (GPa) = 71.19905 36.98869 75.52956
#
# Poissons Ratio (x) = 0.30454 0.45910
# Poissons Ratio (y) = 0.58621 0.32964
# Poissons Ratio (z) = 0.43278 0.16143
#
# Static dielectric constant tensor:
#      x y z
#    x 3.446830 0.000000 -0.292220 
#    y 0.000000 3.010950 0.000000 
#    z -0.292220 0.000000 3.331690 
# 
# 
# High freq. dielectric constant tensor:
#      x y z
#    x 1.682070 0.000000 -0.025460 
#    y 0.000000 1.650660 0.000000 
#    z -0.025460 0.000000 1.672220 
# 
# From -- ./inp_files/3509.got.cif
#   From: 2010.03.12/outbox.cif.g09.slc.cpg/sg6_2_cif.got.tgz:3509.got - 2010.03.30 10:24:59.
