data_PCOD8052716
_publ_section_title
;
Structure prediction by ZEFSAII (Michael W. Deem and Ramdas Pophale) SiO2 
 PCOD8052716
Probable space group: C M
;
_chemical_formula_sum "Si O2"
_cell_formula_units_Z 32
_cell_length_a 19.317805
_cell_length_b 8.822040
_cell_length_c 25.559211
_cell_angle_alpha 90.000000
_cell_angle_beta 25.250510
_cell_angle_gamma 90.000000
_cell_volume 1858.110195
_symmetry_space_group_name_H-M "C M"
_symmetry_group_IT_number 8
_symmetry_cell_setting 'monoclinic'
loop_
_space_group_symop_operation_xyz
x,y,z
x,-y,z
1/2+x,1/2+y,z
1/2+x,1/2-y,z
loop_
_atom_site_type_symbol
_atom_site_label
_atom_site_fract_x
_atom_site_fract_y
_atom_site_fract_z
Si Si1 0.900680 0.324854 0.954390
Si Si2 0.790016 0.827985 0.127572
Si Si3 0.127693 0.829108 0.868475
Si Si4 0.892640 0.175343 0.571314
Si Si5 0.070790 0.177107 0.752592
Si Si6 0.484022 0.823745 0.614374
Si Si7 0.194090 0.178034 0.557481
Si Si8 0.015101 0.826348 0.375542
O O1 0.854871 0.500000 0.984848
O O2 0.081545 0.292037 0.854646
O O3 0.914110 0.260983 0.885796
O O4 0.772126 0.236301 0.079752
O O5 0.690920 0.727535 0.235922
O O6 0.726204 0.000000 0.172570
O O7 0.983697 0.817515 0.010856
O O8 0.310250 0.794975 0.762804
O O9 0.121198 0.000000 0.848970
O O10 0.735834 0.277199 0.668747
O O11 0.987906 0.236126 0.556744
O O12 0.012250 0.194551 0.439934
O O13 0.842083 0.000000 0.612839
O O14 0.084465 0.224815 0.682448
O O15 0.043974 0.000000 0.776990
O O16 0.625966 0.760915 0.553301
O O17 0.515129 0.000000 0.582695
O O18 0.378728 0.228039 0.439790
O O19 0.190122 0.000000 0.550613
O O20 0.987286 0.000000 0.378673
#
# Coordination Sequence:
#
# PCOD8052716 Si02
#       8
#     4   4   4   4   4   4   4   4
#     4  10  17  26  47  75  99 125 159 206 249 288
#     4   9  17  31  50  73 101 131 167 209 250 295
#     4   8  17  30  47  73 100 128 159 201 250 297
#     4  10  19  30  49  73  99 129 167 211 251 297
#     4  10  18  31  48  71 101 131 167 208 253 300
#     4  11  20  33  52  75 105 135 166 207 255 305
#     4  10  22  35  50  72 104 140 170 205 253 304
#     4  10  20  34  51  76 103 131 171 213 251 296
#
# _framework density 17.221799000000001
#
# number of rings (size 3 to 8) (size 9 to 14) (size 15 to 20)
#    0.750    1.500    1.250    3.000    0.000    3.500 
#    0.000    0.000    0.000    1.500    0.000    3.500 
#    0.000    0.000    0.000    0.000    0.000    0.000 
#
# Total GULP energy -198224.081391 kJ/mol
# GULP energy per Si atom -12389.005087 kJ/mol
# Density = 1.718260 g / cm^3
# Si number density = 17.221799 Si / 1000 Ang^3
#
#
#
# Elastic Constant Matrix: (Units=GPa)
#
#
# Indices 1 2 3 4 5 6 
#
# 1 77.2840 20.9968 22.6403 -0.0047 4.5173 -0.0002
# 2 20.9968 69.4132 25.4648 -0.0046 7.9073 -0.0015
# 3 22.6403 25.4648 86.6270 -0.0053 15.3464 -0.0019
# 4 -0.0047 -0.0046 -0.0053 30.4389 -0.0035 3.9615
# 5 4.5173 7.9073 15.3464 -0.0035 19.6948 0.0009
# 6 -0.0002 -0.0015 -0.0019 3.9615 0.0009 23.5310
#
#
#
# Elastic Compliance Matrix: (Units=1/GPa)
#
#
# Indices 1 2 3 4 5 6 
#
# 1 0.014697 -0.003417 -0.002880 0.000001 0.000245 -0.000001
# 2 -0.003417 0.017121 -0.003551 0.000001 -0.003323 0.000001
# 3 -0.002880 -0.003551 0.015048 0.000000 -0.009639 0.000001
# 4 0.000001 0.000001 0.000000 0.033589 0.000005 -0.005655
# 5 0.000245 -0.003323 -0.009639 0.000005 0.059564 -0.000004
# 6 -0.000001 0.000001 0.000001 -0.005655 -0.000004 0.043449
#
#
# Mechanical properties :
#
#
# Convention : Reuss Voigt Hill
#
# Bulk Modulus (GPa) = 36.80555 41.28089 39.04322
# Shear Modulus (GPa) = 23.56029 25.68108 24.62068
#
# Velocity S-wave (km/s) = 3.70273 3.86579 3.78514
# Velocity P-wave (km/s) = 6.30065 6.62933 6.46707
#
# Compressibility (1/GPa) = 0.02716982
#
# Stress axis : x y z
#
# Youngs Moduli (GPa) = 68.04089 58.40622 66.45396
#
# Poissons Ratio (x) = 0.19958 0.19139
# Poissons Ratio (y) = 0.23250 0.23599
# Poissons Ratio (z) = 0.19596 0.20741
#
# Static dielectric constant tensor:
#      x y z
#    x 2.912470 0.000000 0.249440 
#    y 0.000000 3.262540 0.000000 
#    z 0.249440 0.000000 3.189960 
# 
# 
# High freq. dielectric constant tensor:
#      x y z
#    x 1.620180 0.000000 0.023800 
#    y 0.000000 1.681780 0.000000 
#    z 0.023800 0.000000 1.656300 
# 
# From -- ./inp_files/30045.got.cif
#   From: 2010.03.12/outbox.cif.g09.slc.cpg/sg8_16_cif.got.tgz:30045.got - 2010.03.31 10:45:26.
