data_PCOD8052706
_publ_section_title
;
Structure prediction by ZEFSAII (Michael W. Deem and Ramdas Pophale) SiO2 
 PCOD8052706
Probable space group: C M
;
_chemical_formula_sum "Si O2"
_cell_formula_units_Z 32
_cell_length_a 23.339854
_cell_length_b 8.651631
_cell_length_c 11.527596
_cell_angle_alpha 90.000000
_cell_angle_beta 130.829430
_cell_angle_gamma 90.000000
_cell_volume 1761.307807
_symmetry_space_group_name_H-M "C M"
_symmetry_group_IT_number 8
_symmetry_cell_setting 'monoclinic'
loop_
_space_group_symop_operation_xyz
x,y,z
x,-y,z
1/2+x,1/2+y,z
1/2+x,1/2-y,z
loop_
_atom_site_type_symbol
_atom_site_label
_atom_site_fract_x
_atom_site_fract_y
_atom_site_fract_z
Si Si1 0.269180 0.179853 0.861340
Si Si2 0.357476 0.323465 0.321277
Si Si3 0.487387 0.180148 0.059125
Si Si4 0.916009 0.822808 0.160254
Si Si5 0.395335 0.180593 0.609607
Si Si6 0.339187 0.681531 0.750794
Si Si7 0.054327 0.683041 0.916921
Si Si8 0.202800 0.682327 0.988956
O O1 0.266349 0.267069 0.731911
O O2 0.204841 0.242894 0.863432
O O3 0.256470 0.000000 0.823695
O O4 0.349781 0.212282 0.027540
O O5 0.355411 0.500000 0.362491
O O6 0.422474 0.302475 0.307741
O O7 0.377532 0.211665 0.452454
O O8 0.276607 0.274281 0.161522
O O9 0.408820 0.220015 0.892762
O O10 0.552044 0.229431 0.051373
O O11 0.492259 0.000000 0.093820
O O12 0.491782 0.272807 0.188480
O O13 0.894561 0.000000 0.102986
O O14 0.333133 0.269412 0.607547
O O15 0.479701 0.243977 0.750777
O O16 0.388843 0.000000 0.626439
O O17 0.352872 0.500000 0.780519
O O18 0.056319 0.500000 0.909523
O O19 0.129738 0.752442 0.958468
O O20 0.197359 0.500000 0.965041
#
# Coordination Sequence:
#
# PCOD8052706 Si02
#       8
#     4   4   4   4   4   4   4   4
#     4  10  17  26  42  67  94 116 148 192 234 269
#     4   9  18  30  46  68  92 121 155 190 229 273
#     4   9  15  25  43  68  93 116 149 192 233 266
#     4   9  16  27  43  64  90 121 155 188 225 269
#     4  10  19  31  48  70  95 121 152 191 231 270
#     4  10  17  27  44  65  90 120 153 187 227 272
#     4   8  16  30  48  69  92 121 154 189 227 269
#     4   9  17  32  50  67  92 124 158 189 222 272
#
# _framework density 18.168317999999999
#
# number of rings (size 3 to 8) (size 9 to 14) (size 15 to 20)
#    0.000    2.750    0.000    6.375    0.000    2.500 
#    0.000    3.750    0.000    1.500    0.000    7.000 
#    0.000    0.000    0.000    0.000    0.000    0.000 
#
# Total GULP energy -198231.790155 kJ/mol
# GULP energy per Si atom -12389.486885 kJ/mol
# Density = 1.812697 g / cm^3
# Si number density = 18.168318 Si / 1000 Ang^3
#
#
#
# Elastic Constant Matrix: (Units=GPa)
#
#
# Indices 1 2 3 4 5 6 
#
# 1 174.4290 41.0356 46.8112 0.0000 -33.5559 0.0000
# 2 41.0356 60.9934 22.2027 0.0000 -12.9627 0.0000
# 3 46.8112 22.2027 50.1551 0.0000 -21.4074 0.0000
# 4 0.0000 0.0000 0.0000 19.9120 0.0000 -11.1134
# 5 -33.5559 -12.9627 -21.4074 0.0000 27.6744 0.0000
# 6 0.0000 0.0000 0.0000 -11.1134 0.0000 29.1758
#
#
#
# Elastic Compliance Matrix: (Units=1/GPa)
#
#
# Indices 1 2 3 4 5 6 
#
# 1 0.008730 -0.003070 -0.004306 0.000000 0.005816 0.000000
# 2 -0.003070 0.020878 -0.005661 0.000000 0.001678 0.000000
# 3 -0.004306 -0.005661 0.034491 0.000000 0.018807 0.000000
# 4 0.000000 0.000000 0.000000 0.063780 0.000000 0.024295
# 5 0.005816 0.001678 0.018807 0.000000 0.058521 0.000000
# 6 0.000000 0.000000 0.000000 0.024295 0.000000 0.043529
#
#
# Mechanical properties :
#
#
# Convention : Reuss Voigt Hill
#
# Bulk Modulus (GPa) = 26.29904 56.18629 41.24266
# Shear Modulus (GPa) = 18.60970 27.05430 22.83200
#
# Velocity S-wave (km/s) = 3.20393 3.86306 3.54883
# Velocity P-wave (km/s) = 5.30976 7.13374 6.28823
#
# Compressibility (1/GPa) = 0.03802420
#
# Stress axis : x y z
#
# Youngs Moduli (GPa) = 114.55162 47.89795 28.99332
#
# Poissons Ratio (x) = 0.14703 0.12486
# Poissons Ratio (y) = 0.35162 0.16413
# Poissons Ratio (z) = 0.49331 0.27115
#
# Static dielectric constant tensor:
#      x y z
#    x 4.271950 0.000000 -0.482180 
#    y 0.000000 3.205090 0.000000 
#    z -0.482180 0.000000 2.937060 
# 
# 
# High freq. dielectric constant tensor:
#      x y z
#    x 1.720710 0.000000 -0.044210 
#    y 0.000000 1.699250 0.000000 
#    z -0.044210 0.000000 1.639270 
# 
# From -- ./inp_files/24261.got.cif
#   From: 2010.03.12/outbox.cif.g09.slc.cpg/sg8_13_cif.got.tgz:24261.got - 2010.03.31 10:45:26.
