data_PCOD8052282
_publ_section_title
;
Structure prediction by ZEFSAII (Michael W. Deem and Ramdas Pophale) SiO2 
 PCOD8052282
Probable space group: P M
;
_chemical_formula_sum "Si O2"
_cell_formula_units_Z 16
_cell_length_a 20.841003
_cell_length_b 8.603089
_cell_length_c 9.338032
_cell_angle_alpha 90.000000
_cell_angle_beta 29.853630
_cell_angle_gamma 90.000000
_cell_volume 833.433702
_symmetry_space_group_name_H-M "P M"
_symmetry_group_IT_number 6
_symmetry_cell_setting 'monoclinic'
loop_
_space_group_symop_operation_xyz
x,y,z
x,-y,z
loop_
_atom_site_type_symbol
_atom_site_label
_atom_site_fract_x
_atom_site_fract_y
_atom_site_fract_z
Si Si1 0.044640 0.816437 0.335000
Si Si2 0.307031 0.671881 0.775009
Si Si3 0.811867 0.183862 0.589437
Si Si4 0.068526 0.686233 0.599772
Si Si5 0.615125 0.685072 0.460149
Si Si6 0.345271 0.670119 0.037697
Si Si7 0.572256 0.816417 0.235693
Si Si8 0.840584 0.816440 0.211960
O O1 0.025770 0.731556 0.522940
O O2 0.929702 0.753459 0.457242
O O3 0.038169 0.000000 0.373178
O O4 0.179017 0.773778 0.996464
O O5 0.287254 0.500000 0.746805
O O6 0.432854 0.749866 0.459972
O O7 0.332158 0.657389 0.893325
O O8 0.824583 0.247437 0.403642
O O9 0.820456 0.000000 0.570593
O O10 0.675052 0.239026 0.917734
O O11 0.061940 0.500000 0.625696
O O12 0.214730 0.751798 0.348031
O O13 0.981851 0.769800 0.885135
O O14 0.604075 0.500000 0.465970
O O15 0.626496 0.757217 0.281558
O O16 0.738379 0.730264 0.311284
O O17 0.484727 0.751456 0.793467
O O18 0.349366 0.500000 0.100194
O O19 0.561046 0.000000 0.265458
O O20 0.820122 0.000000 0.240201
#
# Coordination Sequence:
#
# PCOD8052282 Si02
#       8
#     2   2   2   2   2   2   2   2
#     4  10  18  33  57  82 104 136 176 216 261 313
#     4   9  17  31  50  79 112 138 166 212 262 309
#     4   9  21  37  52  72 104 139 178 223 262 302
#     4  10  19  34  55  81 107 134 168 215 267 316
#     4  10  19  34  55  81 107 134 168 215 267 316
#     4   7  14  29  50  73 102 130 158 200 254 305
#     4  10  18  33  57  82 104 136 176 216 261 313
#     4  11  22  37  52  72 104 143 180 217 258 312
#
# _framework density 19.197687999999999
#
# number of rings (size 3 to 8) (size 9 to 14) (size 15 to 20)
#    0.000    2.500    0.000    4.500    0.000    1.000 
#    0.000   10.000    0.000    4.500    0.000    0.000 
#    0.000    0.000    0.000    0.000    0.000    0.000 
#
# Total GULP energy -198288.309036 kJ/mol
# GULP energy per Si atom -12393.019315 kJ/mol
# Density = 1.915399 g / cm^3
# Si number density = 19.197688 Si / 1000 Ang^3
#
#
#
# Elastic Constant Matrix: (Units=GPa)
#
#
# Indices 1 2 3 4 5 6 
#
# 1 29.9404 9.3491 49.3887 0.0000 10.3088 0.0000
# 2 9.3491 48.3766 19.8294 0.0000 -3.0702 0.0000
# 3 49.3887 19.8294 170.0125 0.0000 -7.1861 0.0000
# 4 0.0000 0.0000 0.0000 25.3141 0.0000 -7.4824
# 5 10.3088 -3.0702 -7.1861 0.0000 22.4732 0.0000
# 6 0.0000 0.0000 0.0000 -7.4824 0.0000 8.7462
#
#
#
# Elastic Compliance Matrix: (Units=1/GPa)
#
#
# Indices 1 2 3 4 5 6 
#
# 1 0.122684 -0.012945 -0.037084 0.000000 -0.069903 0.000000
# 2 -0.012945 0.023181 0.001461 0.000000 0.009572 0.000000
# 3 -0.037084 0.001461 0.017448 0.000000 0.022790 0.000000
# 4 0.000000 0.000000 0.000000 0.052874 0.000000 0.045234
# 5 -0.069903 0.009572 0.022790 0.000000 0.085158 0.000000
# 6 0.000000 0.000000 0.000000 0.045234 0.000000 0.153033
#
#
# Mechanical properties :
#
#
# Convention : Reuss Voigt Hill
#
# Bulk Modulus (GPa) = 15.11110 45.05157 30.08134
# Shear Modulus (GPa) = 8.71728 22.62420 15.67074
#
# Velocity S-wave (km/s) = 2.13323 3.43663 2.86017
# Velocity P-wave (km/s) = 3.73577 6.26621 5.15855
#
# Compressibility (1/GPa) = 0.06617651
#
# Stress axis : x y z
#
# Youngs Moduli (GPa) = 8.15105 43.13817 57.31373
#
# Poissons Ratio (x) = 0.55842 2.12545
# Poissons Ratio (y) = 0.10552 -0.08376
# Poissons Ratio (z) = 0.30228 -0.06304
#
# Static dielectric constant tensor:
#      x y z
#    x 3.360010 0.000000 -0.292100 
#    y 0.000000 3.396300 0.000000 
#    z -0.292100 0.000000 3.989650 
# 
# 
# High freq. dielectric constant tensor:
#      x y z
#    x 1.715870 0.000000 -0.024900 
#    y 0.000000 1.734810 0.000000 
#    z -0.024900 0.000000 1.764630 
# 
# From -- ./inp_files/3609.got.cif
#   From: 2010.03.12/outbox.cif.g09.slc.cpg/sg6_2_cif.got.tgz:3609.got - 2010.03.30 10:24:59.
