data_PCOD8052843
_publ_section_title
;
Structure prediction by ZEFSAII (Michael W. Deem and Ramdas Pophale) SiO2 
 PCOD8052843
Probable space group: C M
;
_chemical_formula_sum "Si O2"
_cell_formula_units_Z 32
_cell_length_a 33.233936
_cell_length_b 8.854718
_cell_length_c 12.596568
_cell_angle_alpha 90.000000
_cell_angle_beta 26.406640
_cell_angle_gamma 90.000000
_cell_volume 1648.594874
_symmetry_space_group_name_H-M "C M"
_symmetry_group_IT_number 8
_symmetry_cell_setting 'monoclinic'
loop_
_space_group_symop_operation_xyz
x,y,z
x,-y,z
1/2+x,1/2+y,z
1/2+x,1/2-y,z
loop_
_atom_site_type_symbol
_atom_site_label
_atom_site_fract_x
_atom_site_fract_y
_atom_site_fract_z
Si Si1 0.291280 0.823556 0.451470
Si Si2 0.788219 0.321697 0.076494
Si Si3 0.536509 0.174145 0.182399
Si Si4 0.103708 0.673636 0.568053
Si Si5 0.908109 0.320896 0.983693
Si Si6 0.121173 0.328298 0.768430
Si Si7 0.230075 0.679205 0.802701
Si Si8 0.845073 0.679831 0.710505
O O1 0.199829 0.791612 0.602577
O O2 0.294356 0.731748 0.553981
O O3 0.298663 0.000000 0.460878
O O4 0.371726 0.766612 0.184380
O O5 0.791894 0.500000 0.073632
O O6 0.684975 0.272999 0.333207
O O7 0.849643 0.249971 0.025353
O O8 0.827220 0.265509 0.872392
O O9 0.443314 0.247865 0.444869
O O10 0.531813 0.000000 0.223957
O O11 0.541836 0.199055 0.042422
O O12 0.627409 0.239621 0.023815
O O13 0.126484 0.500000 0.489623
O O14 0.083106 0.697155 0.741273
O O15 0.012679 0.727140 0.723039
O O16 0.898908 0.500000 0.001856
O O17 0.158526 0.500000 0.694962
O O18 0.232709 0.500000 0.803789
O O19 0.265812 0.750027 0.826672
O O20 0.841202 0.500000 0.707173
#
# Coordination Sequence:
#
# PCOD8052843 Si02
#       8
#     4   4   4   4   4   4   4   4
#     4  10  18  32  57  82 112 148 183 222 272 329
#     4  10  21  39  56  79 114 146 186 233 274 320
#     4   8  17  34  55  79 108 144 181 221 270 325
#     4  10  20  34  56  83 109 145 187 228 274 326
#     4   9  19  34  55  81 109 147 189 226 266 327
#     4   9  17  31  53  80 114 144 178 228 278 324
#     4  10  21  37  56  83 115 143 179 230 280 327
#     4  10  21  37  60  81 105 149 193 228 268 324
#
# _framework density 19.41047
#
# number of rings (size 3 to 8) (size 9 to 14) (size 15 to 20)
#    0.000    2.500    1.250    1.500    1.750    1.500 
#    0.000    7.500    0.000    0.000    0.000    0.000 
#    0.000    0.000    0.000    0.000    0.000    0.000 
#
# Total GULP energy -198346.992467 kJ/mol
# GULP energy per Si atom -12396.687029 kJ/mol
# Density = 1.936629 g / cm^3
# Si number density = 19.410470 Si / 1000 Ang^3
#
#
#
# Elastic Constant Matrix: (Units=GPa)
#
#
# Indices 1 2 3 4 5 6 
#
# 1 102.9852 26.0224 65.2784 0.0000 4.6526 0.0000
# 2 26.0224 20.4011 13.3950 0.0000 7.0120 0.0000
# 3 65.2784 13.3950 134.6889 0.0000 8.0992 0.0000
# 4 0.0000 0.0000 0.0000 23.3255 0.0000 -2.0245
# 5 4.6526 7.0120 8.0992 0.0000 27.4927 0.0000
# 6 0.0000 0.0000 0.0000 -2.0245 0.0000 25.6394
#
#
#
# Elastic Compliance Matrix: (Units=1/GPa)
#
#
# Indices 1 2 3 4 5 6 
#
# 1 0.019970 -0.021917 -0.007769 0.000000 0.004499 0.000000
# 2 -0.021917 0.080736 0.003673 0.000000 -0.017965 0.000000
# 3 -0.007769 0.003673 0.010997 0.000000 -0.002862 0.000000
# 4 0.000000 0.000000 0.000000 0.043167 0.000000 0.003408
# 5 0.004499 -0.017965 -0.002862 0.000000 0.041037 0.000000
# 6 0.000000 0.000000 0.000000 0.003408 0.000000 0.039272
#
#
# Mechanical properties :
#
#
# Convention : Reuss Voigt Hill
#
# Bulk Modulus (GPa) = 16.75720 51.94074 34.34897
# Shear Modulus (GPa) = 16.28156 25.51682 20.89919
#
# Velocity S-wave (km/s) = 2.89935 3.62966 3.28487
# Velocity P-wave (km/s) = 4.45647 6.66207 5.66760
#
# Compressibility (1/GPa) = 0.05967583
#
# Stress axis : x y z
#
# Youngs Moduli (GPa) = 50.07617 12.38609 90.93590
#
# Poissons Ratio (x) = 0.27147 0.70651
# Poissons Ratio (y) = 1.09753 -0.33404
# Poissons Ratio (z) = 0.38906 -0.04550
#
# Static dielectric constant tensor:
#      x y z
#    x 3.687840 0.000000 0.037810 
#    y 0.000000 3.223630 0.000000 
#    z 0.037810 0.000000 3.687070 
# 
# 
# High freq. dielectric constant tensor:
#      x y z
#    x 1.758480 0.000000 0.001320 
#    y 0.000000 1.720460 0.000000 
#    z 0.001320 0.000000 1.757630 
# 
# From -- ./inp_files/21865.got.cif
#   From: 2010.03.12/outbox.cif.g09.slc.cpg/sg8_11_cif.got.tgz:21865.got - 2010.03.31 10:45:26.
