data_PCOD8052591
_publ_section_title
;
Structure prediction by ZEFSAII (Michael W. Deem and Ramdas Pophale) SiO2 
 PCOD8052591
Probable space group: P C
;
_chemical_formula_sum "Si O2"
_cell_formula_units_Z 12
_cell_length_a 7.591001
_cell_length_b 13.988499
_cell_length_c 5.322214
_cell_angle_alpha 90.000000
_cell_angle_beta 119.069206
_cell_angle_gamma 90.000000
_cell_volume 493.958618
_symmetry_space_group_name_H-M "P C"
_symmetry_group_IT_number 7
_symmetry_cell_setting 'monoclinic'
loop_
_space_group_symop_operation_xyz
x,y,z
x,-y,1/2+z
loop_
_atom_site_type_symbol
_atom_site_label
_atom_site_fract_x
_atom_site_fract_y
_atom_site_fract_z
Si Si1 0.948230 0.057045 0.608810
Si Si2 0.761165 0.447687 0.367655
Si Si3 0.295854 0.817049 0.368930
Si Si4 0.122297 0.264781 0.254395
Si Si5 0.197758 0.522487 0.709110
Si Si6 0.738109 0.227955 0.251852
O O1 0.834295 0.159895 0.533805
O O2 0.188679 0.079911 0.754054
O O3 0.887121 0.997660 0.319135
O O4 0.674719 0.498117 0.559678
O O5 0.698254 0.335504 0.327606
O O6 0.005814 0.451956 0.535235
O O7 0.236244 0.788597 0.611272
O O8 0.535396 0.823102 0.518560
O O9 0.230526 0.745188 0.100440
O O10 0.109504 0.373530 0.168114
O O11 0.892066 0.228757 0.122066
O O12 0.328568 0.511223 0.542928
#
# Coordination Sequence:
#
# PCOD8052591 Si02
#       6
#     2   2   2   2   2   2
#     4  11  26  48  75 106 136 180 236 298 368 427
#     4  10  21  36  66 100 138 191 230 277 332 410
#     4  11  27  44  71 108 138 180 240 295 344 434
#     4  11  23  43  68  98 145 188 232 282 347 407
#     4  10  18  34  63  89 133 192 228 277 334 383
#     4  11  25  47  77 101 148 189 234 289 365 409
#
# _framework density 24.293531999999999
#
# number of rings (size 3 to 8) (size 9 to 14) (size 15 to 20)
#    0.000    1.333    3.333    3.000    7.000    8.000 
#    0.000    5.000    0.000    0.000    0.000    0.000 
#    0.000    0.000    0.000    0.000    0.000    0.000 
#
# Total GULP energy -148717.587463 kJ/mol
# GULP energy per Si atom -12393.132289 kJ/mol
# Density = 2.423824 g / cm^3
# Si number density = 24.293532 Si / 1000 Ang^3
#
#
#
# Elastic Constant Matrix: (Units=GPa)
#
#
# Indices 1 2 3 4 5 6 
#
# 1 106.7057 10.4792 57.8506 0.0000 -10.9596 0.0000
# 2 10.4792 111.3042 51.0315 0.0000 -5.8834 0.0000
# 3 57.8506 51.0315 161.7259 0.0000 -42.3084 0.0000
# 4 0.0000 0.0000 0.0000 33.8762 0.0000 -2.8396
# 5 -10.9596 -5.8834 -42.3084 0.0000 47.0044 0.0000
# 6 0.0000 0.0000 0.0000 -2.8396 0.0000 18.2505
#
#
#
# Elastic Compliance Matrix: (Units=1/GPa)
#
#
# Indices 1 2 3 4 5 6 
#
# 1 0.011802 0.001089 -0.004983 0.000000 -0.001597 0.000000
# 2 0.001089 0.010779 -0.004410 0.000000 -0.002366 0.000000
# 3 -0.004983 -0.004410 0.011653 0.000000 0.008775 0.000000
# 4 0.000000 0.000000 0.000000 0.029909 0.000000 0.004654
# 5 -0.001597 -0.002366 0.008775 0.000000 0.028504 0.000000
# 6 0.000000 0.000000 0.000000 0.004654 0.000000 0.055517
#
#
# Mechanical properties :
#
#
# Convention : Reuss Voigt Hill
#
# Bulk Modulus (GPa) = 56.73421 68.71761 62.72591
# Shear Modulus (GPa) = 29.30021 37.18451 33.24236
#
# Velocity S-wave (km/s) = 3.47665 3.91658 3.70315
# Velocity P-wave (km/s) = 6.28653 6.98574 6.64534
#
# Compressibility (1/GPa) = 0.01762605
#
# Stress axis : x y z
#
# Youngs Moduli (GPa) = 84.72961 92.77678 85.81600
#
# Poissons Ratio (x) = -0.10105 0.42765
# Poissons Ratio (y) = -0.09228 0.37842
# Poissons Ratio (z) = 0.42223 0.40912
#
# Static dielectric constant tensor:
#      x y z
#    x 4.351020 0.000000 -0.417860 
#    y 0.000000 4.374920 0.000000 
#    z -0.417860 0.000000 4.930980 
# 
# 
# High freq. dielectric constant tensor:
#      x y z
#    x 1.955950 0.000000 -0.016710 
#    y 0.000000 1.958800 0.000000 
#    z -0.016710 0.000000 1.977890 
# 
# From -- ./inp_files/770.got.cif
#   From: 2010.03.12/outbox.cif.g09.slc.cpg/sg7_cif.got.tgz:770.got - 2010.03.30 08:40:41.
