data_PCOD8052114
_publ_section_title
;
Structure prediction by ZEFSAII (Michael W. Deem and Ramdas Pophale) SiO2 
 PCOD8052114
Probable space group: C 2
;
_chemical_formula_sum "Si O2"
_cell_formula_units_Z 16
_cell_length_a 8.043369
_cell_length_b 12.875161
_cell_length_c 8.083531
_cell_angle_alpha 90.000000
_cell_angle_beta 54.044440
_cell_angle_gamma 90.000000
_cell_volume 677.632068
_symmetry_space_group_name_H-M "C 2"
_symmetry_group_IT_number 5
_symmetry_cell_setting 'monoclinic'
loop_
_space_group_symop_operation_xyz
x,y,z
-x,y,-z
1/2+x,1/2+y,z
1/2-x,1/2+y,-z
loop_
_atom_site_type_symbol
_atom_site_label
_atom_site_fract_x
_atom_site_fract_y
_atom_site_fract_z
Si Si1 0.849671 0.851320 0.939834
Si Si2 0.217897 0.993945 0.309652
Si Si3 0.060364 0.316381 0.641891
Si Si4 0.907025 0.670864 0.382803
O O1 0.792296 0.958191 0.876498
O O2 0.954470 0.765517 0.762667
O O3 0.640435 0.800322 0.128815
O O4 0.000000 0.883749 0.000000
O O5 0.272317 0.891362 0.378375
O O6 0.000000 0.035046 0.500000
O O7 0.389780 0.081962 0.250247
O O8 0.173516 0.206380 0.554760
O O9 0.000000 0.363380 0.500000
O O10 0.000000 0.625988 0.500000
#
# Coordination Sequence:
#
# PCOD8052114 Si02
#       4
#     4   4   4   4
#     4  12  25  47  79 111 156 203 252 314 384 451
#     4  12  25  48  78 115 156 201 253 316 382 454
#     4  12  23  48  77 106 161 199 245 326 372 446
#     4  12  26  49  78 117 152 200 259 312 384 454
#
# _framework density 23.611633000000001
#
# number of rings (size 3 to 8) (size 9 to 14) (size 15 to 20)
#    0.000    0.000    7.500    2.250    0.000    2.000 
#    0.000    0.000    5.500    0.000    0.000    0.000 
#    0.000    0.000    0.000    0.000    0.000    0.000 
#
# Total GULP energy -99202.998555 kJ/mol
# GULP energy per Si atom -12400.374819 kJ/mol
# Density = 2.355789 g / cm^3
# Si number density = 23.611633 Si / 1000 Ang^3
#
#
#
# Elastic Constant Matrix: (Units=GPa)
#
#
# Indices 1 2 3 4 5 6 
#
# 1 157.5903 56.8772 50.8221 0.0000 25.3296 -0.0001
# 2 56.8772 106.2501 36.6698 0.0000 10.6014 0.0000
# 3 50.8221 36.6698 135.9912 0.0000 -9.7077 0.0000
# 4 0.0000 0.0000 0.0000 43.1799 0.0000 98.2572
# 5 25.3296 10.6014 -9.7077 0.0000 50.6129 0.0000
# 6 -0.0001 0.0000 0.0000 98.2572 0.0000 406.2542
#
#
#
# Elastic Compliance Matrix: (Units=1/GPa)
#
#
# Indices 1 2 3 4 5 6 
#
# 1 0.009240 -0.003533 -0.002816 0.000000 -0.004424 0.000000
# 2 -0.003533 0.012119 -0.002031 0.000000 -0.001160 0.000000
# 3 -0.002816 -0.002031 0.009211 0.000000 0.003601 0.000000
# 4 0.000000 0.000000 0.000000 0.051506 0.000000 -0.012457
# 5 -0.004424 -0.001160 0.003601 0.000000 0.022906 0.000000
# 6 0.000000 0.000000 0.000000 -0.012457 0.000000 0.005474
#
#
# Mechanical properties :
#
#
# Convention : Reuss Voigt Hill
#
# Bulk Modulus (GPa) = 72.40819 76.50775 74.45797
# Shear Modulus (GPa) = 37.93074 117.04022 77.48548
#
# Velocity S-wave (km/s) = 4.01239 7.04816 5.73480
# Velocity P-wave (km/s) = 7.22486 9.93520 8.68639
#
# Compressibility (1/GPa) = 0.01381059
#
# Stress axis : x y z
#
# Youngs Moduli (GPa) = 108.22451 82.51181 108.57120
#
# Poissons Ratio (x) = 0.29150 0.30578
# Poissons Ratio (y) = 0.38234 0.22046
# Poissons Ratio (z) = 0.30480 0.16754
#
# Static dielectric constant tensor:
#      x y z
#    x 4.659850 0.000000 0.030340 
#    y 0.000000 3.995010 0.000000 
#    z 0.030340 0.000000 3.284270 
# 
# 
# High freq. dielectric constant tensor:
#      x y z
#    x 1.966100 0.000000 -0.000050 
#    y 0.000000 1.914930 0.000000 
#    z -0.000050 0.000000 1.931980 
# 
# From -- ./inp_files/13892.got.cif
#   From: 2010.03.12/outbox.cif.g09.slc.cpg/sg5_7_cif.got.tgz:13892.got - 2010.03.31 09:47:26.
