data_PCOD8052253
_publ_section_title
;
Structure prediction by ZEFSAII (Michael W. Deem and Ramdas Pophale) SiO2 
 PCOD8052253
Probable space group: P M
;
_chemical_formula_sum "Si O2"
_cell_formula_units_Z 16
_cell_length_a 9.616700
_cell_length_b 8.872070
_cell_length_c 17.278114
_cell_angle_alpha 90.000000
_cell_angle_beta 39.145907
_cell_angle_gamma 90.000000
_cell_volume 930.639240
_symmetry_space_group_name_H-M "P M"
_symmetry_group_IT_number 6
_symmetry_cell_setting 'monoclinic'
loop_
_space_group_symop_operation_xyz
x,y,z
x,-y,z
loop_
_atom_site_type_symbol
_atom_site_label
_atom_site_fract_x
_atom_site_fract_y
_atom_site_fract_z
Si Si1 0.328100 0.177463 0.466490
Si Si2 0.936848 0.328407 0.919564
Si Si3 0.864625 0.825360 0.091863
Si Si4 0.392231 0.322711 0.283694
Si Si5 0.609327 0.821949 0.961310
Si Si6 0.202655 0.324206 0.200768
Si Si7 0.003504 0.327291 0.724094
Si Si8 0.827093 0.174092 0.280735
O O1 0.263142 0.260386 0.414803
O O2 0.158638 0.225658 0.605417
O O3 0.572401 0.224492 0.388712
O O4 0.314918 0.000000 0.458028
O O5 0.866917 0.500000 0.965576
O O6 0.092546 0.318398 0.775762
O O7 0.714880 0.231668 0.997497
O O8 0.033094 0.255676 0.957591
O O9 0.626487 0.756228 0.179538
O O10 0.937160 0.797243 0.148773
O O11 0.857271 0.000000 0.075991
O O12 0.425274 0.500000 0.277768
O O13 0.249450 0.281349 0.269577
O O14 0.753650 0.740861 0.830779
O O15 0.618562 0.000000 0.945418
O O16 0.358076 0.765528 0.072824
O O17 0.235826 0.500000 0.171596
O O18 0.952893 0.275224 0.289378
O O19 0.999945 0.500000 0.696540
O O20 0.847347 0.000000 0.295855
#
# Coordination Sequence:
#
# PCOD8052253 Si02
#       8
#     2   2   2   2   2   2   2   2
#     4  10  20  34  52  75 100 131 173 210 248 300
#     4   9  17  28  46  74 101 126 159 202 247 294
#     4  10  18  30  49  74 100 130 168 208 250 298
#     4  10  19  30  48  71  99 129 165 212 253 296
#     4  10  18  29  50  75 100 130 162 205 250 291
#     4  11  21  33  50  76 104 135 170 205 253 306
#     4   9  18  31  49  75 103 129 165 209 250 295
#     4   9  21  35  48  72 105 136 168 207 251 302
#
# _framework density 17.192482999999999
#
# number of rings (size 3 to 8) (size 9 to 14) (size 15 to 20)
#    0.750    1.500    1.250    3.750    0.000    4.500 
#    0.000    0.000    0.000    1.500    0.000    3.500 
#    0.000    0.000    0.000    0.000    0.000    0.000 
#
# Total GULP energy -198235.180500 kJ/mol
# GULP energy per Si atom -12389.698781 kJ/mol
# Density = 1.715335 g / cm^3
# Si number density = 17.192483 Si / 1000 Ang^3
#
#
#
# Elastic Constant Matrix: (Units=GPa)
#
#
# Indices 1 2 3 4 5 6 
#
# 1 72.4266 23.1941 23.6238 0.0000 3.1018 0.0000
# 2 23.1941 50.5068 5.3992 0.0000 -0.8304 0.0000
# 3 23.6238 5.3992 72.6604 0.0000 9.2135 0.0000
# 4 0.0000 0.0000 0.0000 23.6149 0.0000 4.7968
# 5 3.1018 -0.8304 9.2135 0.0000 18.4015 0.0000
# 6 0.0000 0.0000 0.0000 4.7968 0.0000 26.9924
#
#
#
# Elastic Compliance Matrix: (Units=1/GPa)
#
#
# Indices 1 2 3 4 5 6 
#
# 1 0.018005 -0.007728 -0.005179 0.000000 -0.000790 0.000000
# 2 -0.007728 0.023328 0.000513 0.000000 0.002099 0.000000
# 3 -0.005179 0.000513 0.016332 0.000000 -0.007281 0.000000
# 4 0.000000 0.000000 0.000000 0.043932 0.000000 -0.007807
# 5 -0.000790 0.002099 -0.007281 0.000000 0.058217 0.000000
# 6 0.000000 0.000000 0.000000 -0.007807 0.000000 0.038435
#
#
# Mechanical properties :
#
#
# Convention : Reuss Voigt Hill
#
# Bulk Modulus (GPa) = 30.41720 33.33645 31.87683
# Shear Modulus (GPa) = 21.36794 23.36022 22.36408
#
# Velocity S-wave (km/s) = 3.52925 3.69012 3.61058
# Velocity P-wave (km/s) = 5.85987 6.13092 5.99693
#
# Compressibility (1/GPa) = 0.03287613
#
# Stress axis : x y z
#
# Youngs Moduli (GPa) = 55.53978 42.86735 61.23037
#
# Poissons Ratio (x) = 0.33127 0.31714
# Poissons Ratio (y) = 0.42920 -0.03141
# Poissons Ratio (z) = 0.28767 -0.02199
#
# Static dielectric constant tensor:
#      x y z
#    x 3.122140 0.000000 0.328850 
#    y 0.000000 3.295800 0.000000 
#    z 0.328850 0.000000 3.150710 
# 
# 
# High freq. dielectric constant tensor:
#      x y z
#    x 1.632640 0.000000 0.025440 
#    y 0.000000 1.681130 0.000000 
#    z 0.025440 0.000000 1.644150 
# 
# From -- ./inp_files/5344.got.cif
#   From: 2010.03.12/outbox.cif.g09.slc.cpg/sg6_3_cif.got.tgz:5344.got - 2010.03.30 10:24:59.
