data_PCOD8052443
_publ_section_title
;
Structure prediction by ZEFSAII (Michael W. Deem and Ramdas Pophale) SiO2 
 PCOD8052443
Probable space group: P M
;
_chemical_formula_sum "Si O2"
_cell_formula_units_Z 16
_cell_length_a 9.228339
_cell_length_b 8.805015
_cell_length_c 11.153215
_cell_angle_alpha 90.000000
_cell_angle_beta 114.600410
_cell_angle_gamma 90.000000
_cell_volume 824.003329
_symmetry_space_group_name_H-M "P M"
_symmetry_group_IT_number 6
_symmetry_cell_setting 'monoclinic'
loop_
_space_group_symop_operation_xyz
x,y,z
x,-y,z
loop_
_atom_site_type_symbol
_atom_site_label
_atom_site_fract_x
_atom_site_fract_y
_atom_site_fract_z
Si Si1 0.824300 0.322023 0.189860
Si Si2 0.461703 0.825859 0.452451
Si Si3 0.043900 0.176529 0.668434
Si Si4 0.876316 0.180139 0.955282
Si Si5 0.113292 0.175832 0.422707
Si Si6 0.747311 0.322471 0.678915
Si Si7 0.205005 0.821716 0.963514
Si Si8 0.519772 0.823254 0.194690
O O1 0.818746 0.500000 0.168562
O O2 0.676731 0.270466 0.219487
O O3 0.985563 0.278684 0.312506
O O4 0.812188 0.243042 0.057396
O O5 0.283305 0.782816 0.427360
O O6 0.576832 0.715646 0.564684
O O7 0.478424 0.796939 0.318026
O O8 0.500985 0.000000 0.499143
O O9 0.116742 0.214859 0.564793
O O10 0.175733 0.220704 0.814067
O O11 0.882786 0.270532 0.632022
O O12 0.997792 0.000000 0.665604
O O13 0.761714 0.237100 0.810266
O O14 0.056438 0.239409 0.991519
O O15 0.869718 0.000000 0.956007
O O16 0.069086 0.000000 0.385522
O O17 0.762255 0.500000 0.706741
O O18 0.214908 0.000000 0.986985
O O19 0.372696 0.753930 0.066360
O O20 0.550551 0.000000 0.176557
#
# Coordination Sequence:
#
# PCOD8052443 Si02
#       8
#     2   2   2   2   2   2   2   2
#     4  12  25  38  54  82 117 149 185 231 287 343
#     4  10  21  37  58  84 112 148 196 241 279 327
#     4   9  18  35  59  85 113 147 189 232 276 331
#     4  10  20  39  64  85 109 145 189 233 279 333
#     4  10  21  38  60  84 110 147 196 241 279 327
#     4  11  22  36  56  85 119 151 184 226 282 340
#     4   8  16  33  59  87 109 137 184 237 279 321
#     4  10  20  36  58  82 111 148 191 235 279 332
#
# _framework density 19.417396
#
# number of rings (size 3 to 8) (size 9 to 14) (size 15 to 20)
#    0.000    2.000    0.000    4.875    0.000    7.500 
#    0.000    6.875    0.000    0.000    0.000    0.000 
#    0.000    0.000    0.000    0.000    0.000    0.000 
#
# Total GULP energy -198450.133698 kJ/mol
# GULP energy per Si atom -12403.133356 kJ/mol
# Density = 1.937320 g / cm^3
# Si number density = 19.417396 Si / 1000 Ang^3
#
#
#
# Elastic Constant Matrix: (Units=GPa)
#
#
# Indices 1 2 3 4 5 6 
#
# 1 123.6887 45.6205 67.8052 0.0000 -5.0028 0.0000
# 2 45.6205 90.3418 47.2050 0.0000 -1.0792 0.0000
# 3 67.8052 47.2050 119.5986 0.0000 2.5590 0.0000
# 4 0.0000 0.0000 0.0000 21.6491 0.0000 -1.3575
# 5 -5.0028 -1.0792 2.5590 0.0000 36.6880 0.0000
# 6 0.0000 0.0000 0.0000 -1.3575 0.0000 6.5317
#
#
#
# Elastic Compliance Matrix: (Units=1/GPa)
#
#
# Indices 1 2 3 4 5 6 
#
# 1 0.012605 -0.003255 -0.005905 0.000000 0.002035 0.000000
# 2 -0.003255 0.014809 -0.004005 0.000000 0.000271 0.000000
# 3 -0.005905 -0.004005 0.013329 0.000000 -0.001853 0.000000
# 4 0.000000 0.000000 0.000000 0.046801 0.000000 0.009726
# 5 0.002035 0.000271 -0.001853 0.000000 0.027672 0.000000
# 6 0.000000 0.000000 0.000000 0.009726 0.000000 0.155121
#
#
# Mechanical properties :
#
#
# Convention : Reuss Voigt Hill
#
# Bulk Modulus (GPa) = 69.38491 72.76561 71.07526
# Shear Modulus (GPa) = 16.58527 24.50698 20.54613
#
# Velocity S-wave (km/s) = 2.92575 3.55648 3.25642
# Velocity P-wave (km/s) = 6.87199 7.37703 7.12898
#
# Compressibility (1/GPa) = 0.01441235
#
# Stress axis : x y z
#
# Youngs Moduli (GPa) = 79.33486 67.52633 75.02198
#
# Poissons Ratio (x) = 0.21983 0.44299
# Poissons Ratio (y) = 0.25827 0.30048
# Poissons Ratio (z) = 0.46845 0.27046
#
# Static dielectric constant tensor:
#      x y z
#    x 3.611240 0.000000 -0.000060 
#    y 0.000000 3.343960 0.000000 
#    z -0.000060 0.000000 3.730420 
# 
# 
# High freq. dielectric constant tensor:
#      x y z
#    x 1.758540 0.000000 -0.002470 
#    y 0.000000 1.734150 0.000000 
#    z -0.002470 0.000000 1.770570 
# 
# From -- ./inp_files/4653.got.cif
#   From: 2010.03.12/outbox.cif.g09.slc.cpg/sg6_3_cif.got.tgz:4653.got - 2010.03.30 10:24:59.
