data_PCOD8052499
_publ_section_title
;
Structure prediction by ZEFSAII (Michael W. Deem and Ramdas Pophale) SiO2 
 PCOD8052499
Probable space group: P M
;
_chemical_formula_sum "Si O2"
_cell_formula_units_Z 16
_cell_length_a 14.283903
_cell_length_b 8.891348
_cell_length_c 19.221517
_cell_angle_alpha 90.000000
_cell_angle_beta 160.475491
_cell_angle_gamma 90.000000
_cell_volume 815.871333
_symmetry_space_group_name_H-M "P M"
_symmetry_group_IT_number 6
_symmetry_cell_setting 'monoclinic'
loop_
_space_group_symop_operation_xyz
x,y,z
x,-y,z
loop_
_atom_site_type_symbol
_atom_site_label
_atom_site_fract_x
_atom_site_fract_y
_atom_site_fract_z
Si Si1 0.750000 0.326784 0.727700
Si Si2 0.357306 0.826079 0.342657
Si Si3 0.823400 0.820993 0.421753
Si Si4 0.839989 0.173759 0.585893
Si Si5 0.296888 0.822265 0.647245
Si Si6 0.887029 0.322866 0.083115
Si Si7 0.201441 0.821625 0.965997
Si Si8 0.256276 0.673485 0.475462
O O1 0.819217 0.500000 0.764603
O O2 0.536856 0.272791 0.520330
O O3 0.583448 0.301102 0.683465
O O4 0.041400 0.236139 0.923805
O O5 0.509010 0.808022 0.373923
O O6 0.044097 0.757667 0.127609
O O7 0.354420 0.000000 0.363840
O O8 0.892471 0.753600 0.546842
O O9 0.053487 0.765662 0.528467
O O10 0.813480 0.000000 0.418402
O O11 0.517999 0.761163 0.185090
O O12 0.043654 0.245216 0.787146
O O13 0.920252 0.000000 0.638091
O O14 0.198240 0.778027 0.500941
O O15 0.344494 0.000000 0.685006
O O16 0.573145 0.737119 0.865787
O O17 0.887875 0.500000 0.070406
O O18 0.041769 0.280200 0.263785
O O19 0.186317 0.000000 0.958034
O O20 0.208171 0.500000 0.462099
#
# Coordination Sequence:
#
# PCOD8052499 Si02
#       8
#     2   2   2   2   2   2   2   2
#     4   9  17  31  52  79 109 139 171 211 266 326
#     4   9  16  29  53  83 109 135 172 216 263 319
#     4   9  19  34  50  73 103 135 175 219 264 312
#     4   8  15  29  50  76 105 132 161 206 261 313
#     4  11  23  36  55  82 108 140 186 234 271 313
#     4  10  21  38  58  79 110 148 179 218 274 328
#     4   9  17  31  53  77 102 135 170 211 263 314
#     4   9  20  38  57  77 108 148 180 215 270 327
#
# _framework density 19.610934
#
# number of rings (size 3 to 8) (size 9 to 14) (size 15 to 20)
#    0.000    2.750    0.000    3.000    0.000    5.000 
#    0.000    5.000    0.000   12.000    0.000    0.000 
#    0.000    0.000    0.000    0.000    0.000    0.000 
#
# Total GULP energy -198281.205469 kJ/mol
# GULP energy per Si atom -12392.575342 kJ/mol
# Density = 1.956630 g / cm^3
# Si number density = 19.610934 Si / 1000 Ang^3
#
#
#
# Elastic Constant Matrix: (Units=GPa)
#
#
# Indices 1 2 3 4 5 6 
#
# 1 96.9432 33.5527 28.1687 0.0000 15.2548 0.0000
# 2 33.5527 9.0646 16.7711 0.0000 -4.5073 0.0000
# 3 28.1687 16.7711 94.5513 0.0000 16.7619 0.0000
# 4 0.0000 0.0000 0.0000 21.3437 0.0000 -3.4769
# 5 15.2548 -4.5073 16.7619 0.0000 28.8990 0.0000
# 6 0.0000 0.0000 0.0000 -3.4769 0.0000 15.1752
#
#
#
# Elastic Compliance Matrix: (Units=1/GPa)
#
#
# Indices 1 2 3 4 5 6 
#
# 1 -0.005947 0.047671 -0.009540 0.000000 0.016107 0.000000
# 2 0.047671 -0.127798 0.018347 0.000000 -0.055738 0.000000
# 3 -0.009540 0.018347 0.009768 0.000000 0.002231 0.000000
# 4 0.000000 0.000000 0.000000 0.048669 0.000000 0.011151
# 5 0.016107 -0.055738 0.002231 0.000000 0.016113 0.000000
# 6 0.000000 0.000000 0.000000 0.011151 0.000000 0.068452
#
#
# Mechanical properties :
#
#
# Convention : Reuss Voigt Hill
#
# Bulk Modulus (GPa) = -90.75848 39.72712 -25.51568
# Shear Modulus (GPa) = -46.56644 21.22137 -12.67253
#
# Velocity S-wave (km/s) = -4.87818 3.29313 -2.54480
# Velocity P-wave (km/s) = 8.83793 5.89586 4.65552
#
# Compressibility (1/GPa) = -0.01101825
#
# Stress axis : x y z
#
# Youngs Moduli (GPa) = -168.15638 -7.82486 102.37107
#
# Poissons Ratio (x) = 0.37302 0.97658
# Poissons Ratio (y) = 8.01626 -1.87822
# Poissons Ratio (z) = -1.60414 0.14356
#
# Static dielectric constant tensor:
#      x y z
#    x 3.850430 0.000000 0.223320 
#    y 0.000000 3.366500 0.000000 
#    z 0.223320 0.000000 3.716910 
# 
# 
# High freq. dielectric constant tensor:
#      x y z
#    x 1.762330 0.000000 0.009350 
#    y 0.000000 1.739480 0.000000 
#    z 0.009350 0.000000 1.760020 
# 
# From -- ./inp_files/4273.got.cif
#   From: 2010.03.12/outbox.cif.g09.slc.cpg/sg6_3_cif.got.tgz:4273.got - 2010.03.30 10:24:59.
