data_PCOD8052201
_publ_section_title
;
Structure prediction by ZEFSAII (Michael W. Deem and Ramdas Pophale) SiO2 
 PCOD8052201
Probable space group: C 2
;
_chemical_formula_sum "Si O2"
_cell_formula_units_Z 20
_cell_length_a 23.705694
_cell_length_b 5.024382
_cell_length_c 8.663041
_cell_angle_alpha 90.000000
_cell_angle_beta 127.663316
_cell_angle_gamma 90.000000
_cell_volume 816.807389
_symmetry_space_group_name_H-M "C 2"
_symmetry_group_IT_number 5
_symmetry_cell_setting 'monoclinic'
loop_
_space_group_symop_operation_xyz
x,y,z
-x,y,-z
1/2+x,1/2+y,z
1/2-x,1/2+y,-z
loop_
_atom_site_type_symbol
_atom_site_label
_atom_site_fract_x
_atom_site_fract_y
_atom_site_fract_z
Si Si1 0.964991 0.931580 0.601817
Si Si2 0.979665 0.440796 0.137510
Si Si3 0.248202 0.514623 0.600286
Si Si4 0.325531 0.846929 0.957064
Si Si5 0.179542 0.163819 0.708496
O O1 0.979758 0.712230 0.755682
O O2 0.000000 0.838459 0.500000
O O3 0.998318 0.212383 0.706222
O O4 0.879733 0.953064 0.441598
O O5 0.895028 0.494885 0.008795
O O6 0.000000 0.350844 0.000000
O O7 0.224547 0.779394 0.467431
O O8 0.311516 0.589500 0.825425
O O9 0.180780 0.407815 0.587543
O O10 0.257803 0.038391 0.835886
O O11 0.340323 0.764969 0.156362
#
# Coordination Sequence:
#
# PCOD8052201 Si02
#       5
#     4   4   4   4   4
#     4  12  29  52  78 114 158 211 264 324 403 480
#     4  12  31  53  79 115 164 209 265 329 404 474
#     4  12  28  47  77 124 163 203 261 340 405 463
#     4  12  28  50  84 120 160 213 273 329 400 484
#     4  12  28  49  84 118 161 213 272 332 398 482
#
# _framework density 24.485578
#
# number of rings (size 3 to 8) (size 9 to 14) (size 15 to 20)
#    0.000    0.000    6.000    1.200   11.200    1.600 
#    0.000    0.000    0.000    0.000    0.000    0.000 
#    0.000    0.000    0.000    0.000    0.000    0.000 
#
# Total GULP energy -124052.798799 kJ/mol
# GULP energy per Si atom -12405.279880 kJ/mol
# Density = 2.442985 g / cm^3
# Si number density = 24.485578 Si / 1000 Ang^3
#
#
#
# Elastic Constant Matrix: (Units=GPa)
#
#
# Indices 1 2 3 4 5 6 
#
# 1 136.4966 21.5874 54.5612 0.0000 -8.3718 0.0000
# 2 21.5874 115.0734 21.9604 0.0000 -8.4991 0.0000
# 3 54.5612 21.9604 72.1069 0.0000 -17.3457 0.0000
# 4 0.0000 0.0000 0.0000 36.8721 0.0000 5.0550
# 5 -8.3718 -8.4991 -17.3457 0.0000 50.4449 0.0000
# 6 0.0000 0.0000 0.0000 5.0550 0.0000 28.9638
#
#
#
# Elastic Compliance Matrix: (Units=1/GPa)
#
#
# Indices 1 2 3 4 5 6 
#
# 1 0.010586 -0.000519 -0.008122 0.000000 -0.001123 0.000000
# 2 -0.000519 0.009271 -0.002263 0.000000 0.000698 0.000000
# 3 -0.008122 -0.002263 0.022117 0.000000 0.005876 0.000000
# 4 0.000000 0.000000 0.000000 0.027786 0.000000 -0.004849
# 5 -0.001123 0.000698 0.005876 0.000000 0.021775 0.000000
# 6 0.000000 0.000000 0.000000 -0.004849 0.000000 0.035372
#
#
# Mechanical properties :
#
#
# Convention : Reuss Voigt Hill
#
# Bulk Modulus (GPa) = 49.59020 57.76611 53.67815
# Shear Modulus (GPa) = 32.16735 38.29403 35.23069
#
# Velocity S-wave (km/s) = 3.62847 3.95896 3.79731
# Velocity P-wave (km/s) = 6.15233 6.67390 6.41842
#
# Compressibility (1/GPa) = 0.02016527
#
# Stress axis : x y z
#
# Youngs Moduli (GPa) = 94.46372 107.86505 45.21421
#
# Poissons Ratio (x) = 0.05596 0.36725
# Poissons Ratio (y) = 0.04901 0.10232
# Poissons Ratio (z) = 0.76727 0.24410
#
# Static dielectric constant tensor:
#      x y z
#    x 4.472240 0.000000 -0.299840 
#    y 0.000000 4.434760 0.000000 
#    z -0.299840 0.000000 4.868110 
# 
# 
# High freq. dielectric constant tensor:
#      x y z
#    x 1.981810 0.000000 -0.014400 
#    y 0.000000 1.977010 0.000000 
#    z -0.014400 0.000000 1.984900 
# 
# From -- ./inp_files/30361.got.cif
#   From: 2010.03.12/outbox.cif.g09.slc.cpg/sg5_16_cif.got.tgz:30361.got - 2010.03.31 09:47:26.
