data_PCOD8052192
_publ_section_title
;
Structure prediction by ZEFSAII (Michael W. Deem and Ramdas Pophale) SiO2 
 PCOD8052192
Probable space group: C 2
;
_chemical_formula_sum "Si O2"
_cell_formula_units_Z 16
_cell_length_a 8.241527
_cell_length_b 15.947147
_cell_length_c 5.143223
_cell_angle_alpha 90.000000
_cell_angle_beta 116.996228
_cell_angle_gamma 90.000000
_cell_volume 602.311963
_symmetry_space_group_name_H-M "C 2"
_symmetry_group_IT_number 5
_symmetry_cell_setting 'monoclinic'
loop_
_space_group_symop_operation_xyz
x,y,z
-x,y,-z
1/2+x,1/2+y,z
1/2-x,1/2+y,-z
loop_
_atom_site_type_symbol
_atom_site_label
_atom_site_fract_x
_atom_site_fract_y
_atom_site_fract_z
Si Si1 0.500000 0.553210 0.500000
Si Si2 0.792174 0.328703 0.902422
Si Si3 0.811875 0.652478 0.986082
Si Si4 0.500000 0.029091 0.500000
Si Si5 0.811797 0.920152 0.646727
O O1 0.675438 0.612064 0.676051
O O2 0.469780 0.490918 0.726437
O O3 0.788088 0.229988 0.953121
O O4 0.697216 0.380624 0.070727
O O5 0.672637 0.346256 0.557077
O O6 0.000000 0.354243 0.000000
O O7 0.860371 0.582131 0.228798
O O8 0.000000 0.685138 0.000000
O O9 0.626552 0.967633 0.423668
#
# Coordination Sequence:
#
# PCOD8052192 Si02
#       5
#     2   4   4   2   4
#     4  12  30  54  88 122 160 222 278 338 418 490
#     4  12  29  51  83 121 168 217 274 339 414 492
#     4  12  31  53  81 122 170 215 274 341 413 494
#     4  12  26  54  82 114 166 218 270 346 402 480
#     4  12  28  52  84 120 163 216 279 341 408 488
#
# _framework density 26.564306999999999
#
# number of rings (size 3 to 8) (size 9 to 14) (size 15 to 20)
#    0.000    0.000    5.000    1.500   14.000    2.000 
#    0.000    0.000    0.000    0.000    0.000    0.000 
#    0.000    0.000    0.000    0.000    0.000    0.000 
#
# Total GULP energy -99163.588012 kJ/mol
# GULP energy per Si atom -12395.448501 kJ/mol
# Density = 2.650385 g / cm^3
# Si number density = 26.564307 Si / 1000 Ang^3
#
#
#
# Elastic Constant Matrix: (Units=GPa)
#
#
# Indices 1 2 3 4 5 6 
#
# 1 101.8668 14.6070 19.3957 0.0000 -9.6159 0.0000
# 2 14.6070 121.3574 40.6908 0.0000 -4.9833 0.0000
# 3 19.3957 40.6908 139.7151 0.0000 -9.6181 0.0000
# 4 0.0000 0.0000 0.0000 38.0494 0.0000 -6.1243
# 5 -9.6159 -4.9833 -9.6181 0.0000 49.2210 0.0000
# 6 0.0000 0.0000 0.0000 -6.1243 0.0000 48.0430
#
#
#
# Elastic Compliance Matrix: (Units=1/GPa)
#
#
# Indices 1 2 3 4 5 6 
#
# 1 0.010300 -0.000808 -0.001076 0.000000 0.001720 0.000000
# 2 -0.000808 0.009203 -0.002549 0.000000 0.000276 0.000000
# 3 -0.001076 -0.002549 0.008126 0.000000 0.001120 0.000000
# 4 0.000000 0.000000 0.000000 0.026832 0.000000 0.003420
# 5 0.001720 0.000276 0.001120 0.000000 0.020899 0.000000
# 6 0.000000 0.000000 0.000000 0.003420 0.000000 0.021251
#
#
# Mechanical properties :
#
#
# Convention : Reuss Voigt Hill
#
# Bulk Modulus (GPa) = 53.29771 56.92515 55.11143
# Shear Modulus (GPa) = 44.74947 46.27908 45.51427
#
# Velocity S-wave (km/s) = 4.10881 4.17844 4.14377
# Velocity P-wave (km/s) = 6.52816 6.68991 6.60953
#
# Compressibility (1/GPa) = 0.01876253
#
# Stress axis : x y z
#
# Youngs Moduli (GPa) = 97.08835 108.65437 123.05688
#
# Poissons Ratio (x) = 0.08783 0.13241
# Poissons Ratio (y) = 0.07848 0.31370
# Poissons Ratio (z) = 0.10447 0.27699
#
# Static dielectric constant tensor:
#      x y z
#    x 5.133030 0.000000 -0.174110 
#    y 0.000000 4.756100 0.000000 
#    z -0.174110 0.000000 4.147100 
# 
# 
# High freq. dielectric constant tensor:
#      x y z
#    x 2.093720 0.000000 0.003850 
#    y 0.000000 2.077960 0.000000 
#    z 0.003850 0.000000 2.056270 
# 
# From -- ./inp_files/1934.got.cif
#   From: 2010.03.12/outbox.cif.g09.slc.cpg/sg5_1_cif.got.tgz:1934.got - 2010.03.31 09:47:26.
