data_PCOD8052495
_publ_section_title
;
Structure prediction by ZEFSAII (Michael W. Deem and Ramdas Pophale) SiO2 
 PCOD8052495
Probable space group: P M
;
_chemical_formula_sum "Si O2"
_cell_formula_units_Z 13
_cell_length_a 9.295599
_cell_length_b 11.231739
_cell_length_c 8.447635
_cell_angle_alpha 90.000000
_cell_angle_beta 43.737978
_cell_angle_gamma 90.000000
_cell_volume 609.768096
_symmetry_space_group_name_H-M "P M"
_symmetry_group_IT_number 6
_symmetry_cell_setting 'monoclinic'
loop_
_space_group_symop_operation_xyz
x,y,z
x,-y,z
loop_
_atom_site_type_symbol
_atom_site_label
_atom_site_fract_x
_atom_site_fract_y
_atom_site_fract_z
Si Si1 0.821540 0.629824 0.448000
Si Si2 0.140775 0.811559 0.638522
Si Si3 0.247605 0.363303 0.290319
Si Si4 0.497301 0.000000 0.399389
Si Si5 0.426699 0.255123 0.862437
Si Si6 0.798169 0.000000 0.842011
Si Si7 0.072139 0.632370 0.951275
Si Si8 0.519282 0.000000 0.743617
O O1 0.728465 0.500000 0.566763
O O2 0.662542 0.733700 0.615315
O O3 0.030288 0.652309 0.376532
O O4 0.871054 0.634337 0.223097
O O5 0.231444 0.703172 0.466736
O O6 0.344584 0.886924 0.518684
O O7 0.036663 0.743845 0.867231
O O8 0.951408 0.886370 0.715751
O O9 0.312770 0.500000 0.264869
O O10 0.421465 0.293851 0.049959
O O11 0.608955 0.000000 0.487623
O O12 0.653086 0.000000 0.119923
O O13 0.283090 0.345663 0.880814
O O14 0.371031 0.115580 0.884357
O O15 0.680365 0.000000 0.765750
O O16 0.089323 0.500000 0.858560
#
# Coordination Sequence:
#
# PCOD8052495 Si02
#       8
#     2   2   2   1   2   1   2   1
#     4   9  19  36  59  90 124 163 213 266 322 388
#     4  11  23  43  63  95 133 170 216 274 329 394
#     4  10  21  38  64  94 128 169 215 272 333 394
#     4  11  25  47  66  98 139 174 227 276 321 401
#     4  11  21  39  62  91 128 167 219 268 324 389
#     4  11  27  45  66  96 137 176 223 278 329 389
#     4  10  21  37  61  91 125 166 213 266 326 390
#     4  12  24  42  68  98 128 182 224 270 326 390
#
# _framework density 21.319580999999999
#
# number of rings (size 3 to 8) (size 9 to 14) (size 15 to 20)
#    0.000    1.538    1.538    4.615    2.154    0.615 
#    0.000    4.615    0.000    5.538    0.000    0.000 
#    0.000    0.000    0.000    0.000    0.000    0.000 
#
# Total GULP energy -161064.661627 kJ/mol
# GULP energy per Si atom -12389.589356 kJ/mol
# Density = 2.127106 g / cm^3
# Si number density = 21.319581 Si / 1000 Ang^3
#
#
#
# Elastic Constant Matrix: (Units=GPa)
#
#
# Indices 1 2 3 4 5 6 
#
# 1 77.0280 18.9421 31.6874 0.0000 16.5110 0.0000
# 2 18.9421 142.3160 51.9662 0.0000 2.9511 0.0000
# 3 31.6874 51.9662 105.4600 0.0000 6.4966 0.0000
# 4 0.0000 0.0000 0.0000 82.7772 0.0000 -5.9240
# 5 16.5110 2.9511 6.4966 0.0000 29.0087 0.0000
# 6 0.0000 0.0000 0.0000 -5.9240 0.0000 32.0403
#
#
#
# Elastic Compliance Matrix: (Units=1/GPa)
#
#
# Indices 1 2 3 4 5 6 
#
# 1 0.016668 -0.000493 -0.004242 0.000000 -0.008487 0.000000
# 2 -0.000493 0.008583 -0.004101 0.000000 0.000326 0.000000
# 3 -0.004242 -0.004101 0.012780 0.000000 -0.000030 0.000000
# 4 0.000000 0.000000 0.000000 0.012243 0.000000 0.002264
# 5 -0.008487 0.000326 -0.000030 0.000000 0.039276 0.000000
# 6 0.000000 0.000000 0.000000 0.002264 0.000000 0.031629
#
#
# Mechanical properties :
#
#
# Convention : Reuss Voigt Hill
#
# Bulk Modulus (GPa) = 49.12336 58.88836 54.00586
# Shear Modulus (GPa) = 34.33162 43.57913 38.95538
#
# Velocity S-wave (km/s) = 4.01725 4.52607 4.27923
# Velocity P-wave (km/s) = 6.67901 7.41589 7.05707
#
# Compressibility (1/GPa) = 0.02035691
#
# Stress axis : x y z
#
# Youngs Moduli (GPa) = 59.99544 116.50849 78.24920
#
# Poissons Ratio (x) = 0.05749 0.33195
# Poissons Ratio (y) = 0.02961 0.32091
# Poissons Ratio (z) = 0.25451 0.47782
#
# Static dielectric constant tensor:
#      x y z
#    x 3.685340 0.000000 0.308490 
#    y 0.000000 3.231540 0.000000 
#    z 0.308490 0.000000 4.020780 
# 
# 
# High freq. dielectric constant tensor:
#      x y z
#    x 1.816970 0.000000 0.015510 
#    y 0.000000 1.859380 0.000000 
#    z 0.015510 0.000000 1.832970 
# 
# From -- ./inp_files/993.got.cif
#   From: 2010.03.12/outbox.cif.g09.slc.cpg/sg6_1_cif.got.tgz:993.got - 2010.03.30 10:24:59.
