data_PCOD8052409
_publ_section_title
;
Structure prediction by ZEFSAII (Michael W. Deem and Ramdas Pophale) SiO2 
 PCOD8052409
Probable space group: P M
;
_chemical_formula_sum "Si O2"
_cell_formula_units_Z 14
_cell_length_a 7.799206
_cell_length_b 9.388049
_cell_length_c 10.068751
_cell_angle_alpha 90.000000
_cell_angle_beta 57.446282
_cell_angle_gamma 90.000000
_cell_volume 621.399449
_symmetry_space_group_name_H-M "P M"
_symmetry_group_IT_number 6
_symmetry_cell_setting 'monoclinic'
loop_
_space_group_symop_operation_xyz
x,y,z
x,-y,z
loop_
_atom_site_type_symbol
_atom_site_label
_atom_site_fract_x
_atom_site_fract_y
_atom_site_fract_z
Si Si1 0.486460 0.156691 0.613730
Si Si2 0.615225 0.840961 0.068291
Si Si3 0.829591 0.341540 0.789409
Si Si4 0.026227 0.657621 0.235704
Si Si5 0.952346 0.839896 0.505111
Si Si6 0.576845 0.333690 0.334256
Si Si7 0.399530 0.261479 0.921401
O O1 0.717427 0.155033 0.565676
O O2 0.451662 0.272212 0.512063
O O3 0.348363 0.193389 0.799513
O O4 0.425696 0.000000 0.585838
O O5 0.509688 0.753934 0.232105
O O6 0.680012 0.000000 0.086591
O O7 0.811752 0.750014 0.933820
O O8 0.454924 0.854977 0.012774
O O9 0.918907 0.500000 0.778486
O O10 0.977053 0.255017 0.627808
O O11 0.600288 0.361704 0.824340
O O12 0.006728 0.500000 0.306678
O O13 0.076997 0.766814 0.333518
O O14 0.815249 0.698059 0.253279
O O15 0.200323 0.654856 0.051729
O O16 0.036476 0.000000 0.494103
O O17 0.525692 0.500000 0.337378
#
# Coordination Sequence:
#
# PCOD8052409 Si02
#       7
#     2   2   2   2   2   2   2
#     4   9  17  33  54  77 105 141 183 223 263 320
#     4  10  20  35  56  81 109 143 182 226 269 322
#     4   9  17  30  53  78 103 136 177 221 264 314
#     4  10  20  34  53  81 113 143 178 223 272 322
#     4   9  17  29  48  76 107 138 176 219 261 311
#     4  10  21  35  55  81 111 144 181 221 270 326
#     4   9  20  32  59  82 108 137 181 227 271 319
#
# _framework density 22.529789999999998
#
# number of rings (size 3 to 8) (size 9 to 14) (size 15 to 20)
#    0.857    1.714    0.000    2.571    0.000    5.714 
#    0.000    0.000    3.143    0.000    0.000    0.000 
#    0.000    0.000    0.000    0.000    0.000    0.000 
#
# Total GULP energy -173474.459156 kJ/mol
# GULP energy per Si atom -12391.032797 kJ/mol
# Density = 2.247851 g / cm^3
# Si number density = 22.529790 Si / 1000 Ang^3
#
#
#
# Elastic Constant Matrix: (Units=GPa)
#
#
# Indices 1 2 3 4 5 6 
#
# 1 16.7553 14.2763 22.1472 0.0000 6.1440 0.0000
# 2 14.2763 193.5114 72.1572 0.0000 26.5562 0.0000
# 3 22.1472 72.1572 156.2514 0.0000 30.3354 0.0000
# 4 0.0000 0.0000 0.0000 37.4097 0.0000 8.7949
# 5 6.1440 26.5562 30.3354 0.0000 32.3068 0.0000
# 6 0.0000 0.0000 0.0000 8.7949 0.0000 15.0990
#
#
#
# Elastic Compliance Matrix: (Units=1/GPa)
#
#
# Indices 1 2 3 4 5 6 
#
# 1 0.074504 -0.001533 -0.008984 0.000000 -0.004473 0.000000
# 2 -0.001533 0.006515 -0.002212 0.000000 -0.002988 0.000000
# 3 -0.008984 -0.002212 0.009796 0.000000 -0.005672 0.000000
# 4 0.000000 0.000000 0.000000 0.030972 0.000000 -0.018041
# 5 -0.004473 -0.002988 -0.005672 0.000000 0.039585 0.000000
# 6 0.000000 0.000000 0.000000 -0.018041 0.000000 0.076738
#
#
# Mechanical properties :
#
#
# Convention : Reuss Voigt Hill
#
# Bulk Modulus (GPa) = 15.30023 64.85326 40.07674
# Shear Modulus (GPa) = 17.52214 34.15892 25.84053
#
# Velocity S-wave (km/s) = 2.79181 3.89802 3.39034
# Velocity P-wave (km/s) = 4.14706 7.00767 5.75785
#
# Compressibility (1/GPa) = 0.06535851
#
# Stress axis : x y z
#
# Youngs Moduli (GPa) = 13.42214 153.48328 102.08525
#
# Poissons Ratio (x) = 0.23524 0.91713
# Poissons Ratio (y) = 0.02057 0.22577
# Poissons Ratio (z) = 0.12058 0.33944
#
# Static dielectric constant tensor:
#      x y z
#    x 3.356610 0.000000 0.119460 
#    y 0.000000 4.005050 0.000000 
#    z 0.119460 0.000000 4.087270 
# 
# 
# High freq. dielectric constant tensor:
#      x y z
#    x 1.829330 0.000000 0.008080 
#    y 0.000000 1.887220 0.000000 
#    z 0.008080 0.000000 1.894350 
# 
# From -- ./inp_files/4954.got.cif
#   From: 2010.03.12/outbox.cif.g09.slc.cpg/sg6_3_cif.got.tgz:4954.got - 2010.03.30 10:24:59.
