data_PCOD8052223
_publ_section_title
;
Structure prediction by ZEFSAII (Michael W. Deem and Ramdas Pophale) SiO2 
 PCOD8052223
Probable space group: P M
;
_chemical_formula_sum "Si O2"
_cell_formula_units_Z 16
_cell_length_a 9.614877
_cell_length_b 9.021868
_cell_length_c 11.544953
_cell_angle_alpha 90.000000
_cell_angle_beta 69.917484
_cell_angle_gamma 90.000000
_cell_volume 940.567629
_symmetry_space_group_name_H-M "P M"
_symmetry_group_IT_number 6
_symmetry_cell_setting 'monoclinic'
loop_
_space_group_symop_operation_xyz
x,y,z
x,-y,z
loop_
_atom_site_type_symbol
_atom_site_label
_atom_site_fract_x
_atom_site_fract_y
_atom_site_fract_z
Si Si1 0.961840 0.173835 0.573050
Si Si2 0.852204 0.332540 0.394896
Si Si3 0.457880 0.329804 0.902603
Si Si4 0.168289 0.173204 0.944883
Si Si5 0.864315 0.827082 0.152007
Si Si6 0.044266 0.328277 0.766171
Si Si7 0.680524 0.333517 0.655412
Si Si8 0.737584 0.330140 0.978245
O O1 0.975681 0.250774 0.441544
O O2 0.797423 0.212139 0.669692
O O3 0.073486 0.245506 0.635043
O O4 0.990176 0.000000 0.553958
O O5 0.905842 0.500000 0.355483
O O6 0.827607 0.248524 0.283452
O O7 0.693919 0.331762 0.510688
O O8 0.409034 0.500000 0.931897
O O9 0.317548 0.225687 0.966389
O O10 0.518716 0.299489 0.753729
O O11 0.587550 0.286650 0.954718
O O12 0.156575 0.260008 0.827441
O O13 0.173643 0.000000 0.916721
O O14 0.031611 0.213219 0.067500
O O15 0.840769 0.000000 0.174180
O O16 0.748585 0.769698 0.089706
O O17 0.082298 0.500000 0.739952
O O18 0.876801 0.300096 0.855731
O O19 0.727434 0.500000 0.687162
O O20 0.734806 0.500000 0.019440
#
# Coordination Sequence:
#
# PCOD8052223 Si02
#       8
#     2   2   2   2   2   2   2   2
#     4  10  17  26  46  75 101 124 153 198 250 291
#     4   9  17  31  50  72  97 127 166 206 243 288
#     4  10  18  33  52  74 101 131 166 201 245 299
#     4  10  22  34  46  72 107 136 163 202 250 296
#     4  10  20  33  48  72 102 130 165 207 248 290
#     4  10  17  31  50  71  98 130 167 204 243 291
#     4   8  16  30  48  73  98 124 159 203 241 286
#     4   9  17  30  50  71  94 126 167 207 242 287
#
# _framework density 17.011004
#
# number of rings (size 3 to 8) (size 9 to 14) (size 15 to 20)
#    0.750    1.750    1.250    2.250    0.000    3.000 
#    0.000    0.000    0.000    1.500    0.000    5.250 
#    0.000    0.000    0.000    0.000    0.000    0.000 
#
# Total GULP energy -198244.618745 kJ/mol
# GULP energy per Si atom -12390.288672 kJ/mol
# Density = 1.697229 g / cm^3
# Si number density = 17.011004 Si / 1000 Ang^3
#
#
#
# Elastic Constant Matrix: (Units=GPa)
#
#
# Indices 1 2 3 4 5 6 
#
# 1 77.6297 34.4997 29.7763 0.0000 9.1892 0.0000
# 2 34.4997 101.9976 51.6120 0.0000 13.4610 0.0000
# 3 29.7763 51.6120 99.2419 0.0000 19.8737 0.0000
# 4 0.0000 0.0000 0.0000 27.2166 0.0000 5.2125
# 5 9.1892 13.4610 19.8737 0.0000 18.9391 0.0000
# 6 0.0000 0.0000 0.0000 5.2125 0.0000 26.3891
#
#
#
# Elastic Compliance Matrix: (Units=1/GPa)
#
#
# Indices 1 2 3 4 5 6 
#
# 1 0.015752 -0.003878 -0.002191 0.000000 -0.002587 0.000000
# 2 -0.003878 0.014377 -0.005879 0.000000 -0.002167 0.000000
# 3 -0.002191 -0.005879 0.016132 0.000000 -0.011686 0.000000
# 4 0.000000 0.000000 0.000000 0.038187 0.000000 -0.007543
# 5 -0.002587 -0.002167 -0.011686 0.000000 0.067859 0.000000
# 6 0.000000 0.000000 0.000000 -0.007543 0.000000 0.039384
#
#
# Mechanical properties :
#
#
# Convention : Reuss Voigt Hill
#
# Bulk Modulus (GPa) = 44.71589 56.73836 50.72712
# Shear Modulus (GPa) = 22.41734 25.37437 23.89586
#
# Velocity S-wave (km/s) = 3.63411 3.86637 3.75204
# Velocity P-wave (km/s) = 6.62967 7.30466 6.97534
#
# Compressibility (1/GPa) = 0.02236342
#
# Stress axis : x y z
#
# Youngs Moduli (GPa) = 63.48517 69.55663 61.98987
#
# Poissons Ratio (x) = 0.26971 0.13585
# Poissons Ratio (y) = 0.24617 0.36446
# Poissons Ratio (z) = 0.13913 0.40895
#
# Static dielectric constant tensor:
#      x y z
#    x 2.885430 0.000000 0.147980 
#    y 0.000000 3.169780 0.000000 
#    z 0.147980 0.000000 3.098250 
# 
# 
# High freq. dielectric constant tensor:
#      x y z
#    x 1.617340 0.000000 0.020180 
#    y 0.000000 1.664660 0.000000 
#    z 0.020180 0.000000 1.644020 
# 
# From -- ./inp_files/3613.got.cif
#   From: 2010.03.12/outbox.cif.g09.slc.cpg/sg6_2_cif.got.tgz:3613.got - 2010.03.30 10:24:59.
