data_PCOD8052696
_publ_section_title
;
Structure prediction by ZEFSAII (Michael W. Deem and Ramdas Pophale) SiO2 
 PCOD8052696
Probable space group: C M
;
_chemical_formula_sum "Si O2"
_cell_formula_units_Z 24
_cell_length_a 14.717760
_cell_length_b 10.730387
_cell_length_c 10.436471
_cell_angle_alpha 90.000000
_cell_angle_beta 42.492476
_cell_angle_gamma 90.000000
_cell_volume 1113.350407
_symmetry_space_group_name_H-M "C M"
_symmetry_group_IT_number 8
_symmetry_cell_setting 'monoclinic'
loop_
_space_group_symop_operation_xyz
x,y,z
x,-y,z
1/2+x,1/2+y,z
1/2+x,1/2-y,z
loop_
_atom_site_type_symbol
_atom_site_label
_atom_site_fract_x
_atom_site_fract_y
_atom_site_fract_z
Si Si1 0.760890 0.235478 0.340810
Si Si2 0.988662 0.000000 0.367604
Si Si3 0.402485 0.000000 0.916284
Si Si4 0.550545 0.729510 0.124400
Si Si5 0.319366 0.862685 0.767262
Si Si6 0.566202 0.141778 0.352930
Si Si7 0.701489 0.000000 0.577239
Si Si8 0.696216 0.500000 0.363060
O O1 0.699825 0.212775 0.262867
O O2 0.707248 0.127047 0.488638
O O3 0.713592 0.375377 0.432302
O O4 0.922867 0.231506 0.163157
O O5 0.044482 0.883174 0.231296
O O6 0.050331 0.000000 0.445930
O O7 0.826220 0.000000 0.546371
O O8 0.372209 0.122200 0.859264
O O9 0.558930 0.000000 0.798072
O O10 0.313893 0.000000 0.134596
O O11 0.554268 0.851134 0.211668
O O12 0.685469 0.722029 0.899373
O O13 0.433697 0.798649 0.559680
O O14 0.283467 0.000000 0.748122
O O15 0.576537 0.000000 0.387810
#
# Coordination Sequence:
#
# PCOD8052696 Si02
#       8
#     4   2   2   4   4   4   2   2
#     4  11  22  38  59  89 118 154 197 247 294 357
#     4  10  18  34  62  82 103 155 201 232 279 350
#     4  10  16  36  61  86 115 153 205 238 287 356
#     4  11  21  37  61  85 119 149 200 242 292 346
#     4   9  17  35  60  87 108 155 199 237 280 365
#     4  11  21  38  63  85 115 160 195 238 301 350
#     4  10  20  38  63  85 112 153 202 245 271 364
#     4  12  22  38  60  87 118 161 190 249 315 336
#
# _framework density 21.556554999999999
#
# number of rings (size 3 to 8) (size 9 to 14) (size 15 to 20)
#    0.500    1.000    6.667    0.000    1.167    0.000 
#    6.000    0.000    3.667    1.000    0.000    0.000 
#    0.000    0.000    0.000    0.000    0.000    0.000 
#
# Total GULP energy -148726.070638 kJ/mol
# GULP energy per Si atom -12393.839220 kJ/mol
# Density = 2.150749 g / cm^3
# Si number density = 21.556555 Si / 1000 Ang^3
#
#
#
# Elastic Constant Matrix: (Units=GPa)
#
#
# Indices 1 2 3 4 5 6 
#
# 1 105.4839 28.1039 67.9708 0.0000 -41.6238 0.0000
# 2 28.1039 102.6960 20.3676 0.0000 -9.7437 0.0000
# 3 67.9708 20.3676 103.1003 0.0000 -30.6094 0.0000
# 4 0.0000 0.0000 0.0000 12.5486 0.0000 -3.5655
# 5 -41.6238 -9.7437 -30.6094 0.0000 37.5781 0.0000
# 6 0.0000 0.0000 0.0000 -3.5655 0.0000 28.0615
#
#
#
# Elastic Compliance Matrix: (Units=1/GPa)
#
#
# Indices 1 2 3 4 5 6 
#
# 1 0.023206 -0.002811 -0.009666 0.000000 0.017102 0.000000
# 2 -0.002811 0.010525 -0.000449 0.000000 -0.000750 0.000000
# 3 -0.009666 -0.000449 0.017077 0.000000 0.003087 0.000000
# 4 0.000000 0.000000 0.000000 0.082675 0.000000 0.010505
# 5 0.017102 -0.000750 0.003087 0.000000 0.047874 0.000000
# 6 0.000000 0.000000 0.000000 0.010505 0.000000 0.036971
#
#
# Mechanical properties :
#
#
# Convention : Reuss Voigt Hill
#
# Bulk Modulus (GPa) = 40.07081 60.46275 50.26678
# Shear Modulus (GPa) = 19.80212 28.62685 24.21449
#
# Velocity S-wave (km/s) = 3.03415 3.64811 3.35520
# Velocity P-wave (km/s) = 5.55912 6.77158 6.19508
#
# Compressibility (1/GPa) = 0.02495582
#
# Stress axis : x y z
#
# Youngs Moduli (GPa) = 43.09192 95.01611 58.55773
#
# Poissons Ratio (x) = 0.26708 0.56605
# Poissons Ratio (y) = 0.12113 0.02627
# Poissons Ratio (z) = 0.41655 0.04263
#
# Static dielectric constant tensor:
#      x y z
#    x 3.800660 0.000000 -0.405820 
#    y 0.000000 4.107920 0.000000 
#    z -0.405820 0.000000 3.569780 
# 
# 
# High freq. dielectric constant tensor:
#      x y z
#    x 1.836380 0.000000 -0.035720 
#    y 0.000000 1.840450 0.000000 
#    z -0.035720 0.000000 1.816220 
# 
# From -- ./inp_files/21800.got.cif
#   From: 2010.03.12/outbox.cif.g09.slc.cpg/sg8_11_cif.got.tgz:21800.got - 2010.03.31 10:45:26.
