data_PCOD8052972
_publ_section_title
;
Structure prediction by ZEFSAII (Michael W. Deem and Ramdas Pophale) SiO2 
 PCOD8052972
Probable space group: C M
;
_chemical_formula_sum "Si O2"
_cell_formula_units_Z 32
_cell_length_a 28.847053
_cell_length_b 8.949892
_cell_length_c 19.447863
_cell_angle_alpha 90.000000
_cell_angle_beta 160.624572
_cell_angle_gamma 90.000000
_cell_volume 1665.753331
_symmetry_space_group_name_H-M "C M"
_symmetry_group_IT_number 8
_symmetry_cell_setting 'monoclinic'
loop_
_space_group_symop_operation_xyz
x,y,z
x,-y,z
1/2+x,1/2+y,z
1/2+x,1/2-y,z
loop_
_atom_site_type_symbol
_atom_site_label
_atom_site_fract_x
_atom_site_fract_y
_atom_site_fract_z
Si Si1 0.153490 0.676731 0.924890
Si Si2 0.162090 0.322941 0.781082
Si Si3 0.427049 0.322172 0.068380
Si Si4 0.655956 0.662518 0.138892
Si Si5 0.928348 0.821268 0.915021
Si Si6 0.212824 0.322927 0.499817
Si Si7 0.938848 0.836321 0.712639
Si Si8 0.861208 0.320872 0.319033
O O1 0.165543 0.500000 0.947036
O O2 0.161432 0.736135 0.858093
O O3 0.003418 0.724703 0.746513
O O4 0.285644 0.749259 0.147994
O O5 0.166688 0.500000 0.788514
O O6 0.022256 0.270557 0.545499
O O7 0.295438 0.259150 0.927013
O O8 0.432727 0.500000 0.077788
O O9 0.565337 0.258852 0.296756
O O10 0.410536 0.262332 0.967345
O O11 0.705637 0.500000 0.234618
O O12 0.790066 0.741586 0.291008
O O13 0.575704 0.745210 0.089737
O O14 0.542768 0.644091 0.920972
O O15 0.797555 0.767933 0.685920
O O16 0.937581 0.000000 0.924325
O O17 0.190638 0.500000 0.470387
O O18 0.293571 0.275693 0.542229
O O19 0.916193 0.000000 0.646872
O O20 0.842714 0.500000 0.289379
#
# Coordination Sequence:
#
# PCOD8052972 Si02
#       8
#     4   4   4   4   4   4   4   4
#     4  10  19  32  51  76 104 130 162 207 253 291
#     4   9  20  35  49  70 102 137 170 206 247 291
#     4  10  20  34  51  73 100 131 172 212 243 286
#     4   7  11  23  46  72  91 114 155 200 237 281
#     4   8  15  29  50  72  95 126 162 198 240 298
#     4   9  18  34  54  76 102 130 161 203 253 298
#     4   8  15  30  51  74 102 132 160 194 245 307
#     4   9  17  33  54  71  94 132 170 202 246 302
#
# _framework density 19.210526999999999
#
# number of rings (size 3 to 8) (size 9 to 14) (size 15 to 20)
#    0.000    3.250    0.000    2.625    0.000    2.500 
#    0.000    7.500    0.000    6.000    0.000    0.000 
#    0.000    0.000    0.000    0.000    0.000    0.000 
#
# Total GULP energy -198226.367071 kJ/mol
# GULP energy per Si atom -12389.147942 kJ/mol
# Density = 1.916680 g / cm^3
# Si number density = 19.210527 Si / 1000 Ang^3
#
#
#
# Elastic Constant Matrix: (Units=GPa)
#
#
# Indices 1 2 3 4 5 6 
#
# 1 95.3403 15.0110 18.2598 0.0000 8.8115 0.0000
# 2 15.0110 28.3240 11.9080 0.0000 0.3836 0.0000
# 3 18.2598 11.9080 76.2466 0.0000 15.7787 0.0000
# 4 0.0000 0.0000 0.0000 26.2002 0.0000 1.0295
# 5 8.8115 0.3836 15.7787 0.0000 33.4720 0.0000
# 6 0.0000 0.0000 0.0000 1.0295 0.0000 17.8478
#
#
#
# Elastic Compliance Matrix: (Units=1/GPa)
#
#
# Indices 1 2 3 4 5 6 
#
# 1 0.011878 -0.005644 -0.001473 0.000000 -0.002368 0.000000
# 2 -0.005644 0.040674 -0.005775 0.000000 0.003742 0.000000
# 3 -0.001473 -0.005775 0.015819 0.000000 -0.007003 0.000000
# 4 0.000000 0.000000 0.000000 0.038254 0.000000 -0.002207
# 5 -0.002368 0.003742 -0.007003 0.000000 0.033757 0.000000
# 6 0.000000 0.000000 0.000000 -0.002207 0.000000 0.056157
#
#
# Mechanical properties :
#
#
# Convention : Reuss Voigt Hill
#
# Bulk Modulus (GPa) = 23.48109 32.25206 27.86658
# Shear Modulus (GPa) = 21.13981 25.81946 23.47964
#
# Velocity S-wave (km/s) = 3.32087 3.67007 3.49983
# Velocity P-wave (km/s) = 5.19170 5.89783 5.55600
#
# Compressibility (1/GPa) = 0.04258747
#
# Stress axis : x y z
#
# Youngs Moduli (GPa) = 84.18692 24.58567 63.21362
#
# Poissons Ratio (x) = 0.13876 0.09313
# Poissons Ratio (y) = 0.47513 0.36507
# Poissons Ratio (z) = 0.12403 0.14199
#
# Static dielectric constant tensor:
#      x y z
#    x 3.834950 0.000000 0.291310 
#    y 0.000000 3.016440 0.000000 
#    z 0.291310 0.000000 3.574320 
# 
# 
# High freq. dielectric constant tensor:
#      x y z
#    x 1.750330 0.000000 0.011140 
#    y 0.000000 1.696700 0.000000 
#    z 0.011140 0.000000 1.746700 
# 
# From -- ./inp_files/21576.got.cif
#   From: 2010.03.12/outbox.cif.g09.slc.cpg/sg8_11_cif.got.tgz:21576.got - 2010.03.31 10:45:26.
