data_PCOD8052467
_publ_section_title
;
Structure prediction by ZEFSAII (Michael W. Deem and Ramdas Pophale) SiO2 
 PCOD8052467
Probable space group: P M
;
_chemical_formula_sum "Si O2"
_cell_formula_units_Z 16
_cell_length_a 12.406891
_cell_length_b 9.022556
_cell_length_c 12.627360
_cell_angle_alpha 90.000000
_cell_angle_beta 35.272532
_cell_angle_gamma 90.000000
_cell_volume 816.266093
_symmetry_space_group_name_H-M "P M"
_symmetry_group_IT_number 6
_symmetry_cell_setting 'monoclinic'
loop_
_space_group_symop_operation_xyz
x,y,z
x,-y,z
loop_
_atom_site_type_symbol
_atom_site_label
_atom_site_fract_x
_atom_site_fract_y
_atom_site_fract_z
Si Si1 0.385220 0.673553 0.470790
Si Si2 0.258859 0.823013 0.996289
Si Si3 0.011198 0.829291 0.706679
Si Si4 0.891905 0.327834 0.362913
Si Si5 0.628969 0.826695 0.107221
Si Si6 0.969846 0.834841 0.505819
Si Si7 0.392718 0.165742 0.108055
Si Si8 0.475184 0.671591 0.636673
O O1 0.401625 0.500000 0.440092
O O2 0.184884 0.725652 0.591149
O O3 0.554298 0.747750 0.271594
O O4 0.406492 0.717165 0.575893
O O5 0.377823 0.761670 0.002516
O O6 0.048507 0.761192 0.172247
O O7 0.244258 0.000000 0.011813
O O8 0.357589 0.771398 0.810971
O O9 0.918694 0.789984 0.666923
O O10 0.078483 0.000000 0.652835
O O11 0.851336 0.801547 0.922575
O O12 0.943020 0.500000 0.317716
O O13 0.694318 0.293611 0.467469
O O14 0.878203 0.278053 0.496530
O O15 0.532547 0.755271 0.078798
O O16 0.577646 0.000000 0.155514
O O17 0.191962 0.831093 0.322947
O O18 0.895547 0.000000 0.538525
O O19 0.467791 0.000000 0.030922
O O20 0.435114 0.500000 0.694438
#
# Coordination Sequence:
#
# PCOD8052467 Si02
#       8
#     2   2   2   2   2   2   2   2
#     4  11  24  42  60  81 118 160 201 244 288 345
#     4  10  21  37  61  91 118 150 195 243 293 347
#     4  10  21  37  61  89 117 152 193 243 298 347
#     4  10  21  38  59  85 120 157 194 237 291 350
#     4  10  20  37  61  87 116 153 193 238 297 351
#     4   9  17  33  57  85 121 155 189 236 292 349
#     4   8  15  31  55  83 117 150 180 226 287 346
#     4  10  24  43  60  81 115 163 203 239 290 345
#
# _framework density 19.601451999999998
#
# number of rings (size 3 to 8) (size 9 to 14) (size 15 to 20)
#    0.000    2.250    1.250    1.875    1.750    4.000 
#    0.000    4.375    0.000    0.000    0.000    0.000 
#    0.000    0.000    0.000    0.000    0.000    0.000 
#
# Total GULP energy -198375.367840 kJ/mol
# GULP energy per Si atom -12398.460490 kJ/mol
# Density = 1.955684 g / cm^3
# Si number density = 19.601452 Si / 1000 Ang^3
#
#
#
# Elastic Constant Matrix: (Units=GPa)
#
#
# Indices 1 2 3 4 5 6 
#
# 1 63.3207 38.1249 32.4851 0.0000 13.3325 0.0000
# 2 38.1249 75.5008 52.4148 0.0000 8.1791 0.0000
# 3 32.4851 52.4148 113.1255 0.0000 20.2023 0.0000
# 4 0.0000 0.0000 0.0000 22.6426 0.0000 7.2767
# 5 13.3325 8.1791 20.2023 0.0000 24.1514 0.0000
# 6 0.0000 0.0000 0.0000 7.2767 0.0000 25.6971
#
#
#
# Elastic Compliance Matrix: (Units=1/GPa)
#
#
# Indices 1 2 3 4 5 6 
#
# 1 0.024735 -0.011368 -0.000100 0.000000 -0.009722 0.000000
# 2 -0.011368 0.024776 -0.009214 0.000000 0.005592 0.000000
# 3 -0.000100 -0.009214 0.014778 0.000000 -0.009186 0.000000
# 4 0.000000 0.000000 0.000000 0.048586 0.000000 -0.013758
# 5 -0.009722 0.005592 -0.009186 0.000000 0.052562 0.000000
# 6 0.000000 0.000000 0.000000 -0.013758 0.000000 0.042811
#
#
# Mechanical properties :
#
#
# Convention : Reuss Voigt Hill
#
# Bulk Modulus (GPa) = 43.61815 55.33296 49.47556
# Shear Modulus (GPa) = 19.43610 23.09303 21.26456
#
# Velocity S-wave (km/s) = 3.15233 3.43611 3.29727
# Velocity P-wave (km/s) = 5.96241 6.63572 6.30806
#
# Compressibility (1/GPa) = 0.02292623
#
# Stress axis : x y z
#
# Youngs Moduli (GPa) = 40.42817 40.36181 67.66851
#
# Poissons Ratio (x) = 0.45883 0.00675
# Poissons Ratio (y) = 0.45958 0.62348
# Poissons Ratio (z) = 0.00403 0.37188
#
# Static dielectric constant tensor:
#      x y z
#    x 3.613820 0.000000 0.080990 
#    y 0.000000 3.422610 0.000000 
#    z 0.080990 0.000000 3.553970 
# 
# 
# High freq. dielectric constant tensor:
#      x y z
#    x 1.761660 0.000000 0.001950 
#    y 0.000000 1.742560 0.000000 
#    z 0.001950 0.000000 1.771320 
# 
# From -- ./inp_files/5023.got.cif
#   From: 2010.03.12/outbox.cif.g09.slc.cpg/sg6_3_cif.got.tgz:5023.got - 2010.03.30 10:24:59.
