data_PCOD8052999
_publ_section_title
;
Structure prediction by ZEFSAII (Michael W. Deem and Ramdas Pophale) SiO2 
 PCOD8052999
Probable space group: C M
;
_chemical_formula_sum "Si O2"
_cell_formula_units_Z 32
_cell_length_a 20.443865
_cell_length_b 9.057012
_cell_length_c 12.096043
_cell_angle_alpha 90.000000
_cell_angle_beta 127.310150
_cell_angle_gamma 90.000000
_cell_volume 1781.387315
_symmetry_space_group_name_H-M "C M"
_symmetry_group_IT_number 8
_symmetry_cell_setting 'monoclinic'
loop_
_space_group_symop_operation_xyz
x,y,z
x,-y,z
1/2+x,1/2+y,z
1/2+x,1/2-y,z
loop_
_atom_site_type_symbol
_atom_site_label
_atom_site_fract_x
_atom_site_fract_y
_atom_site_fract_z
Si Si1 0.174610 0.326693 0.710890
Si Si2 0.954150 0.173019 0.291435
Si Si3 0.343733 0.327935 0.987781
Si Si4 0.235939 0.171397 0.556231
Si Si5 0.005828 0.824470 0.578805
Si Si6 0.089279 0.170731 0.258036
Si Si7 0.920543 0.669619 0.690155
Si Si8 0.980023 0.330018 0.988788
O O1 0.156403 0.500000 0.684921
O O2 0.198503 0.269479 0.614760
O O3 0.096230 0.244161 0.679819
O O4 0.248378 0.291299 0.872091
O O5 0.870328 0.218162 0.140503
O O6 0.960742 0.238751 0.421749
O O7 0.031346 0.228294 0.298254
O O8 0.960243 0.000000 0.312139
O O9 0.362325 0.500000 0.987898
O O10 0.398287 0.242835 0.954510
O O11 0.183256 0.199269 0.390321
O O12 0.328501 0.219716 0.626492
O O13 0.230205 0.000000 0.586425
O O14 0.951637 0.775028 0.626087
O O15 0.014068 0.000000 0.587662
O O16 0.064511 0.259414 0.122082
O O17 0.072439 0.000000 0.215764
O O18 0.921353 0.500000 0.650892
O O19 0.979241 0.691087 0.856115
O O20 0.977872 0.500000 0.019904
#
# Coordination Sequence:
#
# PCOD8052999 Si02
#       8
#     4   4   4   4   4   4   4   4
#     4  11  21  33  55  85 113 139 180 233 273 318
#     4   8  15  31  53  76 102 137 178 216 263 320
#     4   9  18  33  54  79 108 141 177 220 272 325
#     4  10  19  36  58  79 109 147 183 224 273 324
#     4  11  22  37  57  78 108 148 187 223 271 334
#     4   9  17  32  55  79 107 140 178 222 270 325
#     4  10  22  38  55  78 111 147 182 225 275 322
#     4  10  19  32  53  80 110 141 177 225 273 318
#
# _framework density 17.963529000000001
#
# number of rings (size 3 to 8) (size 9 to 14) (size 15 to 20)
#    0.000    2.250    2.500    1.875    0.000    2.500 
#    0.000    1.875    0.000    4.500    0.000    0.000 
#    0.000    0.000    0.000    0.000    0.000    0.000 
#
# Total GULP energy -198360.539046 kJ/mol
# GULP energy per Si atom -12397.533690 kJ/mol
# Density = 1.792264 g / cm^3
# Si number density = 17.963529 Si / 1000 Ang^3
#
#
#
# Elastic Constant Matrix: (Units=GPa)
#
#
# Indices 1 2 3 4 5 6 
#
# 1 59.9022 26.8449 35.2394 0.0000 1.9719 0.0000
# 2 26.8449 66.3132 40.6558 0.0000 1.0680 0.0000
# 3 35.2394 40.6558 128.9852 0.0000 6.4848 0.0000
# 4 0.0000 0.0000 0.0000 28.3120 0.0000 -0.8257
# 5 1.9719 1.0680 6.4848 0.0000 23.5766 0.0000
# 6 0.0000 0.0000 0.0000 -0.8257 0.0000 29.3118
#
#
#
# Elastic Compliance Matrix: (Units=1/GPa)
#
#
# Indices 1 2 3 4 5 6 
#
# 1 0.021913 -0.006454 -0.003929 0.000000 -0.000460 0.000000
# 2 -0.006454 0.020608 -0.004778 0.000000 0.000921 0.000000
# 3 -0.003929 -0.004778 0.010450 0.000000 -0.002329 0.000000
# 4 0.000000 0.000000 0.000000 0.035350 0.000000 0.000996
# 5 -0.000460 0.000921 -0.002329 0.000000 0.043052 0.000000
# 6 0.000000 0.000000 0.000000 0.000996 0.000000 0.034144
#
#
# Mechanical properties :
#
#
# Convention : Reuss Voigt Hill
#
# Bulk Modulus (GPa) = 44.15777 51.18678 47.67227
# Shear Modulus (GPa) = 24.58342 26.40410 25.49376
#
# Velocity S-wave (km/s) = 3.70336 3.83805 3.77131
# Velocity P-wave (km/s) = 6.55147 6.94244 6.74979
#
# Compressibility (1/GPa) = 0.02264607
#
# Stress axis : x y z
#
# Youngs Moduli (GPa) = 45.63489 48.52580 95.69809
#
# Poissons Ratio (x) = 0.31321 0.37602
# Poissons Ratio (y) = 0.29455 0.45728
# Poissons Ratio (z) = 0.17931 0.23187
#
# Static dielectric constant tensor:
#      x y z
#    x 3.037520 0.000000 0.116160 
#    y 0.000000 3.241070 0.000000 
#    z 0.116160 0.000000 3.804470 
# 
# 
# High freq. dielectric constant tensor:
#      x y z
#    x 1.660330 0.000000 0.008650 
#    y 0.000000 1.687820 0.000000 
#    z 0.008650 0.000000 1.716260 
# 
# From -- ./inp_files/22926.got.cif
#   From: 2010.03.12/outbox.cif.g09.slc.cpg/sg8_12_cif.got.tgz:22926.got - 2010.03.31 10:45:26.
