data_PCOD8052577
_publ_section_title
;
Structure prediction by ZEFSAII (Michael W. Deem and Ramdas Pophale) SiO2 
 PCOD8052577
Probable space group: P C
;
_chemical_formula_sum "Si O2"
_cell_formula_units_Z 16
_cell_length_a 19.914994
_cell_length_b 8.277050
_cell_length_c 5.207948
_cell_angle_alpha 90.000000
_cell_angle_beta 82.603408
_cell_angle_gamma 90.000000
_cell_volume 851.321176
_symmetry_space_group_name_H-M "P C"
_symmetry_group_IT_number 7
_symmetry_cell_setting 'monoclinic'
loop_
_space_group_symop_operation_xyz
x,y,z
x,-y,1/2+z
loop_
_atom_site_type_symbol
_atom_site_label
_atom_site_fract_x
_atom_site_fract_y
_atom_site_fract_z
Si Si1 0.263370 0.194034 0.690960
Si Si2 0.807610 0.598344 0.996531
Si Si3 0.556778 0.892524 0.040471
Si Si4 0.205878 0.835837 0.719551
Si Si5 0.952132 0.394368 0.328432
Si Si6 0.406363 0.893938 0.126118
Si Si7 0.661650 0.392906 0.481154
Si Si8 0.047724 0.902451 0.797485
O O1 0.229009 0.269973 0.453906
O O2 0.344047 0.233350 0.658987
O O3 0.249025 0.001093 0.689771
O O4 0.225556 0.268179 0.957972
O O5 0.807958 0.445825 0.798358
O O6 0.877782 0.692385 0.897823
O O7 0.736769 0.689420 0.969490
O O8 0.481122 0.814464 0.090904
O O9 0.607879 0.746695 0.046338
O O10 0.568294 0.018813 0.264543
O O11 0.127309 0.873867 0.769629
O O12 0.959333 0.533338 0.539761
O O13 0.010834 0.267065 0.344764
O O14 0.397609 0.002302 0.377869
O O15 0.651940 0.472759 0.206955
O O16 0.025538 0.983501 0.542420
#
# Coordination Sequence:
#
# PCOD8052577 Si02
#       8
#     2   2   2   2   2   2   2   2
#     4  10  14  25  41  64  97 123 162 205 249 281
#     4   8  16  32  55  75  94 130 183 213 228 292
#     4  10  21  33  48  79 114 133 159 217 267 304
#     4  10  16  25  42  67  99 119 160 213 253 276
#     4  10  21  38  55  75 104 141 173 206 255 313
#     4  10  16  25  42  64  98 124 161 199 253 285
#     4  10  19  35  58  78  99 138 180 209 244 305
#     4  12  21  33  51  80 109 130 166 222 265 298
#
# _framework density 18.794316999999999
#
# number of rings (size 3 to 8) (size 9 to 14) (size 15 to 20)
#    0.000    2.000    5.000    1.500    0.000    0.000 
#    0.000    1.250    0.000    0.000    0.000    5.250 
#    0.000    0.000    0.000    0.000    0.000    0.000 
#
# Total GULP energy -198218.888617 kJ/mol
# GULP energy per Si atom -12388.680539 kJ/mol
# Density = 1.875154 g / cm^3
# Si number density = 18.794317 Si / 1000 Ang^3
#
#
#
# Elastic Constant Matrix: (Units=GPa)
#
#
# Indices 1 2 3 4 5 6 
#
# 1 113.6497 37.4740 25.3351 0.0000 -4.8604 0.0000
# 2 37.4740 28.6217 7.7295 0.0000 -6.7874 0.0000
# 3 25.3351 7.7295 136.3784 0.0000 7.8071 0.0000
# 4 0.0000 0.0000 0.0000 18.0662 0.0000 -18.6925
# 5 -4.8604 -6.7874 7.8071 0.0000 26.5987 0.0000
# 6 0.0000 0.0000 0.0000 -18.6925 0.0000 109.1377
#
#
#
# Elastic Compliance Matrix: (Units=1/GPa)
#
#
# Indices 1 2 3 4 5 6 
#
# 1 0.015998 -0.020952 -0.001674 0.000000 -0.001932 0.000000
# 2 -0.020952 0.065630 -0.000577 0.000000 0.013088 0.000000
# 3 -0.001674 -0.000577 0.007834 0.000000 -0.002752 0.000000
# 4 0.000000 0.000000 0.000000 0.067274 0.000000 0.011522
# 5 -0.001932 0.013088 -0.002752 0.000000 0.041390 0.000000
# 6 0.000000 0.000000 0.000000 0.011522 0.000000 0.011136
#
#
# Mechanical properties :
#
#
# Convention : Reuss Voigt Hill
#
# Bulk Modulus (GPa) = 23.22514 46.63635 34.93075
# Shear Modulus (GPa) = 18.51713 44.63462 31.57587
#
# Velocity S-wave (km/s) = 3.14228 4.87858 4.10332
# Velocity P-wave (km/s) = 5.05466 7.52343 6.40904
#
# Compressibility (1/GPa) = 0.04305679
#
# Stress axis : x y z
#
# Youngs Moduli (GPa) = 62.50731 15.23682 127.65299
#
# Poissons Ratio (x) = 0.31925 0.21368
# Poissons Ratio (y) = 1.30967 0.07361
# Poissons Ratio (z) = 0.10463 0.00879
#
# Static dielectric constant tensor:
#      x y z
#    x 3.964230 0.000000 0.255380 
#    y 0.000000 2.541350 0.000000 
#    z 0.255380 0.000000 5.269110 
# 
# 
# High freq. dielectric constant tensor:
#      x y z
#    x 1.754900 0.000000 0.002340 
#    y 0.000000 1.636110 0.000000 
#    z 0.002340 0.000000 1.770290 
# 
# From -- ./inp_files/1358.got.cif
#   From: 2010.03.12/outbox.cif.g09.slc.cpg/sg7_cif.got.tgz:1358.got - 2010.03.30 08:40:41.
