data_PCOD8052057
_publ_section_title
;
Structure prediction by ZEFSAII (Michael W. Deem and Ramdas Pophale) SiO2 
 PCOD8052057
Probable space group: C 2
;
_chemical_formula_sum "Si O2"
_cell_formula_units_Z 20
_cell_length_a 8.285721
_cell_length_b 12.016853
_cell_length_c 8.662950
_cell_angle_alpha 90.000000
_cell_angle_beta 75.647071
_cell_angle_gamma 90.000000
_cell_volume 835.632320
_symmetry_space_group_name_H-M "C 2"
_symmetry_group_IT_number 5
_symmetry_cell_setting 'monoclinic'
loop_
_space_group_symop_operation_xyz
x,y,z
-x,y,-z
1/2+x,1/2+y,z
1/2-x,1/2+y,-z
loop_
_atom_site_type_symbol
_atom_site_label
_atom_site_fract_x
_atom_site_fract_y
_atom_site_fract_z
Si Si1 0.714153 0.685610 0.280927
Si Si2 0.593599 0.755456 0.822964
Si Si3 0.217735 0.966331 0.111728
Si Si4 0.160227 0.915069 0.778602
Si Si5 0.191678 0.603639 0.421955
O O1 0.541251 0.747696 0.281560
O O2 0.772531 0.590812 0.145705
O O3 0.851956 0.782911 0.243852
O O4 0.700275 0.633994 0.453862
O O5 0.665302 0.879882 0.823679
O O6 0.745622 0.673569 0.742288
O O7 0.500000 0.712849 0.000000
O O8 0.024718 0.960196 0.203121
O O9 0.239448 0.942431 0.926327
O O10 0.277215 0.973788 0.623253
O O11 0.000000 0.628431 0.500000
#
# Coordination Sequence:
#
# PCOD8052057 Si02
#       5
#     4   4   4   4   4
#     4  12  27  49  79 113 162 207 265 330 399 466
#     4  12  25  52  81 114 157 208 265 333 391 476
#     4  11  26  49  79 113 157 207 268 326 394 470
#     4  11  26  50  77 113 159 210 264 327 392 479
#     4  12  29  49  79 117 162 212 267 326 404 472
#
# _framework density 23.933969999999999
#
# number of rings (size 3 to 8) (size 9 to 14) (size 15 to 20)
#    0.000    0.400    4.000    3.000    5.600    0.000 
#    3.600    0.000    0.000    0.000    0.000    0.000 
#    0.000    0.000    0.000    0.000    0.000    0.000 
#
# Total GULP energy -124031.615602 kJ/mol
# GULP energy per Si atom -12403.161560 kJ/mol
# Density = 2.387950 g / cm^3
# Si number density = 23.933970 Si / 1000 Ang^3
#
#
#
# Elastic Constant Matrix: (Units=GPa)
#
#
# Indices 1 2 3 4 5 6 
#
# 1 107.9299 35.2800 52.9386 0.0000 5.9533 0.0000
# 2 35.2800 180.7222 73.5592 0.0000 8.3610 0.0000
# 3 52.9386 73.5592 132.7930 0.0000 -0.8503 0.0000
# 4 0.0000 0.0000 0.0000 46.7218 0.0000 4.0332
# 5 5.9533 8.3610 -0.8503 0.0000 44.0518 0.0000
# 6 0.0000 0.0000 0.0000 4.0332 0.0000 40.2705
#
#
#
# Elastic Compliance Matrix: (Units=1/GPa)
#
#
# Indices 1 2 3 4 5 6 
#
# 1 0.011659 -0.000396 -0.004439 0.000000 -0.001586 0.000000
# 2 -0.000396 0.007249 -0.003867 0.000000 -0.001397 0.000000
# 3 -0.004439 -0.003867 0.011452 0.000000 0.001555 0.000000
# 4 0.000000 0.000000 0.000000 0.021590 0.000000 -0.002162
# 5 -0.001586 -0.001397 0.001555 0.000000 0.023210 0.000000
# 6 0.000000 0.000000 0.000000 -0.002162 0.000000 0.025049
#
#
# Mechanical properties :
#
#
# Convention : Reuss Voigt Hill
#
# Bulk Modulus (GPa) = 77.17569 82.77786 79.97678
# Shear Modulus (GPa) = 41.00666 43.51998 42.26332
#
# Velocity S-wave (km/s) = 4.14372 4.26882 4.20674
# Velocity P-wave (km/s) = 7.43029 7.67842 7.55537
#
# Compressibility (1/GPa) = 0.01295745
#
# Stress axis : x y z
#
# Youngs Moduli (GPa) = 85.76744 137.94760 87.32130
#
# Poissons Ratio (x) = 0.05462 0.38761
# Poissons Ratio (y) = 0.03396 0.33764
# Poissons Ratio (z) = 0.38071 0.53340
#
# Static dielectric constant tensor:
#      x y z
#    x 4.222520 0.000000 0.070670 
#    y 0.000000 4.399890 0.000000 
#    z 0.070670 0.000000 4.297660 
# 
# 
# High freq. dielectric constant tensor:
#      x y z
#    x 1.947970 0.000000 0.004310 
#    y 0.000000 1.960430 0.000000 
#    z 0.004310 0.000000 1.946760 
# 
# From -- ./inp_files/14226.got.cif
#   From: 2010.03.12/outbox.cif.g09.slc.cpg/sg5_8_cif.got.tgz:14226.got - 2010.03.31 09:47:26.
