data_PCOD8052594
_publ_section_title
;
Structure prediction by ZEFSAII (Michael W. Deem and Ramdas Pophale) SiO2 
 PCOD8052594
Probable space group: P C
;
_chemical_formula_sum "Si O2"
_cell_formula_units_Z 16
_cell_length_a 16.247920
_cell_length_b 12.881915
_cell_length_c 4.983500
_cell_angle_alpha 90.000000
_cell_angle_beta 52.161693
_cell_angle_gamma 90.000000
_cell_volume 823.757876
_symmetry_space_group_name_H-M "P C"
_symmetry_group_IT_number 7
_symmetry_cell_setting 'monoclinic'
loop_
_space_group_symop_operation_xyz
x,y,z
x,-y,1/2+z
loop_
_atom_site_type_symbol
_atom_site_label
_atom_site_fract_x
_atom_site_fract_y
_atom_site_fract_z
Si Si1 0.739480 0.933816 0.776520
Si Si2 0.516459 0.928410 0.114824
Si Si3 0.115513 0.562325 0.326693
Si Si4 0.363445 0.562325 0.830829
Si Si5 0.123503 0.212956 0.662510
Si Si6 0.239479 0.930067 0.272642
Si Si7 0.962501 0.071590 0.722738
Si Si8 0.355457 0.212956 0.198602
O O1 0.847668 0.874716 0.489313
O O2 0.739480 0.038066 0.591237
O O3 0.631292 0.874716 0.922066
O O4 0.430282 0.839915 0.331816
O O5 0.502816 0.024314 0.347685
O O6 0.073601 0.480263 0.192019
O O7 0.239479 0.567400 0.077502
O O8 0.072947 0.678195 0.356864
O O9 0.405357 0.480263 0.528505
O O10 0.406012 0.678195 0.690736
O O11 0.137228 0.137521 0.896745
O O12 0.239480 0.230626 0.297750
O O13 0.048678 0.160085 0.595023
O O14 0.341731 0.862479 0.987740
O O15 0.239479 0.034725 0.082608
O O16 0.976145 0.024314 0.401026
#
# Coordination Sequence:
#
# PCOD8052594 Si02
#       8
#     2   2   2   2   2   2   2   2
#     4   8  16  30  46  64  88 122 156 186 214 254
#     4  10  19  31  47  68  96 124 153 184 220 270
#     4   9  18  32  46  62  85 115 154 194 223 260
#     4   9  18  32  46  62  85 115 154 194 223 260
#     4   9  20  32  46  71  91 127 152 184 231 276
#     4  10  20  30  40  62  94 120 142 172 212 266
#     4  10  19  31  47  68  96 124 153 184 220 270
#     4   9  20  32  46  71  91 127 152 184 231 276
#
# _framework density 19.423182000000001
#
# number of rings (size 3 to 8) (size 9 to 14) (size 15 to 20)
#    0.750    2.000    0.000    1.500    0.000    4.000 
#    0.000    0.000    0.000    0.000    0.000    1.750 
#    0.000    0.000    0.000    0.000    0.000    0.000 
#
# Total GULP energy -198211.689411 kJ/mol
# GULP energy per Si atom -12388.230588 kJ/mol
# Density = 1.937897 g / cm^3
# Si number density = 19.423182 Si / 1000 Ang^3
#
#
#
# Elastic Constant Matrix: (Units=GPa)
#
#
# Indices 1 2 3 4 5 6 
#
# 1 47.6381 4.6768 16.5174 0.0000 -6.1063 0.0000
# 2 4.6768 77.4557 2.5703 0.0000 -7.2081 0.0000
# 3 16.5174 2.5703 45.5798 0.0000 -0.9402 0.0000
# 4 0.0000 0.0000 0.0000 9.2669 0.0000 0.0707
# 5 -6.1063 -7.2081 -0.9402 0.0000 32.3404 0.0000
# 6 0.0000 0.0000 0.0000 0.0707 0.0000 9.2465
#
#
#
# Elastic Compliance Matrix: (Units=1/GPa)
#
#
# Indices 1 2 3 4 5 6 
#
# 1 0.024665 -0.000804 -0.008806 0.000000 0.004222 0.000000
# 2 -0.000804 0.013232 -0.000397 0.000000 0.002786 0.000000
# 3 -0.008806 -0.000397 0.025132 0.000000 -0.001021 0.000000
# 4 0.000000 0.000000 0.000000 0.107918 0.000000 -0.000826
# 5 0.004222 0.002786 -0.001021 0.000000 0.032309 0.000000
# 6 0.000000 0.000000 0.000000 -0.000826 0.000000 0.108156
#
#
# Mechanical properties :
#
#
# Convention : Reuss Voigt Hill
#
# Bulk Modulus (GPa) = 23.24822 24.24475 23.74649
# Shear Modulus (GPa) = 14.46075 19.96468 17.21271
#
# Velocity S-wave (km/s) = 2.73153 3.20953 2.98013
# Velocity P-wave (km/s) = 4.68440 5.12292 4.90856
#
# Compressibility (1/GPa) = 0.04301404
#
# Stress axis : x y z
#
# Youngs Moduli (GPa) = 40.54344 75.57675 39.79000
#
# Poissons Ratio (x) = 0.06078 0.35038
# Poissons Ratio (y) = 0.03260 0.01581
# Poissons Ratio (z) = 0.35702 0.03002
#
# Static dielectric constant tensor:
#      x y z
#    x 3.569440 0.000000 -0.059410 
#    y 0.000000 3.412780 0.000000 
#    z -0.059410 0.000000 3.552070 
# 
# 
# High freq. dielectric constant tensor:
#      x y z
#    x 1.737390 0.000000 0.025180 
#    y 0.000000 1.719490 0.000000 
#    z 0.025180 0.000000 1.744740 
# 
# From -- ./inp_files/1408.got.cif
#   From: 2010.03.12/outbox.cif.g09.slc.cpg/sg7_cif.got.tgz:1408.got - 2010.03.30 08:40:41.
