data_PCOD8052419
_publ_section_title
;
Structure prediction by ZEFSAII (Michael W. Deem and Ramdas Pophale) SiO2 
 PCOD8052419
Probable space group: P M
;
_chemical_formula_sum "Si O2"
_cell_formula_units_Z 16
_cell_length_a 19.103937
_cell_length_b 8.857254
_cell_length_c 7.691325
_cell_angle_alpha 90.000000
_cell_angle_beta 38.469646
_cell_angle_gamma 90.000000
_cell_volume 809.623862
_symmetry_space_group_name_H-M "P M"
_symmetry_group_IT_number 6
_symmetry_cell_setting 'monoclinic'
loop_
_space_group_symop_operation_xyz
x,y,z
x,-y,z
loop_
_atom_site_type_symbol
_atom_site_label
_atom_site_fract_x
_atom_site_fract_y
_atom_site_fract_z
Si Si1 0.831490 0.677672 0.185680
Si Si2 0.056991 0.173681 0.853841
Si Si3 0.582076 0.679017 0.143613
Si Si4 0.047331 0.173644 0.261268
Si Si5 0.824293 0.677784 0.803276
Si Si6 0.209092 0.178259 0.244021
Si Si7 0.608760 0.821595 0.737559
Si Si8 0.459820 0.820842 0.700245
O O1 0.810028 0.500000 0.244596
O O2 0.735960 0.763062 0.479192
O O3 0.828230 0.734127 0.993827
O O4 0.950888 0.718998 0.033858
O O5 0.156515 0.225900 0.531532
O O6 0.022420 0.000000 0.883261
O O7 0.101101 0.192890 0.965157
O O8 0.572318 0.500000 0.158101
O O9 0.496250 0.742626 0.451800
O O10 0.707995 0.733343 0.945807
O O11 0.549288 0.747474 0.020646
O O12 0.132317 0.246066 0.237331
O O13 0.926709 0.252994 0.497096
O O14 0.026180 0.000000 0.348810
O O15 0.835831 0.500000 0.770800
O O16 0.214228 0.000000 0.214142
O O17 0.335294 0.241375 0.986383
O O18 0.541088 0.769462 0.698366
O O19 0.606998 0.000000 0.763271
O O20 0.462700 0.000000 0.669652
#
# Coordination Sequence:
#
# PCOD8052419 Si02
#       8
#     2   2   2   2   2   2   2   2
#     4  11  21  36  58  84 116 154 190 232 288 347
#     4  10  20  35  57  86 114 146 187 233 286 342
#     4  11  23  40  61  86 119 156 191 236 291 349
#     4  10  20  34  58  86 112 145 185 231 282 338
#     4  10  21  36  56  82 114 151 187 228 284 345
#     4   9  19  37  58  82 112 147 189 238 287 331
#     4  11  23  38  60  90 119 151 193 241 288 343
#     4  10  22  40  62  86 114 152 198 245 288 337
#
# _framework density 19.762263000000001
#
# number of rings (size 3 to 8) (size 9 to 14) (size 15 to 20)
#    0.000    1.750    2.500    1.875    0.000    5.500 
#    0.000    5.000    0.000    1.500    0.000    0.000 
#    0.000    0.000    0.000    0.000    0.000    0.000 
#
# Total GULP energy -198461.296262 kJ/mol
# GULP energy per Si atom -12403.831016 kJ/mol
# Density = 1.971728 g / cm^3
# Si number density = 19.762263 Si / 1000 Ang^3
#
#
#
# Elastic Constant Matrix: (Units=GPa)
#
#
# Indices 1 2 3 4 5 6 
#
# 1 69.4981 21.0383 55.0755 0.0000 22.7929 0.0000
# 2 21.0383 39.0318 30.6327 0.0000 5.8532 0.0000
# 3 55.0755 30.6327 156.2173 0.0000 9.4204 0.0000
# 4 0.0000 0.0000 0.0000 8.9174 0.0000 5.7520
# 5 22.7929 5.8532 9.4204 0.0000 40.1316 0.0000
# 6 0.0000 0.0000 0.0000 5.7520 0.0000 24.0732
#
#
#
# Elastic Compliance Matrix: (Units=1/GPa)
#
#
# Indices 1 2 3 4 5 6 
#
# 1 0.026040 -0.006600 -0.007154 0.000000 -0.012148 0.000000
# 2 -0.006600 0.032329 -0.004011 0.000000 -0.000025 0.000000
# 3 -0.007154 -0.004011 0.009565 0.000000 0.002403 0.000000
# 4 0.000000 0.000000 0.000000 0.132573 0.000000 -0.031677
# 5 -0.012148 -0.000025 0.002403 0.000000 0.031257 0.000000
# 6 0.000000 0.000000 0.000000 -0.031677 0.000000 0.049109
#
#
# Mechanical properties :
#
#
# Convention : Reuss Voigt Hill
#
# Bulk Modulus (GPa) = 30.85940 53.13782 41.99861
# Shear Modulus (GPa) = 15.28099 25.15782 20.21940
#
# Velocity S-wave (km/s) = 2.78374 3.57182 3.20211
# Velocity P-wave (km/s) = 5.09720 6.63004 5.91350
#
# Compressibility (1/GPa) = 0.03240503
#
# Stress axis : x y z
#
# Youngs Moduli (GPa) = 38.40246 30.93184 104.54595
#
# Poissons Ratio (x) = 0.20413 0.74792
# Poissons Ratio (y) = 0.25344 0.41935
# Poissons Ratio (z) = 0.27473 0.12407
#
# Static dielectric constant tensor:
#      x y z
#    x 3.779680 0.000000 0.091020 
#    y 0.000000 3.352620 0.000000 
#    z 0.091020 0.000000 3.675970 
# 
# 
# High freq. dielectric constant tensor:
#      x y z
#    x 1.777690 0.000000 0.013770 
#    y 0.000000 1.750600 0.000000 
#    z 0.013770 0.000000 1.774440 
# 
# From -- ./inp_files/4264.got.cif
#   From: 2010.03.12/outbox.cif.g09.slc.cpg/sg6_3_cif.got.tgz:4264.got - 2010.03.30 10:24:59.
