data_PCOD8052191
_publ_section_title
;
Structure prediction by ZEFSAII (Michael W. Deem and Ramdas Pophale) SiO2 
 PCOD8052191
Probable space group: C 2
;
_chemical_formula_sum "Si O2"
_cell_formula_units_Z 14
_cell_length_a 14.959926
_cell_length_b 7.794535
_cell_length_c 4.965912
_cell_angle_alpha 90.000000
_cell_angle_beta 117.201161
_cell_angle_gamma 90.000000
_cell_volume 515.014283
_symmetry_space_group_name_H-M "C 2"
_symmetry_group_IT_number 5
_symmetry_cell_setting 'monoclinic'
loop_
_space_group_symop_operation_xyz
x,y,z
-x,y,-z
1/2+x,1/2+y,z
1/2-x,1/2+y,-z
loop_
_atom_site_type_symbol
_atom_site_label
_atom_site_fract_x
_atom_site_fract_y
_atom_site_fract_z
Si Si1 0.590834 0.030800 0.971432
Si Si2 0.109052 0.013364 0.280870
Si Si3 0.000000 0.241123 0.500000
Si Si4 0.304364 0.155839 0.412687
O O1 0.633362 0.134671 0.776216
O O2 0.544610 0.851825 0.807457
O O3 0.500000 0.133692 0.000000
O O4 0.672675 0.010706 0.323047
O O5 0.092078 0.122862 0.528115
O O6 0.185356 0.126009 0.195652
O O7 0.164198 0.835823 0.418440
O O8 0.000000 0.986224 0.000000
#
# Coordination Sequence:
#
# PCOD8052191 Si02
#       4
#     4   4   2   4
#     4  12  26  53  88 122 171 225 274 355 413 502
#     4  12  32  53  87 130 168 222 286 350 415 513
#     4  12  28  50  88 124 174 214 284 346 420 488
#     4  12  30  54  88 125 171 222 284 343 434 489
#
# _framework density 27.183710000000001
#
# number of rings (size 3 to 8) (size 9 to 14) (size 15 to 20)
#    0.000    0.000    2.857    3.429   16.000    0.000 
#    0.000    0.000    0.000    0.000    0.000    0.000 
#    0.000    0.000    0.000    0.000    0.000    0.000 
#
# Total GULP energy -86725.999151 kJ/mol
# GULP energy per Si atom -12389.428450 kJ/mol
# Density = 2.712184 g / cm^3
# Si number density = 27.183710 Si / 1000 Ang^3
#
#
#
# Elastic Constant Matrix: (Units=GPa)
#
#
# Indices 1 2 3 4 5 6 
#
# 1 249.4687 101.7415 79.6404 0.0000 -7.0173 0.0000
# 2 101.7415 96.8942 38.2308 0.0000 15.6113 0.0000
# 3 79.6404 38.2308 149.5661 0.0000 -13.7110 0.0000
# 4 0.0000 0.0000 0.0000 37.5868 0.0000 -1.2476
# 5 -7.0173 15.6113 -13.7110 0.0000 52.6564 0.0000
# 6 0.0000 0.0000 0.0000 -1.2476 0.0000 39.4896
#
#
#
# Elastic Compliance Matrix: (Units=1/GPa)
#
#
# Indices 1 2 3 4 5 6 
#
# 1 0.008032 -0.008160 -0.001917 0.000000 0.002990 0.000000
# 2 -0.008160 0.020787 -0.001673 0.000000 -0.007686 0.000000
# 3 -0.001917 -0.001673 0.008356 0.000000 0.002416 0.000000
# 4 0.000000 0.000000 0.000000 0.026633 0.000000 0.000841
# 5 0.002990 -0.007686 0.002416 0.000000 0.022297 0.000000
# 6 0.000000 0.000000 0.000000 0.000841 0.000000 0.025350
#
#
# Mechanical properties :
#
#
# Convention : Reuss Voigt Hill
#
# Bulk Modulus (GPa) = 73.12424 103.90603 88.51514
# Shear Modulus (GPa) = 35.83873 44.36767 40.10320
#
# Velocity S-wave (km/s) = 3.63490 4.04436 3.84509
# Velocity P-wave (km/s) = 6.67646 7.75343 7.23501
#
# Compressibility (1/GPa) = 0.01367536
#
# Stress axis : x y z
#
# Youngs Moduli (GPa) = 124.49479 48.10741 119.67326
#
# Poissons Ratio (x) = 0.39254 0.22945
# Poissons Ratio (y) = 1.01583 0.20023
# Poissons Ratio (z) = 0.23869 0.08049
#
# Static dielectric constant tensor:
#      x y z
#    x 5.572120 0.000000 0.326000 
#    y 0.000000 4.776460 0.000000 
#    z 0.326000 0.000000 5.412640 
# 
# 
# High freq. dielectric constant tensor:
#      x y z
#    x 2.122410 0.000000 0.006230 
#    y 0.000000 2.091310 0.000000 
#    z 0.006230 0.000000 2.097070 
# 
# From -- ./inp_files/6354.got.cif
#   From: 2010.03.12/outbox.cif.g09.slc.cpg/sg5_4_cif.got.tgz:6354.got - 2010.03.31 09:47:26.
