data_PCOD8052826
_publ_section_title
;
Structure prediction by ZEFSAII (Michael W. Deem and Ramdas Pophale) SiO2 
 PCOD8052826
Probable space group: C M
;
_chemical_formula_sum "Si O2"
_cell_formula_units_Z 28
_cell_length_a 22.706765
_cell_length_b 12.836444
_cell_length_c 16.417284
_cell_angle_alpha 90.000000
_cell_angle_beta 20.541719
_cell_angle_gamma 90.000000
_cell_volume 1679.080221
_symmetry_space_group_name_H-M "C M"
_symmetry_group_IT_number 8
_symmetry_cell_setting 'monoclinic'
loop_
_space_group_symop_operation_xyz
x,y,z
x,-y,z
1/2+x,1/2+y,z
1/2+x,1/2-y,z
loop_
_atom_site_type_symbol
_atom_site_label
_atom_site_fract_x
_atom_site_fract_y
_atom_site_fract_z
Si Si1 0.722210 0.378809 0.706630
Si Si2 0.224604 0.121783 0.893635
Si Si3 0.101608 0.284098 0.647554
Si Si4 0.073051 0.380997 0.518688
Si Si5 0.905971 0.765511 0.050690
Si Si6 0.332003 0.121946 0.289121
Si Si7 0.918933 0.258323 0.323302
O O1 0.757707 0.500000 0.645169
O O2 0.721413 0.351716 0.802550
O O3 0.869211 0.312412 0.472966
O O4 0.541869 0.351443 0.901916
O O5 0.400716 0.159173 0.702464
O O6 0.192336 0.000000 0.951829
O O7 0.081820 0.187480 0.124962
O O8 0.064410 0.370740 0.627898
O O9 0.147780 0.174282 0.542524
O O10 0.264907 0.315352 0.490812
O O11 0.940741 0.272669 0.913857
O O12 0.103654 0.500000 0.455697
O O13 0.223023 0.315223 0.286314
O O14 0.915260 0.667278 0.099376
O O15 0.449418 0.152024 0.214788
O O16 0.310215 0.000000 0.308078
#
# Coordination Sequence:
#
# PCOD8052826 Si02
#       7
#     4   4   4   4   4   4   4
#     4  10  18  32  54  78 100 127 166 212 252 292
#     4  10  20  34  51  71 104 137 167 203 246 295
#     4   8  19  32  50  75  97 131 162 209 252 286
#     4  10  20  33  50  74 102 136 167 199 245 298
#     4  10  18  32  52  78  97 130 162 213 247 294
#     4   9  17  30  49  74  98 126 161 202 252 294
#     4   9  18  31  52  74  96 131 167 204 256 283
#
# _framework density 16.675795999999998
#
# number of rings (size 3 to 8) (size 9 to 14) (size 15 to 20)
#    0.857    1.714    1.429    0.857    0.000    4.000 
#    0.000    2.143    0.000    6.857    0.000    0.000 
#    0.000    0.000    0.000    0.000    0.000    0.000 
#
# Total GULP energy -173520.668562 kJ/mol
# GULP energy per Si atom -12394.333469 kJ/mol
# Density = 1.663784 g / cm^3
# Si number density = 16.675796 Si / 1000 Ang^3
#
#
#
# Elastic Constant Matrix: (Units=GPa)
#
#
# Indices 1 2 3 4 5 6 
#
# 1 36.7367 5.8540 38.7921 -0.0006 3.7435 0.0002
# 2 5.8540 60.6058 42.0874 -0.0003 0.8703 0.0000
# 3 38.7921 42.0874 120.4907 -0.0006 6.9448 0.0003
# 4 -0.0006 -0.0003 -0.0006 24.8139 0.0002 -0.0995
# 5 3.7435 0.8703 6.9448 0.0002 32.6773 -0.0003
# 6 0.0002 0.0000 0.0003 -0.0995 -0.0003 21.6385
#
#
#
# Elastic Compliance Matrix: (Units=1/GPa)
#
#
# Indices 1 2 3 4 5 6 
#
# 1 0.043651 0.007261 -0.016492 0.000001 -0.001689 0.000000
# 2 0.007261 0.023028 -0.010426 0.000000 0.000771 0.000000
# 3 -0.016492 -0.010426 0.017338 0.000000 -0.001518 0.000000
# 4 0.000001 0.000000 0.000000 0.040301 0.000000 0.000185
# 5 -0.001689 0.000771 -0.001518 0.000000 0.031098 0.000000
# 6 0.000000 0.000000 0.000000 0.000185 0.000000 0.046215
#
#
# Mechanical properties :
#
#
# Convention : Reuss Voigt Hill
#
# Bulk Modulus (GPa) = 22.36994 43.47778 32.92386
# Shear Modulus (GPa) = 19.54305 24.56591 22.05448
#
# Velocity S-wave (km/s) = 3.42708 3.84232 3.64063
# Velocity P-wave (km/s) = 5.39477 6.76857 6.12034
#
# Compressibility (1/GPa) = 0.04470284
#
# Stress axis : x y z
#
# Youngs Moduli (GPa) = 22.90902 43.42591 57.67575
#
# Poissons Ratio (x) = -0.31532 0.95121
# Poissons Ratio (y) = -0.16634 0.60131
# Poissons Ratio (z) = 0.37782 0.45275
#
# Static dielectric constant tensor:
#      x y z
#    x 3.101300 0.000000 0.134200 
#    y 0.000000 2.873290 0.000000 
#    z 0.134200 0.000000 3.061460 
# 
# 
# High freq. dielectric constant tensor:
#      x y z
#    x 1.635400 0.000000 0.016430 
#    y 0.000000 1.625260 0.000000 
#    z 0.016430 0.000000 1.635480 
# 
# From -- ./inp_files/29241.got.cif
#   From: 2010.03.12/outbox.cif.g09.slc.cpg/sg8_15_cif.got.tgz:29241.got - 2010.03.31 10:45:26.
