data_PCOD8052848
_publ_section_title
;
Structure prediction by ZEFSAII (Michael W. Deem and Ramdas Pophale) SiO2 
 PCOD8052848
Probable space group: C M
;
_chemical_formula_sum "Si O2"
_cell_formula_units_Z 28
_cell_length_a 5.271127
_cell_length_b 14.876457
_cell_length_c 16.119269
_cell_angle_alpha 90.000000
_cell_angle_beta 99.578976
_cell_angle_gamma 90.000000
_cell_volume 1246.379873
_symmetry_space_group_name_H-M "C M"
_symmetry_group_IT_number 8
_symmetry_cell_setting 'monoclinic'
loop_
_space_group_symop_operation_xyz
x,y,z
x,-y,z
1/2+x,1/2+y,z
1/2+x,1/2-y,z
loop_
_atom_site_type_symbol
_atom_site_label
_atom_site_fract_x
_atom_site_fract_y
_atom_site_fract_z
Si Si1 0.412120 0.147362 0.726610
Si Si2 0.698415 0.892417 0.274201
Si Si3 0.448406 0.651300 0.798014
Si Si4 0.549991 0.607032 0.986915
Si Si5 0.244600 0.105286 0.365089
Si Si6 0.599642 0.893443 0.084428
Si Si7 0.297957 0.807251 0.540111
O O1 0.417809 0.250696 0.756186
O O2 0.679572 0.099291 0.766818
O O3 0.371092 0.137545 0.626288
O O4 0.179020 0.099110 0.763305
O O5 0.475215 0.853691 0.322093
O O6 0.647952 0.855402 0.179067
O O7 0.971720 0.853602 0.320822
O O8 0.699456 0.000000 0.275868
O O9 0.505923 0.657581 0.898236
O O10 0.542729 0.500000 0.972910
O O11 0.327521 0.640392 0.037035
O O12 0.823258 0.640337 0.037228
O O13 0.295837 0.124428 0.463861
O O14 0.237241 0.000000 0.350349
O O15 0.601383 0.000000 0.087520
O O16 0.512801 0.732032 0.535926
#
# Coordination Sequence:
#
# PCOD8052848 Si02
#       7
#     4   4   4   4   4   4   4
#     4  10  19  35  55  71  95 130 190 218 247 319
#     4   9  17  33  54  80 113 145 181 221 271 332
#     4  10  18  33  52  75  97 131 175 227 249 308
#     4  10  19  30  48  81 113 135 170 221 274 314
#     4  10  21  35  56  88 115 141 184 237 281 317
#     4   9  17  30  50  77 109 144 176 210 260 329
#     4  12  21  38  60  84 108 146 195 228 270 341
#
# _framework density 22.465060000000001
#
# number of rings (size 3 to 8) (size 9 to 14) (size 15 to 20)
#    0.000    2.000    2.857    2.571    0.000    3.429 
#    0.000    1.429    0.000    0.000   74.286    0.000 
#    0.000    0.000    0.000    0.000    0.000    0.000 
#
# Total GULP energy -173578.024031 kJ/mol
# GULP energy per Si atom -12398.430288 kJ/mol
# Density = 2.241393 g / cm^3
# Si number density = 22.465060 Si / 1000 Ang^3
#
#
#
# Elastic Constant Matrix: (Units=GPa)
#
#
# Indices 1 2 3 4 5 6 
#
# 1 243.0813 1.9012 100.3606 0.0000 -2.6241 0.0000
# 2 1.9012 11.3333 6.9396 0.0000 0.8111 0.0000
# 3 100.3606 6.9396 228.5346 0.0000 -4.4797 0.0000
# 4 0.0000 0.0000 0.0000 12.0239 0.0000 -3.7666
# 5 -2.6241 0.8111 -4.4797 0.0000 49.5864 0.0000
# 6 0.0000 0.0000 0.0000 -3.7666 0.0000 -0.3056
#
#
#
# Elastic Compliance Matrix: (Units=1/GPa)
#
#
# Indices 1 2 3 4 5 6 
#
# 1 0.005028 0.000513 -0.002223 0.000000 0.000057 0.000000
# 2 0.000513 0.090106 -0.002995 0.000000 -0.001717 0.000000
# 3 -0.002223 -0.002995 0.005451 0.000000 0.000424 0.000000
# 4 0.000000 0.000000 0.000000 0.017107 0.000000 -0.210879
# 5 0.000057 -0.001717 0.000424 0.000000 0.020236 0.000000
# 6 0.000000 0.000000 0.000000 -0.210879 0.000000 -0.673168
#
#
# Mechanical properties :
#
#
# Convention : Reuss Voigt Hill
#
# Bulk Modulus (GPa) = 10.96776 77.92799 44.44788
# Shear Modulus (GPa) = -10.09208 37.17747 13.54269
#
# Velocity S-wave (km/s) = -2.12181 4.07246 2.45793
# Velocity P-wave (km/s) = 1.05359 7.54169 5.28048
#
# Compressibility (1/GPa) = 0.09117635
#
# Stress axis : x y z
#
# Youngs Moduli (GPa) = 198.88367 11.09803 183.45301
#
# Poissons Ratio (x) = -0.00570 0.40773
# Poissons Ratio (y) = -0.10210 0.54948
# Poissons Ratio (z) = 0.44203 0.03324
#
# Static dielectric constant tensor:
#      x y z
#    x 6.995940 0.000000 0.078440 
#    y 0.000000 3.484500 0.000000 
#    z 0.078440 0.000000 4.154180 
# 
# 
# High freq. dielectric constant tensor:
#      x y z
#    x 1.917760 0.000000 0.000050 
#    y 0.000000 1.829450 0.000000 
#    z 0.000050 0.000000 1.898140 
# 
# From -- ./inp_files/18105.got.cif
#   From: 2010.03.12/outbox.cif.g09.slc.cpg/sg8_10_cif.got.tgz:18105.got - 2010.03.31 10:45:26.
