data_PCOD8052423
_publ_section_title
;
Structure prediction by ZEFSAII (Michael W. Deem and Ramdas Pophale) SiO2 
 PCOD8052423
Probable space group: P M
;
_chemical_formula_sum "Si O2"
_cell_formula_units_Z 16
_cell_length_a 19.358374
_cell_length_b 8.935331
_cell_length_c 15.432726
_cell_angle_alpha 90.000000
_cell_angle_beta 19.033541
_cell_angle_gamma 90.000000
_cell_volume 870.566075
_symmetry_space_group_name_H-M "P M"
_symmetry_group_IT_number 6
_symmetry_cell_setting 'monoclinic'
loop_
_space_group_symop_operation_xyz
x,y,z
x,-y,z
loop_
_atom_site_type_symbol
_atom_site_label
_atom_site_fract_x
_atom_site_fract_y
_atom_site_fract_z
Si Si1 0.883370 0.326739 0.381670
Si Si2 0.292536 0.827671 0.842869
Si Si3 0.787392 0.175793 0.840308
Si Si4 0.379365 0.673802 0.394819
Si Si5 0.653746 0.673516 0.828876
Si Si6 0.131153 0.172789 0.842188
Si Si7 0.191120 0.329042 0.433538
Si Si8 0.720917 0.325784 0.386698
O O1 0.950729 0.500000 0.305393
O O2 0.737447 0.281106 0.635355
O O3 0.749463 0.291455 0.454467
O O4 0.094748 0.227801 0.134423
O O5 0.244991 0.802641 0.798584
O O6 0.492216 0.728920 0.630206
O O7 0.337307 0.000000 0.811769
O O8 0.779424 0.231182 0.750875
O O9 0.013421 0.216098 0.612385
O O10 0.754499 0.000000 0.881854
O O11 0.606527 0.250479 0.112944
O O12 0.420569 0.500000 0.362190
O O13 0.268707 0.742608 0.608861
O O14 0.231394 0.700323 0.487135
O O15 0.694694 0.500000 0.802176
O O16 0.404032 0.707821 0.127577
O O17 0.113869 0.000000 0.837349
O O18 0.895642 0.239730 0.123063
O O19 0.119638 0.500000 0.501984
O O20 0.743969 0.500000 0.338709
#
# Coordination Sequence:
#
# PCOD8052423 Si02
#       8
#     2   2   2   2   2   2   2   2
#     4   9  19  36  57  80 105 138 181 224 265 311
#     4  10  21  36  54  79 111 144 176 216 268 319
#     4  11  22  35  54  81 111 141 174 216 266 319
#     4  10  21  38  59  80 104 138 180 223 264 312
#     4   9  19  37  58  78 105 141 180 222 264 311
#     4  10  21  37  56  79 109 142 176 219 269 318
#     4   9  19  36  56  78 105 139 177 217 264 315
#     4  10  20  35  56  81 108 141 182 223 262 311
#
# _framework density 18.378847
#
# number of rings (size 3 to 8) (size 9 to 14) (size 15 to 20)
#    0.000    2.250    0.000    3.375    0.000    7.000 
#    0.000    2.500    0.000    0.000    0.000    0.000 
#    0.000    0.000    0.000    0.000    0.000    0.000 
#
# Total GULP energy -198470.171981 kJ/mol
# GULP energy per Si atom -12404.385749 kJ/mol
# Density = 1.833702 g / cm^3
# Si number density = 18.378847 Si / 1000 Ang^3
#
#
#
# Elastic Constant Matrix: (Units=GPa)
#
#
# Indices 1 2 3 4 5 6 
#
# 1 70.6748 50.9836 67.2938 0.0000 10.7012 0.0000
# 2 50.9836 113.3633 61.5832 0.0000 0.6899 0.0000
# 3 67.2938 61.5832 117.8351 0.0000 6.2992 0.0000
# 4 0.0000 0.0000 0.0000 24.4088 0.0000 -3.0731
# 5 10.7012 0.6899 6.2992 0.0000 39.8482 0.0000
# 6 0.0000 0.0000 0.0000 -3.0731 0.0000 27.7739
#
#
#
# Elastic Compliance Matrix: (Units=1/GPa)
#
#
# Indices 1 2 3 4 5 6 
#
# 1 0.036108 -0.007258 -0.016455 0.000000 -0.006970 0.000000
# 2 -0.007258 0.013803 -0.003188 0.000000 0.002214 0.000000
# 3 -0.016455 -0.003188 0.019475 0.000000 0.001396 0.000000
# 4 0.000000 0.000000 0.000000 0.041548 0.000000 0.004597
# 5 -0.006970 0.002214 0.001396 0.000000 0.026708 0.000000
# 6 0.000000 0.000000 0.000000 0.004597 0.000000 0.036514
#
#
# Mechanical properties :
#
#
# Convention : Reuss Voigt Hill
#
# Bulk Modulus (GPa) = 64.16127 73.51049 68.83588
# Shear Modulus (GPa) = 21.44521 26.54035 23.99278
#
# Velocity S-wave (km/s) = 3.41961 3.80422 3.61703
# Velocity P-wave (km/s) = 7.11181 7.70586 7.41479
#
# Compressibility (1/GPa) = 0.01558573
#
# Stress axis : x y z
#
# Youngs Moduli (GPa) = 27.69450 72.44620 51.34779
#
# Poissons Ratio (x) = 0.52579 0.84494
# Poissons Ratio (y) = 0.20100 0.16367
# Poissons Ratio (z) = 0.45572 0.23092
#
# Static dielectric constant tensor:
#      x y z
#    x 3.360900 0.000000 0.108110 
#    y 0.000000 3.450440 0.000000 
#    z 0.108110 0.000000 3.441580 
# 
# 
# High freq. dielectric constant tensor:
#      x y z
#    x 1.709030 0.000000 0.003050 
#    y 0.000000 1.720240 0.000000 
#    z 0.003050 0.000000 1.719310 
# 
# From -- ./inp_files/1858.got.cif
#   From: 2010.03.12/outbox.cif.g09.slc.cpg/sg6_1_cif.got.tgz:1858.got - 2010.03.30 10:24:59.
