data_PCOD8052183
_publ_section_title
;
Structure prediction by ZEFSAII (Michael W. Deem and Ramdas Pophale) SiO2 
 PCOD8052183
Probable space group: C 2
;
_chemical_formula_sum "Si O2"
_cell_formula_units_Z 24
_cell_length_a 13.998681
_cell_length_b 5.707757
_cell_length_c 14.280297
_cell_angle_alpha 90.000000
_cell_angle_beta 119.211762
_cell_angle_gamma 90.000000
_cell_volume 995.899401
_symmetry_space_group_name_H-M "C 2"
_symmetry_group_IT_number 5
_symmetry_cell_setting 'monoclinic'
loop_
_space_group_symop_operation_xyz
x,y,z
-x,y,-z
1/2+x,1/2+y,z
1/2-x,1/2+y,-z
loop_
_atom_site_type_symbol
_atom_site_label
_atom_site_fract_x
_atom_site_fract_y
_atom_site_fract_z
Si Si1 0.813251 0.497260 0.922002
Si Si2 0.299857 0.832602 0.494470
Si Si3 0.776734 0.321610 0.270607
Si Si4 0.415485 0.309921 0.123793
Si Si5 0.907380 0.158254 0.837699
Si Si6 0.500238 0.941954 0.289296
O O1 0.805912 0.647743 0.822944
O O2 0.691742 0.452205 0.900419
O O3 0.887251 0.274928 0.929610
O O4 0.881322 0.601136 0.039565
O O5 0.269050 0.579951 0.528753
O O6 0.302846 0.746329 0.388671
O O7 0.419336 0.919400 0.584264
O O8 0.714215 0.567699 0.246735
O O9 0.886341 0.324025 0.261924
O O10 0.501092 0.461486 0.106442
O O11 0.474470 0.210794 0.246494
O O12 0.943798 0.327281 0.772802
#
# Coordination Sequence:
#
# PCOD8052183 Si02
#       6
#     4   4   4   4   4   4
#     4  12  28  51  78 115 160 209 268 334 407 493
#     4  12  27  50  81 124 164 218 275 338 413 492
#     4  12  26  50  79 116 157 207 267 336 401 487
#     4  12  28  51  78 115 160 209 268 334 407 493
#     4  12  26  51  76 108 158 202 263 324 406 482
#     4  12  26  50  79 116 157 207 267 336 401 487
#
# _framework density 24.09882
#
# number of rings (size 3 to 8) (size 9 to 14) (size 15 to 20)
#    0.000    0.000    5.000    4.500    0.000    4.000 
#    0.000    1.667    0.000    0.000    0.000    0.000 
#    0.000    0.000    0.000    0.000    0.000    0.000 
#
# Total GULP energy -148716.932243 kJ/mol
# GULP energy per Si atom -12393.077687 kJ/mol
# Density = 2.404397 g / cm^3
# Si number density = 24.098820 Si / 1000 Ang^3
#
#
#
# Elastic Constant Matrix: (Units=GPa)
#
#
# Indices 1 2 3 4 5 6 
#
# 1 121.2410 13.9291 21.3328 0.0000 5.0286 0.0000
# 2 13.9291 68.7715 24.8122 0.0000 6.2093 0.0000
# 3 21.3328 24.8122 106.5918 0.0000 -4.5321 0.0000
# 4 0.0000 0.0000 0.0000 43.3180 0.0000 3.4777
# 5 5.0286 6.2093 -4.5321 0.0000 39.9410 0.0000
# 6 0.0000 0.0000 0.0000 3.4777 0.0000 53.9836
#
#
#
# Elastic Compliance Matrix: (Units=1/GPa)
#
#
# Indices 1 2 3 4 5 6 
#
# 1 0.008690 -0.001110 -0.001527 0.000000 -0.001095 0.000000
# 2 -0.001110 0.016358 -0.003706 0.000000 -0.002824 0.000000
# 3 -0.001527 -0.003706 0.010634 0.000000 0.001975 0.000000
# 4 0.000000 0.000000 0.000000 0.023205 0.000000 -0.001495
# 5 -0.001095 -0.002824 0.001975 0.000000 0.025838 0.000000
# 6 0.000000 0.000000 0.000000 -0.001495 0.000000 0.018620
#
#
# Mechanical properties :
#
#
# Convention : Reuss Voigt Hill
#
# Bulk Modulus (GPa) = 43.48739 46.30585 44.89662
# Shear Modulus (GPa) = 40.42181 43.21720 41.81950
#
# Velocity S-wave (km/s) = 4.09997 4.23937 4.17025
# Velocity P-wave (km/s) = 6.36378 6.57417 6.46983
#
# Compressibility (1/GPa) = 0.02299517
#
# Stress axis : x y z
#
# Youngs Moduli (GPa) = 115.07868 61.13346 94.03986
#
# Poissons Ratio (x) = 0.06787 0.14362
# Poissons Ratio (y) = 0.12776 0.34847
# Poissons Ratio (z) = 0.17575 0.22653
#
# Static dielectric constant tensor:
#      x y z
#    x 4.544860 0.000000 0.048020 
#    y 0.000000 4.592790 0.000000 
#    z 0.048020 0.000000 4.403160 
# 
# 
# High freq. dielectric constant tensor:
#      x y z
#    x 1.974840 0.000000 0.004200 
#    y 0.000000 1.958580 0.000000 
#    z 0.004200 0.000000 1.964990 
# 
# From -- ./inp_files/53904.got.cif
#   From: 2010.03.12/outbox.cif.g09.slc.cpg/sg5_27_cif.got.tgz:53904.got - 2010.03.31 09:47:26.
