data_PCOD8052186
_publ_section_title
;
Structure prediction by ZEFSAII (Michael W. Deem and Ramdas Pophale) SiO2 
 PCOD8052186
Probable space group: C 2
;
_chemical_formula_sum "Si O2"
_cell_formula_units_Z 16
_cell_length_a 12.004324
_cell_length_b 8.258344
_cell_length_c 8.786866
_cell_angle_alpha 90.000000
_cell_angle_beta 139.123315
_cell_angle_gamma 90.000000
_cell_volume 570.072373
_symmetry_space_group_name_H-M "C 2"
_symmetry_group_IT_number 5
_symmetry_cell_setting 'monoclinic'
loop_
_space_group_symop_operation_xyz
x,y,z
-x,y,-z
1/2+x,1/2+y,z
1/2-x,1/2+y,-z
loop_
_atom_site_type_symbol
_atom_site_label
_atom_site_fract_x
_atom_site_fract_y
_atom_site_fract_z
Si Si1 0.000000 0.067590 0.000000
Si Si2 0.928695 0.620572 0.194238
Si Si3 0.500000 0.375762 0.500000
Si Si4 0.291124 0.835546 0.212839
Si Si5 0.681152 0.638880 0.485678
O O1 0.907846 0.169742 0.770302
O O2 0.866504 0.955100 0.944903
O O3 0.922948 0.435653 0.245525
O O4 0.886257 0.752060 0.282548
O O5 0.115430 0.641840 0.316351
O O6 0.775087 0.660656 0.917511
O O7 0.616163 0.476342 0.501881
O O8 0.372081 0.791875 0.461850
#
# Coordination Sequence:
#
# PCOD8052186 Si02
#       5
#     2   4   2   4   4
#     4  12  26  54  84 122 176 220 282 348 428 508
#     4  12  27  54  83 129 174 224 285 354 429 505
#     4  12  26  50  84 124 170 220 284 344 426 510
#     4  12  26  54  86 122 174 225 284 348 425 507
#     4  12  27  53  85 122 176 224 281 355 423 512
#
# _framework density 28.066611000000002
#
# number of rings (size 3 to 8) (size 9 to 14) (size 15 to 20)
#    0.000    0.000    5.000    3.000    0.000    5.000 
#    4.500    0.000    0.000    0.000    0.000    0.000 
#    0.000    0.000    0.000    0.000    0.000    0.000 
#
# Total GULP energy -99154.866402 kJ/mol
# GULP energy per Si atom -12394.358300 kJ/mol
# Density = 2.800273 g / cm^3
# Si number density = 28.066611 Si / 1000 Ang^3
#
#
#
# Elastic Constant Matrix: (Units=GPa)
#
#
# Indices 1 2 3 4 5 6 
#
# 1 112.1571 72.6944 31.2210 0.0000 -28.7298 0.0000
# 2 72.6944 108.5840 90.2399 0.0000 5.6379 0.0000
# 3 31.2210 90.2399 149.3886 0.0000 -36.2291 0.0000
# 4 0.0000 0.0000 0.0000 64.7725 0.0000 -3.8391
# 5 -28.7298 5.6379 -36.2291 0.0000 25.4781 0.0000
# 6 0.0000 0.0000 0.0000 -3.8391 0.0000 17.5850
#
#
#
# Elastic Compliance Matrix: (Units=1/GPa)
#
#
# Indices 1 2 3 4 5 6 
#
# 1 -0.001210 0.012346 -0.012513 0.000000 -0.021890 0.000000
# 2 0.012346 -0.010967 0.012225 0.000000 0.033732 0.000000
# 3 -0.012513 0.012225 -0.003287 0.000000 -0.021490 0.000000
# 4 0.000000 0.000000 0.000000 0.015641 0.000000 0.003415
# 5 -0.021890 0.033732 -0.021490 0.000000 -0.023456 0.000000
# 6 0.000000 0.000000 0.000000 0.003415 0.000000 0.057612
#
#
# Mechanical properties :
#
#
# Convention : Reuss Voigt Hill
#
# Bulk Modulus (GPa) = 115.59217 84.27114 99.93165
# Shear Modulus (GPa) = 381.63069 33.29876 207.46473
#
# Velocity S-wave (km/s) = 11.67341 3.44818 8.60693
# Velocity P-wave (km/s) = 14.93203 6.77819 11.59546
#
# Compressibility (1/GPa) = 0.00865111
#
# Stress axis : x y z
#
# Youngs Moduli (GPa) = -826.64881 -91.18278 -304.20964
#
# Poissons Ratio (x) = 1.12573 -3.80670
# Poissons Ratio (y) = 10.20565 3.71899
# Poissons Ratio (z) = -10.34419 1.11472
#
# Static dielectric constant tensor:
#      x y z
#    x 5.511990 0.000000 -0.041210 
#    y 0.000000 5.069610 0.000000 
#    z -0.041210 0.000000 5.804450 
# 
# 
# High freq. dielectric constant tensor:
#      x y z
#    x 2.150240 0.000000 0.004790 
#    y 0.000000 2.131840 0.000000 
#    z 0.004790 0.000000 2.157360 
# 
# From -- ./inp_files/18427.got.cif
#   From: 2010.03.12/outbox.cif.g09.slc.cpg/sg5_10_cif.got.tgz:18427.got - 2010.03.31 09:47:26.
