data_PCOD8052491
_publ_section_title
;
Structure prediction by ZEFSAII (Michael W. Deem and Ramdas Pophale) SiO2 
 PCOD8052491
Probable space group: P M
;
_chemical_formula_sum "Si O2"
_cell_formula_units_Z 16
_cell_length_a 14.390175
_cell_length_b 8.961944
_cell_length_c 19.428494
_cell_angle_alpha 90.000000
_cell_angle_beta 160.705659
_cell_angle_gamma 90.000000
_cell_volume 827.895093
_symmetry_space_group_name_H-M "P M"
_symmetry_group_IT_number 6
_symmetry_cell_setting 'monoclinic'
loop_
_space_group_symop_operation_xyz
x,y,z
x,-y,z
loop_
_atom_site_type_symbol
_atom_site_label
_atom_site_fract_x
_atom_site_fract_y
_atom_site_fract_z
Si Si1 0.383070 0.822371 0.892930
Si Si2 0.392054 0.822026 0.745919
Si Si3 0.887401 0.177276 0.644915
Si Si4 0.895356 0.326035 0.795395
Si Si5 0.309567 0.326001 0.209438
Si Si6 0.997889 0.177939 0.351919
Si Si7 0.461753 0.165056 0.577206
Si Si8 0.882166 0.165022 0.997430
O O1 0.334221 0.759726 0.781732
O O2 0.136215 0.764703 0.769426
O O3 0.390679 0.000000 0.896687
O O4 0.681110 0.759710 0.128840
O O5 0.705607 0.773683 0.939596
O O6 0.151034 0.756561 0.526956
O O7 0.381406 0.000000 0.736886
O O8 0.959091 0.238281 0.770366
O O9 0.601038 0.238386 0.412029
O O10 0.872057 0.000000 0.637202
O O11 0.882296 0.500000 0.770065
O O12 0.589699 0.276283 0.609976
O O13 0.139644 0.286987 0.021004
O O14 0.371504 0.500000 0.259177
O O15 0.134715 0.276337 0.154768
O O16 0.163537 0.226337 0.397749
O O17 0.002184 0.000000 0.357777
O O18 0.666008 0.153233 0.784341
O O19 0.427803 0.000000 0.520135
O O20 0.008718 0.000000 0.100804
#
# Coordination Sequence:
#
# PCOD8052491 Si02
#       8
#     2   2   2   2   2   2   2   2
#     4   9  18  30  45  70 100 131 170 211 254 303
#     4   8  14  26  45  70 101 132 161 203 258 309
#     4  11  23  36  53  78 106 139 182 227 262 301
#     4  10  21  37  56  77 106 143 177 215 265 316
#     4  10  21  37  56  77 106 143 177 215 265 316
#     4   8  14  26  45  70 101 132 161 203 258 309
#     4   8  14  27  50  79 106 131 164 207 256 313
#     4   8  14  27  50  79 106 131 164 207 256 313
#
# _framework density 19.326118999999998
#
# number of rings (size 3 to 8) (size 9 to 14) (size 15 to 20)
#    0.000    3.000    0.000    2.625    0.000    3.500 
#    0.000    5.000    0.000    3.000    0.000    3.500 
#    0.000    0.000    0.000    0.000    0.000    0.000 
#
# Total GULP energy -198314.045462 kJ/mol
# GULP energy per Si atom -12394.627841 kJ/mol
# Density = 1.928213 g / cm^3
# Si number density = 19.326119 Si / 1000 Ang^3
#
#
#
# Elastic Constant Matrix: (Units=GPa)
#
#
# Indices 1 2 3 4 5 6 
#
# 1 164.0522 43.0291 81.0763 0.0000 20.2916 0.0000
# 2 43.0291 60.9527 37.1531 0.0000 7.4147 0.0000
# 3 81.0763 37.1531 131.6855 0.0000 19.9399 0.0000
# 4 0.0000 0.0000 0.0000 13.5070 0.0000 -7.7116
# 5 20.2916 7.4147 19.9399 0.0000 33.7558 0.0000
# 6 0.0000 0.0000 0.0000 -7.7116 0.0000 7.2444
#
#
#
# Elastic Compliance Matrix: (Units=1/GPa)
#
#
# Indices 1 2 3 4 5 6 
#
# 1 0.009583 -0.003746 -0.004498 0.000000 -0.002281 0.000000
# 2 -0.003746 0.021319 -0.003668 0.000000 -0.000264 0.000000
# 3 -0.004498 -0.003668 0.011934 0.000000 -0.003540 0.000000
# 4 0.000000 0.000000 0.000000 0.188754 0.000000 0.200930
# 5 -0.002281 -0.000264 -0.003540 0.000000 0.033145 0.000000
# 6 0.000000 0.000000 0.000000 0.200930 0.000000 0.351929
#
#
# Mechanical properties :
#
#
# Convention : Reuss Voigt Hill
#
# Bulk Modulus (GPa) = 52.60012 75.46748 64.03380
# Shear Modulus (GPa) = 7.73005 23.93022 15.83014
#
# Velocity S-wave (km/s) = 2.00212 3.52267 2.86511
# Velocity P-wave (km/s) = 5.71147 7.46189 6.64457
#
# Compressibility (1/GPa) = 0.01901136
#
# Stress axis : x y z
#
# Youngs Moduli (GPa) = 104.34908 46.90682 83.79292
#
# Poissons Ratio (x) = 0.17572 0.37690
# Poissons Ratio (y) = 0.39090 0.30739
# Poissons Ratio (z) = 0.46936 0.17208
#
# Static dielectric constant tensor:
#      x y z
#    x 3.764950 0.000000 0.119190 
#    y 0.000000 3.155080 0.000000 
#    z 0.119190 0.000000 3.669450 
# 
# 
# High freq. dielectric constant tensor:
#      x y z
#    x 1.755340 0.000000 0.001990 
#    y 0.000000 1.704380 0.000000 
#    z 0.001990 0.000000 1.753690 
# 
# From -- ./inp_files/5951.got.cif
#   From: 2010.03.12/outbox.cif.g09.slc.cpg/sg6_3_cif.got.tgz:5951.got - 2010.03.30 10:24:59.
