data_PCOD8052300
_publ_section_title
;
Structure prediction by ZEFSAII (Michael W. Deem and Ramdas Pophale) SiO2 
 PCOD8052300
Probable space group: P M
;
_chemical_formula_sum "Si O2"
_cell_formula_units_Z 16
_cell_length_a 11.543636
_cell_length_b 9.107291
_cell_length_c 9.602877
_cell_angle_alpha 90.000000
_cell_angle_beta 64.697671
_cell_angle_gamma 90.000000
_cell_volume 912.710286
_symmetry_space_group_name_H-M "P M"
_symmetry_group_IT_number 6
_symmetry_cell_setting 'monoclinic'
loop_
_space_group_symop_operation_xyz
x,y,z
x,-y,z
loop_
_atom_site_type_symbol
_atom_site_label
_atom_site_fract_x
_atom_site_fract_y
_atom_site_fract_z
Si Si1 0.557870 0.332687 0.710090
Si Si2 0.276417 0.331054 0.873651
Si Si3 0.817595 0.334106 0.285009
Si Si4 0.827586 0.661989 0.611779
Si Si5 0.070391 0.174217 0.163699
Si Si6 0.071546 0.827974 0.480256
Si Si7 0.573983 0.831700 0.422692
Si Si8 0.291073 0.171569 0.574242
O O1 0.569913 0.500000 0.641948
O O2 0.422083 0.318707 0.859302
O O3 0.683270 0.303998 0.744776
O O4 0.558735 0.210188 0.591360
O O5 0.229874 0.500000 0.898786
O O6 0.270709 0.271466 0.719644
O O7 0.189547 0.232563 0.016146
O O8 0.830148 0.500000 0.223758
O O9 0.811845 0.324536 0.453963
O O10 0.685349 0.264791 0.292052
O O11 0.939763 0.242306 0.168251
O O12 0.872475 0.500000 0.632535
O O13 0.936639 0.770178 0.612503
O O14 0.090354 0.227571 0.312630
O O15 0.062747 0.000000 0.155274
O O16 0.189186 0.772320 0.512758
O O17 0.062393 0.000000 0.488741
O O18 0.431838 0.805825 0.431695
O O19 0.617002 0.000000 0.389036
O O20 0.271201 0.000000 0.623787
#
# Coordination Sequence:
#
# PCOD8052300 Si02
#       8
#     2   2   2   2   2   2   2   2
#     4   8  15  27  42  62  89 118 149 188 231 271
#     4  10  19  31  48  70  95 123 154 189 232 278
#     4   9  16  27  43  64  91 119 150 190 231 270
#     4   8  14  25  42  64  88 115 148 188 230 268
#     4  10  19  31  48  70  95 123 155 190 229 274
#     4   9  18  31  47  68  94 123 154 189 228 271
#     4   9  15  24  42  66  89 115 149 189 231 271
#     4   9  18  32  48  68  95 124 155 191 230 273
#
# _framework density 17.530206
#
# number of rings (size 3 to 8) (size 9 to 14) (size 15 to 20)
#    0.000    3.000    0.000    2.250    0.000    5.000 
#    0.000    0.000    0.000    1.500    0.000    5.250 
#    0.000    0.000    0.000    0.000    0.000    0.000 
#
# Total GULP energy -198249.204726 kJ/mol
# GULP energy per Si atom -12390.575295 kJ/mol
# Density = 1.749031 g / cm^3
# Si number density = 17.530206 Si / 1000 Ang^3
#
#
#
# Elastic Constant Matrix: (Units=GPa)
#
#
# Indices 1 2 3 4 5 6 
#
# 1 144.2834 48.0804 42.8197 0.0000 -29.0398 0.0000
# 2 48.0804 71.6346 28.4493 0.0000 -12.6709 0.0000
# 3 42.8197 28.4493 50.9214 0.0000 -21.3845 0.0000
# 4 0.0000 0.0000 0.0000 20.6963 0.0000 -10.0125
# 5 -29.0398 -12.6709 -21.3845 0.0000 25.6857 0.0000
# 6 0.0000 0.0000 0.0000 -10.0125 0.0000 28.6543
#
#
#
# Elastic Compliance Matrix: (Units=1/GPa)
#
#
# Indices 1 2 3 4 5 6 
#
# 1 0.011002 -0.004676 -0.003666 0.000000 0.007080 0.000000
# 2 -0.004676 0.019938 -0.008144 0.000000 -0.002232 0.000000
# 3 -0.003666 -0.008144 0.036661 0.000000 0.022360 0.000000
# 4 0.000000 0.000000 0.000000 0.058147 0.000000 0.020318
# 5 0.007080 -0.002232 0.022360 0.000000 0.064451 0.000000
# 6 0.000000 0.000000 0.000000 0.020318 0.000000 0.041999
#
#
# Mechanical properties :
#
#
# Convention : Reuss Voigt Hill
#
# Bulk Modulus (GPa) = 28.87807 56.17091 42.52449
# Shear Modulus (GPa) = 18.06928 24.83992 21.45460
#
# Velocity S-wave (km/s) = 3.21401 3.76836 3.50217
# Velocity P-wave (km/s) = 5.50293 7.14465 6.37684
#
# Compressibility (1/GPa) = 0.03462835
#
# Stress axis : x y z
#
# Youngs Moduli (GPa) = 90.89281 50.15533 27.27719
#
# Poissons Ratio (x) = 0.23454 0.09999
# Poissons Ratio (y) = 0.42504 0.22215
# Poissons Ratio (z) = 0.33319 0.40847
#
# Static dielectric constant tensor:
#      x y z
#    x 3.691780 0.000000 -0.392350 
#    y 0.000000 3.314860 0.000000 
#    z -0.392350 0.000000 2.865210 
# 
# 
# High freq. dielectric constant tensor:
#      x y z
#    x 1.685540 0.000000 -0.042020 
#    y 0.000000 1.686560 0.000000 
#    z -0.042020 0.000000 1.618680 
# 
# From -- ./inp_files/3493.got.cif
#   From: 2010.03.12/outbox.cif.g09.slc.cpg/sg6_2_cif.got.tgz:3493.got - 2010.03.30 10:24:59.
