data_PCOD8052215
_publ_section_title
;
Structure prediction by ZEFSAII (Michael W. Deem and Ramdas Pophale) SiO2 
 PCOD8052215
Probable space group: C 2
;
_chemical_formula_sum "Si O2"
_cell_formula_units_Z 15
_cell_length_a 12.000000
_cell_length_b 18.000000
_cell_length_c 15.000000
_cell_angle_alpha 90.000000
_cell_angle_beta 150.000000
_cell_angle_gamma 90.000000
_cell_volume 1620.000000
_symmetry_space_group_name_H-M "C 2"
_symmetry_group_IT_number 5
_symmetry_cell_setting 'monoclinic'
loop_
_space_group_symop_operation_xyz
x,y,z
-x,y,-z
1/2+x,1/2+y,z
1/2-x,1/2+y,-z
loop_
_atom_site_type_symbol
_atom_site_label
_atom_site_fract_x
_atom_site_fract_y
_atom_site_fract_z
Si Si1 0.251850 0.943100 0.658487
Si Si2 0.000000 0.395507 0.000000
Si Si3 0.202993 0.251315 0.577038
Si Si4 0.275403 0.147132 0.394667
Si Si5 0.864625 0.125886 0.992187
Si Si6 0.795791 0.786774 0.092837
Si Si7 0.126652 0.595529 0.340664
Si Si8 0.418318 0.794826 0.698174
O O1 0.341731 0.879398 0.655015
O O2 0.000000 0.920997 0.500000
O O3 0.255203 0.022202 0.612841
O O4 0.390894 0.945974 0.847350
O O5 0.199785 0.346848 0.095854
O O6 0.437582 0.298220 0.740236
O O7 0.279858 0.166399 0.650058
O O8 0.075850 0.266283 0.397552
O O9 0.000000 0.276450 0.500000
O O10 0.500000 0.123106 0.500000
O O11 0.300489 0.111659 0.508462
O O12 0.251418 0.236960 0.371000
O O13 0.041345 0.115491 0.194395
O O14 0.761908 0.207670 0.902397
O O15 0.639341 0.079008 0.854178
O O16 0.000000 0.098336 0.000000
O O17 0.668931 0.789873 0.910460
#
# Coordination Sequence:
#
# PCOD8052215 Si02
#       8
#     4   2   4   4   4   4   4   4
#     4  11  22  37  57  81 114 146 180 232 281 334
#     4  10  20  36  62  86 108 140 182 238 288 324
#     4  10  20  36  56  78 112 152 185 223 270 329
#     4  10  18  32  57  84 108 139 182 235 280 321
#     4  10  17  30  55  80 108 137 175 230 278 317
#     4   9  18  32  56  88 107 132 180 235 280 321
#     4  10  22  35  51  81 114 147 188 221 273 339
#     4   9  20  34  56  84 106 138 188 231 275 324
#
# _framework density 9.2592590000000001
#
# number of rings (size 3 to 8) (size 9 to 14) (size 15 to 20)
#    0.000    2.133    2.000    1.600    0.000    1.600 
#    0.000    3.333    5.867    0.000    0.000    0.000 
#    0.000    0.000    0.000    0.000    0.000    0.000 
#
# Total GULP energy -185847.163970 kJ/mol
# GULP energy per Si atom -12389.810931 kJ/mol
# Density = 0.923818 g / cm^3
# Si number density = 9.259259 Si / 1000 Ang^3
#
#
#
# Elastic Constant Matrix: (Units=GPa)
#
#
# Indices 1 2 3 4 5 6 
#
# 1 80.3554 19.8183 46.6171 -0.0021 18.3261 -0.0021
# 2 19.8183 69.4401 19.4742 -0.0045 -7.2468 -0.0120
# 3 46.6171 19.4742 117.2375 0.0367 6.6107 0.0103
# 4 -0.0021 -0.0045 0.0367 16.2985 -0.0144 -2.9672
# 5 18.3261 -7.2468 6.6107 -0.0144 33.4379 -0.0107
# 6 -0.0021 -0.0120 0.0103 -2.9672 -0.0107 13.5264
#
#
#
# Elastic Compliance Matrix: (Units=1/GPa)
#
#
# Indices 1 2 3 4 5 6 
#
# 1 0.019859 -0.004968 -0.006469 0.000006 -0.010682 -0.000004
# 2 -0.004968 0.016844 -0.001195 0.000017 0.006610 0.000024
# 3 -0.006469 -0.001195 0.011240 -0.000028 0.001064 -0.000016
# 4 0.000006 0.000017 -0.000028 0.063908 0.000038 0.014019
# 5 -0.010682 0.006610 0.001064 0.000038 0.036983 0.000041
# 6 -0.000004 0.000024 -0.000016 0.014019 0.000041 0.077005
#
#
# Mechanical properties :
#
#
# Convention : Reuss Voigt Hill
#
# Bulk Modulus (GPa) = 44.09440 48.76135 46.42787
# Shear Modulus (GPa) = 19.33014 24.72744 22.02879
#
# Velocity S-wave (km/s) = 3.23434 3.65811 3.45273
# Velocity P-wave (km/s) = 6.14903 6.65062 6.40474
#
# Compressibility (1/GPa) = 0.02267862
#
# Stress axis : x y z
#
# Youngs Moduli (GPa) = 50.35464 59.36891 88.96428
#
# Poissons Ratio (x) = 0.29497 0.57551
# Poissons Ratio (y) = 0.25018 0.10632
# Poissons Ratio (z) = 0.32574 0.07095
#
# Static dielectric constant tensor:
#      x y z
#    x 3.270900 0.000050 0.064180 
#    y 0.000050 3.135630 -0.000100 
#    z 0.064180 -0.000100 3.777760 
# 
# 
# High freq. dielectric constant tensor:
#      x y z
#    x 1.705790 0.000000 0.006270 
#    y 0.000000 1.687640 -0.000010 
#    z 0.006270 -0.000010 1.748470 
# 
# From -- ./inp_files/40473.got.cif
#   From: 2010.06.25/outbox.ucp.g09.slc.cvg/sg5_21_cif.got.tgz:40473.got - 2010.06.28 13:24:32.
