data_PCOD8052260
_publ_section_title
;
Structure prediction by ZEFSAII (Michael W. Deem and Ramdas Pophale) SiO2 
 PCOD8052260
Probable space group: P M
;
_chemical_formula_sum "Si O2"
_cell_formula_units_Z 16
_cell_length_a 9.044767
_cell_length_b 8.386223
_cell_length_c 21.556189
_cell_angle_alpha 90.000000
_cell_angle_beta 151.494320
_cell_angle_gamma 90.000000
_cell_volume 780.329382
_symmetry_space_group_name_H-M "P M"
_symmetry_group_IT_number 6
_symmetry_cell_setting 'monoclinic'
loop_
_space_group_symop_operation_xyz
x,y,z
x,-y,z
loop_
_atom_site_type_symbol
_atom_site_label
_atom_site_fract_x
_atom_site_fract_y
_atom_site_fract_z
Si Si1 0.819090 0.685917 0.177790
Si Si2 0.922292 0.316400 0.462458
Si Si3 0.756395 0.315502 0.967285
Si Si4 0.798740 0.185735 0.643761
Si Si5 0.113167 0.813983 0.404176
Si Si6 0.240570 0.811881 0.697161
Si Si7 0.259372 0.814229 0.234611
Si Si8 0.350853 0.814169 0.924791
O O1 0.833767 0.500000 0.168979
O O2 0.889603 0.720183 0.275223
O O3 0.060247 0.776826 0.222368
O O4 0.470334 0.755407 0.036121
O O5 0.956886 0.500000 0.457078
O O6 0.577733 0.281239 0.359200
O O7 0.993795 0.209206 0.429366
O O8 0.169840 0.274566 0.606790
O O9 0.809507 0.500000 0.971654
O O10 0.591011 0.231445 0.847465
O O11 0.539490 0.294570 0.946680
O O12 0.086288 0.235956 0.106797
O O13 0.458584 0.261775 0.523914
O O14 0.994928 0.253284 0.657951
O O15 0.986507 0.216834 0.777669
O O16 0.756239 0.000000 0.617259
O O17 0.107427 0.000000 0.385765
O O18 0.213067 0.000000 0.678228
O O19 0.335830 0.000000 0.260719
O O20 0.431237 0.000000 0.942618
#
# Coordination Sequence:
#
# PCOD8052260 Si02
#       8
#     2   2   2   2   2   2   2   2
#     4  11  21  35  56  86 116 145 182 231 280 328
#     4  12  25  40  55  80 114 148 187 238 289 334
#     4  10  18  31  53  85 117 144 177 229 283 328
#     4   8  17  33  58  85 108 135 180 229 268 318
#     4  11  22  39  58  79 109 150 191 230 277 337
#     4  10  19  36  60  86 112 146 187 228 275 337
#     4  11  21  37  60  85 111 148 190 230 278 341
#     4   9  16  31  54  82 111 142 180 227 276 331
#
# _framework density 20.504161
#
# number of rings (size 3 to 8) (size 9 to 14) (size 15 to 20)
#    0.000    1.750    0.000    8.625    0.000    1.000 
#    0.000    8.125    0.000    1.500    0.000    0.000 
#    0.000    0.000    0.000    0.000    0.000    0.000 
#
# Total GULP energy -198372.130215 kJ/mol
# GULP energy per Si atom -12398.258138 kJ/mol
# Density = 2.045749 g / cm^3
# Si number density = 20.504161 Si / 1000 Ang^3
#
#
#
# Elastic Constant Matrix: (Units=GPa)
#
#
# Indices 1 2 3 4 5 6 
#
# 1 49.8069 6.2731 28.0449 0.0000 -18.7299 0.0000
# 2 6.2731 85.6266 24.8402 0.0000 -1.0478 0.0000
# 3 28.0449 24.8402 131.3030 0.0000 -35.2877 0.0000
# 4 0.0000 0.0000 0.0000 32.1082 0.0000 -7.4903
# 5 -18.7299 -1.0478 -35.2877 0.0000 21.0426 0.0000
# 6 0.0000 0.0000 0.0000 -7.4903 0.0000 21.6933
#
#
#
# Elastic Compliance Matrix: (Units=1/GPa)
#
#
# Indices 1 2 3 4 5 6 
#
# 1 0.030815 -0.002529 0.002247 0.000000 0.031070 0.000000
# 2 -0.002529 0.012997 -0.004278 0.000000 -0.008777 0.000000
# 3 0.002247 -0.004278 0.015338 0.000000 0.027508 0.000000
# 4 0.000000 0.000000 0.000000 0.033873 0.000000 0.011696
# 5 0.031070 -0.008777 0.027508 0.000000 0.120871 0.000000
# 6 0.000000 0.000000 0.000000 0.011696 0.000000 0.050136
#
#
# Mechanical properties :
#
#
# Convention : Reuss Voigt Hill
#
# Bulk Modulus (GPa) = 19.98777 42.78366 31.38571
# Shear Modulus (GPa) = 17.25167 28.80738 23.02953
#
# Velocity S-wave (km/s) = 2.90379 3.75234 3.35500
# Velocity P-wave (km/s) = 4.58388 6.29956 5.50892
#
# Compressibility (1/GPa) = 0.05003060
#
# Stress axis : x y z
#
# Youngs Moduli (GPa) = 32.45193 76.93835 65.19657
#
# Poissons Ratio (x) = 0.19458 -0.14648
# Poissons Ratio (y) = 0.08207 0.27888
# Poissons Ratio (z) = -0.07291 0.32911
#
# Static dielectric constant tensor:
#      x y z
#    x 3.270930 0.000000 -0.083070 
#    y 0.000000 3.562440 0.000000 
#    z -0.083070 0.000000 4.365330 
# 
# 
# High freq. dielectric constant tensor:
#      x y z
#    x 1.750580 0.000000 -0.013450 
#    y 0.000000 1.800890 0.000000 
#    z -0.013450 0.000000 1.828100 
# 
# From -- ./inp_files/5901.got.cif
#   From: 2010.03.12/outbox.cif.g09.slc.cpg/sg6_3_cif.got.tgz:5901.got - 2010.03.30 10:24:59.
