data_PCOD8052950
_publ_section_title
;
Structure prediction by ZEFSAII (Michael W. Deem and Ramdas Pophale) SiO2 
 PCOD8052950
Probable space group: C M
;
_chemical_formula_sum "Si O2"
_cell_formula_units_Z 32
_cell_length_a 24.487727
_cell_length_b 9.025517
_cell_length_c 20.453136
_cell_angle_alpha 90.000000
_cell_angle_beta 156.236592
_cell_angle_gamma 90.000000
_cell_volume 1821.559450
_symmetry_space_group_name_H-M "C M"
_symmetry_group_IT_number 8
_symmetry_cell_setting 'monoclinic'
loop_
_space_group_symop_operation_xyz
x,y,z
x,-y,z
1/2+x,1/2+y,z
1/2+x,1/2-y,z
loop_
_atom_site_type_symbol
_atom_site_label
_atom_site_fract_x
_atom_site_fract_y
_atom_site_fract_z
Si Si1 0.638270 0.330981 0.481190
Si Si2 0.015089 0.673031 0.226268
Si Si3 0.933396 0.827305 0.365229
Si Si4 0.790201 0.172573 0.469955
Si Si5 0.417996 0.826163 0.732069
Si Si6 0.690203 0.675840 0.023473
Si Si7 0.972481 0.826276 0.552812
Si Si8 0.219266 0.175795 0.906224
O O1 0.621534 0.500000 0.440411
O O2 0.549634 0.236467 0.334595
O O3 0.578125 0.304964 0.487562
O O4 0.797574 0.288281 0.651862
O O5 0.006201 0.500000 0.227959
O O6 0.130374 0.713661 0.299293
O O7 0.866636 0.729676 0.041163
O O8 0.816917 0.736618 0.202112
O O9 0.951135 0.759405 0.457369
O O10 0.891814 0.000000 0.320915
O O11 0.875387 0.269560 0.613823
O O12 0.839750 0.208410 0.451093
O O13 0.815773 0.000000 0.515303
O O14 0.448026 0.000000 0.761431
O O15 0.552395 0.741999 0.903398
O O16 0.687800 0.500000 0.026564
O O17 0.699561 0.731494 0.958820
O O18 0.104381 0.755448 0.732969
O O19 0.996032 0.000000 0.570715
O O20 0.205140 0.000000 0.890277
#
# Coordination Sequence:
#
# PCOD8052950 Si02
#       8
#     4   4   4   4   4   4   4   4
#     4   9  18  31  47  72 103 133 164 200 249 300
#     4   9  16  27  48  75  98 124 163 209 249 288
#     4  10  20  34  52  74 104 138 167 202 251 302
#     4   9  16  29  49  74 101 130 166 204 249 297
#     4  10  19  31  49  75 104 131 166 210 252 295
#     4  11  20  33  53  76 102 131 169 213 251 294
#     4   9  17  31  50  72 101 133 165 203 247 298
#     4   9  16  28  48  74  97 122 162 207 244 284
#
# _framework density 17.567366
#
# number of rings (size 3 to 8) (size 9 to 14) (size 15 to 20)
#    0.000    2.500    2.500    0.750    0.000    0.500 
#    0.000    1.875    0.000    6.000    0.000    0.000 
#    0.000    0.000    0.000    0.000    0.000    0.000 
#
# Total GULP energy -198323.519687 kJ/mol
# GULP energy per Si atom -12395.219980 kJ/mol
# Density = 1.752738 g / cm^3
# Si number density = 17.567366 Si / 1000 Ang^3
#
#
#
# Elastic Constant Matrix: (Units=GPa)
#
#
# Indices 1 2 3 4 5 6 
#
# 1 132.6125 30.6938 77.3281 -0.0001 7.2858 0.0000
# 2 30.6938 39.6044 32.3654 -0.0001 3.8876 0.0000
# 3 77.3281 32.3654 127.8125 -0.0002 10.6313 -0.0001
# 4 -0.0001 -0.0001 -0.0002 22.6395 -0.0002 2.0310
# 5 7.2858 3.8876 10.6313 -0.0002 30.5335 -0.0001
# 6 0.0000 0.0000 -0.0001 2.0310 -0.0001 17.2555
#
#
#
# Elastic Compliance Matrix: (Units=1/GPa)
#
#
# Indices 1 2 3 4 5 6 
#
# 1 0.012211 -0.004314 -0.006281 0.000000 -0.000178 0.000000
# 2 -0.004314 0.033411 -0.005749 0.000000 -0.001223 0.000000
# 3 -0.006281 -0.005749 0.013279 0.000000 -0.002393 0.000000
# 4 0.000000 0.000000 0.000000 0.044642 0.000000 -0.005254
# 5 -0.000178 -0.001223 -0.002393 0.000000 0.033782 0.000000
# 6 0.000000 0.000000 0.000000 -0.005254 0.000000 0.058571
#
#
# Mechanical properties :
#
#
# Convention : Reuss Voigt Hill
#
# Bulk Modulus (GPa) = 38.14741 64.53378 51.34059
# Shear Modulus (GPa) = 21.06845 24.72851 22.89848
#
# Velocity S-wave (km/s) = 3.46684 3.75592 3.61427
# Velocity P-wave (km/s) = 6.14714 7.45815 6.83416
#
# Compressibility (1/GPa) = 0.02621410
#
# Stress axis : x y z
#
# Youngs Moduli (GPa) = 81.89031 29.93024 75.30778
#
# Poissons Ratio (x) = 0.12911 0.47301
# Poissons Ratio (y) = 0.35325 0.43294
# Poissons Ratio (z) = 0.51435 0.17207
#
# Static dielectric constant tensor:
#      x y z
#    x 3.458230 0.000000 0.287820 
#    y 0.000000 3.069100 0.000000 
#    z 0.287820 0.000000 3.480180 
# 
# 
# High freq. dielectric constant tensor:
#      x y z
#    x 1.674620 0.000000 0.028060 
#    y 0.000000 1.654490 0.000000 
#    z 0.028060 0.000000 1.672830 
# 
# From -- ./inp_files/31323.got.cif
#   From: 2010.03.12/outbox.cif.g09.slc.cpg/sg8_16_cif.got.tgz:31323.got - 2010.03.31 10:45:26.
