data_PCOD8052870
_publ_section_title
;
Structure prediction by ZEFSAII (Michael W. Deem and Ramdas Pophale) SiO2 
 PCOD8052870
Probable space group: C M
;
_chemical_formula_sum "Si O2"
_cell_formula_units_Z 24
_cell_length_a 15.717583
_cell_length_b 8.586643
_cell_length_c 9.142511
_cell_angle_alpha 90.000000
_cell_angle_beta 89.263178
_cell_angle_gamma 90.000000
_cell_volume 1233.782905
_symmetry_space_group_name_H-M "C M"
_symmetry_group_IT_number 8
_symmetry_cell_setting 'monoclinic'
loop_
_space_group_symop_operation_xyz
x,y,z
x,-y,z
1/2+x,1/2+y,z
1/2+x,1/2-y,z
loop_
_atom_site_type_symbol
_atom_site_label
_atom_site_fract_x
_atom_site_fract_y
_atom_site_fract_z
Si Si1 0.100650 0.681018 0.023570
Si Si2 0.263231 0.180599 0.864320
Si Si3 0.824655 0.824391 0.271000
Si Si4 0.745121 0.177023 0.556713
Si Si5 0.159110 0.179721 0.300407
Si Si6 0.928160 0.820755 0.005973
O O1 0.119686 0.500000 0.013780
O O2 0.092301 0.739936 0.192118
O O3 0.173881 0.770436 0.935576
O O4 0.008821 0.719038 0.953364
O O5 0.257577 0.209482 0.691155
O O6 0.342977 0.278059 0.921023
O O7 0.279522 0.000000 0.893305
O O8 0.829882 0.812388 0.449016
O O9 0.751326 0.704056 0.217970
O O10 0.793881 0.000000 0.230734
O O11 0.910927 0.789055 0.180784
O O12 0.664356 0.235148 0.459068
O O13 0.728656 0.000000 0.609922
O O14 0.135915 0.000000 0.321469
O O15 0.950292 0.000000 0.975199
#
# Coordination Sequence:
#
# PCOD8052870 Si02
#       6
#     4   4   4   4   4   4
#     4  12  24  39  59  87 120 158 200 245 292 347
#     4  12  23  38  60  88 120 157 197 243 296 353
#     4   8  17  34  58  83 112 146 188 233 290 343
#     4   9  18  35  59  85 115 157 194 234 293 352
#     4  10  18  33  58  86 113 146 194 240 284 340
#     4  11  22  39  62  89 118 154 197 245 295 349
#
# _framework density 19.452369000000001
#
# number of rings (size 3 to 8) (size 9 to 14) (size 15 to 20)
#    1.000    0.667    1.667    5.000    0.000    0.667 
#    0.000    1.667    0.000    2.000    0.000    0.000 
#    0.000    0.000    0.000    0.000    0.000    0.000 
#
# Total GULP energy -148658.204217 kJ/mol
# GULP energy per Si atom -12388.183685 kJ/mol
# Density = 1.940809 g / cm^3
# Si number density = 19.452369 Si / 1000 Ang^3
#
#
#
# Elastic Constant Matrix: (Units=GPa)
#
#
# Indices 1 2 3 4 5 6 
#
# 1 83.8648 7.9733 28.2946 0.0000 1.8310 0.0000
# 2 7.9733 92.0549 18.4031 0.0000 -4.5085 0.0000
# 3 28.2946 18.4031 93.1535 0.0000 0.5246 0.0000
# 4 0.0000 0.0000 0.0000 31.6192 0.0000 3.1782
# 5 1.8310 -4.5085 0.5246 0.0000 11.7186 0.0000
# 6 0.0000 0.0000 0.0000 3.1782 0.0000 28.9130
#
#
#
# Elastic Compliance Matrix: (Units=1/GPa)
#
#
# Indices 1 2 3 4 5 6 
#
# 1 0.013347 -0.000469 -0.003950 0.000000 -0.002089 0.000000
# 2 -0.000469 0.011563 -0.002168 0.000000 0.004619 0.000000
# 3 -0.003950 -0.002168 0.012367 0.000000 -0.000771 0.000000
# 4 0.000000 0.000000 0.000000 0.031980 0.000000 -0.003515
# 5 -0.002089 0.004619 -0.000771 0.000000 0.087472 0.000000
# 6 0.000000 0.000000 0.000000 -0.003515 0.000000 0.034973
#
#
# Mechanical properties :
#
#
# Convention : Reuss Voigt Hill
#
# Bulk Modulus (GPa) = 41.48598 42.04613 41.76605
# Shear Modulus (GPa) = 23.48412 28.74365 26.11388
#
# Velocity S-wave (km/s) = 3.47834 3.84818 3.66792
# Velocity P-wave (km/s) = 6.12414 6.43479 6.28138
#
# Compressibility (1/GPa) = 0.02410453
#
# Stress axis : x y z
#
# Youngs Moduli (GPa) = 74.92517 86.48028 80.85860
#
# Poissons Ratio (x) = 0.04054 0.31936
# Poissons Ratio (y) = 0.03512 0.17531
# Poissons Ratio (z) = 0.29592 0.18749
#
# Static dielectric constant tensor:
#      x y z
#    x 3.218580 0.000000 -0.019310 
#    y 0.000000 3.499010 0.000000 
#    z -0.019310 0.000000 3.582580 
# 
# 
# High freq. dielectric constant tensor:
#      x y z
#    x 1.723540 0.000000 0.000480 
#    y 0.000000 1.766750 0.000000 
#    z 0.000480 0.000000 1.751190 
# 
# From -- ./inp_files/12116.got.cif
#   From: 2010.03.12/outbox.cif.g09.slc.cpg/sg8_7_cif.got.tgz:12116.got - 2010.03.31 10:45:26.
