data_PCOD8052814
_publ_section_title
;
Structure prediction by ZEFSAII (Michael W. Deem and Ramdas Pophale) SiO2 
 PCOD8052814
Probable space group: C M
;
_chemical_formula_sum "Si O2"
_cell_formula_units_Z 32
_cell_length_a 20.217385
_cell_length_b 9.138034
_cell_length_c 20.014393
_cell_angle_alpha 90.000000
_cell_angle_beta 150.532145
_cell_angle_gamma 90.000000
_cell_volume 1818.980559
_symmetry_space_group_name_H-M "C M"
_symmetry_group_IT_number 8
_symmetry_cell_setting 'monoclinic'
loop_
_space_group_symop_operation_xyz
x,y,z
x,-y,z
1/2+x,1/2+y,z
1/2+x,1/2-y,z
loop_
_atom_site_type_symbol
_atom_site_label
_atom_site_fract_x
_atom_site_fract_y
_atom_site_fract_z
Si Si1 0.733170 0.326854 0.645510
Si Si2 0.458509 0.326640 0.657796
Si Si3 0.527182 0.172284 0.943824
Si Si4 0.666747 0.669376 0.955073
Si Si5 0.469276 0.170876 0.180527
Si Si6 0.188298 0.825818 0.458600
Si Si7 0.939529 0.672939 0.007477
Si Si8 0.151297 0.826084 0.713413
O O1 0.737704 0.500000 0.649358
O O2 0.677408 0.269646 0.525799
O O3 0.639167 0.274046 0.624987
O O4 0.885072 0.270338 0.789757
O O5 0.431753 0.500000 0.635207
O O6 0.557695 0.278578 0.804669
O O7 0.319434 0.241524 0.539837
O O8 0.525099 0.273691 0.646399
O O9 0.646033 0.247658 0.006943
O O10 0.535821 0.217708 0.030001
O O11 0.542887 0.000000 0.949074
O O12 0.649048 0.500000 0.954359
O O13 0.813867 0.704910 0.057242
O O14 0.556357 0.268869 0.306174
O O15 0.503085 0.000000 0.221099
O O16 0.501458 0.222787 0.132791
O O17 0.196159 0.000000 0.460838
O O18 0.922251 0.500000 0.993619
O O19 0.790072 0.739143 0.865606
O O20 0.158727 0.000000 0.723814
#
# Coordination Sequence:
#
# PCOD8052814 Si02
#       8
#     4   4   4   4   4   4   4   4
#     4   8  15  28  48  74 101 128 163 207 251 289
#     4  10  18  31  54  80 101 128 169 214 253 295
#     4   9  16  29  52  78 101 129 164 210 256 295
#     4  10  19  31  51  79 106 130 164 210 257 301
#     4  10  20  36  54  74 101 136 173 211 248 294
#     4  11  22  35  50  74 107 140 167 202 253 309
#     4   8  14  28  52  77  98 125 170 215 248 285
#     4   8  13  26  51  78  97 120 164 217 252 282
#
# _framework density 17.592272999999999
#
# number of rings (size 3 to 8) (size 9 to 14) (size 15 to 20)
#    0.000    2.750    2.500    1.875    0.000    0.500 
#    0.000    1.875    0.000   10.500    0.000    0.000 
#    0.000    0.000    0.000    0.000    0.000    0.000 
#
# Total GULP energy -198290.896720 kJ/mol
# GULP energy per Si atom -12393.181045 kJ/mol
# Density = 1.755223 g / cm^3
# Si number density = 17.592273 Si / 1000 Ang^3
#
#
#
# Elastic Constant Matrix: (Units=GPa)
#
#
# Indices 1 2 3 4 5 6 
#
# 1 144.7610 33.1028 33.5143 0.0000 -18.3017 0.0000
# 2 33.1028 32.1613 20.8268 -0.0002 -0.4327 -0.0001
# 3 33.5143 20.8268 60.5765 -0.0002 -12.4971 -0.0001
# 4 0.0000 -0.0002 -0.0002 23.3225 0.0000 -0.1619
# 5 -18.3017 -0.4327 -12.4971 0.0000 26.6803 0.0000
# 6 0.0000 -0.0001 -0.0001 -0.1619 0.0000 23.0144
#
#
#
# Elastic Compliance Matrix: (Units=1/GPa)
#
#
# Indices 1 2 3 4 5 6 
#
# 1 0.010166 -0.009759 -0.000955 0.000000 0.006368 0.000000
# 2 -0.009759 0.050383 -0.014541 0.000000 -0.012688 0.000000
# 3 -0.000955 -0.014541 0.024189 0.000000 0.010439 0.000000
# 4 0.000000 0.000000 0.000000 0.042879 0.000000 0.000302
# 5 0.006368 -0.012688 0.010439 0.000000 0.046533 0.000000
# 6 0.000000 0.000000 0.000000 0.000302 0.000000 0.043453
#
#
# Mechanical properties :
#
#
# Convention : Reuss Voigt Hill
#
# Bulk Modulus (GPa) = 29.21536 45.82073 37.51804
# Shear Modulus (GPa) = 17.88759 24.60710 21.24735
#
# Velocity S-wave (km/s) = 3.19217 3.74404 3.47906
# Velocity P-wave (km/s) = 5.49814 6.69275 6.12464
#
# Compressibility (1/GPa) = 0.03422857
#
# Stress axis : x y z
#
# Youngs Moduli (GPa) = 98.36930 19.84780 41.34027
#
# Poissons Ratio (x) = 0.19370 0.03950
# Poissons Ratio (y) = 0.95999 0.60111
# Poissons Ratio (z) = 0.09398 0.28860
#
# Static dielectric constant tensor:
#      x y z
#    x 3.781030 0.000000 -0.246870 
#    y 0.000000 2.864500 0.000000 
#    z -0.246870 0.000000 3.112900 
# 
# 
# High freq. dielectric constant tensor:
#      x y z
#    x 1.701510 0.000000 -0.009760 
#    y 0.000000 1.637530 0.000000 
#    z -0.009760 0.000000 1.653930 
# 
# From -- ./inp_files/24547.got.cif
#   From: 2010.03.12/outbox.cif.g09.slc.cpg/sg8_13_cif.got.tgz:24547.got - 2010.03.31 10:45:26.
