data_PCOD8052390
_publ_section_title
;
Structure prediction by ZEFSAII (Michael W. Deem and Ramdas Pophale) SiO2 
 PCOD8052390
Probable space group: P M
;
_chemical_formula_sum "Si O2"
_cell_formula_units_Z 16
_cell_length_a 8.426755
_cell_length_b 17.824507
_cell_length_c 5.073987
_cell_angle_alpha 90.000000
_cell_angle_beta 88.248110
_cell_angle_gamma 90.000000
_cell_volume 761.770587
_symmetry_space_group_name_H-M "P M"
_symmetry_group_IT_number 6
_symmetry_cell_setting 'monoclinic'
loop_
_space_group_symop_operation_xyz
x,y,z
x,-y,z
loop_
_atom_site_type_symbol
_atom_site_label
_atom_site_fract_x
_atom_site_fract_y
_atom_site_fract_z
Si Si1 0.125000 0.693056 0.055910
Si Si2 0.429474 0.273487 0.306686
Si Si3 0.722991 0.664741 0.577612
Si Si4 0.925219 0.198460 0.425277
Si Si5 0.497588 0.142483 0.981064
Si Si6 0.847338 0.412073 0.064373
Si Si7 0.661219 0.914496 0.451435
Si Si8 0.225682 0.186939 0.685087
O O1 0.282711 0.674146 0.220536
O O2 0.012641 0.757684 0.186451
O O3 0.026300 0.617868 0.004457
O O4 0.186650 0.727938 0.781077
O O5 0.543273 0.319704 0.493467
O O6 0.357197 0.199488 0.452702
O O7 0.525595 0.231277 0.062127
O O8 0.824413 0.740912 0.597351
O O9 0.798559 0.607704 0.362996
O O10 0.724058 0.625158 0.863138
O O11 0.808733 0.133487 0.327598
O O12 0.058411 0.154275 0.592198
O O13 0.609302 0.121784 0.730465
O O14 0.310377 0.135070 0.902938
O O15 0.529120 0.087823 0.226854
O O16 0.847502 0.500000 0.020842
O O17 0.710245 0.000000 0.500891
#
# Coordination Sequence:
#
# PCOD8052390 Si02
#       8
#     2   2   2   2   2   2   2   2
#     4   9  21  36  64  96 120 165 210 258 307 370
#     4  10  21  37  67  97 121 153 219 263 311 355
#     4  11  22  38  67  92 121 166 209 262 307 367
#     4  10  21  37  63  96 123 157 212 263 302 372
#     4  11  22  41  63  91 123 159 205 266 304 377
#     4  11  24  42  60  91 132 169 205 256 322 375
#     4  12  26  42  63  92 128 169 205 257 327 377
#     4  10  19  37  66  95 119 154 209 265 308 359
#
# _framework density 21.003696999999999
#
# number of rings (size 3 to 8) (size 9 to 14) (size 15 to 20)
#    0.000    1.500    3.750    0.750    7.000    0.000 
#    0.000    2.500    0.000    0.000    0.000    0.000 
#    0.000    0.000    0.000    0.000    0.000    0.000 
#
# Total GULP energy -198276.696194 kJ/mol
# GULP energy per Si atom -12392.293512 kJ/mol
# Density = 2.095589 g / cm^3
# Si number density = 21.003697 Si / 1000 Ang^3
#
#
#
# Elastic Constant Matrix: (Units=GPa)
#
#
# Indices 1 2 3 4 5 6 
#
# 1 110.7919 51.1441 23.7734 0.0000 23.7102 0.0000
# 2 51.1441 101.9771 18.2075 0.0000 15.7304 0.0000
# 3 23.7734 18.2075 77.7063 0.0000 19.4579 0.0000
# 4 0.0000 0.0000 0.0000 23.8938 0.0000 4.2947
# 5 23.7102 15.7304 19.4579 0.0000 31.9677 0.0000
# 6 0.0000 0.0000 0.0000 4.2947 0.0000 22.4736
#
#
#
# Elastic Compliance Matrix: (Units=1/GPa)
#
#
# Indices 1 2 3 4 5 6 
#
# 1 0.013129 -0.005394 -0.001155 0.000000 -0.006380 0.000000
# 2 -0.005394 0.012957 -0.000933 0.000000 -0.001807 0.000000
# 3 -0.001155 -0.000933 0.015469 0.000000 -0.008100 0.000000
# 4 0.000000 0.000000 0.000000 0.043340 0.000000 -0.008282
# 5 -0.006380 -0.001807 -0.008100 0.000000 0.041833 0.000000
# 6 0.000000 0.000000 0.000000 -0.008282 0.000000 0.046079
#
#
# Mechanical properties :
#
#
# Convention : Reuss Voigt Hill
#
# Bulk Modulus (GPa) = 37.60781 52.96947 45.28864
# Shear Modulus (GPa) = 25.42756 28.82371 27.12564
#
# Velocity S-wave (km/s) = 3.48318 3.70850 3.59760
# Velocity P-wave (km/s) = 5.84131 6.60387 6.23426
#
# Compressibility (1/GPa) = 0.02659022
#
# Stress axis : x y z
#
# Youngs Moduli (GPa) = 76.16500 77.17948 64.64442
#
# Poissons Ratio (x) = 0.41633 0.07467
# Poissons Ratio (y) = 0.41085 0.06032
# Poissons Ratio (z) = 0.08798 0.07202
#
# Static dielectric constant tensor:
#      x y z
#    x 4.028820 0.000000 0.154880 
#    y 0.000000 3.356460 0.000000 
#    z 0.154880 0.000000 3.953000 
# 
# 
# High freq. dielectric constant tensor:
#      x y z
#    x 1.830760 0.000000 0.012690 
#    y 0.000000 1.765640 0.000000 
#    z 0.012690 0.000000 1.839460 
# 
# From -- ./inp_files/1306.got.cif
#   From: 2010.03.12/outbox.cif.g09.slc.cpg/sg6_1_cif.got.tgz:1306.got - 2010.03.30 10:24:59.
