data_PCOD8052067
_publ_section_title
;
Structure prediction by ZEFSAII (Michael W. Deem and Ramdas Pophale) SiO2 
 PCOD8052067
Probable space group: C 2
;
_chemical_formula_sum "Si O2"
_cell_formula_units_Z 22
_cell_length_a 23.593988
_cell_length_b 5.122790
_cell_length_c 8.467263
_cell_angle_alpha 90.000000
_cell_angle_beta 68.438169
_cell_angle_gamma 90.000000
_cell_volume 951.796169
_symmetry_space_group_name_H-M "C 2"
_symmetry_group_IT_number 5
_symmetry_cell_setting 'monoclinic'
loop_
_space_group_symop_operation_xyz
x,y,z
-x,y,-z
1/2+x,1/2+y,z
1/2-x,1/2+y,-z
loop_
_atom_site_type_symbol
_atom_site_label
_atom_site_fract_x
_atom_site_fract_y
_atom_site_fract_z
Si Si1 0.383307 0.968490 0.627328
Si Si2 0.406791 0.455384 0.791925
Si Si3 0.211374 0.299012 0.535723
Si Si4 0.889231 0.039627 0.163983
Si Si5 0.000000 0.406000 0.000000
Si Si6 0.530130 0.220503 0.694121
O O1 0.393012 0.744623 0.745694
O O2 0.328339 0.880076 0.573560
O O3 0.368900 0.241095 0.730632
O O4 0.445073 0.023628 0.464035
O O5 0.480313 0.430248 0.684644
O O6 0.383299 0.418612 0.995892
O O7 0.243629 0.564371 0.563796
O O8 0.172485 0.181921 0.720568
O O9 0.941764 0.247923 0.105832
O O10 0.909969 0.832485 0.277046
O O11 0.015066 0.577254 0.137044
#
# Coordination Sequence:
#
# PCOD8052067 Si02
#       6
#     4   4   4   4   2   4
#     4  12  28  45  71 108 150 187 243 299 366 426
#     4  12  26  44  70 116 153 185 224 306 376 427
#     4  12  28  52  78  99 135 201 260 298 343 427
#     4  12  25  44  76 108 148 195 244 287 353 445
#     4  12  20  40  74 110 146 184 242 286 346 434
#     4  12  24  41  71 110 156 197 227 281 364 461
#
# _framework density 23.114194000000001
#
# number of rings (size 3 to 8) (size 9 to 14) (size 15 to 20)
#    0.000    0.000    5.455    4.909    0.000    4.364 
#    0.000    3.636    0.000    2.182    0.000    0.000 
#    0.000    0.000    0.000    0.000    0.000    0.000 
#
# Total GULP energy -136346.112126 kJ/mol
# GULP energy per Si atom -12395.101102 kJ/mol
# Density = 2.306158 g / cm^3
# Si number density = 23.114194 Si / 1000 Ang^3
#
#
#
# Elastic Constant Matrix: (Units=GPa)
#
#
# Indices 1 2 3 4 5 6 
#
# 1 104.8878 34.3526 44.4322 0.0000 4.4781 0.0000
# 2 34.3526 119.9567 32.4913 0.0000 10.9439 0.0000
# 3 44.4322 32.4913 80.9578 0.0000 6.3871 0.0000
# 4 0.0000 0.0000 0.0000 50.8739 0.0000 7.9189
# 5 4.4781 10.9439 6.3871 0.0000 24.3474 0.0000
# 6 0.0000 0.0000 0.0000 7.9189 0.0000 28.4382
#
#
#
# Elastic Compliance Matrix: (Units=1/GPa)
#
#
# Indices 1 2 3 4 5 6 
#
# 1 0.012830 -0.001996 -0.006254 0.000000 0.000178 0.000000
# 2 -0.001996 0.009929 -0.002620 0.000000 -0.003408 0.000000
# 3 -0.006254 -0.002620 0.017004 0.000000 -0.002133 0.000000
# 4 0.000000 0.000000 0.000000 0.020547 0.000000 -0.005722
# 5 0.000178 -0.003408 -0.002133 0.000000 0.043131 0.000000
# 6 0.000000 0.000000 0.000000 -0.005722 0.000000 0.036757
#
#
# Mechanical properties :
#
#
# Convention : Reuss Voigt Hill
#
# Bulk Modulus (GPa) = 55.48977 58.70607 57.09792
# Shear Modulus (GPa) = 29.77141 33.70030 31.73585
#
# Velocity S-wave (km/s) = 3.59278 3.82251 3.70943
# Velocity P-wave (km/s) = 6.42415 6.70339 6.56526
#
# Compressibility (1/GPa) = 0.01802134
#
# Stress axis : x y z
#
# Youngs Moduli (GPa) = 77.94486 100.71819 58.80824
#
# Poissons Ratio (x) = 0.20107 0.36779
# Poissons Ratio (y) = 0.15561 0.15409
# Poissons Ratio (z) = 0.48748 0.26390
#
# Static dielectric constant tensor:
#      x y z
#    x 4.369080 0.000000 0.416030 
#    y 0.000000 4.503960 0.000000 
#    z 0.416030 0.000000 4.357700 
# 
# 
# High freq. dielectric constant tensor:
#      x y z
#    x 1.895890 0.000000 0.018400 
#    y 0.000000 1.934710 0.000000 
#    z 0.018400 0.000000 1.917690 
# 
# From -- ./inp_files/28299.got.cif
#   From: 2010.03.12/outbox.cif.g09.slc.cpg/sg5_15_cif.got.tgz:28299.got - 2010.03.31 09:47:26.
