data_PCOD8052993
_publ_section_title
;
Structure prediction by ZEFSAII (Michael W. Deem and Ramdas Pophale) SiO2 
 PCOD8052993
Probable space group: C M
;
_chemical_formula_sum "Si O2"
_cell_formula_units_Z 32
_cell_length_a 16.762057
_cell_length_b 13.962290
_cell_length_c 18.550577
_cell_angle_alpha 90.000000
_cell_angle_beta 157.059545
_cell_angle_gamma 90.000000
_cell_volume 1692.211198
_symmetry_space_group_name_H-M "C M"
_symmetry_group_IT_number 8
_symmetry_cell_setting 'monoclinic'
loop_
_space_group_symop_operation_xyz
x,y,z
x,-y,z
1/2+x,1/2+y,z
1/2+x,1/2-y,z
loop_
_atom_site_type_symbol
_atom_site_label
_atom_site_fract_x
_atom_site_fract_y
_atom_site_fract_z
Si Si1 0.662550 0.108988 0.187730
Si Si2 0.746298 0.298037 0.880695
Si Si3 0.644906 0.209670 0.535095
Si Si4 0.044301 0.105939 0.843607
Si Si5 0.970883 0.891265 0.323167
Si Si6 0.016588 0.206342 0.213700
Si Si7 0.921325 0.744482 0.490082
Si Si8 0.968817 0.606934 0.257233
O O1 0.752004 0.118096 0.180917
O O2 0.816931 0.159549 0.372007
O O3 0.648423 0.000000 0.201406
O O4 0.436026 0.153192 0.997254
O O5 0.634034 0.373317 0.839108
O O6 0.579586 0.262404 0.685784
O O7 0.837979 0.209298 0.004499
O O8 0.629566 0.318910 0.493511
O O9 0.547371 0.192911 0.531980
O O10 0.530689 0.134771 0.388899
O O11 0.883599 0.185204 0.735130
O O12 0.945051 0.000000 0.758816
O O13 0.223387 0.110243 0.051453
O O14 0.943288 0.863319 0.216392
O O15 0.054876 0.000000 0.398968
O O16 0.237314 0.174846 0.364982
O O17 0.058152 0.316168 0.275023
O O18 0.049011 0.500000 0.304410
#
# Coordination Sequence:
#
# PCOD8052993 Si02
#       8
#     4   4   4   4   4   4   4   4
#     4   9  19  34  52  78 105 130 168 214 262 315
#     4  10  19  32  53  79 108 136 164 207 266 316
#     4  10  20  34  54  76 105 140 174 213 255 304
#     4  10  20  33  54  83 108 133 168 209 260 319
#     4   9  18  36  57  74 100 140 181 218 255 296
#     4   9  19  34  54  78 103 136 175 214 254 304
#     4  10  21  33  50  75 105 139 172 210 256 304
#     4   9  18  34  57  81 104 132 166 211 266 316
#
# _framework density 18.910169
#
# number of rings (size 3 to 8) (size 9 to 14) (size 15 to 20)
#    0.000    2.500    0.000    2.250    0.000    9.000 
#    0.000    1.250    0.000   16.500    0.000    0.000 
#    0.000    0.000    0.000    0.000    0.000    0.000 
#
# Total GULP energy -198324.504993 kJ/mol
# GULP energy per Si atom -12395.281562 kJ/mol
# Density = 1.886713 g / cm^3
# Si number density = 18.910169 Si / 1000 Ang^3
#
#
#
# Elastic Constant Matrix: (Units=GPa)
#
#
# Indices 1 2 3 4 5 6 
#
# 1 95.6034 17.8220 37.5950 0.0175 9.5292 0.0250
# 2 17.8220 56.6173 11.9829 -0.0133 13.3909 -0.0039
# 3 37.5950 11.9829 96.8562 0.0345 0.4048 0.0097
# 4 0.0175 -0.0133 0.0345 16.4482 -0.0302 5.8417
# 5 9.5292 13.3909 0.4048 -0.0302 35.7537 -0.0136
# 6 0.0250 -0.0039 0.0097 5.8417 -0.0136 20.8404
#
#
#
# Elastic Compliance Matrix: (Units=1/GPa)
#
#
# Indices 1 2 3 4 5 6 
#
# 1 0.013040 -0.002515 -0.004740 -0.000006 -0.002480 -0.000014
# 2 -0.002515 0.020423 -0.001521 0.000009 -0.006961 0.000000
# 3 -0.004740 -0.001521 0.012346 -0.000021 0.001693 0.000007
# 4 -0.000006 0.000009 -0.000021 0.067519 0.000048 -0.018926
# 5 -0.002480 -0.006961 0.001693 0.000048 0.031218 0.000008
# 6 -0.000014 0.000000 0.000007 -0.018926 0.000008 0.053289
#
#
# Mechanical properties :
#
#
# Convention : Reuss Voigt Hill
#
# Bulk Modulus (GPa) = 35.39142 42.65298 39.02220
# Shear Modulus (GPa) = 22.24156 26.72026 24.48091
#
# Velocity S-wave (km/s) = 3.43325 3.76308 3.60194
# Velocity P-wave (km/s) = 5.87133 6.44093 6.16271
#
# Compressibility (1/GPa) = 0.02825543
#
# Stress axis : x y z
#
# Youngs Moduli (GPa) = 76.68821 48.96539 81.00078
#
# Poissons Ratio (x) = 0.12315 0.38394
# Poissons Ratio (y) = 0.19287 0.12323
# Poissons Ratio (z) = 0.36350 0.07450
#
# Static dielectric constant tensor:
#      x y z
#    x 3.682530 -0.000060 0.061410 
#    y -0.000060 3.412040 -0.000100 
#    z 0.061410 -0.000100 3.446460 
# 
# 
# High freq. dielectric constant tensor:
#      x y z
#    x 1.742120 0.000000 0.005940 
#    y 0.000000 1.707620 -0.000010 
#    z 0.005940 -0.000010 1.732150 
# 
# From -- ./inp_files/29952.got.cif
#   From: 2010.03.12/outbox.cif.g09.slc.cpg/sg8_15_cif.got.tgz:29952.got - 2010.03.31 10:45:26.
