data_PCOD8052717
_publ_section_title
;
Structure prediction by ZEFSAII (Michael W. Deem and Ramdas Pophale) SiO2 
 PCOD8052717
Probable space group: C M
;
_chemical_formula_sum "Si O2"
_cell_formula_units_Z 32
_cell_length_a 23.141103
_cell_length_b 8.448271
_cell_length_c 9.630443
_cell_angle_alpha 90.000000
_cell_angle_beta 65.847475
_cell_angle_gamma 90.000000
_cell_volume 1717.954814
_symmetry_space_group_name_H-M "C M"
_symmetry_group_IT_number 8
_symmetry_cell_setting 'monoclinic'
loop_
_space_group_symop_operation_xyz
x,y,z
x,-y,z
1/2+x,1/2+y,z
1/2+x,1/2-y,z
loop_
_atom_site_type_symbol
_atom_site_label
_atom_site_fract_x
_atom_site_fract_y
_atom_site_fract_z
Si Si1 0.334860 0.314106 0.784850
Si Si2 0.098696 0.183288 0.224108
Si Si3 0.206052 0.811642 0.917381
Si Si4 0.834290 0.315030 0.477652
Si Si5 0.461755 0.182731 0.675048
Si Si6 0.960088 0.816399 0.373795
Si Si7 0.703158 0.815682 0.610597
Si Si8 0.091672 0.815071 0.541423
O O1 0.326910 0.500000 0.768476
O O2 0.272565 0.243897 0.922353
O O3 0.339021 0.221804 0.635530
O O4 0.400471 0.274341 0.801313
O O5 0.103881 0.256137 0.374467
O O6 0.027647 0.207789 0.230080
O O7 0.115570 0.000000 0.218754
O O8 0.150034 0.258217 0.069322
O O9 0.199146 0.730542 0.775104
O O10 0.203569 0.000000 0.901962
O O11 0.828132 0.500000 0.454910
O O12 0.899740 0.247676 0.344081
O O13 0.771925 0.229013 0.478713
O O14 0.465060 0.216039 0.508612
O O15 0.528543 0.240283 0.673677
O O16 0.452334 0.000000 0.716656
O O17 0.949279 0.000000 0.422567
O O18 0.651003 0.718032 0.579516
O O19 0.690402 0.000000 0.603270
O O20 0.078761 0.000000 0.541732
#
# Coordination Sequence:
#
# PCOD8052717 Si02
#       8
#     4   4   4   4   4   4   4   4
#     4  10  17  27  43  67  95 125 158 199 240 280
#     4   8  17  31  51  74  98 126 160 196 240 287
#     4  10  18  32  51  73  98 129 162 199 240 285
#     4  10  17  27  44  68  93 123 159 200 241 281
#     4  10  17  27  44  69  95 123 157 198 239 282
#     4   9  15  27  45  68  95 124 156 198 240 281
#     4  11  21  33  48  72 100 130 162 198 239 287
#     4  10  19  34  52  73  98 128 160 198 241 287
#
# _framework density 18.626798999999998
#
# number of rings (size 3 to 8) (size 9 to 14) (size 15 to 20)
#    0.000    2.250    0.000    9.375    0.000    0.000 
#    0.000    7.500    0.000    1.500    0.000    7.000 
#    0.000    0.000    0.000    0.000    0.000    0.000 
#
# Total GULP energy -198259.167002 kJ/mol
# GULP energy per Si atom -12391.197938 kJ/mol
# Density = 1.858440 g / cm^3
# Si number density = 18.626799 Si / 1000 Ang^3
#
#
#
# Elastic Constant Matrix: (Units=GPa)
#
#
# Indices 1 2 3 4 5 6 
#
# 1 119.7848 8.7114 41.0537 0.0000 -36.2557 0.0000
# 2 8.7114 71.9325 16.3840 0.0000 -8.2510 0.0000
# 3 41.0537 16.3840 65.9016 0.0000 -31.4184 0.0000
# 4 0.0000 0.0000 0.0000 14.6265 0.0000 -9.0822
# 5 -36.2557 -8.2510 -31.4184 0.0000 33.3104 0.0000
# 6 0.0000 0.0000 0.0000 -9.0822 0.0000 31.3968
#
#
#
# Elastic Compliance Matrix: (Units=1/GPa)
#
#
# Indices 1 2 3 4 5 6 
#
# 1 0.012662 0.000354 -0.002478 0.000000 0.011532 0.000000
# 2 0.000354 0.014749 -0.003565 0.000000 0.000676 0.000000
# 3 -0.002478 -0.003565 0.028887 0.000000 0.023666 0.000000
# 4 0.000000 0.000000 0.000000 0.083338 0.000000 0.024108
# 5 0.011532 0.000676 0.023666 0.000000 0.065062 0.000000
# 6 0.000000 0.000000 0.000000 0.024108 0.000000 0.038824
#
#
# Mechanical properties :
#
#
# Convention : Reuss Voigt Hill
#
# Bulk Modulus (GPa) = 22.26200 43.32413 32.79307
# Shear Modulus (GPa) = 18.52719 28.63138 23.57929
#
# Velocity S-wave (km/s) = 3.15723 3.92485 3.56178
# Velocity P-wave (km/s) = 5.02677 6.62184 5.87865
#
# Compressibility (1/GPa) = 0.04491959
#
# Stress axis : x y z
#
# Youngs Moduli (GPa) = 78.97391 67.80316 34.61785
#
# Poissons Ratio (x) = -0.02399 0.08578
# Poissons Ratio (y) = -0.02794 0.12341
# Poissons Ratio (z) = 0.19570 0.24171
#
# Static dielectric constant tensor:
#      x y z
#    x 4.058550 0.000000 -0.810370 
#    y 0.000000 3.366100 0.000000 
#    z -0.810370 0.000000 3.377710 
# 
# 
# High freq. dielectric constant tensor:
#      x y z
#    x 1.729430 0.000000 -0.053240 
#    y 0.000000 1.727120 0.000000 
#    z -0.053240 0.000000 1.668650 
# 
# From -- ./inp_files/24252.got.cif
#   From: 2010.03.12/outbox.cif.g09.slc.cpg/sg8_13_cif.got.tgz:24252.got - 2010.03.31 10:45:26.
