data_PCOD8052565
_publ_section_title
;
Structure prediction by ZEFSAII (Michael W. Deem and Ramdas Pophale) SiO2 
 PCOD8052565
Probable space group: P M
;
_chemical_formula_sum "Si O2"
_cell_formula_units_Z 10
_cell_length_a 8.600840
_cell_length_b 10.804363
_cell_length_c 4.987510
_cell_angle_alpha 90.000000
_cell_angle_beta 90.193587
_cell_angle_gamma 90.000000
_cell_volume 463.469689
_symmetry_space_group_name_H-M "P M"
_symmetry_group_IT_number 6
_symmetry_cell_setting 'monoclinic'
loop_
_space_group_symop_operation_xyz
x,y,z
x,-y,z
loop_
_atom_site_type_symbol
_atom_site_label
_atom_site_fract_x
_atom_site_fract_y
_atom_site_fract_z
Si Si1 0.264940 0.764075 0.742180
Si Si2 0.911821 0.500000 0.176279
Si Si3 0.129560 0.500000 0.678241
Si Si4 0.439686 0.853422 0.242525
Si Si5 0.932408 0.860916 0.796397
Si Si6 0.774453 0.243613 0.294709
O O1 0.241671 0.617450 0.715855
O O2 0.305399 0.822214 0.454452
O O3 0.110682 0.828701 0.854230
O O4 0.400098 0.795251 0.953904
O O5 0.797985 0.383649 0.200346
O O6 0.055148 0.500000 0.383174
O O7 0.987487 0.500000 0.884142
O O8 0.595534 0.787517 0.347194
O O9 0.462656 0.000000 0.216024
O O10 0.867184 0.769120 0.572116
O O11 0.914173 0.000000 0.690601
O O12 0.839871 0.849261 0.072358
#
# Coordination Sequence:
#
# PCOD8052565 Si02
#       6
#     2   1   1   2   2   2
#     4  12  25  44  70  97 135 181 218 278 336 386
#     4  12  22  46  70  98 134 168 230 284 320 390
#     4  12  24  46  70  98 134 168 232 284 320 390
#     4  12  26  45  66 102 143 173 217 277 338 401
#     4  12  23  42  68  99 130 179 233 270 324 398
#     4  12  25  43  70  98 134 181 219 277 336 387
#
# _framework density 21.576384000000001
#
# number of rings (size 3 to 8) (size 9 to 14) (size 15 to 20)
#    0.000    0.000    4.000    7.200    0.000    1.600 
#    0.000    0.000    0.000    0.000    0.000    0.000 
#    0.000    0.000    0.000    0.000    0.000    0.000 
#
# Total GULP energy -124104.422896 kJ/mol
# GULP energy per Si atom -12410.442290 kJ/mol
# Density = 2.152728 g / cm^3
# Si number density = 21.576384 Si / 1000 Ang^3
#
#
#
# Elastic Constant Matrix: (Units=GPa)
#
#
# Indices 1 2 3 4 5 6 
#
# 1 78.8117 35.7512 15.0560 0.0000 -0.9303 0.0000
# 2 35.7512 148.7562 10.0444 0.0000 6.1154 0.0000
# 3 15.0560 10.0444 94.3259 0.0000 0.7859 0.0000
# 4 0.0000 0.0000 0.0000 29.8792 0.0000 -6.6924
# 5 -0.9303 6.1154 0.7859 0.0000 28.1684 0.0000
# 6 0.0000 0.0000 0.0000 -6.6924 0.0000 27.0152
#
#
#
# Elastic Compliance Matrix: (Units=1/GPa)
#
#
# Indices 1 2 3 4 5 6 
#
# 1 0.014642 -0.003438 -0.001982 0.000000 0.001285 0.000000
# 2 -0.003438 0.007638 -0.000250 0.000000 -0.001765 0.000000
# 3 -0.001982 -0.000250 0.010947 0.000000 -0.000317 0.000000
# 4 0.000000 0.000000 0.000000 0.035434 0.000000 0.008778
# 5 0.001285 -0.001765 -0.000317 0.000000 0.035935 0.000000
# 6 0.000000 0.000000 0.000000 0.008778 0.000000 0.039191
#
#
# Mechanical properties :
#
#
# Convention : Reuss Voigt Hill
#
# Bulk Modulus (GPa) = 45.68732 49.28856 47.48794
# Shear Modulus (GPa) = 30.78399 34.41538 32.59968
#
# Velocity S-wave (km/s) = 3.78132 3.99814 3.89124
# Velocity P-wave (km/s) = 6.34706 6.64882 6.49969
#
# Compressibility (1/GPa) = 0.02188791
#
# Stress axis : x y z
#
# Youngs Moduli (GPa) = 68.29774 130.92276 91.34841
#
# Poissons Ratio (x) = 0.45011 0.18102
# Poissons Ratio (y) = 0.23480 0.02283
# Poissons Ratio (z) = 0.13534 0.03272
#
# Static dielectric constant tensor:
#      x y z
#    x 3.721150 0.000000 -0.046830 
#    y 0.000000 4.014930 0.000000 
#    z -0.046830 0.000000 3.920290 
# 
# 
# High freq. dielectric constant tensor:
#      x y z
#    x 1.843710 0.000000 -0.002120 
#    y 0.000000 1.862280 0.000000 
#    z -0.002120 0.000000 1.862170 
# 
# From -- ./inp_files/879.got.cif
#   From: 2010.03.12/outbox.cif.g09.slc.cpg/sg6_1_cif.got.tgz:879.got - 2010.03.30 10:24:59.
