data_PCOD8052166
_publ_section_title
;
Structure prediction by ZEFSAII (Michael W. Deem and Ramdas Pophale) SiO2 
 PCOD8052166
Probable space group: C 2
;
_chemical_formula_sum "Si O2"
_cell_formula_units_Z 24
_cell_length_a 21.581213
_cell_length_b 5.231826
_cell_length_c 17.623108
_cell_angle_alpha 90.000000
_cell_angle_beta 151.515021
_cell_angle_gamma 90.000000
_cell_volume 948.996876
_symmetry_space_group_name_H-M "C 2"
_symmetry_group_IT_number 5
_symmetry_cell_setting 'monoclinic'
loop_
_space_group_symop_operation_xyz
x,y,z
-x,y,-z
1/2+x,1/2+y,z
1/2-x,1/2+y,-z
loop_
_atom_site_type_symbol
_atom_site_label
_atom_site_fract_x
_atom_site_fract_y
_atom_site_fract_z
Si Si1 0.426855 0.744020 0.199049
Si Si2 0.849944 0.695874 0.860656
Si Si3 0.319142 0.832841 0.596915
Si Si4 0.262537 0.503798 0.904134
Si Si5 0.967608 0.858676 0.381815
Si Si6 0.751532 0.703773 0.319314
O O1 0.552968 0.908973 0.312857
O O2 0.312147 0.930258 0.099298
O O3 0.447466 0.563551 0.294316
O O4 0.390888 0.627671 0.078123
O O5 0.817773 0.771985 0.912911
O O6 0.783956 0.417689 0.781968
O O7 0.786459 0.915455 0.741064
O O8 0.000000 0.679812 0.000000
O O9 0.279351 0.563517 0.517891
O O10 0.337466 0.789845 0.705814
O O11 0.160484 0.678629 0.746478
O O12 0.095037 0.694289 0.496177
O O13 0.000000 0.982914 0.500000
#
# Coordination Sequence:
#
# PCOD8052166 Si02
#       6
#     4   4   4   4   4   4
#     4  12  27  47  77 112 158 205 264 322 400 465
#     4  12  28  51  79 112 159 205 260 324 398 468
#     4  12  26  48  77 111 158 205 262 324 390 468
#     4  12  27  47  77 112 158 207 260 329 395 469
#     4  12  25  49  77 111 156 202 263 327 384 467
#     4  12  26  49  78 115 151 205 265 323 388 467
#
# _framework density 25.289863
#
# number of rings (size 3 to 8) (size 9 to 14) (size 15 to 20)
#    0.000    0.000    5.000    4.500    2.333    2.000 
#    0.000    0.000    0.000    0.000    0.000    0.000 
#    0.000    0.000    0.000    0.000    0.000    0.000 
#
# Total GULP energy -148737.518861 kJ/mol
# GULP energy per Si atom -12394.793238 kJ/mol
# Density = 2.523230 g / cm^3
# Si number density = 25.289863 Si / 1000 Ang^3
#
#
#
# Elastic Constant Matrix: (Units=GPa)
#
#
# Indices 1 2 3 4 5 6 
#
# 1 140.9828 -0.5986 31.9076 -0.0004 9.9203 0.0001
# 2 -0.5986 64.1108 18.3805 0.0030 5.2543 -0.0006
# 3 31.9076 18.3805 111.3821 0.0004 -6.6144 -0.0001
# 4 -0.0004 0.0030 0.0004 23.5110 0.0005 -9.0891
# 5 9.9203 5.2543 -6.6144 0.0005 52.4245 -0.0002
# 6 0.0001 -0.0006 -0.0001 -9.0891 -0.0002 47.3193
#
#
#
# Elastic Compliance Matrix: (Units=1/GPa)
#
#
# Indices 1 2 3 4 5 6 
#
# 1 0.007796 0.000944 -0.002501 0.000000 -0.001885 0.000000
# 2 0.000944 0.016697 -0.003160 -0.000002 -0.002251 0.000000
# 3 -0.002501 -0.003160 0.010340 0.000000 0.002095 0.000000
# 4 0.000000 -0.000002 0.000000 0.045945 0.000000 0.008825
# 5 -0.001885 -0.002251 0.002095 0.000000 0.019922 0.000000
# 6 0.000000 0.000000 0.000000 0.008825 0.000000 0.022828
#
#
# Mechanical properties :
#
#
# Convention : Reuss Voigt Hill
#
# Bulk Modulus (GPa) = 39.36899 46.20607 42.78753
# Shear Modulus (GPa) = 35.35378 42.43671 38.89524
#
# Velocity S-wave (km/s) = 3.74296 4.10080 3.92596
# Velocity P-wave (km/s) = 5.85496 6.38219 6.12425
#
# Compressibility (1/GPa) = 0.02540071
#
# Stress axis : x y z
#
# Youngs Moduli (GPa) = 128.27440 59.89057 96.70832
#
# Poissons Ratio (x) = -0.05656 0.24187
# Poissons Ratio (y) = -0.12114 0.30556
# Poissons Ratio (z) = 0.32082 0.18923
#
# Static dielectric constant tensor:
#      x y z
#    x 4.946390 0.000000 0.098720 
#    y 0.000000 4.298320 0.000000 
#    z 0.098720 0.000000 4.551450 
# 
# 
# High freq. dielectric constant tensor:
#      x y z
#    x 2.045870 0.000000 0.001480 
#    y 0.000000 1.995840 0.000000 
#    z 0.001480 0.000000 2.012460 
# 
# From -- ./inp_files/63179.got.cif
#   From: 2010.03.12/outbox.cif.g09.slc.cpg/sg5_32_cif.got.tgz:63179.got - 2010.03.31 09:47:26.
