data_PCOD8052505
_publ_section_title
;
Structure prediction by ZEFSAII (Michael W. Deem and Ramdas Pophale) SiO2 
 PCOD8052505
Probable space group: P M
;
_chemical_formula_sum "Si O2"
_cell_formula_units_Z 16
_cell_length_a 9.655720
_cell_length_b 9.044977
_cell_length_c 11.913576
_cell_angle_alpha 90.000000
_cell_angle_beta 51.735765
_cell_angle_gamma 90.000000
_cell_volume 816.947499
_symmetry_space_group_name_H-M "P M"
_symmetry_group_IT_number 6
_symmetry_cell_setting 'monoclinic'
loop_
_space_group_symop_operation_xyz
x,y,z
x,-y,z
loop_
_atom_site_type_symbol
_atom_site_label
_atom_site_fract_x
_atom_site_fract_y
_atom_site_fract_z
Si Si1 0.902740 0.172044 0.273730
Si Si2 0.186407 0.824594 0.703834
Si Si3 0.207357 0.827345 0.948481
Si Si4 0.484681 0.325730 0.963073
Si Si5 0.845065 0.175678 0.738500
Si Si6 0.378039 0.333924 0.261783
Si Si7 0.515711 0.174054 0.396843
Si Si8 0.977481 0.331360 0.462554
O O1 0.704869 0.224536 0.347004
O O2 0.969967 0.270888 0.341092
O O3 0.910038 0.000000 0.303876
O O4 0.025579 0.204187 0.104858
O O5 0.182219 0.769064 0.834200
O O6 0.361947 0.761259 0.554689
O O7 0.011857 0.768162 0.727467
O O8 0.189889 0.000000 0.698342
O O9 0.370454 0.739398 0.919063
O O10 0.256200 0.000000 0.926547
O O11 0.506175 0.500000 0.933970
O O12 0.673784 0.249296 0.877185
O O13 0.387888 0.284503 0.127542
O O14 0.860217 0.230773 0.602826
O O15 0.826392 0.000000 0.748583
O O16 0.449704 0.500000 0.238226
O O17 0.497559 0.231115 0.279239
O O18 0.177834 0.321219 0.403819
O O19 0.502285 0.000000 0.397623
O O20 0.909111 0.500000 0.499572
#
# Coordination Sequence:
#
# PCOD8052505 Si02
#       8
#     2   2   2   2   2   2   2   2
#     4  10  22  37  60  91 120 154 201 251 299 351
#     4   9  20  38  59  86 120 153 193 246 300 351
#     4  10  21  39  60  86 120 158 199 247 299 355
#     4  11  24  42  60  88 123 160 202 247 299 358
#     4  11  23  40  64  92 119 156 201 249 301 356
#     4  10  22  40  61  85 120 159 200 248 298 355
#     4  10  21  38  61  89 119 153 199 251 297 350
#     4  11  22  40  63  87 121 159 199 249 299 356
#
# _framework density 19.585101000000002
#
# number of rings (size 3 to 8) (size 9 to 14) (size 15 to 20)
#    0.000    1.750    2.500    1.125    3.500    2.000 
#    0.000    1.875    0.000    0.000    0.000    0.000 
#    0.000    0.000    0.000    0.000    0.000    0.000 
#
# Total GULP energy -198455.056693 kJ/mol
# GULP energy per Si atom -12403.441043 kJ/mol
# Density = 1.954052 g / cm^3
# Si number density = 19.585101 Si / 1000 Ang^3
#
#
#
# Elastic Constant Matrix: (Units=GPa)
#
#
# Indices 1 2 3 4 5 6 
#
# 1 119.7304 43.8360 51.1939 0.0000 -1.0517 0.0000
# 2 43.8360 63.5196 35.7186 0.0000 -0.4277 0.0000
# 3 51.1939 35.7186 99.7304 0.0000 -0.3310 0.0000
# 4 0.0000 0.0000 0.0000 24.5425 0.0000 -2.4493
# 5 -1.0517 -0.4277 -0.3310 0.0000 40.7498 0.0000
# 6 0.0000 0.0000 0.0000 -2.4493 0.0000 21.0829
#
#
#
# Elastic Compliance Matrix: (Units=1/GPa)
#
#
# Indices 1 2 3 4 5 6 
#
# 1 0.012404 -0.006234 -0.004134 0.000000 0.000221 0.000000
# 2 -0.006234 0.022848 -0.004983 0.000000 0.000038 0.000000
# 3 -0.004134 -0.004983 0.013933 0.000000 -0.000046 0.000000
# 4 0.000000 0.000000 0.000000 0.041224 0.000000 0.004789
# 5 0.000221 0.000038 -0.000046 0.000000 0.024546 0.000000
# 6 0.000000 0.000000 0.000000 0.004789 0.000000 0.047988
#
#
# Mechanical properties :
#
#
# Convention : Reuss Voigt Hill
#
# Bulk Modulus (GPa) = 54.10133 60.49748 57.29940
# Shear Modulus (GPa) = 25.02442 27.42383 26.22412
#
# Velocity S-wave (km/s) = 3.57841 3.74604 3.66318
# Velocity P-wave (km/s) = 6.69007 7.04748 6.87110
#
# Compressibility (1/GPa) = 0.01848383
#
# Stress axis : x y z
#
# Youngs Moduli (GPa) = 80.61900 43.76827 71.77022
#
# Poissons Ratio (x) = 0.27286 0.29668
# Poissons Ratio (y) = 0.50260 0.35760
# Poissons Ratio (z) = 0.33326 0.21808
#
# Static dielectric constant tensor:
#      x y z
#    x 3.556630 0.000000 -0.056730 
#    y 0.000000 3.403350 0.000000 
#    z -0.056730 0.000000 3.733550 
# 
# 
# High freq. dielectric constant tensor:
#      x y z
#    x 1.767560 0.000000 -0.000080 
#    y 0.000000 1.747890 0.000000 
#    z -0.000080 0.000000 1.773860 
# 
# From -- ./inp_files/2721.got.cif
#   From: 2010.03.12/outbox.cif.g09.slc.cpg/sg6_2_cif.got.tgz:2721.got - 2010.03.30 10:24:59.
