data_PCOD8052254
_publ_section_title
;
Structure prediction by ZEFSAII (Michael W. Deem and Ramdas Pophale) SiO2 
 PCOD8052254
Probable space group: P M
;
_chemical_formula_sum "Si O2"
_cell_formula_units_Z 16
_cell_length_a 9.206795
_cell_length_b 8.820600
_cell_length_c 20.723320
_cell_angle_alpha 90.000000
_cell_angle_beta 29.978406
_cell_angle_gamma 90.000000
_cell_volume 840.915415
_symmetry_space_group_name_H-M "P M"
_symmetry_group_IT_number 6
_symmetry_cell_setting 'monoclinic'
loop_
_space_group_symop_operation_xyz
x,y,z
x,-y,z
loop_
_atom_site_type_symbol
_atom_site_label
_atom_site_fract_x
_atom_site_fract_y
_atom_site_fract_z
Si Si1 0.073680 0.320275 0.742290
Si Si2 0.833056 0.178921 0.704796
Si Si3 0.186928 0.824500 0.206851
Si Si4 0.878007 0.821980 0.194595
Si Si5 0.358542 0.679824 0.450643
Si Si6 0.794704 0.321899 0.982233
Si Si7 0.166923 0.823509 0.949859
Si Si8 0.595049 0.176706 0.489663
O O1 0.061080 0.500000 0.739410
O O2 0.413556 0.266276 0.614436
O O3 0.910065 0.243711 0.745473
O O4 0.917773 0.261051 0.866872
O O5 0.503249 0.220251 0.815343
O O6 0.027425 0.258237 0.573598
O O7 0.886005 0.000000 0.684684
O O8 0.069541 0.769545 0.182330
O O9 0.943144 0.796289 0.356572
O O10 0.272308 0.000000 0.170245
O O11 0.467328 0.731785 0.119547
O O12 0.567420 0.733726 0.311904
O O13 0.812534 0.000000 0.223743
O O14 0.053391 0.774917 0.063794
O O15 0.359596 0.500000 0.456733
O O16 0.485158 0.761375 0.464287
O O17 0.797933 0.500000 0.980793
O O18 0.996332 0.267146 0.961895
O O19 0.113628 0.000000 0.958619
O O20 0.521700 0.000000 0.523504
#
# Coordination Sequence:
#
# PCOD8052254 Si02
#       8
#     2   2   2   2   2   2   2   2
#     4  10  20  34  53  80 109 138 171 212 260 312
#     4  10  19  34  57  82 104 134 175 218 260 306
#     4   9  18  34  57  81 105 133 171 215 260 308
#     4   9  18  35  57  81 105 133 173 220 260 303
#     4  10  18  29  50  81 111 138 166 206 260 314
#     4  11  24  37  51  75 109 143 175 212 260 313
#     4  10  22  38  56  76 102 138 180 220 260 304
#     4   9  17  31  53  80 105 133 171 217 260 302
#
# _framework density 19.026883000000002
#
# number of rings (size 3 to 8) (size 9 to 14) (size 15 to 20)
#    0.000    2.250    0.000    5.625    0.000    7.000 
#    0.000    1.250    0.000    1.500    0.000    0.000 
#    0.000    0.000    0.000    0.000    0.000    0.000 
#
# Total GULP energy -198345.158982 kJ/mol
# GULP energy per Si atom -12396.572436 kJ/mol
# Density = 1.898358 g / cm^3
# Si number density = 19.026883 Si / 1000 Ang^3
#
#
#
# Elastic Constant Matrix: (Units=GPa)
#
#
# Indices 1 2 3 4 5 6 
#
# 1 60.9188 38.2570 39.8958 0.0000 -20.5102 0.0000
# 2 38.2570 148.3742 82.8088 0.0000 -14.0701 0.0000
# 3 39.8958 82.8088 153.5486 0.0000 -31.1923 0.0000
# 4 0.0000 0.0000 0.0000 15.6994 0.0000 16.0754
# 5 -20.5102 -14.0701 -31.1923 0.0000 13.6293 0.0000
# 6 0.0000 0.0000 0.0000 16.0754 0.0000 8.9174
#
#
#
# Elastic Compliance Matrix: (Units=1/GPa)
#
#
# Indices 1 2 3 4 5 6 
#
# 1 0.040031 -0.008352 0.008577 0.000000 0.071248 0.000000
# 2 -0.008352 0.011482 -0.007788 0.000000 -0.018540 0.000000
# 3 0.008577 -0.007788 0.017704 0.000000 0.045384 0.000000
# 4 0.000000 0.000000 0.000000 -0.075303 0.000000 0.135749
# 5 0.071248 -0.018540 0.045384 0.000000 0.265317 0.000000
# 6 0.000000 0.000000 0.000000 0.135749 0.000000 -0.132574
#
#
# Mechanical properties :
#
#
# Convention : Reuss Voigt Hill
#
# Bulk Modulus (GPa) = 18.48786 76.08497 47.28641
# Shear Modulus (GPa) = 31.28616 21.10790 26.19703
#
# Velocity S-wave (km/s) = 4.05941 3.33434 3.71461
# Velocity P-wave (km/s) = 5.63113 7.40937 6.58059
#
# Compressibility (1/GPa) = 0.05408956
#
# Stress axis : x y z
#
# Youngs Moduli (GPa) = 24.98039 87.09386 56.48473
#
# Poissons Ratio (x) = 0.72742 -0.48446
# Poissons Ratio (y) = 0.20864 0.43993
# Poissons Ratio (z) = -0.21425 0.67832
#
# Static dielectric constant tensor:
#      x y z
#    x 3.120310 0.000000 -0.007250 
#    y 0.000000 3.446160 0.000000 
#    z -0.007250 0.000000 4.369280 
# 
# 
# High freq. dielectric constant tensor:
#      x y z
#    x 1.695210 0.000000 -0.004740 
#    y 0.000000 1.742730 0.000000 
#    z -0.004740 0.000000 1.767580 
# 
# From -- ./inp_files/4266.got.cif
#   From: 2010.03.12/outbox.cif.g09.slc.cpg/sg6_3_cif.got.tgz:4266.got - 2010.03.30 10:24:59.
