data_PCOD8052350
_publ_section_title
;
Structure prediction by ZEFSAII (Michael W. Deem and Ramdas Pophale) SiO2 
 PCOD8052350
Probable space group: P M
;
_chemical_formula_sum "Si O2"
_cell_formula_units_Z 16
_cell_length_a 11.275784
_cell_length_b 8.928509
_cell_length_c 9.289769
_cell_angle_alpha 90.000000
_cell_angle_beta 114.610935
_cell_angle_gamma 90.000000
_cell_volume 850.294404
_symmetry_space_group_name_H-M "P M"
_symmetry_group_IT_number 6
_symmetry_cell_setting 'monoclinic'
loop_
_space_group_symop_operation_xyz
x,y,z
x,-y,z
loop_
_atom_site_type_symbol
_atom_site_label
_atom_site_fract_x
_atom_site_fract_y
_atom_site_fract_z
Si Si1 0.425770 0.675508 0.354130
Si Si2 0.183078 0.321161 0.056081
Si Si3 0.190704 0.322189 0.735416
Si Si4 0.949166 0.323196 0.422446
Si Si5 0.438053 0.323583 0.686864
Si Si6 0.714792 0.323434 0.508624
Si Si7 0.706447 0.173623 0.802469
Si Si8 0.954371 0.173973 0.117182
O O1 0.421881 0.500000 0.328926
O O2 0.314882 0.745592 0.195637
O O3 0.394092 0.717386 0.502834
O O4 0.570973 0.733678 0.387078
O O5 0.180281 0.500000 0.059912
O O6 0.059142 0.262095 0.077374
O O7 0.178219 0.260004 0.890726
O O8 0.191703 0.500000 0.736710
O O9 0.325461 0.262629 0.735140
O O10 0.068742 0.265616 0.580432
O O11 0.958374 0.500000 0.396855
O O12 0.815924 0.279662 0.436078
O O13 0.953411 0.234847 0.277278
O O14 0.460142 0.500000 0.715007
O O15 0.572964 0.244038 0.794822
O O16 0.714029 0.500000 0.537993
O O17 0.755147 0.248086 0.679054
O O18 0.683968 0.000000 0.760879
O O19 0.813129 0.203255 0.978283
O O20 0.991016 0.000000 0.136309
#
# Coordination Sequence:
#
# PCOD8052350 Si02
#       8
#     2   2   2   2   2   2   2   2
#     4   8  15  29  51  79 108 135 164 206 255 300
#     4  10  19  34  57  80 105 137 172 212 260 311
#     4   9  18  32  54  84 109 131 168 219 264 302
#     4  10  20  35  56  80 105 135 174 216 258 308
#     4   9  17  32  53  76 106 140 174 212 254 304
#     4   9  18  34  57  83 107 133 171 214 256 308
#     4  10  21  36  53  75 106 141 175 213 258 307
#     4  11  24  38  51  73 106 140 176 218 261 306
#
# _framework density 18.817012999999999
#
# number of rings (size 3 to 8) (size 9 to 14) (size 15 to 20)
#    0.000    2.500    0.000    3.000    0.000    6.500 
#    0.000    9.375    0.000    0.000    0.000    0.000 
#    0.000    0.000    0.000    0.000    0.000    0.000 
#
# Total GULP energy -198396.762943 kJ/mol
# GULP energy per Si atom -12399.797684 kJ/mol
# Density = 1.877418 g / cm^3
# Si number density = 18.817013 Si / 1000 Ang^3
#
#
#
# Elastic Constant Matrix: (Units=GPa)
#
#
# Indices 1 2 3 4 5 6 
#
# 1 149.5709 42.9244 78.4752 0.0000 -10.9874 0.0000
# 2 42.9244 33.4689 43.8153 0.0000 3.7925 0.0000
# 3 78.4752 43.8153 149.9959 0.0000 -1.1017 0.0000
# 4 0.0000 0.0000 0.0000 20.8993 0.0000 4.6631
# 5 -10.9874 3.7925 -1.1017 0.0000 29.5138 0.0000
# 6 0.0000 0.0000 0.0000 4.6631 0.0000 10.4478
#
#
#
# Elastic Compliance Matrix: (Units=1/GPa)
#
#
# Indices 1 2 3 4 5 6 
#
# 1 0.012204 -0.013028 -0.002534 0.000000 0.006123 0.000000
# 2 -0.013028 0.063667 -0.011881 0.000000 -0.013475 0.000000
# 3 -0.002534 -0.011881 0.011471 0.000000 0.001011 0.000000
# 4 0.000000 0.000000 0.000000 0.053140 0.000000 -0.023718
# 5 0.006123 -0.013475 0.001011 0.000000 0.037931 0.000000
# 6 0.000000 0.000000 0.000000 -0.023718 0.000000 0.106299
#
#
# Mechanical properties :
#
#
# Convention : Reuss Voigt Hill
#
# Bulk Modulus (GPa) = 30.81102 73.71837 52.26469
# Shear Modulus (GPa) = 14.26868 23.36023 18.81446
#
# Velocity S-wave (km/s) = 2.75669 3.52723 3.16549
# Velocity P-wave (km/s) = 5.15189 7.47329 6.41841
#
# Compressibility (1/GPa) = 0.03245592
#
# Stress axis : x y z
#
# Youngs Moduli (GPa) = 81.93992 15.70665 87.17805
#
# Poissons Ratio (x) = 0.20462 0.22095
# Poissons Ratio (y) = 1.06749 1.03575
# Poissons Ratio (z) = 0.20767 0.18661
#
# Static dielectric constant tensor:
#      x y z
#    x 3.770580 0.000000 0.131790 
#    y 0.000000 3.142510 0.000000 
#    z 0.131790 0.000000 3.636350 
# 
# 
# High freq. dielectric constant tensor:
#      x y z
#    x 1.745910 0.000000 0.005740 
#    y 0.000000 1.696510 0.000000 
#    z 0.005740 0.000000 1.736710 
# 
# From -- ./inp_files/3766.got.cif
#   From: 2010.03.12/outbox.cif.g09.slc.cpg/sg6_2_cif.got.tgz:3766.got - 2010.03.30 10:24:59.
