data_PCOD8052195
_publ_section_title
;
Structure prediction by ZEFSAII (Michael W. Deem and Ramdas Pophale) SiO2 
 PCOD8052195
Probable space group: C 2
;
_chemical_formula_sum "Si O2"
_cell_formula_units_Z 20
_cell_length_a 17.548723
_cell_length_b 5.332784
_cell_length_c 9.485762
_cell_angle_alpha 90.000000
_cell_angle_beta 118.249723
_cell_angle_gamma 90.000000
_cell_volume 781.978672
_symmetry_space_group_name_H-M "C 2"
_symmetry_group_IT_number 5
_symmetry_cell_setting 'monoclinic'
loop_
_space_group_symop_operation_xyz
x,y,z
-x,y,-z
1/2+x,1/2+y,z
1/2-x,1/2+y,-z
loop_
_atom_site_type_symbol
_atom_site_label
_atom_site_fract_x
_atom_site_fract_y
_atom_site_fract_z
Si Si1 0.854246 0.411990 0.621731
Si Si2 0.011323 0.692895 0.671257
Si Si3 0.242488 0.197280 0.715436
Si Si4 0.891488 0.188947 0.169672
Si Si5 0.903987 0.038198 0.887181
O O1 0.824559 0.357681 0.436463
O O2 0.768486 0.458234 0.641745
O O3 0.905852 0.183151 0.739106
O O4 0.918695 0.650950 0.667315
O O5 0.064414 0.433480 0.726064
O O6 0.000000 0.767090 0.500000
O O7 0.054384 0.930996 0.780858
O O8 0.196969 0.130037 0.822766
O O9 0.333579 0.322135 0.829523
O O10 0.876081 0.232917 0.989051
O O11 0.000000 0.928545 0.000000
#
# Coordination Sequence:
#
# PCOD8052195 Si02
#       5
#     4   4   4   4   4
#     4  12  27  49  80 118 162 219 271 333 407 492
#     4  12  27  51  84 115 164 213 273 327 402 494
#     4  12  29  48  81 116 164 216 272 338 404 489
#     4  12  30  50  83 120 159 212 272 337 404 474
#     4  12  28  52  79 118 165 215 271 340 410 483
#
# _framework density 25.576148
#
# number of rings (size 3 to 8) (size 9 to 14) (size 15 to 20)
#    0.000    0.000    6.000    1.800   11.200    0.800 
#    0.000    0.000    0.000    0.000    0.000    0.000 
#    0.000    0.000    0.000    0.000    0.000    0.000 
#
# Total GULP energy -124008.817243 kJ/mol
# GULP energy per Si atom -12400.881724 kJ/mol
# Density = 2.551794 g / cm^3
# Si number density = 25.576148 Si / 1000 Ang^3
#
#
#
# Elastic Constant Matrix: (Units=GPa)
#
#
# Indices 1 2 3 4 5 6 
#
# 1 155.0236 17.5194 43.1875 0.0000 -2.2999 0.0000
# 2 17.5194 98.1542 14.5398 0.0000 18.5594 0.0000
# 3 43.1875 14.5398 113.9337 0.0000 9.3510 0.0000
# 4 0.0000 0.0000 0.0000 25.2141 0.0000 1.3675
# 5 -2.2999 18.5594 9.3510 0.0000 45.2905 0.0000
# 6 0.0000 0.0000 0.0000 1.3675 0.0000 42.4231
#
#
#
# Elastic Compliance Matrix: (Units=1/GPa)
#
#
# Indices 1 2 3 4 5 6 
#
# 1 0.007374 -0.001177 -0.002762 0.000000 0.001427 0.000000
# 2 -0.001177 0.011358 -0.000627 0.000000 -0.004585 0.000000
# 3 -0.002762 -0.000627 0.010065 0.000000 -0.001961 0.000000
# 4 0.000000 0.000000 0.000000 0.039730 0.000000 -0.001281
# 5 0.001427 -0.004585 -0.001961 0.000000 0.024436 0.000000
# 6 0.000000 0.000000 0.000000 -0.001281 0.000000 0.023613
#
#
# Mechanical properties :
#
#
# Convention : Reuss Voigt Hill
#
# Bulk Modulus (GPa) = 50.85200 57.51165 54.18182
# Shear Modulus (GPa) = 37.80330 42.04320 39.92325
#
# Velocity S-wave (km/s) = 3.84874 4.05883 3.95518
# Velocity P-wave (km/s) = 6.29890 6.67089 6.48756
#
# Compressibility (1/GPa) = 0.01966491
#
# Stress axis : x y z
#
# Youngs Moduli (GPa) = 135.60570 88.04464 99.35339
#
# Poissons Ratio (x) = 0.10362 0.27444
# Poissons Ratio (y) = 0.15959 0.06230
# Poissons Ratio (z) = 0.37457 0.05521
#
# Static dielectric constant tensor:
#      x y z
#    x 5.055890 0.000000 -0.272940 
#    y 0.000000 4.199090 0.000000 
#    z -0.272940 0.000000 4.770260 
# 
# 
# High freq. dielectric constant tensor:
#      x y z
#    x 2.049790 0.000000 -0.011280 
#    y 0.000000 2.005290 0.000000 
#    z -0.011280 0.000000 2.029970 
# 
# From -- ./inp_files/28256.got.cif
#   From: 2010.03.12/outbox.cif.g09.slc.cpg/sg5_15_cif.got.tgz:28256.got - 2010.03.31 09:47:26.
