data_PCOD8052049
_publ_section_title
;
Structure prediction by ZEFSAII (Michael W. Deem and Ramdas Pophale) SiO2 
 PCOD8052049
Probable space group: C 2
;
_chemical_formula_sum "Si O2"
_cell_formula_units_Z 20
_cell_length_a 14.948359
_cell_length_b 10.320039
_cell_length_c 14.310359
_cell_angle_alpha 90.000000
_cell_angle_beta 159.213839
_cell_angle_gamma 90.000000
_cell_volume 783.444666
_symmetry_space_group_name_H-M "C 2"
_symmetry_group_IT_number 5
_symmetry_cell_setting 'monoclinic'
loop_
_space_group_symop_operation_xyz
x,y,z
-x,y,-z
1/2+x,1/2+y,z
1/2-x,1/2+y,-z
loop_
_atom_site_type_symbol
_atom_site_label
_atom_site_fract_x
_atom_site_fract_y
_atom_site_fract_z
Si Si1 0.000000 0.084620 0.500000
Si Si2 0.911830 0.845575 0.717740
Si Si3 0.952889 0.573486 0.690088
Si Si4 0.000000 0.750092 0.000000
Si Si5 0.260453 0.425210 0.121410
Si Si6 0.748456 0.659158 0.191715
O O1 0.750117 0.167636 0.257033
O O2 0.006891 0.995759 0.599425
O O3 0.805050 0.708817 0.569233
O O4 0.718526 0.963179 0.522487
O O5 0.159709 0.872330 0.900776
O O6 0.013476 0.840038 0.922354
O O7 0.184889 0.594204 0.843179
O O8 0.044934 0.529147 0.883869
O O9 0.164970 0.308380 0.092891
O O10 0.000000 0.649348 0.500000
O O11 0.500000 0.596538 0.000000
#
# Coordination Sequence:
#
# PCOD8052049 Si02
#       6
#     2   4   4   2   4   4
#     4  12  26  50  78 118 156 220 266 326 398 482
#     4  11  27  49  80 119 159 217 264 339 404 485
#     4  11  27  50  81 117 164 214 268 341 403 488
#     4  12  28  48  82 116 164 206 270 332 402 476
#     4  11  26  46  80 113 164 212 274 330 399 489
#     4  11  28  48  77 118 158 211 267 331 402 477
#
# _framework density 25.528286000000001
#
# number of rings (size 3 to 8) (size 9 to 14) (size 15 to 20)
#    0.000    0.800    3.000    1.200   12.600    3.200 
#    0.000    0.000    0.000    0.000    0.000    0.000 
#    0.000    0.000    0.000    0.000    0.000    0.000 
#
# Total GULP energy -123936.658410 kJ/mol
# GULP energy per Si atom -12393.665841 kJ/mol
# Density = 2.547018 g / cm^3
# Si number density = 25.528286 Si / 1000 Ang^3
#
#
#
# Elastic Constant Matrix: (Units=GPa)
#
#
# Indices 1 2 3 4 5 6 
#
# 1 116.6720 21.5238 41.9739 -0.0144 -7.8487 -0.0114
# 2 21.5238 114.4162 28.7354 -0.0998 -2.8081 -0.0886
# 3 41.9739 28.7354 112.2989 0.0207 -12.7192 0.0227
# 4 -0.0144 -0.0998 0.0207 35.0493 -0.0028 -4.2801
# 5 -7.8487 -2.8081 -12.7192 -0.0028 53.5668 -0.0023
# 6 -0.0114 -0.0886 0.0227 -4.2801 -0.0023 31.6963
#
#
#
# Elastic Compliance Matrix: (Units=1/GPa)
#
#
# Indices 1 2 3 4 5 6 
#
# 1 0.010029 -0.001013 -0.003421 0.000004 0.000604 0.000004
# 2 -0.001013 0.009443 -0.002054 0.000032 -0.000141 0.000032
# 3 -0.003421 -0.002054 0.010934 -0.000016 0.001987 -0.000017
# 4 0.000004 0.000032 -0.000016 0.029010 0.000000 0.003917
# 5 0.000604 -0.000141 0.001987 0.000000 0.019221 0.000000
# 6 0.000004 0.000032 -0.000017 0.003917 0.000000 0.032078
#
#
# Mechanical properties :
#
#
# Convention : Reuss Voigt Hill
#
# Bulk Modulus (GPa) = 57.36817 58.65038 58.00927
# Shear Modulus (GPa) = 38.60966 40.80608 39.70787
#
# Velocity S-wave (km/s) = 3.89321 4.00242 3.94819
# Velocity P-wave (km/s) = 6.53687 6.66211 6.59979
#
# Compressibility (1/GPa) = 0.01743127
#
# Stress axis : x y z
#
# Youngs Moduli (GPa) = 99.70819 105.89953 91.45684
#
# Poissons Ratio (x) = 0.10724 0.31288
# Poissons Ratio (y) = 0.10097 0.18783
# Poissons Ratio (z) = 0.34111 0.21749
#
# Static dielectric constant tensor:
#      x y z
#    x 4.750670 -0.000010 -0.445910 
#    y -0.000010 5.011480 -0.000010 
#    z -0.445910 -0.000010 4.285530 
# 
# 
# High freq. dielectric constant tensor:
#      x y z
#    x 2.032040 0.000000 -0.022370 
#    y 0.000000 2.035950 0.000000 
#    z -0.022370 0.000000 2.007280 
# 
# From -- ./inp_files/55948.got.cif
#   From: 2010.03.12/outbox.cif.g09.slc.cpg/sg5_28_cif.got.tgz:55948.got - 2010.03.31 09:47:26.
