data_PCOD8052625
_publ_section_title
;
Structure prediction by ZEFSAII (Michael W. Deem and Ramdas Pophale) SiO2 
 PCOD8052625
Probable space group: P C
;
_chemical_formula_sum "Si O2"
_cell_formula_units_Z 16
_cell_length_a 8.779580
_cell_length_b 16.475242
_cell_length_c 4.955638
_cell_angle_alpha 90.000000
_cell_angle_beta 97.751552
_cell_angle_gamma 90.000000
_cell_volume 710.261702
_symmetry_space_group_name_H-M "P C"
_symmetry_group_IT_number 7
_symmetry_cell_setting 'monoclinic'
loop_
_space_group_symop_operation_xyz
x,y,z
x,-y,1/2+z
loop_
_atom_site_type_symbol
_atom_site_label
_atom_site_fract_x
_atom_site_fract_y
_atom_site_fract_z
Si Si1 0.199680 0.720523 0.026620
Si Si2 0.026334 0.226282 0.992120
Si Si3 0.662637 0.861618 0.645732
Si Si4 0.356956 0.448461 0.438085
Si Si5 0.957437 0.948824 0.608135
Si Si6 0.497827 0.186078 0.591291
Si Si7 0.718161 0.550749 0.023519
Si Si8 0.774923 0.727292 0.017526
O O1 0.154233 0.733647 0.326919
O O2 0.267252 0.631988 0.999421
O O3 0.321930 0.791608 0.988752
O O4 0.049901 0.731296 0.794402
O O5 0.053066 0.130227 0.042946
O O6 0.865740 0.238428 0.798735
O O7 0.772708 0.932460 0.563392
O O8 0.528183 0.843378 0.401126
O O9 0.565372 0.881357 0.895492
O O10 0.783689 0.786132 0.751358
O O11 0.309710 0.479649 0.131866
O O12 0.537822 0.431319 0.479454
O O13 0.000489 0.022230 0.418313
O O14 0.596581 0.268478 0.569928
O O15 0.768340 0.518978 0.327593
O O16 0.811776 0.632878 0.971529
#
# Coordination Sequence:
#
# PCOD8052625 Si02
#       8
#     2   2   2   2   2   2   2   2
#     4  12  24  42  62  99 129 178 219 260 314 392
#     4  12  26  41  66  98 130 169 217 252 321 393
#     4  10  20  37  67  96 117 158 212 260 316 357
#     4  10  20  37  59  86 121 167 222 271 314 370
#     4  12  23  42  69  99 129 159 208 261 319 391
#     4  10  21  37  68  90 127 161 221 259 316 349
#     4  10  22  34  59  92 122 164 220 275 327 360
#     4  10  22  40  64  90 131 160 221 270 305 366
#
# _framework density 22.526906
#
# number of rings (size 3 to 8) (size 9 to 14) (size 15 to 20)
#    0.750    0.500    2.500    4.500    1.750    1.000 
#    0.000    3.750    0.000   15.000    0.000    0.000 
#    0.000    0.000    0.000    0.000    0.000    0.000 
#
# Total GULP energy -198257.085996 kJ/mol
# GULP energy per Si atom -12391.067875 kJ/mol
# Density = 2.247563 g / cm^3
# Si number density = 22.526906 Si / 1000 Ang^3
#
#
#
# Elastic Constant Matrix: (Units=GPa)
#
#
# Indices 1 2 3 4 5 6 
#
# 1 26.5377 8.2164 4.5747 0.0000 7.3969 0.0000
# 2 8.2164 92.5270 33.0807 0.0000 -8.6072 0.0000
# 3 4.5747 33.0807 129.0219 0.0000 0.9340 0.0000
# 4 0.0000 0.0000 0.0000 30.7566 0.0000 -12.2179
# 5 7.3969 -8.6072 0.9340 0.0000 27.2496 0.0000
# 6 0.0000 0.0000 0.0000 -12.2179 0.0000 33.1632
#
#
#
# Elastic Compliance Matrix: (Units=1/GPa)
#
#
# Indices 1 2 3 4 5 6 
#
# 1 0.042940 -0.004991 -0.000147 0.000000 -0.013227 0.000000
# 2 -0.004991 0.012900 -0.003171 0.000000 0.005538 0.000000
# 3 -0.000147 -0.003171 0.008578 0.000000 -0.001256 0.000000
# 4 0.000000 0.000000 0.000000 0.038088 0.000000 0.014032
# 5 -0.013227 0.005538 -0.001256 0.000000 0.042081 0.000000
# 6 0.000000 0.000000 0.000000 0.014032 0.000000 0.035324
#
#
# Mechanical properties :
#
#
# Convention : Reuss Voigt Hill
#
# Bulk Modulus (GPa) = 20.92046 37.75893 29.33969
# Shear Modulus (GPa) = 23.53389 31.71484 27.62436
#
# Velocity S-wave (km/s) = 3.23569 3.75622 3.50563
# Velocity P-wave (km/s) = 4.82355 5.96744 5.42573
#
# Compressibility (1/GPa) = 0.04780009
#
# Stress axis : x y z
#
# Youngs Moduli (GPa) = 23.28841 77.52203 116.57948
#
# Poissons Ratio (x) = 0.38691 0.01715
# Poissons Ratio (y) = 0.11623 0.36962
# Poissons Ratio (z) = 0.00343 0.24579
#
# Static dielectric constant tensor:
#      x y z
#    x 3.841460 0.000000 -0.118480 
#    y 0.000000 3.744570 0.000000 
#    z -0.118480 0.000000 4.136210 
# 
# 
# High freq. dielectric constant tensor:
#      x y z
#    x 1.871460 0.000000 -0.013410 
#    y 0.000000 1.866140 0.000000 
#    z -0.013410 0.000000 1.905630 
# 
# From -- ./inp_files/737.got.cif
#   From: 2010.03.12/outbox.cif.g09.slc.cpg/sg7_cif.got.tgz:737.got - 2010.03.30 08:40:41.
