data_PCOD8052016
_publ_section_title
;
Structure prediction by ZEFSAII (Michael W. Deem and Ramdas Pophale) SiO2 
 PCOD8052016
Probable space group: C 2
;
_chemical_formula_sum "Si O2"
_cell_formula_units_Z 20
_cell_length_a 25.329952
_cell_length_b 7.299216
_cell_length_c 5.323335
_cell_angle_alpha 90.000000
_cell_angle_beta 55.341666
_cell_angle_gamma 90.000000
_cell_volume 809.581936
_symmetry_space_group_name_H-M "C 2"
_symmetry_group_IT_number 5
_symmetry_cell_setting 'monoclinic'
loop_
_space_group_symop_operation_xyz
x,y,z
-x,y,-z
1/2+x,1/2+y,z
1/2-x,1/2+y,-z
loop_
_atom_site_type_symbol
_atom_site_label
_atom_site_fract_x
_atom_site_fract_y
_atom_site_fract_z
Si Si1 0.432841 0.485270 0.607292
Si Si2 0.161010 0.162205 0.770836
Si Si3 0.640468 0.174518 0.418498
Si Si4 0.795675 0.548697 0.235805
Si Si5 0.561679 0.840944 0.677580
O O1 0.500000 0.382974 0.500000
O O2 0.396183 0.370466 0.488594
O O3 0.458508 0.685119 0.460780
O O4 0.381302 0.513335 0.967534
O O5 0.186394 0.335792 0.866718
O O6 0.219932 0.050265 0.492770
O O7 0.120304 0.253851 0.666095
O O8 0.667292 0.136721 0.624447
O O9 0.587178 0.024981 0.478905
O O10 0.692733 0.164422 0.051447
O O11 0.500000 0.899482 0.000000
#
# Coordination Sequence:
#
# PCOD8052016 Si02
#       5
#     4   4   4   4   4
#     4  12  26  45  76 106 147 196 250 304 370 442
#     4  11  25  45  73 105 148 194 247 302 372 436
#     4  11  28  47  74 109 148 190 248 305 372 435
#     4  11  26  47  74 108 147 195 243 309 365 443
#     4  11  25  48  73 104 152 195 244 309 370 441
#
# _framework density 24.704111000000001
#
# number of rings (size 3 to 8) (size 9 to 14) (size 15 to 20)
#    0.000    0.800    4.000    1.200    8.400    4.800 
#    0.000    0.000    0.000    0.000    0.000    0.000 
#    0.000    0.000    0.000    0.000    0.000    0.000 
#
# Total GULP energy -123955.945072 kJ/mol
# GULP energy per Si atom -12395.594507 kJ/mol
# Density = 2.464788 g / cm^3
# Si number density = 24.704111 Si / 1000 Ang^3
#
#
#
# Elastic Constant Matrix: (Units=GPa)
#
#
# Indices 1 2 3 4 5 6 
#
# 1 79.0356 7.6214 31.6522 0.0000 -21.0048 0.0000
# 2 7.6214 76.4923 27.4008 0.0000 -13.3447 0.0000
# 3 31.6522 27.4008 141.9884 0.0000 -21.0252 0.0000
# 4 0.0000 0.0000 0.0000 52.3084 0.0000 -20.3825
# 5 -21.0048 -13.3447 -21.0252 0.0000 48.8823 0.0000
# 6 0.0000 0.0000 0.0000 -20.3825 0.0000 49.9947
#
#
#
# Elastic Compliance Matrix: (Units=1/GPa)
#
#
# Indices 1 2 3 4 5 6 
#
# 1 0.015125 0.000392 -0.002637 0.000000 0.005472 0.000000
# 2 0.000392 0.014436 -0.002419 0.000000 0.003069 0.000000
# 3 -0.002637 -0.002419 0.008365 0.000000 0.001804 0.000000
# 4 0.000000 0.000000 0.000000 0.022728 0.000000 0.009266
# 5 0.005472 0.003069 0.001804 0.000000 0.024423 0.000000
# 6 0.000000 0.000000 0.000000 0.009266 0.000000 0.023780
#
#
# Mechanical properties :
#
#
# Convention : Reuss Voigt Hill
#
# Bulk Modulus (GPa) = 34.96688 47.87390 41.42039
# Shear Modulus (GPa) = 39.14924 45.62652 42.38788
#
# Velocity S-wave (km/s) = 3.98518 4.30224 4.14674
# Velocity P-wave (km/s) = 5.94647 6.64079 6.30320
#
# Compressibility (1/GPa) = 0.02859849
#
# Stress axis : x y z
#
# Youngs Moduli (GPa) = 66.11526 69.27112 119.55060
#
# Poissons Ratio (x) = -0.02718 0.31527
# Poissons Ratio (y) = -0.02594 0.28917
# Poissons Ratio (z) = 0.17435 0.16756
#
# Static dielectric constant tensor:
#      x y z
#    x 3.681340 0.000000 -0.723840 
#    y 0.000000 5.039750 0.000000 
#    z -0.723840 0.000000 3.986300 
# 
# 
# High freq. dielectric constant tensor:
#      x y z
#    x 1.984400 0.000000 -0.016710 
#    y 0.000000 1.991490 0.000000 
#    z -0.016710 0.000000 1.983050 
# 
# From -- ./inp_files/9114.got.cif
#   From: 2010.03.12/outbox.cif.g09.slc.cpg/sg5_5_cif.got.tgz:9114.got - 2010.03.31 09:47:26.
