data_PCOD8052996
_publ_section_title
;
Structure prediction by ZEFSAII (Michael W. Deem and Ramdas Pophale) SiO2 
 PCOD8052996
Probable space group: C M
;
_chemical_formula_sum "Si O2"
_cell_formula_units_Z 32
_cell_length_a 24.400391
_cell_length_b 9.036213
_cell_length_c 10.226004
_cell_angle_alpha 90.000000
_cell_angle_beta 52.335650
_cell_angle_gamma 90.000000
_cell_volume 1784.831066
_symmetry_space_group_name_H-M "C M"
_symmetry_group_IT_number 8
_symmetry_cell_setting 'monoclinic'
loop_
_space_group_symop_operation_xyz
x,y,z
x,-y,z
1/2+x,1/2+y,z
1/2+x,1/2-y,z
loop_
_atom_site_type_symbol
_atom_site_label
_atom_site_fract_x
_atom_site_fract_y
_atom_site_fract_z
Si Si1 0.630530 0.173993 0.864450
Si Si2 0.758769 0.827430 0.247993
Si Si3 0.915118 0.172576 0.009384
Si Si4 0.125065 0.174567 0.381523
Si Si5 0.917157 0.175603 0.303147
Si Si6 0.059392 0.174423 0.205068
Si Si7 0.267212 0.675750 0.532832
Si Si8 0.545163 0.826200 0.732655
O O1 0.706923 0.235414 0.714998
O O2 0.577627 0.214262 0.825734
O O3 0.631703 0.000000 0.888358
O O4 0.610623 0.253788 0.026365
O O5 0.836007 0.798258 0.079677
O O6 0.703388 0.732844 0.246609
O O7 0.753830 0.771406 0.404470
O O8 0.739924 0.000000 0.264393
O O9 0.925575 0.230523 0.142074
O O10 0.933452 0.000000 0.970764
O O11 0.966987 0.263622 0.840859
O O12 0.081541 0.220532 0.317482
O O13 0.091052 0.251671 0.555044
O O14 0.125529 0.000000 0.401905
O O15 0.843302 0.233179 0.468396
O O16 0.980977 0.234472 0.296921
O O17 0.915275 0.000000 0.304276
O O18 0.062901 0.000000 0.178568
O O19 0.265482 0.500000 0.534408
O O20 0.544726 0.000000 0.707563
#
# Coordination Sequence:
#
# PCOD8052996 Si02
#       8
#     4   4   4   4   4   4   4   4
#     4  10  19  32  53  80 106 133 173 221 264 314
#     4   9  17  33  55  79 107 138 177 222 267 317
#     4   9  17  31  56  83 105 135 176 222 270 318
#     4  11  23  36  52  76 110 149 184 218 262 320
#     4   8  14  28  52  76 100 132 168 213 262 305
#     4  10  21  36  53  76 107 141 176 215 262 317
#     4   8  14  28  51  78 102 126 167 218 262 305
#     4  11  21  34  54  80 111 142 177 223 267 314
#
# _framework density 17.928868999999999
#
# number of rings (size 3 to 8) (size 9 to 14) (size 15 to 20)
#    0.000    2.500    2.500    2.250    0.000    2.000 
#    0.000    1.250    0.000    3.750    0.000    0.000 
#    0.000    0.000    0.000    0.000    0.000    0.000 
#
# Total GULP energy -198342.652582 kJ/mol
# GULP energy per Si atom -12396.415786 kJ/mol
# Density = 1.788806 g / cm^3
# Si number density = 17.928869 Si / 1000 Ang^3
#
#
#
# Elastic Constant Matrix: (Units=GPa)
#
#
# Indices 1 2 3 4 5 6 
#
# 1 119.3154 39.6034 40.9888 0.0000 -21.5390 0.0000
# 2 39.6034 48.2945 32.7273 0.0000 -1.6429 0.0000
# 3 40.9888 32.7273 67.2625 0.0000 -18.8622 0.0000
# 4 0.0000 0.0000 0.0000 28.6629 0.0000 -4.2317
# 5 -21.5390 -1.6429 -18.8622 0.0000 31.7982 0.0000
# 6 0.0000 0.0000 0.0000 -4.2317 0.0000 24.6508
#
#
#
# Elastic Compliance Matrix: (Units=1/GPa)
#
#
# Indices 1 2 3 4 5 6 
#
# 1 0.013557 -0.010097 -0.001103 0.000000 0.008007 0.000000
# 2 -0.010097 0.040601 -0.017911 0.000000 -0.015366 0.000000
# 3 -0.001103 -0.017911 0.028531 0.000000 0.015251 0.000000
# 4 0.000000 0.000000 0.000000 0.035796 0.000000 0.006145
# 5 0.008007 -0.015366 0.015251 0.000000 0.045125 0.000000
# 6 0.000000 0.000000 0.000000 0.006145 0.000000 0.041621
#
#
# Mechanical properties :
#
#
# Convention : Reuss Voigt Hill
#
# Bulk Modulus (GPa) = 40.87211 51.27904 46.07557
# Shear Modulus (GPa) = 18.40877 25.12592 21.76734
#
# Velocity S-wave (km/s) = 3.20780 3.74762 3.48817
# Velocity P-wave (km/s) = 6.04700 6.88402 6.47904
#
# Compressibility (1/GPa) = 0.02446656
#
# Stress axis : x y z
#
# Youngs Moduli (GPa) = 73.76209 24.62971 35.04961
#
# Poissons Ratio (x) = 0.24870 0.03866
# Poissons Ratio (y) = 0.74481 0.62777
# Poissons Ratio (z) = 0.08137 0.44114
#
# Static dielectric constant tensor:
#      x y z
#    x 3.649180 0.000000 -0.335090 
#    y 0.000000 3.021120 0.000000 
#    z -0.335090 0.000000 3.268740 
# 
# 
# High freq. dielectric constant tensor:
#      x y z
#    x 1.697120 0.000000 -0.025930 
#    y 0.000000 1.667150 0.000000 
#    z -0.025930 0.000000 1.681750 
# 
# From -- ./inp_files/15797.got.cif
#   From: 2010.03.12/outbox.cif.g09.slc.cpg/sg8_8_cif.got.tgz:15797.got - 2010.03.31 10:45:26.
