data_PCOD8052402
_publ_section_title
;
Structure prediction by ZEFSAII (Michael W. Deem and Ramdas Pophale) SiO2 
 PCOD8052402
Probable space group: P M
;
_chemical_formula_sum "Si O2"
_cell_formula_units_Z 16
_cell_length_a 9.131291
_cell_length_b 8.789208
_cell_length_c 21.405476
_cell_angle_alpha 90.000000
_cell_angle_beta 28.560914
_cell_angle_gamma 90.000000
_cell_volume 821.332528
_symmetry_space_group_name_H-M "P M"
_symmetry_group_IT_number 6
_symmetry_cell_setting 'monoclinic'
loop_
_space_group_symop_operation_xyz
x,y,z
x,-y,z
loop_
_atom_site_type_symbol
_atom_site_label
_atom_site_fract_x
_atom_site_fract_y
_atom_site_fract_z
Si Si1 0.950130 0.820526 0.475110
Si Si2 0.734887 0.168620 0.997646
Si Si3 0.862428 0.673852 0.761865
Si Si4 0.165473 0.675899 0.519454
Si Si5 0.216056 0.678196 0.257217
Si Si6 0.342945 0.833028 0.019651
Si Si7 0.259154 0.819936 0.717840
Si Si8 0.808426 0.180624 0.303909
O O1 0.604104 0.760675 0.595313
O O2 0.058148 0.783139 0.503990
O O3 0.166264 0.729036 0.346879
O O4 0.978966 0.000000 0.452472
O O5 0.569217 0.282284 0.107844
O O6 0.541875 0.156515 0.007110
O O7 0.760692 0.000000 0.018463
O O8 0.067013 0.233204 0.851493
O O9 0.894467 0.500000 0.769103
O O10 0.926964 0.701455 0.664991
O O11 0.114668 0.761838 0.707672
O O12 0.511461 0.724742 0.906785
O O13 0.173696 0.500000 0.495600
O O14 0.498320 0.725909 0.417652
O O15 0.159485 0.500000 0.269754
O O16 0.983014 0.772026 0.301449
O O17 0.007395 0.775200 0.167436
O O18 0.314969 0.000000 0.999355
O O19 0.246563 0.000000 0.719316
O O20 0.748918 0.000000 0.328894
#
# Coordination Sequence:
#
# PCOD8052402 Si02
#       8
#     2   2   2   2   2   2   2   2
#     4  11  23  39  57  77 104 144 186 224 267 319
#     4   8  15  31  53  79 108 136 172 221 266 313
#     4  10  20  33  54  82 110 140 174 214 267 322
#     4  11  24  39  53  77 111 144 179 224 272 319
#     4  11  21  34  55  84 113 142 176 220 270 319
#     4   8  16  31  53  80 108 136 173 219 262 307
#     4   9  19  35  57  82 106 135 177 223 265 312
#     4  10  20  36  58  83 108 141 183 223 263 315
#
# _framework density 19.480537999999999
#
# number of rings (size 3 to 8) (size 9 to 14) (size 15 to 20)
#    0.000    2.250    0.000    4.875    0.000   10.000 
#    0.000    1.250    0.000    4.500    0.000    0.000 
#    0.000    0.000    0.000    0.000    0.000    0.000 
#
# Total GULP energy -198369.444160 kJ/mol
# GULP energy per Si atom -12398.090260 kJ/mol
# Density = 1.943620 g / cm^3
# Si number density = 19.480538 Si / 1000 Ang^3
#
#
#
# Elastic Constant Matrix: (Units=GPa)
#
#
# Indices 1 2 3 4 5 6 
#
# 1 46.7569 13.9575 21.1303 0.0000 15.6095 0.0000
# 2 13.9575 57.1466 42.7944 0.0000 8.7738 0.0000
# 3 21.1303 42.7944 113.6804 0.0000 24.5633 0.0000
# 4 0.0000 0.0000 0.0000 28.8303 0.0000 6.4686
# 5 15.6095 8.7738 24.5633 0.0000 15.9393 0.0000
# 6 0.0000 0.0000 0.0000 6.4686 0.0000 23.1430
#
#
#
# Elastic Compliance Matrix: (Units=1/GPa)
#
#
# Indices 1 2 3 4 5 6 
#
# 1 0.032972 -0.005221 0.003287 0.000000 -0.034482 0.000000
# 2 -0.005221 0.025207 -0.009933 0.000000 0.006544 0.000000
# 3 0.003287 -0.009933 0.017149 0.000000 -0.024180 0.000000
# 4 0.000000 0.000000 0.000000 0.037006 0.000000 -0.010344
# 5 -0.034482 0.006544 -0.024180 0.000000 0.130166 0.000000
# 6 0.000000 0.000000 0.000000 -0.010344 0.000000 0.046101
#
#
# Mechanical properties :
#
#
# Convention : Reuss Voigt Hill
#
# Bulk Modulus (GPa) = 19.38146 41.48315 30.43230
# Shear Modulus (GPa) = 15.17299 22.89597 19.03448
#
# Velocity S-wave (km/s) = 2.79387 3.43202 3.12926
# Velocity P-wave (km/s) = 4.51424 6.08654 5.35837
#
# Compressibility (1/GPa) = 0.05159571
#
# Stress axis : x y z
#
# Youngs Moduli (GPa) = 30.32922 39.67086 58.31130
#
# Poissons Ratio (x) = 0.20711 -0.19168
# Poissons Ratio (y) = 0.15834 0.57920
# Poissons Ratio (z) = -0.09970 0.39404
#
# Static dielectric constant tensor:
#      x y z
#    x 3.108450 0.000000 -0.020460 
#    y 0.000000 3.533180 0.000000 
#    z -0.020460 0.000000 4.249050 
# 
# 
# High freq. dielectric constant tensor:
#      x y z
#    x 1.715760 0.000000 0.007510 
#    y 0.000000 1.758180 0.000000 
#    z 0.007510 0.000000 1.780680 
# 
# From -- ./inp_files/4283.got.cif
#   From: 2010.03.12/outbox.cif.g09.slc.cpg/sg6_3_cif.got.tgz:4283.got - 2010.03.30 10:24:59.
