data_PCOD8052932
_publ_section_title
;
Structure prediction by ZEFSAII (Michael W. Deem and Ramdas Pophale) SiO2 
 PCOD8052932
Probable space group: C M
;
_chemical_formula_sum "Si O2"
_cell_formula_units_Z 32
_cell_length_a 18.454909
_cell_length_b 13.625349
_cell_length_c 6.617142
_cell_angle_alpha 90.000000
_cell_angle_beta 90.929330
_cell_angle_gamma 90.000000
_cell_volume 1663.691766
_symmetry_space_group_name_H-M "C M"
_symmetry_group_IT_number 8
_symmetry_cell_setting 'monoclinic'
loop_
_space_group_symop_operation_xyz
x,y,z
x,-y,z
1/2+x,1/2+y,z
1/2+x,1/2-y,z
loop_
_atom_site_type_symbol
_atom_site_label
_atom_site_fract_x
_atom_site_fract_y
_atom_site_fract_z
Si Si1 0.683130 0.218347 0.895140
Si Si2 0.334623 0.890554 0.012333
Si Si3 0.220386 0.187781 0.290395
Si Si4 0.975660 0.762284 0.624172
Si Si5 0.044040 0.392292 0.889274
Si Si6 0.967545 0.609837 0.274714
Si Si7 0.616927 0.615510 0.621145
Si Si8 0.814648 0.755535 0.663168
O O1 0.625990 0.135022 0.835202
O O2 0.659485 0.322878 0.793897
O O3 0.759271 0.181131 0.799882
O O4 0.688599 0.228613 0.138500
O O5 0.261103 0.886628 0.140659
O O6 0.398887 0.845672 0.150570
O O7 0.357010 0.000000 0.961042
O O8 0.326941 0.843387 0.791469
O O9 0.155294 0.134279 0.406070
O O10 0.278476 0.234700 0.445882
O O11 0.988262 0.687346 0.443289
O O12 0.893567 0.805824 0.631756
O O13 0.989722 0.693676 0.818200
O O14 0.032558 0.851545 0.608048
O O15 0.027053 0.500000 0.793099
O O16 0.036401 0.397366 0.130062
O O17 0.950492 0.500000 0.361168
O O18 0.620242 0.500000 0.674194
#
# Coordination Sequence:
#
# PCOD8052932 Si02
#       8
#     4   4   4   4   4   4   4   4
#     4   9  21  37  55  78 105 140 178 215 260 310
#     4  10  19  29  47  78 110 134 165 209 262 320
#     4  10  19  35  54  75 105 139 174 213 267 308
#     4  11  20  35  55  79 109 140 172 215 266 311
#     4  10  20  36  56  79 108 138 173 217 261 313
#     4  10  19  30  50  82 109 134 165 205 264 322
#     4  10  22  37  54  76 105 142 183 219 253 303
#     4  10  20  33  52  79 105 139 172 213 263 311
#
# _framework density 19.234331000000001
#
# number of rings (size 3 to 8) (size 9 to 14) (size 15 to 20)
#    0.000    2.000    2.500    1.500    0.000    6.000 
#    0.000    0.625    0.000    0.750    0.000    0.000 
#    0.000    0.000    0.000    0.000    0.000    0.000 
#
# Total GULP energy -198243.012226 kJ/mol
# GULP energy per Si atom -12390.188264 kJ/mol
# Density = 1.919055 g / cm^3
# Si number density = 19.234331 Si / 1000 Ang^3
#
#
#
# Elastic Constant Matrix: (Units=GPa)
#
#
# Indices 1 2 3 4 5 6 
#
# 1 131.4911 24.4141 20.1301 0.0000 -15.2981 0.0000
# 2 24.4141 41.8491 13.1531 0.0000 -7.8770 0.0000
# 3 20.1301 13.1531 86.9228 0.0000 1.5715 0.0000
# 4 0.0000 0.0000 0.0000 16.1933 0.0000 3.7239
# 5 -15.2981 -7.8770 1.5715 0.0000 29.2205 0.0000
# 6 0.0000 0.0000 0.0000 3.7239 0.0000 14.3236
#
#
#
# Elastic Compliance Matrix: (Units=1/GPa)
#
#
# Indices 1 2 3 4 5 6 
#
# 1 0.009031 -0.004086 -0.001540 0.000000 0.003709 0.000000
# 2 -0.004086 0.028443 -0.003461 0.000000 0.005714 0.000000
# 3 -0.001540 -0.003461 0.012428 0.000000 -0.002408 0.000000
# 4 0.000000 0.000000 0.000000 0.065681 0.000000 -0.017076
# 5 0.003709 0.005714 -0.002408 0.000000 0.037834 0.000000
# 6 0.000000 0.000000 0.000000 -0.017076 0.000000 0.074254
#
#
# Mechanical properties :
#
#
# Convention : Reuss Voigt Hill
#
# Bulk Modulus (GPa) = 31.51865 41.73972 36.62919
# Shear Modulus (GPa) = 19.49907 25.45185 22.47546
#
# Velocity S-wave (km/s) = 3.18742 3.64160 3.42205
# Velocity P-wave (km/s) = 5.47434 6.27928 5.89058
#
# Compressibility (1/GPa) = 0.03172725
#
# Stress axis : x y z
#
# Youngs Moduli (GPa) = 110.72782 35.15861 80.46104
#
# Poissons Ratio (x) = 0.14367 0.12393
# Poissons Ratio (y) = 0.45247 0.27847
# Poissons Ratio (z) = 0.17054 0.12168
#
# Static dielectric constant tensor:
#      x y z
#    x 3.827570 0.000000 -0.024260 
#    y 0.000000 3.100850 0.000000 
#    z -0.024260 0.000000 3.600610 
# 
# 
# High freq. dielectric constant tensor:
#      x y z
#    x 1.764870 0.000000 -0.005170 
#    y 0.000000 1.694150 0.000000 
#    z -0.005170 0.000000 1.756450 
# 
# From -- ./inp_files/4972.got.cif
#   From: 2010.03.12/outbox.cif.g09.slc.cpg/sg8_3_cif.got.tgz:4972.got - 2010.03.31 10:45:26.
