data_PCOD8052297
_publ_section_title
;
Structure prediction by ZEFSAII (Michael W. Deem and Ramdas Pophale) SiO2 
 PCOD8052297
Probable space group: P M
;
_chemical_formula_sum "Si O2"
_cell_formula_units_Z 14
_cell_length_a 5.624856
_cell_length_b 13.234221
_cell_length_c 9.261054
_cell_angle_alpha 90.000000
_cell_angle_beta 102.785560
_cell_angle_gamma 90.000000
_cell_volume 672.304779
_symmetry_space_group_name_H-M "P M"
_symmetry_group_IT_number 6
_symmetry_cell_setting 'monoclinic'
loop_
_space_group_symop_operation_xyz
x,y,z
x,-y,z
loop_
_atom_site_type_symbol
_atom_site_label
_atom_site_fract_x
_atom_site_fract_y
_atom_site_fract_z
Si Si1 0.956260 0.113295 0.958090
Si Si2 0.869604 0.612603 0.771849
Si Si3 0.731945 0.613690 0.085733
Si Si4 0.600500 0.195988 0.697526
Si Si5 0.302831 0.271930 0.909954
Si Si6 0.421594 0.881542 0.376127
Si Si7 0.869522 0.807888 0.237734
O O1 0.829019 0.130294 0.785689
O O2 0.170377 0.195404 0.001445
O O3 0.058484 0.000000 0.979381
O O4 0.789215 0.137335 0.076536
O O5 0.833223 0.500000 0.704048
O O6 0.681998 0.688881 0.667693
O O7 0.141712 0.653520 0.786903
O O8 0.841979 0.616649 0.940723
O O9 0.730145 0.500000 0.148335
O O10 0.878312 0.686114 0.215609
O O11 0.460169 0.657451 0.035756
O O12 0.431026 0.198963 0.813824
O O13 0.471538 0.139749 0.550404
O O14 0.652259 0.833519 0.321202
O O15 0.146101 0.840925 0.314327
O O16 0.420146 0.000000 0.343804
#
# Coordination Sequence:
#
# PCOD8052297 Si02
#       7
#     2   2   2   2   2   2   2
#     4  11  22  38  64  95 127 168 226 287 328 379
#     4   9  18  35  64  98 127 164 213 276 336 383
#     4  10  20  38  65  97 130 169 213 275 340 392
#     4  10  23  41  63  92 129 171 224 273 322 403
#     4  10  18  37  63  99 127 163 221 281 320 394
#     4  12  28  47  67  93 139 189 217 266 342 399
#     4  12  25  46  66 100 135 170 230 274 328 400
#
# _framework density 20.823889000000001
#
# number of rings (size 3 to 8) (size 9 to 14) (size 15 to 20)
#    0.000    1.429    4.286    3.000    4.000    1.714 
#    0.000    1.429    0.000    0.000    0.000    0.000 
#    0.000    0.000    0.000    0.000    0.000    0.000 
#
# Total GULP energy -173446.560940 kJ/mol
# GULP energy per Si atom -12389.040067 kJ/mol
# Density = 2.077649 g / cm^3
# Si number density = 20.823889 Si / 1000 Ang^3
#
#
#
# Elastic Constant Matrix: (Units=GPa)
#
#
# Indices 1 2 3 4 5 6 
#
# 1 100.8921 38.9747 26.8335 0.0000 12.2950 0.0000
# 2 38.9747 158.2977 33.2681 0.0000 6.2877 0.0000
# 3 26.8335 33.2681 83.6854 0.0000 13.0262 0.0000
# 4 0.0000 0.0000 0.0000 30.4908 0.0000 2.9581
# 5 12.2950 6.2877 13.0262 0.0000 18.9274 0.0000
# 6 0.0000 0.0000 0.0000 2.9581 0.0000 20.9560
#
#
#
# Elastic Compliance Matrix: (Units=1/GPa)
#
#
# Indices 1 2 3 4 5 6 
#
# 1 0.012038 -0.002306 -0.002067 0.000000 -0.005631 0.000000
# 2 -0.002306 0.007338 -0.002275 0.000000 0.000626 0.000000
# 3 -0.002067 -0.002275 0.014773 0.000000 -0.008068 0.000000
# 4 0.000000 0.000000 0.000000 0.033252 0.000000 -0.004694
# 5 -0.005631 0.000626 -0.008068 0.000000 0.061836 0.000000
# 6 0.000000 0.000000 0.000000 -0.004694 0.000000 0.048382
#
#
# Mechanical properties :
#
#
# Convention : Reuss Voigt Hill
#
# Bulk Modulus (GPa) = 47.95421 60.11419 54.03420
# Shear Modulus (GPa) = 25.26958 30.32810 27.79884
#
# Velocity S-wave (km/s) = 3.48730 3.82043 3.65766
# Velocity P-wave (km/s) = 6.26845 6.95640 6.62137
#
# Compressibility (1/GPa) = 0.02085323
#
# Stress axis : x y z
#
# Youngs Moduli (GPa) = 83.06807 136.27190 67.69269
#
# Poissons Ratio (x) = 0.31423 0.13991
# Poissons Ratio (y) = 0.19155 0.15402
# Poissons Ratio (z) = 0.17168 0.31006
#
# Static dielectric constant tensor:
#      x y z
#    x 3.958290 0.000000 0.059830 
#    y 0.000000 4.090340 0.000000 
#    z 0.059830 0.000000 3.459250 
# 
# 
# High freq. dielectric constant tensor:
#      x y z
#    x 1.822420 0.000000 0.004280 
#    y 0.000000 1.825250 0.000000 
#    z 0.004280 0.000000 1.781580 
# 
# From -- ./inp_files/2210.got.cif
#   From: 2010.03.12/outbox.cif.g09.slc.cpg/sg6_2_cif.got.tgz:2210.got - 2010.03.30 10:24:59.
