data_PCOD8052511
_publ_section_title
;
Structure prediction by ZEFSAII (Michael W. Deem and Ramdas Pophale) SiO2 
 PCOD8052511
Probable space group: P M
;
_chemical_formula_sum "Si O2"
_cell_formula_units_Z 16
_cell_length_a 7.230368
_cell_length_b 8.694024
_cell_length_c 11.987358
_cell_angle_alpha 90.000000
_cell_angle_beta 90.498902
_cell_angle_gamma 90.000000
_cell_volume 753.508660
_symmetry_space_group_name_H-M "P M"
_symmetry_group_IT_number 6
_symmetry_cell_setting 'monoclinic'
loop_
_space_group_symop_operation_xyz
x,y,z
x,-y,z
loop_
_atom_site_type_symbol
_atom_site_label
_atom_site_fract_x
_atom_site_fract_y
_atom_site_fract_z
Si Si1 0.406120 0.320162 0.323960
Si Si2 0.302381 0.825956 0.782117
Si Si3 0.677052 0.178183 0.150504
Si Si4 0.323008 0.823706 0.536454
Si Si5 0.873124 0.822570 0.743320
Si Si6 0.935242 0.675515 0.523671
Si Si7 0.605659 0.322391 0.916229
Si Si8 0.986738 0.322109 0.278828
O O1 0.419024 0.500000 0.348379
O O2 0.539828 0.278306 0.224299
O O3 0.463525 0.230314 0.439121
O O4 0.199249 0.268968 0.287608
O O5 0.405009 0.807754 0.662005
O O6 0.086848 0.785054 0.770373
O O7 0.399182 0.713285 0.870673
O O8 0.326871 0.000000 0.825187
O O9 0.887761 0.219590 0.184375
O O10 0.637931 0.000000 0.170199
O O11 0.648238 0.217438 0.021930
O O12 0.152983 0.707399 0.526502
O O13 0.258394 0.000000 0.517328
O O14 0.831268 0.783511 0.612936
O O15 0.752219 0.715784 0.821317
O O16 0.823533 0.000000 0.764146
O O17 0.899634 0.500000 0.558484
O O18 0.874482 0.704425 0.395021
O O19 0.618690 0.500000 0.949918
O O20 0.976325 0.500000 0.243595
#
# Coordination Sequence:
#
# PCOD8052511 Si02
#       8
#     2   2   2   2   2   2   2   2
#     4  10  21  39  63  89 120 155 192 239 290 344
#     4   9  20  39  62  88 119 154 192 237 288 342
#     4  12  26  42  61  84 114 153 198 246 291 344
#     4   9  17  32  57  89 122 154 190 234 286 345
#     4  10  21  39  63  89 120 155 192 239 290 344
#     4   9  17  32  57  89 122 154 190 234 286 345
#     4  12  26  42  61  84 114 153 198 246 291 344
#     4   9  20  39  62  88 119 154 192 237 288 342
#
# _framework density 21.233995
#
# number of rings (size 3 to 8) (size 9 to 14) (size 15 to 20)
#    0.000    2.000    0.000    5.250    0.000    8.000 
#    0.000    0.000    0.000    0.000    0.000    0.000 
#    0.000    0.000    0.000    0.000    0.000    0.000 
#
# Total GULP energy -198393.831697 kJ/mol
# GULP energy per Si atom -12399.614481 kJ/mol
# Density = 2.118567 g / cm^3
# Si number density = 21.233995 Si / 1000 Ang^3
#
#
#
# Elastic Constant Matrix: (Units=GPa)
#
#
# Indices 1 2 3 4 5 6 
#
# 1 31.0536 16.7909 1.9049 0.0000 1.3283 0.0000
# 2 16.7909 79.4115 15.0583 0.0000 14.4643 0.0000
# 3 1.9049 15.0583 70.3478 0.0000 10.0955 0.0000
# 4 0.0000 0.0000 0.0000 38.4283 0.0000 -0.0833
# 5 1.3283 14.4643 10.0955 0.0000 30.9857 0.0000
# 6 0.0000 0.0000 0.0000 -0.0833 0.0000 30.7722
#
#
#
# Elastic Compliance Matrix: (Units=1/GPa)
#
#
# Indices 1 2 3 4 5 6 
#
# 1 0.036513 -0.008192 0.000462 0.000000 0.002108 0.000000
# 2 -0.008192 0.015910 -0.002275 0.000000 -0.006335 0.000000
# 3 0.000462 -0.002275 0.015253 0.000000 -0.003928 0.000000
# 4 0.000000 0.000000 0.000000 0.026023 0.000000 0.000070
# 5 0.002108 -0.006335 -0.003928 0.000000 0.036419 0.000000
# 6 0.000000 0.000000 0.000000 0.000070 0.000000 0.032497
#
#
# Mechanical properties :
#
#
# Convention : Reuss Voigt Hill
#
# Bulk Modulus (GPa) = 20.97875 27.59124 24.28499
# Shear Modulus (GPa) = 25.18722 29.84117 27.51420
#
# Velocity S-wave (km/s) = 3.44782 3.75287 3.60357
# Velocity P-wave (km/s) = 5.07457 5.63922 5.36433
#
# Compressibility (1/GPa) = 0.04766729
#
# Stress axis : x y z
#
# Youngs Moduli (GPa) = 27.38727 62.85392 65.56036
#
# Poissons Ratio (x) = 0.51490 -0.03031
# Poissons Ratio (y) = 0.22436 0.14913
# Poissons Ratio (z) = -0.01266 0.14297
#
# Static dielectric constant tensor:
#      x y z
#    x 3.645810 0.000000 0.015920 
#    y 0.000000 3.709270 0.000000 
#    z 0.015920 0.000000 3.947790 
# 
# 
# High freq. dielectric constant tensor:
#      x y z
#    x 1.820920 0.000000 0.000430 
#    y 0.000000 1.833020 0.000000 
#    z 0.000430 0.000000 1.833940 
# 
# From -- ./inp_files/4564.got.cif
#   From: 2010.03.12/outbox.cif.g09.slc.cpg/sg6_3_cif.got.tgz:4564.got - 2010.03.30 10:24:59.
