data_PCOD8052221
_publ_section_title
;
Structure prediction by ZEFSAII (Michael W. Deem and Ramdas Pophale) SiO2 
 PCOD8052221
Probable space group: P M
;
_chemical_formula_sum "Si O2"
_cell_formula_units_Z 16
_cell_length_a 11.535576
_cell_length_b 8.592577
_cell_length_c 17.637250
_cell_angle_alpha 90.000000
_cell_angle_beta 29.084097
_cell_angle_gamma 90.000000
_cell_volume 849.792337
_symmetry_space_group_name_H-M "P M"
_symmetry_group_IT_number 6
_symmetry_cell_setting 'monoclinic'
loop_
_space_group_symop_operation_xyz
x,y,z
x,-y,z
loop_
_atom_site_type_symbol
_atom_site_label
_atom_site_fract_x
_atom_site_fract_y
_atom_site_fract_z
Si Si1 0.510990 0.326276 0.325770
Si Si2 0.140672 0.672912 0.674291
Si Si3 0.868373 0.179952 0.222745
Si Si4 0.697974 0.180701 0.611353
Si Si5 0.780155 0.182447 0.783995
Si Si6 0.384039 0.682744 0.922763
Si Si7 0.568415 0.317351 0.527287
Si Si8 0.090192 0.316615 0.472248
O O1 0.615775 0.500000 0.255147
O O2 0.316528 0.326827 0.502844
O O3 0.726536 0.211898 0.224753
O O4 0.368955 0.273413 0.330044
O O5 0.043440 0.500000 0.745284
O O6 0.299508 0.730361 0.654906
O O7 0.906859 0.780267 0.792624
O O8 0.758921 0.281859 0.352836
O O9 0.845871 0.000000 0.256787
O O10 0.138936 0.225944 0.055041
O O11 0.536846 0.281149 0.760368
O O12 0.627778 0.215251 0.565886
O O13 0.978036 0.227933 0.463615
O O14 0.661035 0.000000 0.650209
O O15 0.516403 0.255683 0.923813
O O16 0.937445 0.265284 0.631242
O O17 0.767372 0.000000 0.778002
O O18 0.337139 0.500000 0.956139
O O19 0.582708 0.500000 0.537795
O O20 0.063676 0.500000 0.475445
#
# Coordination Sequence:
#
# PCOD8052221 Si02
#       8
#     2   2   2   2   2   2   2   2
#     4   8  15  28  46  69  96 128 165 202 242 292
#     4   8  15  28  46  68  95 127 164 202 240 289
#     4  11  21  33  51  77 105 131 165 210 255 294
#     4  11  21  33  51  77 105 131 166 211 255 294
#     4  10  17  26  44  71  99 124 159 207 252 289
#     4  11  21  35  53  72 100 137 172 204 246 302
#     4  10  20  35  53  74 102 137 172 202 243 301
#     4   9  16  28  46  68  96 129 165 202 243 293
#
# _framework density 18.828129000000001
#
# number of rings (size 3 to 8) (size 9 to 14) (size 15 to 20)
#    0.000    2.250    0.000    8.250    0.000    5.500 
#    0.000    0.000    0.000    1.500    0.000    1.750 
#    0.000    0.000    0.000    0.000    0.000    0.000 
#
# Total GULP energy -198263.938518 kJ/mol
# GULP energy per Si atom -12391.496157 kJ/mol
# Density = 1.878528 g / cm^3
# Si number density = 18.828129 Si / 1000 Ang^3
#
#
#
# Elastic Constant Matrix: (Units=GPa)
#
#
# Indices 1 2 3 4 5 6 
#
# 1 128.2254 29.2258 35.6897 0.0000 -38.6261 0.0000
# 2 29.2258 97.7746 11.9668 0.0000 -17.4479 0.0000
# 3 35.6897 11.9668 52.0706 0.0000 -28.0060 0.0000
# 4 0.0000 0.0000 0.0000 18.1958 0.0000 -2.5327
# 5 -38.6261 -17.4479 -28.0060 0.0000 32.2500 0.0000
# 6 0.0000 0.0000 0.0000 -2.5327 0.0000 24.4734
#
#
#
# Elastic Compliance Matrix: (Units=1/GPa)
#
#
# Indices 1 2 3 4 5 6 
#
# 1 0.012352 -0.001204 -0.001094 0.000000 0.013193 0.000000
# 2 -0.001204 0.011485 0.001411 0.000000 0.005997 0.000000
# 3 -0.001094 0.001411 0.036282 0.000000 0.030962 0.000000
# 4 0.000000 0.000000 0.000000 0.055761 0.000000 0.005771
# 5 0.013193 0.005997 0.030962 0.000000 0.076940 0.000000
# 6 0.000000 0.000000 0.000000 0.005771 0.000000 0.041458
#
#
# Mechanical properties :
#
#
# Convention : Reuss Voigt Hill
#
# Bulk Modulus (GPa) = 17.13898 47.98168 32.56033
# Shear Modulus (GPa) = 19.56949 28.39639 23.98294
#
# Velocity S-wave (km/s) = 3.22743 3.88776 3.57288
# Velocity P-wave (km/s) = 4.79698 6.75960 5.86103
#
# Compressibility (1/GPa) = 0.05834652
#
# Stress axis : x y z
#
# Youngs Moduli (GPa) = 80.96062 87.07054 27.56151
#
# Poissons Ratio (x) = 0.10483 0.03014
# Poissons Ratio (y) = 0.09747 -0.03890
# Poissons Ratio (z) = 0.08854 -0.12288
#
# Static dielectric constant tensor:
#      x y z
#    x 4.161560 0.000000 -0.749620 
#    y 0.000000 3.500820 0.000000 
#    z -0.749620 0.000000 3.152770 
# 
# 
# High freq. dielectric constant tensor:
#      x y z
#    x 1.736900 0.000000 -0.050390 
#    y 0.000000 1.738350 0.000000 
#    z -0.050390 0.000000 1.679600 
# 
# From -- ./inp_files/5916.got.cif
#   From: 2010.03.12/outbox.cif.g09.slc.cpg/sg6_3_cif.got.tgz:5916.got - 2010.03.30 10:24:59.
