data_PCOD8052561
_publ_section_title
;
Structure prediction by ZEFSAII (Michael W. Deem and Ramdas Pophale) SiO2 
 PCOD8052561
Probable space group: P M
;
_chemical_formula_sum "Si O2"
_cell_formula_units_Z 16
_cell_length_a 19.287368
_cell_length_b 9.328612
_cell_length_c 14.294452
_cell_angle_alpha 90.000000
_cell_angle_beta 19.273136
_cell_angle_gamma 90.000000
_cell_volume 848.918471
_symmetry_space_group_name_H-M "P M"
_symmetry_group_IT_number 6
_symmetry_cell_setting 'monoclinic'
loop_
_space_group_symop_operation_xyz
x,y,z
x,-y,z
loop_
_atom_site_type_symbol
_atom_site_label
_atom_site_fract_x
_atom_site_fract_y
_atom_site_fract_z
Si Si1 0.719100 0.157759 0.234380
Si Si2 0.289050 0.157902 0.670624
Si Si3 0.907830 0.668510 0.839442
Si Si4 0.480800 0.832147 0.717595
Si Si5 0.495599 0.668990 0.256855
Si Si6 0.058650 0.832105 0.145723
Si Si7 0.369843 0.669627 0.215070
Si Si8 0.633450 0.328489 0.702809
O O1 0.503825 0.150799 0.452983
O O2 0.663958 0.207790 0.409844
O O3 0.822710 0.000000 0.104445
O O4 0.878628 0.265075 0.980106
O O5 0.309128 0.265123 0.557802
O O6 0.233088 0.000000 0.703043
O O7 0.112003 0.208249 0.969917
O O8 0.905798 0.500000 0.857259
O O9 0.128184 0.721986 0.515878
O O10 0.724415 0.717837 0.002274
O O11 0.517507 0.733780 0.760206
O O12 0.495872 0.000000 0.724549
O O13 0.251873 0.795523 0.967961
O O14 0.466994 0.500000 0.299231
O O15 0.473269 0.726594 0.179684
O O16 0.864940 0.734299 0.422766
O O17 0.000775 0.000000 0.226220
O O18 0.377331 0.500000 0.205880
O O19 0.499130 0.727431 0.962409
O O20 0.643641 0.500000 0.683327
#
# Coordination Sequence:
#
# PCOD8052561 Si02
#       8
#     2   2   2   2   2   2   2   2
#     4   8  15  30  52  77 103 129 160 202 255 312
#     4   8  15  30  52  77 103 129 160 202 255 312
#     4   9  17  31  52  74  98 130 164 202 250 303
#     4   9  19  37  58  78 106 143 175 210 263 320
#     4   9  17  31  52  74  98 130 164 202 250 303
#     4   9  19  37  58  78 106 143 175 210 263 320
#     4   9  20  36  49  68 100 135 172 209 250 303
#     4  11  23  36  53  78 106 139 182 227 262 301
#
# _framework density 18.84751
#
# number of rings (size 3 to 8) (size 9 to 14) (size 15 to 20)
#    0.000    3.000    0.000    1.875    0.000    3.500 
#    0.000   10.625    0.000    3.000    0.000    0.000 
#    0.000    0.000    0.000    0.000    0.000    0.000 
#
# Total GULP energy -198326.307831 kJ/mol
# GULP energy per Si atom -12395.394239 kJ/mol
# Density = 1.880461 g / cm^3
# Si number density = 18.847510 Si / 1000 Ang^3
#
#
#
# Elastic Constant Matrix: (Units=GPa)
#
#
# Indices 1 2 3 4 5 6 
#
# 1 85.1111 27.5385 11.0940 0.0000 16.1932 0.0000
# 2 27.5385 48.9432 25.5071 0.0000 8.2441 0.0000
# 3 11.0940 25.5071 63.9360 0.0000 16.2649 0.0000
# 4 0.0000 0.0000 0.0000 16.2375 0.0000 -6.2693
# 5 16.1932 8.2441 16.2649 0.0000 32.7239 0.0000
# 6 0.0000 0.0000 0.0000 -6.2693 0.0000 16.4960
#
#
#
# Elastic Compliance Matrix: (Units=1/GPa)
#
#
# Indices 1 2 3 4 5 6 
#
# 1 0.015606 -0.008999 0.002598 0.000000 -0.006747 0.000000
# 2 -0.008999 0.031056 -0.011414 0.000000 0.002302 0.000000
# 3 0.002598 -0.011414 0.022138 0.000000 -0.009414 0.000000
# 4 0.000000 0.000000 0.000000 0.072177 0.000000 0.027431
# 5 -0.006747 0.002302 -0.009414 0.000000 0.037996 0.000000
# 6 0.000000 0.000000 0.000000 0.027431 0.000000 0.071046
#
#
# Mechanical properties :
#
#
# Convention : Reuss Voigt Hill
#
# Bulk Modulus (GPa) = 30.14612 36.25216 33.19914
# Shear Modulus (GPa) = 16.85183 22.01486 19.43335
#
# Velocity S-wave (km/s) = 2.99342 3.42138 3.21453
# Velocity P-wave (km/s) = 5.28932 5.90627 5.60629
#
# Compressibility (1/GPa) = 0.03317176
#
# Stress axis : x y z
#
# Youngs Moduli (GPa) = 64.07847 32.20034 45.17107
#
# Poissons Ratio (x) = 0.28976 -0.11737
# Poissons Ratio (y) = 0.57661 0.51557
# Poissons Ratio (z) = -0.16650 0.36753
#
# Static dielectric constant tensor:
#      x y z
#    x 3.552080 0.000000 0.120900 
#    y 0.000000 3.413160 0.000000 
#    z 0.120900 0.000000 3.693000 
# 
# 
# High freq. dielectric constant tensor:
#      x y z
#    x 1.732970 0.000000 -0.001290 
#    y 0.000000 1.710580 0.000000 
#    z -0.001290 0.000000 1.733260 
# 
# From -- ./inp_files/3768.got.cif
#   From: 2010.03.12/outbox.cif.g09.slc.cpg/sg6_2_cif.got.tgz:3768.got - 2010.03.30 10:24:59.
