data_PCOD8052208
_publ_section_title
;
Structure prediction by ZEFSAII (Michael W. Deem and Ramdas Pophale) SiO2 
 PCOD8052208
Probable space group: C 2
;
_chemical_formula_sum "Si O2"
_cell_formula_units_Z 20
_cell_length_a 12.181234
_cell_length_b 8.457083
_cell_length_c 6.741357
_cell_angle_alpha 90.000000
_cell_angle_beta 90.373223
_cell_angle_gamma 90.000000
_cell_volume 694.464406
_symmetry_space_group_name_H-M "C 2"
_symmetry_group_IT_number 5
_symmetry_cell_setting 'monoclinic'
loop_
_space_group_symop_operation_xyz
x,y,z
-x,y,-z
1/2+x,1/2+y,z
1/2-x,1/2+y,-z
loop_
_atom_site_type_symbol
_atom_site_label
_atom_site_fract_x
_atom_site_fract_y
_atom_site_fract_z
Si Si1 0.735615 0.038620 0.671652
Si Si2 0.026550 0.358535 0.771884
Si Si3 0.674928 0.054947 0.240627
Si Si4 0.666707 0.321501 0.930835
Si Si5 0.981686 0.998835 0.715099
O O1 0.754104 0.065689 0.434665
O O2 0.692455 0.203981 0.751631
O O3 0.852298 0.988529 0.775665
O O4 0.650318 0.900113 0.717178
O O5 0.937587 0.478050 0.673046
O O6 0.011963 0.181758 0.699758
O O7 0.000000 0.378412 0.000000
O O8 0.652909 0.225004 0.138688
O O9 0.732144 0.947232 0.069642
O O10 0.553205 0.411050 0.881443
O O11 0.000000 0.920154 0.500000
#
# Coordination Sequence:
#
# PCOD8052208 Si02
#       5
#     4   4   4   4   4
#     4  12  28  59  91 122 178 232 296 365 452 525
#     4  12  28  58  85 127 176 227 296 373 441 527
#     4  12  28  58  90 129 180 233 293 373 445 533
#     4  12  30  56  87 133 175 235 300 365 442 535
#     4  12  28  57  90 128 172 234 298 365 449 534
#
# _framework density 28.799171000000001
#
# number of rings (size 3 to 8) (size 9 to 14) (size 15 to 20)
#    0.000    0.000    6.000    1.800    2.800    3.200 
#   21.600    0.000    0.000    0.000    0.000    0.000 
#    0.000    0.000    0.000    0.000    0.000    0.000 
#
# Total GULP energy -124066.248377 kJ/mol
# GULP energy per Si atom -12406.624838 kJ/mol
# Density = 2.873362 g / cm^3
# Si number density = 28.799171 Si / 1000 Ang^3
#
#
#
# Elastic Constant Matrix: (Units=GPa)
#
#
# Indices 1 2 3 4 5 6 
#
# 1 239.7259 81.0888 63.8069 0.0000 8.2799 0.0000
# 2 81.0888 168.8842 52.5130 0.0000 10.5145 0.0000
# 3 63.8069 52.5130 123.8422 0.0000 13.2357 0.0000
# 4 0.0000 0.0000 0.0000 24.0948 0.0000 -5.8696
# 5 8.2799 10.5145 13.2357 0.0000 58.6316 0.0000
# 6 0.0000 0.0000 0.0000 -5.8696 0.0000 48.5214
#
#
#
# Elastic Compliance Matrix: (Units=1/GPa)
#
#
# Indices 1 2 3 4 5 6 
#
# 1 0.005349 -0.001973 -0.001923 0.000000 0.000032 0.000000
# 2 -0.001973 0.007567 -0.002129 0.000000 -0.000598 0.000000
# 3 -0.001923 -0.002129 0.010143 0.000000 -0.001636 0.000000
# 4 0.000000 0.000000 0.000000 0.042763 0.000000 0.005173
# 5 0.000032 -0.000598 -0.001636 0.000000 0.017528 0.000000
# 6 0.000000 0.000000 0.000000 0.005173 0.000000 0.021235
#
#
# Mechanical properties :
#
#
# Convention : Reuss Voigt Hill
#
# Bulk Modulus (GPa) = 90.81577 103.02999 96.92288
# Shear Modulus (GPa) = 41.56104 48.58580 45.07342
#
# Velocity S-wave (km/s) = 3.80298 4.11183 3.96042
# Velocity P-wave (km/s) = 7.13345 7.64172 7.39196
#
# Compressibility (1/GPa) = 0.01101130
#
# Stress axis : x y z
#
# Youngs Moduli (GPa) = 186.93610 132.14566 98.58831
#
# Poissons Ratio (x) = 0.26066 0.18961
# Poissons Ratio (y) = 0.36873 0.20986
# Poissons Ratio (z) = 0.35952 0.28129
#
# Static dielectric constant tensor:
#      x y z
#    x 5.577070 0.000000 0.182830 
#    y 0.000000 5.304580 0.000000 
#    z 0.182830 0.000000 5.429150 
# 
# 
# High freq. dielectric constant tensor:
#      x y z
#    x 2.183870 0.000000 -0.006990 
#    y 0.000000 2.176810 0.000000 
#    z -0.006990 0.000000 2.206850 
# 
# From -- ./inp_files/18299.got.cif
#   From: 2010.03.12/outbox.cif.g09.slc.cpg/sg5_10_cif.got.tgz:18299.got - 2010.03.31 09:47:26.
