data_PCOD8052071
_publ_section_title
;
Structure prediction by ZEFSAII (Michael W. Deem and Ramdas Pophale) SiO2 
 PCOD8052071
Probable space group: C 2
;
_chemical_formula_sum "Si O2"
_cell_formula_units_Z 20
_cell_length_a 16.541379
_cell_length_b 6.908207
_cell_length_c 7.865720
_cell_angle_alpha 90.000000
_cell_angle_beta 103.179415
_cell_angle_gamma 90.000000
_cell_volume 875.151535
_symmetry_space_group_name_H-M "C 2"
_symmetry_group_IT_number 5
_symmetry_cell_setting 'monoclinic'
loop_
_space_group_symop_operation_xyz
x,y,z
-x,y,-z
1/2+x,1/2+y,z
1/2-x,1/2+y,-z
loop_
_atom_site_type_symbol
_atom_site_label
_atom_site_fract_x
_atom_site_fract_y
_atom_site_fract_z
Si Si1 0.029917 0.482930 0.219659
Si Si2 0.661478 0.477431 0.596894
Si Si3 0.500000 0.722037 0.500000
Si Si4 0.401878 0.316453 0.099943
Si Si5 0.500000 0.649157 0.000000
Si Si6 0.815713 0.730970 0.713778
O O1 0.980212 0.370039 0.339885
O O2 0.110563 0.595380 0.322194
O O3 0.961335 0.630543 0.107227
O O4 0.063093 0.307228 0.113585
O O5 0.578812 0.587963 0.501963
O O6 0.643752 0.320546 0.739055
O O7 0.730281 0.620846 0.704161
O O8 0.697760 0.386444 0.441448
O O9 0.456075 0.514616 0.119995
O O10 0.340155 0.321726 0.908533
#
# Coordination Sequence:
#
# PCOD8052071 Si02
#       6
#     4   4   2   4   2   4
#     4  12  23  44  77 103 141 191 240 297 360 423
#     4  12  28  46  73 106 150 195 239 301 363 421
#     4  12  24  44  74 102 142 198 244 288 364 434
#     4  12  25  47  76 110 142 190 247 296 355 441
#     4  12  20  44  76 108 140 178 246 290 356 424
#     4  12  26  48  68 109 150 186 243 304 352 429
#
# _framework density 22.853183999999999
#
# number of rings (size 3 to 8) (size 9 to 14) (size 15 to 20)
#    0.000    0.000    6.000    4.800    0.000    4.800 
#    0.000    0.000    0.000    0.000    0.000    0.000 
#    0.000    0.000    0.000    0.000    0.000    0.000 
#
# Total GULP energy -123937.906894 kJ/mol
# GULP energy per Si atom -12393.790689 kJ/mol
# Density = 2.280117 g / cm^3
# Si number density = 22.853184 Si / 1000 Ang^3
#
#
#
# Elastic Constant Matrix: (Units=GPa)
#
#
# Indices 1 2 3 4 5 6 
#
# 1 93.0428 28.0200 28.6175 0.0000 12.0274 0.0000
# 2 28.0200 124.1143 44.6226 0.0000 2.6395 0.0000
# 3 28.6175 44.6226 131.0704 0.0000 -4.4997 0.0000
# 4 0.0000 0.0000 0.0000 42.2328 0.0000 -7.2048
# 5 12.0274 2.6395 -4.4997 0.0000 33.9985 0.0000
# 6 0.0000 0.0000 0.0000 -7.2048 0.0000 32.3932
#
#
#
# Elastic Compliance Matrix: (Units=1/GPa)
#
#
# Indices 1 2 3 4 5 6 
#
# 1 0.012622 -0.001941 -0.002253 0.000000 -0.004613 0.000000
# 2 -0.001941 0.009523 -0.002833 0.000000 -0.000428 0.000000
# 3 -0.002253 -0.002833 0.009162 0.000000 0.002230 0.000000
# 4 0.000000 0.000000 0.000000 0.024612 0.000000 0.005474
# 5 -0.004613 -0.000428 0.002230 0.000000 0.031373 0.000000
# 6 0.000000 0.000000 0.000000 0.005474 0.000000 0.032088
#
#
# Mechanical properties :
#
#
# Convention : Reuss Voigt Hill
#
# Bulk Modulus (GPa) = 57.96336 61.19420 59.57878
# Shear Modulus (GPa) = 35.92314 38.18940 37.05627
#
# Velocity S-wave (km/s) = 3.96903 4.09231 4.03114
# Velocity P-wave (km/s) = 6.81342 7.01175 6.91330
#
# Compressibility (1/GPa) = 0.01725228
#
# Stress axis : x y z
#
# Youngs Moduli (GPa) = 79.22902 105.00956 109.14121
#
# Poissons Ratio (x) = 0.20385 0.24592
# Poissons Ratio (y) = 0.15380 0.30919
# Poissons Ratio (z) = 0.17852 0.29748
#
# Static dielectric constant tensor:
#      x y z
#    x 3.796290 0.000000 -0.032130 
#    y 0.000000 4.216050 0.000000 
#    z -0.032130 0.000000 4.546840 
# 
# 
# High freq. dielectric constant tensor:
#      x y z
#    x 1.874470 0.000000 -0.005130 
#    y 0.000000 1.915830 0.000000 
#    z -0.005130 0.000000 1.926180 
# 
# From -- ./inp_files/25972.got.cif
#   From: 2010.03.12/outbox.cif.g09.slc.cpg/sg5_13_cif.got.tgz:25972.got - 2010.03.31 09:47:26.
