data_PCOD8052669
_publ_section_title
;
Structure prediction by ZEFSAII (Michael W. Deem and Ramdas Pophale) SiO2 
 PCOD8052669
Probable space group: P C
;
_chemical_formula_sum "Si O2"
_cell_formula_units_Z 16
_cell_length_a 6.593662
_cell_length_b 16.953759
_cell_length_c 5.394505
_cell_angle_alpha 90.000000
_cell_angle_beta 77.018109
_cell_angle_gamma 90.000000
_cell_volume 587.624488
_symmetry_space_group_name_H-M "P C"
_symmetry_group_IT_number 7
_symmetry_cell_setting 'monoclinic'
loop_
_space_group_symop_operation_xyz
x,y,z
x,-y,1/2+z
loop_
_atom_site_type_symbol
_atom_site_label
_atom_site_fract_x
_atom_site_fract_y
_atom_site_fract_z
Si Si1 0.521820 0.869867 0.813980
Si Si2 0.111550 0.092895 0.664189
Si Si3 0.805575 0.545289 0.531973
Si Si4 0.439778 0.377106 0.325949
Si Si5 0.945866 0.081256 0.206579
Si Si6 0.379540 0.241324 0.980639
Si Si7 0.084699 0.669235 0.220192
Si Si8 0.725109 0.729148 0.027351
O O1 0.697998 0.937179 0.725488
O O2 0.381970 0.845911 0.611405
O O3 0.360741 0.893095 0.075052
O O4 0.678920 0.797720 0.840994
O O5 0.984670 0.127034 0.459985
O O6 0.070008 0.999852 0.708221
O O7 0.034709 0.131166 0.946109
O O8 0.870447 0.495413 0.271787
O O9 0.550298 0.557989 0.615376
O O10 0.932269 0.627535 0.461926
O O11 0.340228 0.305676 0.201526
O O12 0.245655 0.397393 0.562588
O O13 0.635446 0.352852 0.444113
O O14 0.211921 0.257267 0.808364
O O15 0.611136 0.250683 0.814213
O O16 0.963892 0.712502 0.029484
#
# Coordination Sequence:
#
# PCOD8052669 Si02
#       8
#     2   2   2   2   2   2   2   2
#     4  11  26  45  73 112 154 195 263 319 391 465
#     4  10  25  47  72 110 147 201 252 313 380 467
#     4  12  28  48  77 112 152 203 263 308 373 473
#     4  10  24  47  71 103 148 197 246 315 386 438
#     4  10  25  46  75 106 151 202 255 308 388 457
#     4  10  24  44  72 108 145 198 247 325 380 455
#     4  11  25  47  78 103 154 202 253 316 402 430
#     4  10  23  46  70 108 149 198 247 326 388 455
#
# _framework density 27.228270999999999
#
# number of rings (size 3 to 8) (size 9 to 14) (size 15 to 20)
#    0.000    1.500    1.250    0.750    8.750    9.000 
#    0.000    0.000    0.000    0.000    0.000    0.000 
#    0.000    0.000    0.000    0.000    0.000    0.000 
#
# Total GULP energy -198227.073143 kJ/mol
# GULP energy per Si atom -12389.192071 kJ/mol
# Density = 2.716630 g / cm^3
# Si number density = 27.228271 Si / 1000 Ang^3
#
#
#
# Elastic Constant Matrix: (Units=GPa)
#
#
# Indices 1 2 3 4 5 6 
#
# 1 166.9227 16.6213 56.2640 0.0000 -0.0060 0.0000
# 2 16.6213 44.5893 5.4585 0.0000 1.3848 0.0000
# 3 56.2640 5.4585 170.1315 0.0000 2.1979 0.0000
# 4 0.0000 0.0000 0.0000 25.8102 0.0000 3.0622
# 5 -0.0060 1.3848 2.1979 0.0000 56.8090 0.0000
# 6 0.0000 0.0000 0.0000 3.0622 0.0000 26.8204
#
#
#
# Elastic Compliance Matrix: (Units=1/GPa)
#
#
# Indices 1 2 3 4 5 6 
#
# 1 0.006976 -0.002331 -0.002234 0.000000 0.000144 0.000000
# 2 -0.002331 0.023310 0.000030 0.000000 -0.000570 0.000000
# 3 -0.002234 0.000030 0.006619 0.000000 -0.000257 0.000000
# 4 0.000000 0.000000 0.000000 0.039276 0.000000 -0.004484
# 5 0.000144 -0.000570 -0.000257 0.000000 0.017627 0.000000
# 6 0.000000 0.000000 0.000000 -0.004484 0.000000 0.037797
#
#
# Mechanical properties :
#
#
# Convention : Reuss Voigt Hill
#
# Bulk Modulus (GPa) = 35.92608 59.81456 47.87032
# Shear Modulus (GPa) = 33.34370 42.10788 37.72579
#
# Velocity S-wave (km/s) = 3.50322 3.93679 3.72632
# Velocity P-wave (km/s) = 5.43935 6.53299 6.01109
#
# Compressibility (1/GPa) = 0.02783493
#
# Stress axis : x y z
#
# Youngs Moduli (GPa) = 143.34896 42.90024 151.08066
#
# Poissons Ratio (x) = 0.10002 0.33753
# Poissons Ratio (y) = 0.33420 -0.00461
# Poissons Ratio (z) = 0.32025 -0.00131
#
# Static dielectric constant tensor:
#      x y z
#    x 4.986880 0.000000 -0.004160 
#    y 0.000000 4.590900 0.000000 
#    z -0.004160 0.000000 5.653470 
# 
# 
# High freq. dielectric constant tensor:
#      x y z
#    x 2.100290 0.000000 -0.007760 
#    y 0.000000 2.062270 0.000000 
#    z -0.007760 0.000000 2.118130 
# 
# From -- ./inp_files/392.got.cif
#   From: 2010.03.12/outbox.cif.g09.slc.cpg/sg7_cif.got.tgz:392.got - 2010.03.30 08:40:41.
