data_PCOD8052098
_publ_section_title
;
Structure prediction by ZEFSAII (Michael W. Deem and Ramdas Pophale) SiO2 
 PCOD8052098
Probable space group: C 2
;
_chemical_formula_sum "Si O2"
_cell_formula_units_Z 24
_cell_length_a 24.748217
_cell_length_b 4.991798
_cell_length_c 13.961558
_cell_angle_alpha 90.000000
_cell_angle_beta 138.246183
_cell_angle_gamma 90.000000
_cell_volume 1148.587999
_symmetry_space_group_name_H-M "C 2"
_symmetry_group_IT_number 5
_symmetry_cell_setting 'monoclinic'
loop_
_space_group_symop_operation_xyz
x,y,z
-x,y,-z
1/2+x,1/2+y,z
1/2-x,1/2+y,-z
loop_
_atom_site_type_symbol
_atom_site_label
_atom_site_fract_x
_atom_site_fract_y
_atom_site_fract_z
Si Si1 0.194965 0.756020 0.435633
Si Si2 0.407251 0.300333 0.884993
Si Si3 0.840463 0.291333 0.896743
Si Si4 0.195361 0.332028 0.936564
Si Si5 0.340792 0.275733 0.398340
Si Si6 0.907231 0.281072 0.385630
O O1 0.230615 0.463183 0.461550
O O2 0.130469 0.835825 0.269896
O O3 0.146525 0.755840 0.471289
O O4 0.403881 0.582449 0.935870
O O5 0.356336 0.085403 0.877278
O O6 0.500000 0.207859 0.000000
O O7 0.850866 0.294127 0.024518
O O8 0.750595 0.194421 0.749817
O O9 0.228560 0.632994 0.972302
O O10 0.129714 0.276898 0.768748
O O11 0.358738 0.575620 0.388314
O O12 0.401582 0.072640 0.426205
O O13 0.000000 0.193499 0.500000
#
# Coordination Sequence:
#
# PCOD8052098 Si02
#       6
#     4   4   4   4   4   4
#     4  12  23  40  68  95 123 169 217 256 310 383
#     4  12  26  43  64  99 133 161 210 274 318 364
#     4  12  23  42  70  93 126 172 216 255 314 385
#     4  12  23  40  68  95 123 169 217 256 310 383
#     4  12  23  42  70  93 126 172 216 255 314 385
#     4  12  26  43  64  99 133 161 210 274 318 364
#
# _framework density 20.895219999999998
#
# number of rings (size 3 to 8) (size 9 to 14) (size 15 to 20)
#    0.000    0.000    6.667    4.000    0.000    2.667 
#    0.000    0.000    0.000    0.000    0.000    0.000 
#    0.000    0.000    0.000    0.000    0.000    0.000 
#
# Total GULP energy -148936.994474 kJ/mol
# GULP energy per Si atom -12411.416206 kJ/mol
# Density = 2.084766 g / cm^3
# Si number density = 20.895220 Si / 1000 Ang^3
#
#
#
# Elastic Constant Matrix: (Units=GPa)
#
#
# Indices 1 2 3 4 5 6 
#
# 1 117.3551 20.4599 54.1592 -0.0001 -25.8161 0.0001
# 2 20.4599 86.7633 10.0410 -0.0001 -6.6377 0.0007
# 3 54.1592 10.0410 88.5691 -0.0003 -7.5388 0.0003
# 4 -0.0001 -0.0001 -0.0003 23.6860 0.0001 -1.0985
# 5 -25.8161 -6.6377 -7.5388 0.0001 37.6491 -0.0001
# 6 0.0001 0.0007 0.0003 -1.0985 -0.0001 38.4600
#
#
#
# Elastic Compliance Matrix: (Units=1/GPa)
#
#
# Indices 1 2 3 4 5 6 
#
# 1 0.014153 -0.001839 -0.007780 0.000000 0.007823 0.000000
# 2 -0.001839 0.012042 -0.000170 0.000000 0.000828 0.000000
# 3 -0.007780 -0.000170 0.015881 0.000000 -0.002185 0.000000
# 4 0.000000 0.000000 0.000000 0.042275 0.000000 0.001207
# 5 0.007823 0.000828 -0.002185 0.000000 0.031634 0.000000
# 6 0.000000 0.000000 0.000000 0.001207 0.000000 0.026036
#
#
# Mechanical properties :
#
#
# Convention : Reuss Voigt Hill
#
# Bulk Modulus (GPa) = 44.44765 51.33420 47.89092
# Shear Modulus (GPa) = 29.56844 33.82750 31.69797
#
# Velocity S-wave (km/s) = 3.76584 4.02793 3.89909
# Velocity P-wave (km/s) = 6.34244 6.80096 6.57570
#
# Compressibility (1/GPa) = 0.02249838
#
# Stress axis : x y z
#
# Youngs Moduli (GPa) = 70.65570 83.04089 62.96638
#
# Poissons Ratio (x) = 0.15268 0.48989
# Poissons Ratio (y) = 0.12991 0.01073
# Poissons Ratio (z) = 0.54972 0.01415
#
# Static dielectric constant tensor:
#      x y z
#    x 3.792760 0.000000 -0.275010 
#    y 0.000000 3.837990 0.000000 
#    z -0.275010 0.000000 3.664520 
# 
# 
# High freq. dielectric constant tensor:
#      x y z
#    x 1.827230 0.000000 -0.018560 
#    y 0.000000 1.834140 0.000000 
#    z -0.018560 0.000000 1.810860 
# 
# From -- ./inp_files/57408.got.cif
#   From: 2010.03.12/outbox.cif.g09.slc.cpg/sg5_29_cif.got.tgz:57408.got - 2010.03.31 09:47:26.
