data_PCOD8052868
_publ_section_title
;
Structure prediction by ZEFSAII (Michael W. Deem and Ramdas Pophale) SiO2 
 PCOD8052868
Probable space group: C M
;
_chemical_formula_sum "Si O2"
_cell_formula_units_Z 32
_cell_length_a 15.359632
_cell_length_b 9.133351
_cell_length_c 26.072466
_cell_angle_alpha 90.000000
_cell_angle_beta 27.285855
_cell_angle_gamma 90.000000
_cell_volume 1676.742035
_symmetry_space_group_name_H-M "C M"
_symmetry_group_IT_number 8
_symmetry_cell_setting 'monoclinic'
loop_
_space_group_symop_operation_xyz
x,y,z
x,-y,z
1/2+x,1/2+y,z
1/2+x,1/2-y,z
loop_
_atom_site_type_symbol
_atom_site_label
_atom_site_fract_x
_atom_site_fract_y
_atom_site_fract_z
Si Si1 0.195140 0.667455 0.730680
Si Si2 0.532851 0.169169 0.709457
Si Si3 0.279898 0.674175 0.113564
Si Si4 0.312864 0.170372 0.491980
Si Si5 0.121023 0.831020 0.484701
Si Si6 0.147655 0.173570 0.860248
Si Si7 0.911174 0.172340 0.262723
Si Si8 0.728810 0.171746 0.254214
O O1 0.199428 0.500000 0.747697
O O2 0.399760 0.710375 0.600559
O O3 0.136939 0.768084 0.808325
O O4 0.039451 0.690651 0.767483
O O5 0.710688 0.251264 0.592278
O O6 0.334756 0.232947 0.791513
O O7 0.553039 0.000000 0.684164
O O8 0.258405 0.500000 0.121909
O O9 0.298745 0.730585 0.162398
O O10 0.096067 0.743618 0.184116
O O11 0.465051 0.730790 0.986831
O O12 0.199217 0.202762 0.499879
O O13 0.523337 0.239018 0.376035
O O14 0.319208 0.000000 0.501917
O O15 0.224931 0.726920 0.389931
O O16 0.156348 0.000000 0.450928
O O17 0.148892 0.000000 0.857743
O O18 0.882556 0.209104 0.217407
O O19 0.935371 0.000000 0.259365
O O20 0.697517 0.000000 0.265640
#
# Coordination Sequence:
#
# PCOD8052868 Si02
#       8
#     4   4   4   4   4   4   4   4
#     4  10  21  37  58  84 115 148 180 222 278 329
#     4  10  21  36  55  84 115 144 180 226 276 323
#     4  10  21  41  60  75 107 152 189 224 275 336
#     4  10  18  33  58  83 109 148 184 215 268 334
#     4  10  19  34  57  83 114 152 180 211 275 341
#     4  10  22  38  58  81 107 146 191 231 272 321
#     4  11  22  35  57  88 112 139 184 235 275 315
#     4   9  19  36  57  80 109 145 182 218 271 337
#
# _framework density 19.084629
#
# number of rings (size 3 to 8) (size 9 to 14) (size 15 to 20)
#    0.000    2.000    2.500    1.125    0.000    3.000 
#    0.000    4.375    0.000    0.000    0.000    0.000 
#    0.000    0.000    0.000    0.000    0.000    0.000 
#
# Total GULP energy -198424.262471 kJ/mol
# GULP energy per Si atom -12401.516404 kJ/mol
# Density = 1.904119 g / cm^3
# Si number density = 19.084629 Si / 1000 Ang^3
#
#
#
# Elastic Constant Matrix: (Units=GPa)
#
#
# Indices 1 2 3 4 5 6 
#
# 1 110.1877 26.0859 52.4002 0.0007 14.3109 -0.0009
# 2 26.0859 29.5992 25.8581 -0.0018 5.6258 0.0005
# 3 52.4002 25.8581 124.0423 -0.0121 11.4758 0.0018
# 4 0.0007 -0.0018 -0.0121 28.2635 0.0000 3.1849
# 5 14.3109 5.6258 11.4758 0.0000 14.8691 0.0006
# 6 -0.0009 0.0005 0.0018 3.1849 0.0006 23.9044
#
#
#
# Elastic Compliance Matrix: (Units=1/GPa)
#
#
# Indices 1 2 3 4 5 6 
#
# 1 0.013437 -0.007418 -0.003439 -0.000002 -0.007472 0.000001
# 2 -0.007418 0.046736 -0.006067 0.000001 -0.005861 -0.000001
# 3 -0.003439 -0.006067 0.011050 0.000005 -0.002923 -0.000001
# 4 -0.000002 0.000001 0.000005 0.035921 -0.000001 -0.004786
# 5 -0.007472 -0.005861 -0.002923 -0.000001 0.078918 -0.000002
# 6 0.000001 -0.000001 -0.000001 -0.004786 -0.000002 0.042471
#
#
# Mechanical properties :
#
#
# Convention : Reuss Voigt Hill
#
# Bulk Modulus (GPa) = 26.75526 52.50197 39.62862
# Shear Modulus (GPa) = 18.19247 24.03975 21.11611
#
# Velocity S-wave (km/s) = 3.09083 3.55299 3.32994
# Velocity P-wave (km/s) = 5.17565 6.66344 5.96610
#
# Compressibility (1/GPa) = 0.03737583
#
# Stress axis : x y z
#
# Youngs Moduli (GPa) = 74.41931 21.39670 90.50145
#
# Poissons Ratio (x) = 0.15872 0.31122
# Poissons Ratio (y) = 0.55204 0.54906
# Poissons Ratio (z) = 0.25591 0.12981
#
# Static dielectric constant tensor:
#      x y z
#    x 3.639350 0.000000 -0.012540 
#    y 0.000000 3.259080 0.000000 
#    z -0.012540 0.000000 3.582900 
# 
# 
# High freq. dielectric constant tensor:
#      x y z
#    x 1.757410 0.000000 -0.000290 
#    y 0.000000 1.719340 0.000000 
#    z -0.000290 0.000000 1.740170 
# 
# From -- ./inp_files/26535.got.cif
#   From: 2010.03.12/outbox.cif.g09.slc.cpg/sg8_14_cif.got.tgz:26535.got - 2010.03.31 10:45:26.
