data_PCOD8052305
_publ_section_title
;
Structure prediction by ZEFSAII (Michael W. Deem and Ramdas Pophale) SiO2 
 PCOD8052305
Probable space group: P M
;
_chemical_formula_sum "Si O2"
_cell_formula_units_Z 16
_cell_length_a 11.524075
_cell_length_b 9.012682
_cell_length_c 9.558387
_cell_angle_alpha 90.000000
_cell_angle_beta 116.152801
_cell_angle_gamma 90.000000
_cell_volume 891.123938
_symmetry_space_group_name_H-M "P M"
_symmetry_group_IT_number 6
_symmetry_cell_setting 'monoclinic'
loop_
_space_group_symop_operation_xyz
x,y,z
x,-y,z
loop_
_atom_site_type_symbol
_atom_site_label
_atom_site_fract_x
_atom_site_fract_y
_atom_site_fract_z
Si Si1 0.987450 0.335987 0.137810
Si Si2 0.219156 0.833828 0.916852
Si Si3 0.474540 0.671253 0.051599
Si Si4 0.969816 0.666017 0.796620
Si Si5 0.233027 0.833941 0.256951
Si Si6 0.703814 0.674999 0.970698
Si Si7 0.490140 0.672997 0.385263
Si Si8 0.708247 0.823683 0.678667
O O1 0.016323 0.500000 0.213023
O O2 0.099250 0.226697 0.252989
O O3 0.988083 0.341241 0.971368
O O4 0.844690 0.281408 0.108949
O O5 0.350992 0.761361 0.930445
O O6 0.095738 0.742487 0.794778
O O7 0.209876 0.000000 0.852584
O O8 0.219964 0.833805 0.084076
O O9 0.441558 0.500000 0.010914
O O10 0.598498 0.721324 0.028919
O O11 0.504962 0.703963 0.228839
O O12 0.954924 0.500000 0.727044
O O13 0.843422 0.760874 0.692054
O O14 0.350318 0.727746 0.365168
O O15 0.257117 0.000000 0.326383
O O16 0.701552 0.500000 0.933841
O O17 0.674794 0.764193 0.814611
O O18 0.505972 0.500000 0.430888
O O19 0.597809 0.770761 0.515856
O O20 0.715546 0.000000 0.686033
#
# Coordination Sequence:
#
# PCOD8052305 Si02
#       8
#     2   2   2   2   2   2   2   2
#     4   8  14  25  43  66  91 119 152 193 237 278
#     4   9  16  26  43  69  98 124 154 197 243 282
#     4   9  18  32  51  73  97 128 164 199 236 283
#     4   9  16  28  46  67  92 123 160 200 238 279
#     4   9  16  26  42  66  94 121 153 195 238 280
#     4   9  18  33  51  72  98 128 163 199 236 284
#     4  10  19  32  50  71  96 127 161 197 238 285
#     4  11  21  32  48  72 100 128 159 198 244 289
#
# _framework density 17.954854000000001
#
# number of rings (size 3 to 8) (size 9 to 14) (size 15 to 20)
#    0.000    2.750    0.000    3.375    0.000    7.000 
#    0.000    0.000    0.000    1.500    0.000    3.500 
#    0.000    0.000    0.000    0.000    0.000    0.000 
#
# Total GULP energy -198365.537978 kJ/mol
# GULP energy per Si atom -12397.846124 kJ/mol
# Density = 1.791399 g / cm^3
# Si number density = 17.954854 Si / 1000 Ang^3
#
#
#
# Elastic Constant Matrix: (Units=GPa)
#
#
# Indices 1 2 3 4 5 6 
#
# 1 163.0027 71.8912 41.3343 0.0000 27.3832 0.0000
# 2 71.8912 127.0456 37.5906 0.0000 17.0233 0.0000
# 3 41.3343 37.5906 42.3524 0.0000 18.4532 0.0000
# 4 0.0000 0.0000 0.0000 22.2033 0.0000 10.8846
# 5 27.3832 17.0233 18.4532 0.0000 21.4754 0.0000
# 6 0.0000 0.0000 0.0000 10.8846 0.0000 24.8987
#
#
#
# Elastic Compliance Matrix: (Units=1/GPa)
#
#
# Indices 1 2 3 4 5 6 
#
# 1 0.009688 -0.003595 -0.003394 0.000000 -0.006586 0.000000
# 2 -0.003595 0.012012 -0.007995 0.000000 0.001932 0.000000
# 3 -0.003394 -0.007995 0.046951 0.000000 -0.029678 0.000000
# 4 0.000000 0.000000 0.000000 0.057323 0.000000 -0.025059
# 5 -0.006586 0.001932 -0.029678 0.000000 0.078934 0.000000
# 6 0.000000 0.000000 0.000000 -0.025059 0.000000 0.051118
#
#
# Mechanical properties :
#
#
# Convention : Reuss Voigt Hill
#
# Bulk Modulus (GPa) = 25.85121 70.44809 48.14965
# Shear Modulus (GPa) = 16.72874 25.82112 21.27493
#
# Velocity S-wave (km/s) = 3.05571 3.79636 3.44599
# Velocity P-wave (km/s) = 5.18449 7.65101 6.53517
#
# Compressibility (1/GPa) = 0.03868291
#
# Stress axis : x y z
#
# Youngs Moduli (GPa) = 103.22462 83.24890 21.29896
#
# Poissons Ratio (x) = 0.29929 0.07229
# Poissons Ratio (y) = 0.37111 0.17028
# Poissons Ratio (z) = 0.35035 0.66554
#
# Static dielectric constant tensor:
#      x y z
#    x 3.581090 0.000000 0.298150 
#    y 0.000000 3.479750 0.000000 
#    z 0.298150 0.000000 2.861060 
# 
# 
# High freq. dielectric constant tensor:
#      x y z
#    x 1.699920 0.000000 0.033350 
#    y 0.000000 1.704160 0.000000 
#    z 0.033350 0.000000 1.641720 
# 
# From -- ./inp_files/3657.got.cif
#   From: 2010.03.12/outbox.cif.g09.slc.cpg/sg6_2_cif.got.tgz:3657.got - 2010.03.30 10:24:59.
