data_PCOD8052151
_publ_section_title
;
Structure prediction by ZEFSAII (Michael W. Deem and Ramdas Pophale) SiO2 
 PCOD8052151
Probable space group: C 2
;
_chemical_formula_sum "Si O2"
_cell_formula_units_Z 18
_cell_length_a 14.442672
_cell_length_b 6.111725
_cell_length_c 21.857795
_cell_angle_alpha 90.000000
_cell_angle_beta 20.523412
_cell_angle_gamma 90.000000
_cell_volume 676.421401
_symmetry_space_group_name_H-M "C 2"
_symmetry_group_IT_number 5
_symmetry_cell_setting 'monoclinic'
loop_
_space_group_symop_operation_xyz
x,y,z
-x,y,-z
1/2+x,1/2+y,z
1/2-x,1/2+y,-z
loop_
_atom_site_type_symbol
_atom_site_label
_atom_site_fract_x
_atom_site_fract_y
_atom_site_fract_z
Si Si1 0.706263 0.565650 0.099025
Si Si2 0.000000 0.877703 0.000000
Si Si3 0.162144 0.384662 0.739783
Si Si4 0.435846 0.076392 0.653716
Si Si5 0.193463 0.717506 0.614340
O O1 0.499625 0.672873 0.181082
O O2 0.581481 0.340751 0.200361
O O3 0.763398 0.731943 0.119032
O O4 0.984690 0.531921 0.893840
O O5 0.141709 0.027531 0.861396
O O6 0.410940 0.287844 0.624338
O O7 0.256661 0.529716 0.624285
O O8 0.651844 0.117667 0.572732
O O9 0.550574 0.874237 0.543363
#
# Coordination Sequence:
#
# PCOD8052151 Si02
#       5
#     4   2   4   4   4
#     4  12  24  51  79 119 158 205 275 329 405 480
#     4  12  24  50  84 118 162 210 270 338 402 482
#     4  12  26  51  84 117 159 214 267 333 402 482
#     4  12  28  53  82 119 161 216 267 336 407 469
#     4  12  28  55  76 119 166 206 276 332 398 489
#
# _framework density 26.610633
#
# number of rings (size 3 to 8) (size 9 to 14) (size 15 to 20)
#    0.000    0.000    4.444    5.333    0.000    0.889 
#    8.000    0.000    0.000    0.000    0.000    0.000 
#    0.000    0.000    0.000    0.000    0.000    0.000 
#
# Total GULP energy -111693.598230 kJ/mol
# GULP energy per Si atom -12410.399803 kJ/mol
# Density = 2.655007 g / cm^3
# Si number density = 26.610633 Si / 1000 Ang^3
#
#
#
# Elastic Constant Matrix: (Units=GPa)
#
#
# Indices 1 2 3 4 5 6 
#
# 1 160.3708 70.1305 40.8634 0.0725 1.2829 0.0128
# 2 70.1305 128.5418 53.9407 0.0868 14.3021 0.0326
# 3 40.8634 53.9407 128.7301 0.3257 4.9235 0.0974
# 4 0.0725 0.0868 0.3257 65.9610 0.0819 -7.2299
# 5 1.2829 14.3021 4.9235 0.0819 25.4290 0.0197
# 6 0.0128 0.0326 0.0974 -7.2299 0.0197 62.2027
#
#
#
# Elastic Compliance Matrix: (Units=1/GPa)
#
#
# Indices 1 2 3 4 5 6 
#
# 1 0.008392 -0.004460 -0.000882 -0.000002 0.002256 0.000001
# 2 -0.004460 0.012370 -0.003536 0.000014 -0.006047 0.000004
# 3 -0.000882 -0.003536 0.009523 -0.000044 0.000190 -0.000018
# 4 -0.000002 0.000014 -0.000044 0.015356 -0.000050 0.001785
# 5 0.002256 -0.006047 0.000190 -0.000050 0.042576 -0.000017
# 6 0.000001 0.000004 -0.000018 0.001785 -0.000017 0.016284
#
#
# Mechanical properties :
#
#
# Convention : Reuss Voigt Hill
#
# Bulk Modulus (GPa) = 79.81146 83.05688 81.43417
# Shear Modulus (GPa) = 39.54681 47.56576 43.55628
#
# Velocity S-wave (km/s) = 3.85922 4.23244 4.05013
# Velocity P-wave (km/s) = 7.06509 7.42727 7.24844
#
# Compressibility (1/GPa) = 0.01252953
#
# Stress axis : x y z
#
# Youngs Moduli (GPa) = 119.15519 80.84386 105.01324
#
# Poissons Ratio (x) = 0.36055 0.09257
# Poissons Ratio (y) = 0.53141 0.37134
# Poissons Ratio (z) = 0.10504 0.28588
#
# Static dielectric constant tensor:
#      x y z
#    x 4.836640 0.000000 0.192910 
#    y 0.000000 4.798560 0.000020 
#    z 0.192910 0.000020 4.582950 
# 
# 
# High freq. dielectric constant tensor:
#      x y z
#    x 2.076920 0.000000 0.005880 
#    y 0.000000 2.077900 0.000000 
#    z 0.005880 0.000000 2.076890 
# 
# From -- ./inp_files/68535.got.cif
#   From: 2010.03.12/outbox.cif.g09.slc.cpg/sg5_35_cif.got.tgz:68535.got - 2010.03.31 09:47:26.
