data_PCOD8052383
_publ_section_title
;
Structure prediction by ZEFSAII (Michael W. Deem and Ramdas Pophale) SiO2 
 PCOD8052383
Probable space group: P M
;
_chemical_formula_sum "Si O2"
_cell_formula_units_Z 12
_cell_length_a 9.158245
_cell_length_b 7.612415
_cell_length_c 15.775611
_cell_angle_alpha 90.000000
_cell_angle_beta 37.153237
_cell_angle_gamma 90.000000
_cell_volume 664.233895
_symmetry_space_group_name_H-M "P M"
_symmetry_group_IT_number 6
_symmetry_cell_setting 'monoclinic'
loop_
_space_group_symop_operation_xyz
x,y,z
x,-y,z
loop_
_atom_site_type_symbol
_atom_site_label
_atom_site_fract_x
_atom_site_fract_y
_atom_site_fract_z
Si Si1 0.846580 0.703575 0.703470
Si Si2 0.297965 0.697526 0.992452
Si Si3 0.051098 0.000000 0.718404
Si Si4 0.682319 0.000000 0.042384
Si Si5 0.831896 0.303380 0.516499
Si Si6 0.236204 0.194747 0.207565
Si Si7 0.471285 0.000000 0.648537
Si Si8 0.102442 0.000000 0.973608
O O1 0.895705 0.500000 0.703060
O O2 0.573011 0.758999 0.851847
O O3 0.897934 0.747037 0.581869
O O4 0.026074 0.824208 0.674322
O O5 0.260331 0.500000 0.975236
O O6 0.124795 0.826184 0.020271
O O7 0.234024 0.699877 0.121023
O O8 0.317970 0.000000 0.633607
O O9 0.854278 0.000000 0.882553
O O10 0.510789 0.173707 0.116751
O O11 0.834041 0.000000 0.058647
O O12 0.723579 0.500000 0.563389
O O13 0.632074 0.174197 0.571830
O O14 0.077401 0.297601 0.349138
O O15 0.125575 0.000000 0.242702
O O16 0.304859 0.000000 0.808041
#
# Coordination Sequence:
#
# PCOD8052383 Si02
#       8
#     2   2   1   1   2   2   1   1
#     4  10  20  35  57  82 109 145 192 230 266 326
#     4  11  20  35  59  84 111 148 190 231 270 326
#     4  11  20  36  58  84 116 146 177 234 285 325
#     4   9  20  35  58  85 114 147 182 228 283 333
#     4  11  22  38  59  84 112 147 190 233 275 329
#     4  10  19  37  60  82 110 147 190 226 278 326
#     4  11  22  35  58  85 116 149 180 232 287 329
#     4  11  20  36  58  84 120 144 183 232 281 335
#
# _framework density 18.065925
#
# number of rings (size 3 to 8) (size 9 to 14) (size 15 to 20)
#    0.500    1.000    5.000    1.500    0.000    0.667 
#    0.000    7.500    0.000    2.000    0.000    0.000 
#    0.000    0.000    0.000    0.000    0.000    0.000 
#
# Total GULP energy -148808.203805 kJ/mol
# GULP energy per Si atom -12400.683650 kJ/mol
# Density = 1.802481 g / cm^3
# Si number density = 18.065925 Si / 1000 Ang^3
#
#
#
# Elastic Constant Matrix: (Units=GPa)
#
#
# Indices 1 2 3 4 5 6 
#
# 1 151.4417 72.5420 52.9817 0.0000 0.7313 0.0000
# 2 72.5420 113.9996 20.4323 0.0000 -2.8858 0.0000
# 3 52.9817 20.4323 102.9246 0.0000 15.2118 0.0000
# 4 0.0000 0.0000 0.0000 17.3506 0.0000 11.9366
# 5 0.7313 -2.8858 15.2118 0.0000 25.2849 0.0000
# 6 0.0000 0.0000 0.0000 11.9366 0.0000 9.0383
#
#
#
# Elastic Compliance Matrix: (Units=1/GPa)
#
#
# Indices 1 2 3 4 5 6 
#
# 1 0.011293 -0.006270 -0.004845 0.000000 0.001873 0.000000
# 2 -0.006270 0.012704 0.000510 0.000000 0.001325 0.000000
# 3 -0.004845 0.000510 0.013258 0.000000 -0.007778 0.000000
# 4 0.000000 0.000000 0.000000 0.630436 0.000000 -0.832597
# 5 0.001873 0.001325 -0.007778 0.000000 0.044326 0.000000
# 6 0.000000 0.000000 0.000000 -0.832597 0.000000 1.210224
#
#
# Mechanical properties :
#
#
# Convention : Reuss Voigt Hill
#
# Bulk Modulus (GPa) = 62.32735 73.36421 67.84578
# Shear Modulus (GPa) = 2.56568 25.16208 13.86388
#
# Velocity S-wave (km/s) = 1.19300 3.73606 2.77321
# Velocity P-wave (km/s) = 6.03925 7.70118 6.92029
#
# Compressibility (1/GPa) = 0.01604432
#
# Stress axis : x y z
#
# Youngs Moduli (GPa) = 88.55311 78.71530 75.42468
#
# Poissons Ratio (x) = 0.49356 0.36544
# Poissons Ratio (y) = 0.55524 -0.03846
# Poissons Ratio (z) = 0.42905 -0.04014
#
# Static dielectric constant tensor:
#      x y z
#    x 3.241930 0.000000 0.095290 
#    y 0.000000 3.417000 0.000000 
#    z 0.095290 0.000000 3.293720 
# 
# 
# High freq. dielectric constant tensor:
#      x y z
#    x 1.681630 0.000000 0.016030 
#    y 0.000000 1.706110 0.000000 
#    z 0.016030 0.000000 1.698820 
# 
# From -- ./inp_files/5447.got.cif
#   From: 2010.03.12/outbox.cif.g09.slc.cpg/sg6_3_cif.got.tgz:5447.got - 2010.03.30 10:24:59.
