data_PCOD8052510
_publ_section_title
;
Structure prediction by ZEFSAII (Michael W. Deem and Ramdas Pophale) SiO2 
 PCOD8052510
Probable space group: P M
;
_chemical_formula_sum "Si O2"
_cell_formula_units_Z 16
_cell_length_a 12.263980
_cell_length_b 9.027944
_cell_length_c 12.460411
_cell_angle_alpha 90.000000
_cell_angle_beta 143.908815
_cell_angle_gamma 90.000000
_cell_volume 812.682799
_symmetry_space_group_name_H-M "P M"
_symmetry_group_IT_number 6
_symmetry_cell_setting 'monoclinic'
loop_
_space_group_symop_operation_xyz
x,y,z
x,-y,z
loop_
_atom_site_type_symbol
_atom_site_label
_atom_site_fract_x
_atom_site_fract_y
_atom_site_fract_z
Si Si1 0.887400 0.166392 0.395550
Si Si2 0.976496 0.325000 0.255412
Si Si3 0.347260 0.829187 0.492367
Si Si4 0.481340 0.170893 0.360955
Si Si5 0.893309 0.173068 0.641734
Si Si6 0.608938 0.826387 0.893146
Si Si7 0.467931 0.833512 0.009204
Si Si8 0.234357 0.674208 0.993196
O O1 0.974900 0.277332 0.379001
O O2 0.956376 0.206540 0.569411
O O3 0.666469 0.176037 0.223254
O O4 0.949008 0.000000 0.412379
O O5 0.967913 0.500000 0.241614
O O6 0.163517 0.268675 0.349380
O O7 0.802758 0.259647 0.052068
O O8 0.444889 0.805512 0.456873
O O9 0.494492 0.775401 0.698522
O O10 0.293381 0.000000 0.469538
O O11 0.686110 0.230073 0.498039
O O12 0.461256 0.000000 0.310319
O O13 0.334994 0.264270 0.177710
O O14 0.026562 0.262351 0.827247
O O15 0.907542 0.000000 0.679982
O O16 0.657506 0.000000 0.930519
O O17 0.483858 0.787821 0.897340
O O18 0.387231 0.000000 0.956169
O O19 0.333812 0.720833 0.962063
O O20 0.227581 0.500000 0.995577
#
# Coordination Sequence:
#
# PCOD8052510 Si02
#       8
#     2   2   2   2   2   2   2   2
#     4   9  18  36  62  87 118 157 202 252 295 343
#     4  11  23  37  57  90 130 162 192 237 302 369
#     4  10  22  41  67  91 114 154 210 257 293 346
#     4  10  22  44  67  87 114 155 210 259 295 342
#     4  10  21  39  63  88 115 155 206 254 299 346
#     4   9  20  39  62  89 118 155 204 252 297 344
#     4   9  17  35  60  86 119 157 200 247 295 349
#     4  12  25  37  56  90 128 161 194 238 304 373
#
# _framework density 19.687878000000001
#
# number of rings (size 3 to 8) (size 9 to 14) (size 15 to 20)
#    0.000    2.000    1.250    3.000    1.750    5.000 
#    0.000    2.500    0.000    0.000    0.000    0.000 
#    0.000    0.000    0.000    0.000    0.000    0.000 
#
# Total GULP energy -198456.721755 kJ/mol
# GULP energy per Si atom -12403.545110 kJ/mol
# Density = 1.964307 g / cm^3
# Si number density = 19.687878 Si / 1000 Ang^3
#
#
#
# Elastic Constant Matrix: (Units=GPa)
#
#
# Indices 1 2 3 4 5 6 
#
# 1 73.0924 36.3970 45.1374 0.0000 -6.8731 0.0000
# 2 36.3970 97.5586 58.2258 0.0000 -1.9612 0.0000
# 3 45.1374 58.2258 136.1081 0.0000 -12.0605 0.0000
# 4 0.0000 0.0000 0.0000 9.9641 0.0000 -2.0863
# 5 -6.8731 -1.9612 -12.0605 0.0000 21.5761 0.0000
# 6 0.0000 0.0000 0.0000 -2.0863 0.0000 6.3981
#
#
#
# Elastic Compliance Matrix: (Units=1/GPa)
#
#
# Indices 1 2 3 4 5 6 
#
# 1 0.018706 -0.004546 -0.003963 0.000000 0.003330 0.000000
# 2 -0.004546 0.014965 -0.005157 0.000000 -0.002971 0.000000
# 3 -0.003963 -0.005157 0.011273 0.000000 0.004570 0.000000
# 4 0.000000 0.000000 0.000000 0.107714 0.000000 0.035123
# 5 0.003330 -0.002971 0.004570 0.000000 0.049693 0.000000
# 6 0.000000 0.000000 0.000000 0.035123 0.000000 0.167750
#
#
# Mechanical properties :
#
#
# Convention : Reuss Voigt Hill
#
# Bulk Modulus (GPa) = 56.78883 65.14217 60.96550
# Shear Modulus (GPa) = 12.39759 18.72090 15.55925
#
# Velocity S-wave (km/s) = 2.51212 3.08699 2.81427
# Velocity P-wave (km/s) = 6.10913 6.77239 6.44929
#
# Compressibility (1/GPa) = 0.01760910
#
# Stress axis : x y z
#
# Youngs Moduli (GPa) = 53.45892 66.82394 88.70996
#
# Poissons Ratio (x) = 0.30380 0.35160
# Poissons Ratio (y) = 0.24304 0.45750
# Poissons Ratio (z) = 0.21188 0.34463
#
# Static dielectric constant tensor:
#      x y z
#    x 3.515580 0.000000 -0.017570 
#    y 0.000000 3.373150 0.000000 
#    z -0.017570 0.000000 3.676780 
# 
# 
# High freq. dielectric constant tensor:
#      x y z
#    x 1.764150 0.000000 0.000600 
#    y 0.000000 1.745510 0.000000 
#    z 0.000600 0.000000 1.777810 
# 
# From -- ./inp_files/5063.got.cif
#   From: 2010.03.12/outbox.cif.g09.slc.cpg/sg6_3_cif.got.tgz:5063.got - 2010.03.30 10:24:59.
