data_PCOD8052629
_publ_section_title
;
Structure prediction by ZEFSAII (Michael W. Deem and Ramdas Pophale) SiO2 
 PCOD8052629
Probable space group: P C
;
_chemical_formula_sum "Si O2"
_cell_formula_units_Z 16
_cell_length_a 10.570587
_cell_length_b 16.610730
_cell_length_c 5.187239
_cell_angle_alpha 90.000000
_cell_angle_beta 55.841732
_cell_angle_gamma 90.000000
_cell_volume 753.679509
_symmetry_space_group_name_H-M "P C"
_symmetry_group_IT_number 7
_symmetry_cell_setting 'monoclinic'
loop_
_space_group_symop_operation_xyz
x,y,z
x,-y,1/2+z
loop_
_atom_site_type_symbol
_atom_site_label
_atom_site_fract_x
_atom_site_fract_y
_atom_site_fract_z
Si Si1 0.520760 0.953755 0.710900
Si Si2 0.744263 0.821019 0.308977
Si Si3 0.161162 0.953785 0.180355
Si Si4 0.937891 0.178828 0.085655
Si Si5 0.745165 0.366108 0.804894
Si Si6 0.410816 0.411212 0.091290
Si Si7 0.938281 0.634066 0.593593
Si Si8 0.276475 0.410853 0.738382
O O1 0.588262 0.870146 0.526514
O O2 0.574754 0.019748 0.434978
O O3 0.340953 0.942159 0.945666
O O4 0.839582 0.841514 0.450626
O O5 0.700358 0.727500 0.343705
O O6 0.842210 0.847487 0.947323
O O7 0.093610 0.870228 0.364777
O O8 0.107152 0.019816 0.456211
O O9 0.982451 0.272252 0.047647
O O10 0.847989 0.391929 0.448998
O O11 0.590616 0.416453 0.943358
O O12 0.835964 0.388588 0.961920
O O13 0.330741 0.363872 0.419014
O O14 0.344132 0.500135 0.125710
O O15 0.355900 0.365978 0.891787
O O16 0.093863 0.583954 0.439842
#
# Coordination Sequence:
#
# PCOD8052629 Si02
#       8
#     2   2   2   2   2   2   2   2
#     4  10  21  36  53  78 112 147 185 229 280 334
#     4  10  21  36  56  82 109 144 191 234 279 334
#     4  10  21  36  53  78 112 147 185 229 280 334
#     4  10  21  36  56  82 109 144 191 234 279 334
#     4  10  21  39  60  84 116 152 191 237 287 339
#     4  10  21  39  59  86 117 146 187 234 281 342
#     4  10  21  39  60  84 116 152 191 237 287 339
#     4  10  21  39  59  86 117 146 187 234 281 342
#
# _framework density 21.229182000000002
#
# number of rings (size 3 to 8) (size 9 to 14) (size 15 to 20)
#    0.000    2.000    0.000    3.000    0.000    4.000 
#    0.000   18.750    0.000    0.000    0.000    0.000 
#    0.000    0.000    0.000    0.000    0.000    0.000 
#
# Total GULP energy -198275.206612 kJ/mol
# GULP energy per Si atom -12392.200413 kJ/mol
# Density = 2.118086 g / cm^3
# Si number density = 21.229182 Si / 1000 Ang^3
#
#
#
# Elastic Constant Matrix: (Units=GPa)
#
#
# Indices 1 2 3 4 5 6 
#
# 1 93.9132 18.0546 36.4884 0.0000 13.8006 0.0000
# 2 18.0546 47.4059 30.5879 0.0000 -15.4384 0.0000
# 3 36.4884 30.5879 129.0836 0.0000 16.2909 0.0000
# 4 0.0000 0.0000 0.0000 0.5215 0.0000 -13.3151
# 5 13.8006 -15.4384 16.2909 0.0000 50.9675 0.0000
# 6 0.0000 0.0000 0.0000 -13.3151 0.0000 25.0269
#
#
#
# Elastic Compliance Matrix: (Units=1/GPa)
#
#
# Indices 1 2 3 4 5 6 
#
# 1 0.013047 -0.005226 -0.001880 0.000000 -0.004515 0.000000
# 2 -0.005226 0.032822 -0.008059 0.000000 0.013933 0.000000
# 3 -0.001880 -0.008059 0.010870 0.000000 -0.005407 0.000000
# 4 0.000000 0.000000 0.000000 -0.152380 0.000000 -0.081071
# 5 -0.004515 0.013933 -0.005407 0.000000 0.026791 0.000000
# 6 0.000000 0.000000 0.000000 -0.081071 0.000000 -0.003175
#
#
# Mechanical properties :
#
#
# Convention : Reuss Voigt Hill
#
# Bulk Modulus (GPa) = 37.86510 48.96272 43.41391
# Shear Modulus (GPa) = -152.01031 27.65464 -62.17783
#
# Velocity S-wave (km/s) = -8.47112 3.61317 -5.41779
# Velocity P-wave (km/s) = 8.82070 6.36558 4.31765
#
# Compressibility (1/GPa) = 0.02640954
#
# Stress axis : x y z
#
# Youngs Moduli (GPa) = 76.64778 30.46725 91.99488
#
# Poissons Ratio (x) = 0.15923 0.17292
# Poissons Ratio (y) = 0.40059 0.74135
# Poissons Ratio (z) = 0.14407 0.24552
#
# Static dielectric constant tensor:
#      x y z
#    x 4.393750 0.000000 0.815420 
#    y 0.000000 3.522850 0.000000 
#    z 0.815420 0.000000 4.654390 
# 
# 
# High freq. dielectric constant tensor:
#      x y z
#    x 1.840020 0.000000 0.017720 
#    y 0.000000 1.799290 0.000000 
#    z 0.017720 0.000000 1.860280 
# 
# From -- ./inp_files/1172.got.cif
#   From: 2010.03.12/outbox.cif.g09.slc.cpg/sg7_cif.got.tgz:1172.got - 2010.03.30 08:40:41.
