data_PCOD8052939
_publ_section_title
;
Structure prediction by ZEFSAII (Michael W. Deem and Ramdas Pophale) SiO2 
 PCOD8052939
Probable space group: C M
;
_chemical_formula_sum "Si O2"
_cell_formula_units_Z 32
_cell_length_a 20.024429
_cell_length_b 8.992260
_cell_length_c 25.166450
_cell_angle_alpha 90.000000
_cell_angle_beta 156.436978
_cell_angle_gamma 90.000000
_cell_volume 1811.538707
_symmetry_space_group_name_H-M "C M"
_symmetry_group_IT_number 8
_symmetry_cell_setting 'monoclinic'
loop_
_space_group_symop_operation_xyz
x,y,z
x,-y,z
1/2+x,1/2+y,z
1/2+x,1/2-y,z
loop_
_atom_site_type_symbol
_atom_site_label
_atom_site_fract_x
_atom_site_fract_y
_atom_site_fract_z
Si Si1 0.742250 0.828266 0.029160
Si Si2 0.789204 0.823246 0.288964
Si Si3 0.156634 0.823246 0.586288
Si Si4 0.959824 0.826749 0.758978
Si Si5 0.788841 0.326083 0.793946
Si Si6 0.656995 0.826085 0.081306
Si Si7 0.986020 0.826750 0.116279
Si Si8 0.203589 0.171740 0.846093
O O1 0.771277 0.793696 0.112745
O O2 0.911761 0.792239 0.120793
O O3 0.689540 0.000000 0.982229
O O4 0.589655 0.728801 0.897812
O O5 0.743335 0.758994 0.196910
O O6 0.660631 0.758628 0.238421
O O7 0.972920 0.765103 0.437626
O O8 0.780866 0.000000 0.285476
O O9 0.285213 0.758629 0.636837
O O10 0.202500 0.758995 0.678340
O O11 0.164967 0.000000 0.589772
O O12 0.034083 0.792226 0.754465
O O13 0.928860 0.000000 0.745143
O O14 0.809344 0.500000 0.798757
O O15 0.674564 0.293683 0.762510
O O16 0.972920 0.256277 0.937625
O O17 0.636485 0.000000 0.076491
O O18 0.016983 0.000000 0.130111
O O19 0.856192 0.771194 0.977448
O O20 0.256284 0.000000 0.893010
#
# Coordination Sequence:
#
# PCOD8052939 Si02
#       8
#     4   4   4   4   4   4   4   4
#     4   9  17  31  51  73  97 127 164 199 236 286
#     4  10  20  34  52  72  96 129 166 200 236 286
#     4  10  20  34  52  72  96 129 166 200 236 286
#     4  10  19  30  48  74 102 128 156 199 248 286
#     4   9  15  28  52  74  92 122 165 204 232 274
#     4   9  15  28  52  74  92 122 165 204 232 274
#     4  10  19  30  48  74 102 128 156 199 248 286
#     4   9  17  31  51  73  97 127 164 199 236 286
#
# _framework density 17.664542000000001
#
# number of rings (size 3 to 8) (size 9 to 14) (size 15 to 20)
#    0.000    2.500    2.500    0.750    0.000    1.500 
#    0.000    3.750    0.000    0.000    0.000    0.000 
#    0.000    0.000    0.000    0.000    0.000    0.000 
#
# Total GULP energy -198349.843236 kJ/mol
# GULP energy per Si atom -12396.865202 kJ/mol
# Density = 1.762434 g / cm^3
# Si number density = 17.664542 Si / 1000 Ang^3
#
#
#
# Elastic Constant Matrix: (Units=GPa)
#
#
# Indices 1 2 3 4 5 6 
#
# 1 138.2563 24.0355 76.9641 0.0012 8.7000 0.0001
# 2 24.0355 28.1883 28.0604 0.0017 6.7616 -0.0002
# 3 76.9641 28.0604 133.2524 -0.0050 8.4232 -0.0008
# 4 0.0012 0.0017 -0.0050 18.6661 -0.0014 8.1809
# 5 8.7000 6.7616 8.4232 -0.0014 28.9873 -0.0003
# 6 0.0001 -0.0002 -0.0008 8.1809 -0.0003 23.7047
#
#
#
# Elastic Compliance Matrix: (Units=1/GPa)
#
#
# Indices 1 2 3 4 5 6 
#
# 1 0.011002 -0.003678 -0.005527 -0.000002 -0.000838 0.000000
# 2 -0.003678 0.047948 -0.007473 -0.000008 -0.007909 0.000003
# 3 -0.005527 -0.007473 0.012281 0.000005 -0.000167 -0.000001
# 4 -0.000002 -0.000008 0.000005 0.063120 0.000004 -0.021784
# 5 -0.000838 -0.007909 -0.000167 0.000004 0.036643 -0.000001
# 6 0.000000 0.000003 -0.000001 -0.021784 -0.000001 0.049704
#
#
# Mechanical properties :
#
#
# Convention : Reuss Voigt Hill
#
# Bulk Modulus (GPa) = 26.40240 61.97967 44.19103
# Shear Modulus (GPa) = 18.74923 25.64741 22.19832
#
# Velocity S-wave (km/s) = 3.26146 3.81453 3.54879
# Velocity P-wave (km/s) = 5.40017 7.38675 6.47016
#
# Compressibility (1/GPa) = 0.03787535
#
# Stress axis : x y z
#
# Youngs Moduli (GPa) = 90.89401 20.85604 81.42715
#
# Poissons Ratio (x) = 0.07671 0.45004
# Poissons Ratio (y) = 0.33432 0.60847
# Poissons Ratio (z) = 0.50237 0.15585
#
# Static dielectric constant tensor:
#      x y z
#    x 3.571740 0.000000 0.031170 
#    y 0.000000 3.025200 0.000000 
#    z 0.031170 0.000000 3.176990 
# 
# 
# High freq. dielectric constant tensor:
#      x y z
#    x 1.700040 0.000000 0.009910 
#    y 0.000000 1.655360 0.000000 
#    z 0.009910 0.000000 1.653230 
# 
# From -- ./inp_files/15807.got.cif
#   From: 2010.03.12/outbox.cif.g09.slc.cpg/sg8_8_cif.got.tgz:15807.got - 2010.03.31 10:45:26.
