data_PCOD8052862
_publ_section_title
;
Structure prediction by ZEFSAII (Michael W. Deem and Ramdas Pophale) SiO2 
 PCOD8052862
Probable space group: C M
;
_chemical_formula_sum "Si O2"
_cell_formula_units_Z 28
_cell_length_a 22.087920
_cell_length_b 12.143319
_cell_length_c 16.445748
_cell_angle_alpha 90.000000
_cell_angle_beta 159.340978
_cell_angle_gamma 90.000000
_cell_volume 1556.257570
_symmetry_space_group_name_H-M "C M"
_symmetry_group_IT_number 8
_symmetry_cell_setting 'monoclinic'
loop_
_space_group_symop_operation_xyz
x,y,z
x,-y,z
1/2+x,1/2+y,z
1/2+x,1/2-y,z
loop_
_atom_site_type_symbol
_atom_site_label
_atom_site_fract_x
_atom_site_fract_y
_atom_site_fract_z
Si Si1 0.501830 0.374950 0.741990
Si Si2 0.358147 0.235941 0.428123
Si Si3 0.198680 0.621679 0.814172
Si Si4 0.183285 0.701600 0.621440
Si Si5 0.444895 0.629449 0.383084
Si Si6 0.339588 0.773672 0.115947
Si Si7 0.008523 0.870290 0.939637
O O1 0.439806 0.500000 0.652821
O O2 0.368317 0.293441 0.529507
O O3 0.514097 0.343741 0.851609
O O4 0.689053 0.362859 0.935738
O O5 0.506655 0.145835 0.603793
O O6 0.381400 0.332641 0.391479
O O7 0.180582 0.171680 0.198298
O O8 0.251635 0.500000 0.910505
O O9 0.205029 0.619394 0.724357
O O10 0.329667 0.712435 0.016071
O O11 0.354299 0.701165 0.783399
O O12 0.135089 0.821505 0.599758
O O13 0.023322 0.666164 0.361266
O O14 0.453658 0.500000 0.390438
O O15 0.311417 0.678301 0.149123
O O16 0.983300 0.000000 0.924955
#
# Coordination Sequence:
#
# PCOD8052862 Si02
#       7
#     4   4   4   4   4   4   4
#     4  10  20  35  57  80 109 144 180 224 274 317
#     4  10  20  34  55  83 108 140 184 229 262 327
#     4  10  18  33  57  81 103 140 184 229 272 312
#     4   9  21  34  52  82 110 142 180 225 264 328
#     4   9  17  35  56  77 107 139 174 227 273 308
#     4   9  19  34  55  81 107 136 182 231 264 319
#     4  11  21  37  56  78 114 151 178 219 269 321
#
# _framework density 17.991882
#
# number of rings (size 3 to 8) (size 9 to 14) (size 15 to 20)
#    0.857    1.429    1.429    1.714    0.000    3.429 
#    0.000    1.429    0.000    3.429    0.000    0.000 
#    0.000    0.000    0.000    0.000    0.000    0.000 
#
# Total GULP energy -173497.063940 kJ/mol
# GULP energy per Si atom -12392.647424 kJ/mol
# Density = 1.795093 g / cm^3
# Si number density = 17.991882 Si / 1000 Ang^3
#
#
#
# Elastic Constant Matrix: (Units=GPa)
#
#
# Indices 1 2 3 4 5 6 
#
# 1 56.2088 18.9185 43.8725 0.0000 -5.1116 0.0000
# 2 18.9185 60.8420 9.3700 0.0000 -4.4891 0.0000
# 3 43.8725 9.3700 90.4003 0.0001 -13.7033 0.0000
# 4 0.0000 0.0000 0.0001 21.2187 0.0001 -6.2618
# 5 -5.1116 -4.4891 -13.7033 0.0001 29.0493 0.0000
# 6 0.0000 0.0000 0.0000 -6.2618 0.0000 19.2295
#
#
#
# Elastic Compliance Matrix: (Units=1/GPa)
#
#
# Indices 1 2 3 4 5 6 
#
# 1 0.031975 -0.007814 -0.015119 0.000000 -0.002713 0.000000
# 2 -0.007814 0.018710 0.002243 0.000000 0.002575 0.000000
# 3 -0.015119 0.002243 0.019188 0.000000 0.006738 0.000000
# 4 0.000000 0.000000 0.000000 0.052138 0.000000 0.016978
# 5 -0.002713 0.002575 0.006738 0.000000 0.037523 0.000000
# 6 0.000000 0.000000 0.000000 0.016978 0.000000 0.057532
#
#
# Mechanical properties :
#
#
# Convention : Reuss Voigt Hill
#
# Bulk Modulus (GPa) = 35.09600 39.08590 37.09095
# Shear Modulus (GPa) = 18.66047 22.91885 20.78966
#
# Velocity S-wave (km/s) = 3.22399 3.57297 3.40296
# Velocity P-wave (km/s) = 5.77994 6.22839 6.00835
#
# Compressibility (1/GPa) = 0.02849328
#
# Stress axis : x y z
#
# Youngs Moduli (GPa) = 31.27421 53.44650 52.11490
#
# Poissons Ratio (x) = 0.41765 0.78794
# Poissons Ratio (y) = 0.24439 -0.11691
# Poissons Ratio (z) = 0.47285 -0.11990
#
# Static dielectric constant tensor:
#      x y z
#    x 3.222630 0.000000 -0.255110 
#    y 0.000000 3.077380 0.000000 
#    z -0.255110 0.000000 3.267870 
# 
# 
# High freq. dielectric constant tensor:
#      x y z
#    x 1.686840 0.000000 -0.023210 
#    y 0.000000 1.685720 0.000000 
#    z -0.023210 0.000000 1.688330 
# 
# From -- ./inp_files/30126.got.cif
#   From: 2010.03.12/outbox.cif.g09.slc.cpg/sg8_16_cif.got.tgz:30126.got - 2010.03.31 10:45:26.
