data_PCOD8052504
_publ_section_title
;
Structure prediction by ZEFSAII (Michael W. Deem and Ramdas Pophale) SiO2 
 PCOD8052504
Probable space group: P M
;
_chemical_formula_sum "Si O2"
_cell_formula_units_Z 16
_cell_length_a 7.377617
_cell_length_b 8.832335
_cell_length_c 18.951829
_cell_angle_alpha 90.000000
_cell_angle_beta 39.836978
_cell_angle_gamma 90.000000
_cell_volume 791.103613
_symmetry_space_group_name_H-M "P M"
_symmetry_group_IT_number 6
_symmetry_cell_setting 'monoclinic'
loop_
_space_group_symop_operation_xyz
x,y,z
x,-y,z
loop_
_atom_site_type_symbol
_atom_site_label
_atom_site_fract_x
_atom_site_fract_y
_atom_site_fract_z
Si Si1 0.245170 0.174753 0.307580
Si Si2 0.732519 0.825753 0.861931
Si Si3 0.681442 0.332481 0.089361
Si Si4 0.144972 0.320740 0.847491
Si Si5 0.235299 0.678951 0.458949
Si Si6 0.268201 0.331259 0.081274
Si Si7 0.828402 0.176668 0.303696
Si Si8 0.740156 0.825128 0.695492
O O1 0.556045 0.218093 0.184693
O O2 0.176648 0.273869 0.396059
O O3 0.005754 0.209787 0.321373
O O4 0.252096 0.000000 0.327152
O O5 0.798435 0.804812 0.760442
O O6 0.989510 0.749888 0.826721
O O7 0.711964 0.000000 0.890843
O O8 0.429347 0.748770 0.968572
O O9 0.704661 0.500000 0.116467
O O10 0.478440 0.339179 0.083381
O O11 0.984867 0.276248 0.968843
O O12 0.141888 0.500000 0.838657
O O13 0.459884 0.260186 0.755192
O O14 0.220364 0.500000 0.469897
O O15 0.535430 0.735990 0.397877
O O16 0.000819 0.752596 0.577745
O O17 0.175438 0.500000 0.085593
O O18 0.991274 0.236750 0.185713
O O19 0.770103 0.000000 0.310819
O O20 0.709715 0.000000 0.683515
#
# Coordination Sequence:
#
# PCOD8052504 Si02
#       8
#     2   2   2   2   2   2   2   2
#     4  10  21  38  62  89 119 154 191 237 290 344
#     4  10  21  38  61  88 120 157 194 237 290 346
#     4   8  16  32  55  86 121 153 188 230 281 343
#     4  10  21  38  62  90 120 154 192 239 291 344
#     4  12  26  42  61  84 114 153 198 246 290 342
#     4   9  17  32  57  89 123 154 188 234 287 346
#     4  10  21  39  63  89 119 154 192 237 290 347
#     4  11  25  43  61  83 114 153 199 246 289 342
#
# _framework density 20.224910999999999
#
# number of rings (size 3 to 8) (size 9 to 14) (size 15 to 20)
#    0.000    2.000    0.000    4.125    0.000    9.000 
#    0.000    3.750    0.000    0.000    0.000    0.000 
#    0.000    0.000    0.000    0.000    0.000    0.000 
#
# Total GULP energy -198425.114879 kJ/mol
# GULP energy per Si atom -12401.569680 kJ/mol
# Density = 2.017888 g / cm^3
# Si number density = 20.224911 Si / 1000 Ang^3
#
#
#
# Elastic Constant Matrix: (Units=GPa)
#
#
# Indices 1 2 3 4 5 6 
#
# 1 111.6506 144.8437 110.0992 0.0000 -34.2876 0.0000
# 2 144.8437 460.6843 267.9921 0.0000 -90.0606 0.0000
# 3 110.0992 267.9921 283.7348 0.0000 -65.8749 0.0000
# 4 0.0000 0.0000 0.0000 42.9314 0.0000 0.8862
# 5 -34.2876 -90.0606 -65.8749 0.0000 59.0317 0.0000
# 6 0.0000 0.0000 0.0000 0.8862 0.0000 32.3744
#
#
#
# Elastic Compliance Matrix: (Units=1/GPa)
#
#
# Indices 1 2 3 4 5 6 
#
# 1 0.016495 -0.003067 -0.003193 0.000000 0.001339 0.000000
# 2 -0.003067 0.005838 -0.003603 0.000000 0.003104 0.000000
# 3 -0.003193 -0.003603 0.008719 0.000000 0.002378 0.000000
# 4 0.000000 0.000000 0.000000 0.023306 0.000000 -0.000638
# 5 0.001339 0.003104 0.002378 0.000000 0.025107 0.000000
# 6 0.000000 0.000000 0.000000 -0.000638 0.000000 0.030906
#
#
# Mechanical properties :
#
#
# Convention : Reuss Voigt Hill
#
# Bulk Modulus (GPa) = 88.29861 211.32664 149.81262
# Shear Modulus (GPa) = 37.34904 49.07647 43.21276
#
# Velocity S-wave (km/s) = 4.30197 4.93133 4.62736
# Velocity P-wave (km/s) = 8.27218 11.71064 10.13825
#
# Compressibility (1/GPa) = 0.01132521
#
# Stress axis : x y z
#
# Youngs Moduli (GPa) = 60.62388 171.29431 114.69624
#
# Poissons Ratio (x) = 0.52538 0.36622
# Poissons Ratio (y) = 0.18594 0.41327
# Poissons Ratio (z) = 0.19357 0.61720
#
# Static dielectric constant tensor:
#      x y z
#    x 3.487230 0.000000 -0.037820 
#    y 0.000000 3.853700 0.000000 
#    z -0.037820 0.000000 3.811440 
# 
# 
# High freq. dielectric constant tensor:
#      x y z
#    x 1.787110 0.000000 -0.002690 
#    y 0.000000 1.803080 0.000000 
#    z -0.002690 0.000000 1.793180 
# 
# From -- ./inp_files/5897.got.cif
#   From: 2010.03.12/outbox.cif.g09.slc.cpg/sg6_3_cif.got.tgz:5897.got - 2010.03.30 10:24:59.
