data_PCOD8052416
_publ_section_title
;
Structure prediction by ZEFSAII (Michael W. Deem and Ramdas Pophale) SiO2 
 PCOD8052416
Probable space group: P M
;
_chemical_formula_sum "Si O2"
_cell_formula_units_Z 16
_cell_length_a 12.037576
_cell_length_b 8.630630
_cell_length_c 9.923070
_cell_angle_alpha 90.000000
_cell_angle_beta 54.699828
_cell_angle_gamma 90.000000
_cell_volume 841.375872
_symmetry_space_group_name_H-M "P M"
_symmetry_group_IT_number 6
_symmetry_cell_setting 'monoclinic'
loop_
_space_group_symop_operation_xyz
x,y,z
x,-y,z
loop_
_atom_site_type_symbol
_atom_site_label
_atom_site_fract_x
_atom_site_fract_y
_atom_site_fract_z
Si Si1 0.965000 0.679908 0.554110
Si Si2 0.129847 0.180396 0.667942
Si Si3 0.190833 0.680100 0.900740
Si Si4 0.460675 0.818962 0.081470
Si Si5 0.677547 0.819867 0.705783
Si Si6 0.498749 0.678080 0.614868
Si Si7 0.407289 0.679484 0.390545
Si Si8 0.160075 0.180415 0.200334
O O1 0.980797 0.500000 0.575654
O O2 0.811020 0.717603 0.624274
O O3 0.004961 0.776341 0.658765
O O4 0.059888 0.721256 0.362216
O O5 0.112988 0.273077 0.818997
O O6 0.269234 0.221380 0.492867
O O7 0.127088 0.000000 0.702688
O O8 0.166944 0.500000 0.945591
O O9 0.349372 0.720534 0.773373
O O10 0.129805 0.778334 0.066464
O O11 0.489429 0.726364 0.199301
O O12 0.314409 0.771553 0.125228
O O13 0.468369 0.000000 0.106942
O O14 0.574416 0.767836 0.895402
O O15 0.608195 0.787103 0.610198
O O16 0.715028 0.000000 0.688531
O O17 0.534234 0.500000 0.620847
O O18 0.503515 0.712863 0.451563
O O19 0.364281 0.500000 0.419224
O O20 0.132860 0.000000 0.245259
#
# Coordination Sequence:
#
# PCOD8052416 Si02
#       8
#     2   2   2   2   2   2   2   2
#     4  12  25  41  60  85 118 158 198 243 296 352
#     4  11  21  36  58  85 118 155 196 243 293 348
#     4  10  20  35  58  89 121 153 193 243 292 343
#     4  10  21  36  58  88 119 151 194 242 290 346
#     4  11  23  40  60  85 117 155 196 239 292 355
#     4   9  19  35  55  84 118 152 191 235 287 346
#     4  10  20  34  57  88 119 151 193 242 293 344
#     4  11  21  37  60  90 120 153 195 243 293 346
#
# _framework density 19.016472
#
# number of rings (size 3 to 8) (size 9 to 14) (size 15 to 20)
#    0.000    1.500    2.500    4.500    0.000    4.000 
#    0.000    1.250    0.000    3.000    0.000    0.000 
#    0.000    0.000    0.000    0.000    0.000    0.000 
#
# Total GULP energy -198492.341242 kJ/mol
# GULP energy per Si atom -12405.771328 kJ/mol
# Density = 1.897319 g / cm^3
# Si number density = 19.016472 Si / 1000 Ang^3
#
#
#
# Elastic Constant Matrix: (Units=GPa)
#
#
# Indices 1 2 3 4 5 6 
#
# 1 92.3743 27.1455 42.8373 0.0000 9.8438 0.0000
# 2 27.1455 66.8112 26.6019 0.0000 -2.1061 0.0000
# 3 42.8373 26.6019 89.1912 0.0000 13.4261 0.0000
# 4 0.0000 0.0000 0.0000 32.1545 0.0000 8.1541
# 5 9.8438 -2.1061 13.4261 0.0000 31.7187 0.0000
# 6 0.0000 0.0000 0.0000 8.1541 0.0000 28.6665
#
#
#
# Elastic Compliance Matrix: (Units=1/GPa)
#
#
# Indices 1 2 3 4 5 6 
#
# 1 0.014821 -0.003876 -0.005587 0.000000 -0.002492 0.000000
# 2 -0.003876 0.018369 -0.004253 0.000000 0.004223 0.000000
# 3 -0.005587 -0.004253 0.015962 0.000000 -0.005305 0.000000
# 4 0.000000 0.000000 0.000000 0.033518 0.000000 -0.009534
# 5 -0.002492 0.004223 -0.005305 0.000000 0.034826 0.000000
# 6 0.000000 0.000000 0.000000 -0.009534 0.000000 0.037596
#
#
# Mechanical properties :
#
#
# Convention : Reuss Voigt Hill
#
# Bulk Modulus (GPa) = 46.03930 49.06067 47.54998
# Shear Modulus (GPa) = 26.34861 28.62743 27.48802
#
# Velocity S-wave (km/s) = 3.72636 3.88416 3.80608
# Velocity P-wave (km/s) = 6.54042 6.78017 6.66137
#
# Compressibility (1/GPa) = 0.02172057
#
# Stress axis : x y z
#
# Youngs Moduli (GPa) = 67.47173 54.44055 62.64747
#
# Poissons Ratio (x) = 0.21100 0.35003
# Poissons Ratio (y) = 0.26150 0.26642
# Poissons Ratio (z) = 0.37698 0.23152
#
# Static dielectric constant tensor:
#      x y z
#    x 3.375210 0.000000 0.193230 
#    y 0.000000 3.440290 0.000000 
#    z 0.193230 0.000000 3.476920 
# 
# 
# High freq. dielectric constant tensor:
#      x y z
#    x 1.725590 0.000000 0.023870 
#    y 0.000000 1.747770 0.000000 
#    z 0.023870 0.000000 1.735780 
# 
# From -- ./inp_files/3752.got.cif
#   From: 2010.03.12/outbox.cif.g09.slc.cpg/sg6_2_cif.got.tgz:3752.got - 2010.03.30 10:24:59.
