data_PCOD8052272
_publ_section_title
;
Structure prediction by ZEFSAII (Michael W. Deem and Ramdas Pophale) SiO2 
 PCOD8052272
Probable space group: P M
;
_chemical_formula_sum "Si O2"
_cell_formula_units_Z 16
_cell_length_a 9.279456
_cell_length_b 9.012312
_cell_length_c 20.888281
_cell_angle_alpha 90.000000
_cell_angle_beta 29.711534
_cell_angle_gamma 90.000000
_cell_volume 865.809020
_symmetry_space_group_name_H-M "P M"
_symmetry_group_IT_number 6
_symmetry_cell_setting 'monoclinic'
loop_
_space_group_symop_operation_xyz
x,y,z
x,-y,z
loop_
_atom_site_type_symbol
_atom_site_label
_atom_site_fract_x
_atom_site_fract_y
_atom_site_fract_z
Si Si1 0.094910 0.836491 0.571220
Si Si2 0.302956 0.675459 0.791958
Si Si3 0.367283 0.676995 0.279372
Si Si4 0.658575 0.176794 0.287382
Si Si5 0.263249 0.676507 0.068965
Si Si6 0.578268 0.326779 0.819963
Si Si7 0.650096 0.675280 0.038519
Si Si8 0.821640 0.166602 0.536922
O O1 0.425692 0.780790 0.433013
O O2 0.908539 0.734028 0.690526
O O3 0.950364 0.837750 0.557722
O O4 0.093270 0.000000 0.602171
O O5 0.329571 0.500000 0.771665
O O6 0.396459 0.720509 0.827771
O O7 0.507577 0.754370 0.660492
O O8 0.978128 0.737004 0.906834
O O9 0.362299 0.500000 0.288542
O O10 0.574375 0.744328 0.253724
O O11 0.497553 0.731963 0.161841
O O12 0.038935 0.738835 0.408743
O O13 0.962921 0.238177 0.194493
O O14 0.663321 0.000000 0.274527
O O15 0.209125 0.500000 0.089593
O O16 0.469176 0.728675 0.047176
O O17 0.409937 0.733605 0.946840
O O18 0.612685 0.500000 0.812471
O O19 0.668470 0.500000 0.033805
O O20 0.788793 0.000000 0.521973
#
# Coordination Sequence:
#
# PCOD8052272 Si02
#       8
#     2   2   2   2   2   2   2   2
#     4   8  16  30  48  70  98 126 157 200 249 294
#     4   9  16  30  51  74  98 128 165 207 251 298
#     4  10  18  32  55  79 100 130 169 209 251 297
#     4  10  20  34  52  77 104 132 166 207 252 301
#     4  10  20  35  52  73 102 136 170 208 250 297
#     4   9  17  29  50  76  98 123 162 205 247 293
#     4   9  19  34  52  74 102 133 171 213 250 291
#     4   9  17  30  48  75 104 128 160 207 254 299
#
# _framework density 18.479825999999999
#
# number of rings (size 3 to 8) (size 9 to 14) (size 15 to 20)
#    0.000    2.750    0.000    2.625    0.000    6.000 
#    0.000    6.875    0.000    6.000    0.000    0.000 
#    0.000    0.000    0.000    0.000    0.000    0.000 
#
# Total GULP energy -198362.273122 kJ/mol
# GULP energy per Si atom -12397.642070 kJ/mol
# Density = 1.843777 g / cm^3
# Si number density = 18.479826 Si / 1000 Ang^3
#
#
#
# Elastic Constant Matrix: (Units=GPa)
#
#
# Indices 1 2 3 4 5 6 
#
# 1 73.2545 31.1328 62.8845 0.0000 -17.7889 0.0000
# 2 31.1328 59.1835 50.8463 0.0000 -9.1990 0.0000
# 3 62.8845 50.8463 177.9611 0.0000 -30.0593 0.0000
# 4 0.0000 0.0000 0.0000 22.0483 0.0000 -4.8358
# 5 -17.7889 -9.1990 -30.0593 0.0000 12.7681 0.0000
# 6 0.0000 0.0000 0.0000 -4.8358 0.0000 11.2428
#
#
#
# Elastic Compliance Matrix: (Units=1/GPa)
#
#
# Indices 1 2 3 4 5 6 
#
# 1 0.024511 -0.006922 -0.002918 0.000000 0.022293 0.000000
# 2 -0.006922 0.024372 -0.005280 0.000000 -0.004516 0.000000
# 3 -0.002918 -0.005280 0.011339 0.000000 0.018824 0.000000
# 4 0.000000 0.000000 0.000000 0.050079 0.000000 0.021541
# 5 0.022293 -0.004516 0.018824 0.000000 0.150443 0.000000
# 6 0.000000 0.000000 0.000000 0.021541 0.000000 0.098211
#
#
# Mechanical properties :
#
#
# Convention : Reuss Voigt Hill
#
# Bulk Modulus (GPa) = 33.35377 66.68069 50.01723
# Shear Modulus (GPa) = 12.52535 20.24753 16.38644
#
# Velocity S-wave (km/s) = 2.60626 3.31366 2.98102
# Velocity P-wave (km/s) = 5.21006 7.12754 6.24285
#
# Compressibility (1/GPa) = 0.02998162
#
# Stress axis : x y z
#
# Youngs Moduli (GPa) = 40.79730 41.03003 88.19426
#
# Poissons Ratio (x) = 0.28400 0.25737
# Poissons Ratio (y) = 0.28239 0.46570
# Poissons Ratio (z) = 0.11906 0.21665
#
# Static dielectric constant tensor:
#      x y z
#    x 3.166510 0.000000 -0.034800 
#    y 0.000000 3.326220 0.000000 
#    z -0.034800 0.000000 3.807240 
# 
# 
# High freq. dielectric constant tensor:
#      x y z
#    x 1.680610 0.000000 -0.005240 
#    y 0.000000 1.704140 0.000000 
#    z -0.005240 0.000000 1.737220 
# 
# From -- ./inp_files/4269.got.cif
#   From: 2010.03.12/outbox.cif.g09.slc.cpg/sg6_3_cif.got.tgz:4269.got - 2010.03.30 10:24:59.
