data_PCOD8052995
_publ_section_title
;
Structure prediction by ZEFSAII (Michael W. Deem and Ramdas Pophale) SiO2 
 PCOD8052995
Probable space group: C M
;
_chemical_formula_sum "Si O2"
_cell_formula_units_Z 24
_cell_length_a 18.485165
_cell_length_b 8.630638
_cell_length_c 24.025043
_cell_angle_alpha 90.000000
_cell_angle_beta 20.210014
_cell_angle_gamma 90.000000
_cell_volume 1324.131042
_symmetry_space_group_name_H-M "C M"
_symmetry_group_IT_number 8
_symmetry_cell_setting 'monoclinic'
loop_
_space_group_symop_operation_xyz
x,y,z
x,-y,z
1/2+x,1/2+y,z
1/2+x,1/2-y,z
loop_
_atom_site_type_symbol
_atom_site_label
_atom_site_fract_x
_atom_site_fract_y
_atom_site_fract_z
Si Si1 0.431860 0.684587 0.159660
Si Si2 0.296188 0.171315 0.038728
Si Si3 0.870853 0.182085 0.871411
Si Si4 0.182472 0.682197 0.230556
Si Si5 0.811298 0.169332 0.361294
Si Si6 0.734936 0.185070 0.534836
O O1 0.450895 0.500000 0.152007
O O2 0.313960 0.734567 0.189300
O O3 0.299683 0.752121 0.308950
O O4 0.664794 0.751857 0.990503
O O5 0.321709 0.272004 0.076386
O O6 0.054806 0.155003 0.198890
O O7 0.393605 0.000000 0.977477
O O8 0.412198 0.253079 0.903482
O O9 0.068234 0.227807 0.692176
O O10 0.849425 0.000000 0.891049
O O11 0.137083 0.500000 0.262706
O O12 0.965443 0.774103 0.390243
O O13 0.705864 0.249280 0.491657
O O14 0.708391 0.000000 0.430046
O O15 0.705816 0.000000 0.558290
#
# Coordination Sequence:
#
# PCOD8052995 Si02
#       6
#     4   4   4   4   4   4
#     4   9  18  34  54  76 104 136 168 206 256 308
#     4   9  17  32  52  72  99 135 172 207 253 310
#     4  11  21  33  52  77 103 132 174 220 255 297
#     4  10  19  32  53  80 106 133 171 213 250 297
#     4   7  13  28  50  71  91 126 170 202 237 296
#     4  10  19  33  53  74 101 138 175 210 255 306
#
# _framework density 18.125095000000002
#
# number of rings (size 3 to 8) (size 9 to 14) (size 15 to 20)
#    0.000    2.667    0.000    5.000    0.000    1.333 
#    0.000    2.500    0.000    8.000    0.000    0.000 
#    0.000    0.000    0.000    0.000    0.000    0.000 
#
# Total GULP energy -148680.403883 kJ/mol
# GULP energy per Si atom -12390.033657 kJ/mol
# Density = 1.808384 g / cm^3
# Si number density = 18.125095 Si / 1000 Ang^3
#
#
#
# Elastic Constant Matrix: (Units=GPa)
#
#
# Indices 1 2 3 4 5 6 
#
# 1 146.9501 21.9004 48.3586 0.0324 23.4461 0.0005
# 2 21.9004 53.6429 8.0745 -0.0456 2.7042 -0.0062
# 3 48.3586 8.0745 76.4532 -0.0975 24.9764 0.0021
# 4 0.0324 -0.0456 -0.0975 26.5147 0.0151 3.5367
# 5 23.4461 2.7042 24.9764 0.0151 28.4782 -0.0007
# 6 0.0005 -0.0062 0.0021 3.5367 -0.0007 25.9436
#
#
#
# Elastic Compliance Matrix: (Units=1/GPa)
#
#
# Indices 1 2 3 4 5 6 
#
# 1 0.009246 -0.002937 -0.004404 -0.000031 -0.003470 0.000004
# 2 -0.002937 0.019876 -0.000581 0.000035 0.001040 0.000000
# 3 -0.004404 -0.000581 0.020638 0.000090 -0.014419 -0.000014
# 4 -0.000031 0.000035 0.000090 0.038414 -0.000078 -0.005237
# 5 -0.003470 0.001040 -0.014419 -0.000078 0.050519 0.000013
# 6 0.000004 0.000000 -0.000014 -0.005237 0.000013 0.039259
#
#
# Mechanical properties :
#
#
# Convention : Reuss Voigt Hill
#
# Bulk Modulus (GPa) = 29.48609 48.19037 38.83823
# Shear Modulus (GPa) = 24.37824 29.43483 26.90653
#
# Velocity S-wave (km/s) = 3.67140 4.03424 3.85709
# Velocity P-wave (km/s) = 5.85454 6.95309 6.42733
#
# Compressibility (1/GPa) = 0.03391429
#
# Stress axis : x y z
#
# Youngs Moduli (GPa) = 108.15693 50.31224 48.45496
#
# Poissons Ratio (x) = 0.14776 0.21341
# Poissons Ratio (y) = 0.31764 0.02817
# Poissons Ratio (z) = 0.47636 0.02925
#
# Static dielectric constant tensor:
#      x y z
#    x 3.792700 0.000010 0.453140 
#    y 0.000010 3.298830 0.000040 
#    z 0.453140 0.000040 3.164040 
# 
# 
# High freq. dielectric constant tensor:
#      x y z
#    x 1.709930 0.000000 0.031940 
#    y 0.000000 1.694560 0.000000 
#    z 0.031940 0.000000 1.674660 
# 
# From -- ./inp_files/14189.got.cif
#   From: 2010.03.12/outbox.cif.g09.slc.cpg/sg8_8_cif.got.tgz:14189.got - 2010.03.31 10:45:26.
