data_PCOD8052144
_publ_section_title
;
Structure prediction by ZEFSAII (Michael W. Deem and Ramdas Pophale) SiO2 
 PCOD8052144
Probable space group: C 2
;
_chemical_formula_sum "Si O2"
_cell_formula_units_Z 28
_cell_length_a 21.021139
_cell_length_b 5.972777
_cell_length_c 10.160638
_cell_angle_alpha 90.000000
_cell_angle_beta 73.548946
_cell_angle_gamma 90.000000
_cell_volume 1223.489401
_symmetry_space_group_name_H-M "C 2"
_symmetry_group_IT_number 5
_symmetry_cell_setting 'monoclinic'
loop_
_space_group_symop_operation_xyz
x,y,z
-x,y,-z
1/2+x,1/2+y,z
1/2-x,1/2+y,-z
loop_
_atom_site_type_symbol
_atom_site_label
_atom_site_fract_x
_atom_site_fract_y
_atom_site_fract_z
Si Si1 0.152238 0.739670 0.541304
Si Si2 0.723107 0.079179 0.968962
Si Si3 0.000000 0.044865 0.500000
Si Si4 0.110530 0.369475 0.389891
Si Si5 0.973206 0.863219 0.244654
Si Si6 0.922282 0.504018 0.878356
Si Si7 0.767195 0.097105 0.655266
Si Si8 0.500000 0.691767 0.000000
O O1 0.103330 0.591576 0.480236
O O2 0.105148 0.824285 0.686347
O O3 0.213861 0.615257 0.571150
O O4 0.178878 0.919025 0.422862
O O5 0.731564 0.028818 0.810333
O O6 0.756453 0.327565 0.982658
O O7 0.646742 0.127772 0.049857
O O8 0.933934 0.186910 0.509572
O O9 0.010897 0.904467 0.360798
O O10 0.082194 0.386334 0.260211
O O11 0.189455 0.319526 0.344423
O O12 0.013836 0.663748 0.153932
O O13 0.972765 0.062136 0.141479
O O14 0.936048 0.327753 0.986000
#
# Coordination Sequence:
#
# PCOD8052144 Si02
#       8
#     4   4   2   4   4   4   4   2
#     4  12  27  48  77 111 152 199 264 334 404 479
#     4  12  30  51  82 116 160 217 270 334 405 493
#     4  12  24  46  80 108 150 196 266 320 394 484
#     4  12  24  49  74 111 153 201 255 324 399 478
#     4  12  28  48  78 114 151 206 262 335 403 481
#     4  12  28  50  76 113 160 208 268 322 411 488
#     4  12  27  47  74 112 153 203 264 331 405 480
#     4  12  30  50  76 112 160 202 262 342 398 484
#
# _framework density 22.885363999999999
#
# number of rings (size 3 to 8) (size 9 to 14) (size 15 to 20)
#    0.000    0.000    5.714    3.000    8.000    1.143 
#    0.000    0.000    0.000    0.000    0.000    0.000 
#    0.000    0.000    0.000    0.000    0.000    0.000 
#
# Total GULP energy -173485.772957 kJ/mol
# GULP energy per Si atom -12391.840925 kJ/mol
# Density = 2.283328 g / cm^3
# Si number density = 22.885364 Si / 1000 Ang^3
#
#
#
# Elastic Constant Matrix: (Units=GPa)
#
#
# Indices 1 2 3 4 5 6 
#
# 1 83.6179 20.2414 29.5961 0.0000 13.1205 0.0000
# 2 20.2414 89.6153 34.5077 0.0000 11.4201 0.0000
# 3 29.5961 34.5077 130.7759 0.0000 2.5738 0.0000
# 4 0.0000 0.0000 0.0000 31.3089 0.0000 -2.7101
# 5 13.1205 11.4201 2.5738 0.0000 51.3950 0.0000
# 6 0.0000 0.0000 0.0000 -2.7101 0.0000 37.3154
#
#
#
# Elastic Compliance Matrix: (Units=1/GPa)
#
#
# Indices 1 2 3 4 5 6 
#
# 1 0.013769 -0.001726 -0.002602 0.000000 -0.003001 0.000000
# 2 -0.001726 0.012994 -0.002993 0.000000 -0.002297 0.000000
# 3 -0.002602 -0.002993 0.009008 0.000000 0.000878 0.000000
# 4 0.000000 0.000000 0.000000 0.032142 0.000000 0.002334
# 5 -0.003001 -0.002297 0.000878 0.000000 0.020690 0.000000
# 6 0.000000 0.000000 0.000000 0.002334 0.000000 0.026968
#
#
# Mechanical properties :
#
#
# Convention : Reuss Voigt Hill
#
# Bulk Modulus (GPa) = 47.32623 52.52217 49.92420
# Shear Modulus (GPa) = 36.42893 38.64812 37.53852
#
# Velocity S-wave (km/s) = 3.99407 4.11392 4.05444
# Velocity P-wave (km/s) = 6.48033 6.75024 6.61666
#
# Compressibility (1/GPa) = 0.02112993
#
# Stress axis : x y z
#
# Youngs Moduli (GPa) = 72.62889 76.96011 111.01383
#
# Poissons Ratio (x) = 0.13281 0.28881
# Poissons Ratio (y) = 0.12533 0.33225
# Poissons Ratio (z) = 0.18895 0.23033
#
# Static dielectric constant tensor:
#      x y z
#    x 4.225610 0.000000 -0.050700 
#    y 0.000000 4.382810 0.000000 
#    z -0.050700 0.000000 4.182500 
# 
# 
# High freq. dielectric constant tensor:
#      x y z
#    x 1.912400 0.000000 -0.002000 
#    y 0.000000 1.904190 0.000000 
#    z -0.002000 0.000000 1.921570 
# 
# From -- ./inp_files/45657.got.cif
#   From: 2010.03.12/outbox.cif.g09.slc.cpg/sg5_23_cif.got.tgz:45657.got - 2010.03.31 09:47:26.
