data_PCOD8052946
_publ_section_title
;
Structure prediction by ZEFSAII (Michael W. Deem and Ramdas Pophale) SiO2 
 PCOD8052946
Probable space group: C M
;
_chemical_formula_sum "Si O2"
_cell_formula_units_Z 32
_cell_length_a 14.183159
_cell_length_b 9.062663
_cell_length_c 25.238373
_cell_angle_alpha 90.000000
_cell_angle_beta 145.830353
_cell_angle_gamma 90.000000
_cell_volume 1822.015914
_symmetry_space_group_name_H-M "C M"
_symmetry_group_IT_number 8
_symmetry_cell_setting 'monoclinic'
loop_
_space_group_symop_operation_xyz
x,y,z
x,-y,z
1/2+x,1/2+y,z
1/2+x,1/2-y,z
loop_
_atom_site_type_symbol
_atom_site_label
_atom_site_fract_x
_atom_site_fract_y
_atom_site_fract_z
Si Si1 0.161730 0.172627 0.806480
Si Si2 0.466149 0.827342 0.449338
Si Si3 0.991519 0.173219 0.936141
Si Si4 0.331314 0.325485 0.591416
Si Si5 0.910056 0.674184 0.305283
Si Si6 0.739928 0.673646 0.961108
Si Si7 0.570681 0.327329 0.091659
Si Si8 0.254073 0.823558 0.448450
O O1 0.310727 0.252468 0.844184
O O2 0.161856 0.219048 0.868164
O O3 0.985229 0.222762 0.699920
O O4 0.190723 0.000000 0.813405
O O5 0.660565 0.776239 0.541830
O O6 0.385804 0.782043 0.355578
O O7 0.360056 0.758833 0.448095
O O8 0.457467 0.000000 0.452812
O O9 0.116212 0.233930 0.949026
O O10 0.965074 0.000000 0.917877
O O11 0.069429 0.215908 0.029208
O O12 0.329536 0.500000 0.578713
O O13 0.345258 0.239280 0.542783
O O14 0.944186 0.500000 0.315026
O O15 0.746233 0.726370 0.197463
O O16 0.066808 0.761840 0.354244
O O17 0.764566 0.500000 0.977705
O O18 0.921141 0.747093 0.053292
O O19 0.545284 0.500000 0.088359
O O20 0.248838 0.000000 0.448682
#
# Coordination Sequence:
#
# PCOD8052946 Si02
#       8
#     4   4   4   4   4   4   4   4
#     4   9  18  32  50  70  92 124 163 194 225 277
#     4   8  16  31  49  67  91 123 155 188 229 280
#     4   9  18  32  49  71  99 126 153 192 239 277
#     4   9  18  34  51  67  93 127 158 190 234 284
#     4   9  18  34  51  67  94 130 159 186 231 285
#     4   9  18  32  49  70  97 127 157 191 233 278
#     4   9  18  32  50  71  95 125 159 193 231 276
#     4  10  19  31  49  73  95 118 156 200 236 273
#
# _framework density 17.562964000000001
#
# number of rings (size 3 to 8) (size 9 to 14) (size 15 to 20)
#    0.000    3.000    0.000    1.125    0.000    3.500 
#    0.000    7.500    0.000    0.000    0.000    0.000 
#    0.000    0.000    0.000    0.000    0.000    0.000 
#
# Total GULP energy -198385.935775 kJ/mol
# GULP energy per Si atom -12399.120986 kJ/mol
# Density = 1.752299 g / cm^3
# Si number density = 17.562964 Si / 1000 Ang^3
#
#
#
# Elastic Constant Matrix: (Units=GPa)
#
#
# Indices 1 2 3 4 5 6 
#
# 1 165.0732 37.9067 74.0333 0.0000 13.3983 0.0000
# 2 37.9067 33.1780 37.1997 0.0000 4.6635 0.0000
# 3 74.0333 37.1997 159.8683 0.0000 8.9763 0.0000
# 4 0.0000 0.0000 0.0000 28.0381 0.0000 4.3677
# 5 13.3983 4.6635 8.9763 0.0000 13.6516 0.0000
# 6 0.0000 0.0000 0.0000 4.3677 0.0000 25.9386
#
#
#
# Elastic Compliance Matrix: (Units=1/GPa)
#
#
# Indices 1 2 3 4 5 6 
#
# 1 0.009135 -0.007177 -0.002279 0.000000 -0.005016 0.000000
# 2 -0.007177 0.047275 -0.007440 0.000000 -0.004213 0.000000
# 3 -0.002279 -0.007440 0.009110 0.000000 -0.001212 0.000000
# 4 0.000000 0.000000 0.000000 0.036626 0.000000 -0.006167
# 5 -0.005016 -0.004213 -0.001212 0.000000 0.080410 0.000000
# 6 0.000000 0.000000 0.000000 -0.006167 0.000000 0.039591
#
#
# Mechanical properties :
#
#
# Convention : Reuss Voigt Hill
#
# Bulk Modulus (GPa) = 31.51836 72.93322 52.22579
# Shear Modulus (GPa) = 18.76068 27.45766 23.10917
#
# Velocity S-wave (km/s) = 3.27187 3.95825 3.63132
# Velocity P-wave (km/s) = 5.67965 7.90615 6.88352
#
# Compressibility (1/GPa) = 0.03172754
#
# Stress axis : x y z
#
# Youngs Moduli (GPa) = 109.46752 21.15292 109.77355
#
# Poissons Ratio (x) = 0.15182 0.25014
# Poissons Ratio (y) = 0.78567 0.81672
# Poissons Ratio (z) = 0.24944 0.15738
#
# Static dielectric constant tensor:
#      x y z
#    x 3.467550 0.000000 0.025120 
#    y 0.000000 3.059420 0.000000 
#    z 0.025120 0.000000 3.371260 
# 
# 
# High freq. dielectric constant tensor:
#      x y z
#    x 1.681900 0.000000 0.002930 
#    y 0.000000 1.661340 0.000000 
#    z 0.002930 0.000000 1.682230 
# 
# From -- ./inp_files/25934.got.cif
#   From: 2010.03.12/outbox.cif.g09.slc.cpg/sg8_13_cif.got.tgz:25934.got - 2010.03.31 10:45:26.
