data_PCOD8052920
_publ_section_title
;
Structure prediction by ZEFSAII (Michael W. Deem and Ramdas Pophale) SiO2 
 PCOD8052920
Probable space group: C M
;
_chemical_formula_sum "Si O2"
_cell_formula_units_Z 32
_cell_length_a 15.953535
_cell_length_b 17.730224
_cell_length_c 11.922340
_cell_angle_alpha 90.000000
_cell_angle_beta 152.908052
_cell_angle_gamma 90.000000
_cell_volume 1535.835001
_symmetry_space_group_name_H-M "C M"
_symmetry_group_IT_number 8
_symmetry_cell_setting 'monoclinic'
loop_
_space_group_symop_operation_xyz
x,y,z
x,-y,z
1/2+x,1/2+y,z
1/2+x,1/2-y,z
loop_
_atom_site_type_symbol
_atom_site_label
_atom_site_fract_x
_atom_site_fract_y
_atom_site_fract_z
Si Si1 0.919850 0.836326 0.985770
Si Si2 0.323958 0.174089 0.524859
Si Si3 0.923783 0.326353 0.897561
Si Si4 0.662971 0.589050 0.738027
Si Si5 0.830790 0.910836 0.658816
Si Si6 0.335770 0.334892 0.438816
Si Si7 0.555541 0.088385 0.632523
Si Si8 0.933000 0.588499 0.248432
O O1 0.885262 0.747968 0.924700
O O2 0.948794 0.879155 0.902460
O O3 0.751113 0.868919 0.857465
O O4 0.110148 0.849345 0.279109
O O5 0.393741 0.192054 0.731800
O O6 0.350861 0.245813 0.475887
O O7 0.448328 0.108463 0.618420
O O8 0.785921 0.391384 0.776021
O O9 0.129976 0.357331 0.158881
O O10 0.623126 0.500000 0.691229
O O11 0.472963 0.636324 0.504491
O O12 0.765329 0.618819 0.973842
O O13 0.905772 0.879915 0.631566
O O14 0.623302 0.879275 0.425166
O O15 0.847735 0.000000 0.680377
O O16 0.424125 0.110348 0.369557
O O17 0.600649 0.000000 0.684380
O O18 0.938709 0.500000 0.239603
#
# Coordination Sequence:
#
# PCOD8052920 Si02
#       8
#     4   4   4   4   4   4   4   4
#     4  10  22  41  64  93 123 167 215 257 317 372
#     4  11  25  42  63  93 129 173 211 250 314 391
#     4  11  24  43  62  90 133 171 208 257 314 384
#     4  11  23  38  62  93 124 167 213 260 315 372
#     4  10  18  36  65  93 124 153 204 271 314 355
#     4  11  23  40  62  94 124 166 216 258 314 370
#     4  10  22  40  63  93 126 163 209 266 316 365
#     4   8  17  34  59  91 122 152 200 265 315 349
#
# _framework density 20.835571000000002
#
# number of rings (size 3 to 8) (size 9 to 14) (size 15 to 20)
#    0.000    1.750    2.500    2.250    1.750    3.000 
#    0.000    1.250    0.000    0.000    0.000    0.000 
#    0.000    0.000    0.000    0.000    0.000    0.000 
#
# Total GULP energy -198417.902329 kJ/mol
# GULP energy per Si atom -12401.118896 kJ/mol
# Density = 2.078815 g / cm^3
# Si number density = 20.835571 Si / 1000 Ang^3
#
#
#
# Elastic Constant Matrix: (Units=GPa)
#
#
# Indices 1 2 3 4 5 6 
#
# 1 84.3242 18.9605 45.0403 0.0000 14.4201 0.0000
# 2 18.9605 72.4049 33.7995 0.0000 12.6706 0.0000
# 3 45.0403 33.7995 74.9531 0.0000 9.8162 0.0000
# 4 0.0000 0.0000 0.0000 25.9912 0.0000 2.6339
# 5 14.4201 12.6706 9.8162 0.0000 26.8224 0.0000
# 6 0.0000 0.0000 0.0000 2.6339 0.0000 36.3728
#
#
#
# Elastic Compliance Matrix: (Units=1/GPa)
#
#
# Indices 1 2 3 4 5 6 
#
# 1 0.018482 0.001391 -0.010867 0.000000 -0.006616 0.000000
# 2 0.001391 0.018453 -0.008316 0.000000 -0.006421 0.000000
# 3 -0.010867 -0.008316 0.023467 0.000000 0.001182 0.000000
# 4 0.000000 0.000000 0.000000 0.038759 0.000000 -0.002807
# 5 -0.006616 -0.006421 0.001182 0.000000 0.043440 0.000000
# 6 0.000000 0.000000 0.000000 -0.002807 0.000000 0.027696
#
#
# Mechanical properties :
#
#
# Convention : Reuss Voigt Hill
#
# Bulk Modulus (GPa) = 40.29380 47.47587 43.88483
# Shear Modulus (GPa) = 23.34784 26.76275 25.05530
#
# Velocity S-wave (km/s) = 3.35113 3.58784 3.47151
# Velocity P-wave (km/s) = 5.86126 6.32447 6.09727
#
# Compressibility (1/GPa) = 0.02481772
#
# Stress axis : x y z
#
# Youngs Moduli (GPa) = 54.10680 54.19280 42.61357
#
# Poissons Ratio (x) = -0.07537 0.46307
# Poissons Ratio (y) = -0.07525 0.35437
# Poissons Ratio (z) = 0.58796 0.45066
#
# Static dielectric constant tensor:
#      x y z
#    x 3.600350 0.000000 0.025860 
#    y 0.000000 3.596810 0.000000 
#    z 0.025860 0.000000 3.890240 
# 
# 
# High freq. dielectric constant tensor:
#      x y z
#    x 1.806670 0.000000 0.009940 
#    y 0.000000 1.808900 0.000000 
#    z 0.009940 0.000000 1.814520 
# 
# From -- ./inp_files/22403.got.cif
#   From: 2010.03.12/outbox.cif.g09.slc.cpg/sg8_12_cif.got.tgz:22403.got - 2010.03.31 10:45:26.
