data_PCOD8052133
_publ_section_title
;
Structure prediction by ZEFSAII (Michael W. Deem and Ramdas Pophale) SiO2 
 PCOD8052133
Probable space group: C 2
;
_chemical_formula_sum "Si O2"
_cell_formula_units_Z 20
_cell_length_a 7.929283
_cell_length_b 5.175804
_cell_length_c 23.409237
_cell_angle_alpha 90.000000
_cell_angle_beta 48.144784
_cell_angle_gamma 90.000000
_cell_volume 715.579833
_symmetry_space_group_name_H-M "C 2"
_symmetry_group_IT_number 5
_symmetry_cell_setting 'monoclinic'
loop_
_space_group_symop_operation_xyz
x,y,z
-x,y,-z
1/2+x,1/2+y,z
1/2-x,1/2+y,-z
loop_
_atom_site_type_symbol
_atom_site_label
_atom_site_fract_x
_atom_site_fract_y
_atom_site_fract_z
Si Si1 0.500000 0.128830 0.500000
Si Si2 0.393365 0.946897 0.301295
Si Si3 0.811143 0.247421 0.202488
Si Si4 0.954740 0.750191 0.896203
Si Si5 0.989145 0.278860 0.400547
Si Si6 0.000000 0.476235 0.000000
O O1 0.718932 0.281906 0.473527
O O2 0.594472 0.969876 0.424083
O O3 0.381310 0.733536 0.253924
O O4 0.532223 0.840917 0.324412
O O5 0.541127 0.205283 0.252075
O O6 0.133144 0.015953 0.377764
O O7 0.892764 0.533257 0.167643
O O8 0.929412 0.026929 0.138512
O O9 0.916649 0.674221 0.970512
O O10 0.699696 0.791558 0.930058
#
# Coordination Sequence:
#
# PCOD8052133 Si02
#       6
#     2   4   4   4   4   2
#     4  12  24  44  70 104 148 196 248 308 372 444
#     4  12  26  47  74 109 150 198 252 312 376 450
#     4  12  27  49  76 111 153 200 252 314 380 452
#     4  12  28  50  78 112 152 200 252 314 380 452
#     4  12  25  45  72 107 147 196 248 308 372 444
#     4  12  28  52  78 114 152 200 256 316 380 456
#
# _framework density 27.949363000000002
#
# number of rings (size 3 to 8) (size 9 to 14) (size 15 to 20)
#    0.000    0.000    0.000    9.600    0.000    8.800 
#    0.000    0.000    0.000    0.000    0.000    0.000 
#    0.000    0.000    0.000    0.000    0.000    0.000 
#
# Total GULP energy -123945.215384 kJ/mol
# GULP energy per Si atom -12394.521538 kJ/mol
# Density = 2.788575 g / cm^3
# Si number density = 27.949363 Si / 1000 Ang^3
#
#
#
# Elastic Constant Matrix: (Units=GPa)
#
#
# Indices 1 2 3 4 5 6 
#
# 1 133.5720 31.0240 23.2849 0.0006 -12.3859 0.0018
# 2 31.0240 79.4252 7.2749 0.0012 2.7400 0.0029
# 3 23.2849 7.2749 78.0966 0.0001 -18.3617 0.0020
# 4 0.0006 0.0012 0.0001 19.9825 0.0003 4.4729
# 5 -12.3859 2.7400 -18.3617 0.0003 46.6189 0.0005
# 6 0.0018 0.0029 0.0020 4.4729 0.0005 38.0338
#
#
#
# Elastic Compliance Matrix: (Units=1/GPa)
#
#
# Indices 1 2 3 4 5 6 
#
# 1 0.008747 -0.003306 -0.001882 0.000000 0.001777 0.000000
# 2 -0.003306 0.014024 -0.000795 -0.000001 -0.002015 -0.000001
# 3 -0.001882 -0.000795 0.014694 0.000000 0.005334 -0.000001
# 4 0.000000 -0.000001 0.000000 0.051397 0.000000 -0.006044
# 5 0.001777 -0.002015 0.005334 0.000000 0.024142 -0.000001
# 6 0.000000 -0.000001 -0.000001 -0.006044 -0.000001 0.027003
#
#
# Mechanical properties :
#
#
# Convention : Reuss Voigt Hill
#
# Bulk Modulus (GPa) = 39.21563 46.02906 42.62235
# Shear Modulus (GPa) = 31.15796 36.22771 33.69284
#
# Velocity S-wave (km/s) = 3.34248 3.60417 3.47579
# Velocity P-wave (km/s) = 5.38124 5.81589 5.60278
#
# Compressibility (1/GPa) = 0.02550003
#
# Stress axis : x y z
#
# Youngs Moduli (GPa) = 114.32117 71.30647 68.05486
#
# Poissons Ratio (x) = 0.23571 0.12810
# Poissons Ratio (y) = 0.37790 0.05408
# Poissons Ratio (z) = 0.21519 0.05666
#
# Static dielectric constant tensor:
#      x y z
#    x 5.271610 0.000000 0.104740 
#    y 0.000000 4.694910 0.000000 
#    z 0.104740 0.000000 5.307550 
# 
# 
# High freq. dielectric constant tensor:
#      x y z
#    x 2.148060 0.000000 0.004210 
#    y 0.000000 2.112460 0.000000 
#    z 0.004210 0.000000 2.147820 
# 
# From -- ./inp_files/59086.got.cif
#   From: 2010.03.12/outbox.cif.g09.slc.cpg/sg5_30_cif.got.tgz:59086.got - 2010.03.31 09:47:26.
