data_PCOD8052917
_publ_section_title
;
Structure prediction by ZEFSAII (Michael W. Deem and Ramdas Pophale) SiO2 
 PCOD8052917
Probable space group: C M
;
_chemical_formula_sum "Si O2"
_cell_formula_units_Z 24
_cell_length_a 5.127899
_cell_length_b 24.064148
_cell_length_c 8.838702
_cell_angle_alpha 90.000000
_cell_angle_beta 101.473608
_cell_angle_gamma 90.000000
_cell_volume 1068.887020
_symmetry_space_group_name_H-M "C M"
_symmetry_group_IT_number 8
_symmetry_cell_setting 'monoclinic'
loop_
_space_group_symop_operation_xyz
x,y,z
x,-y,z
1/2+x,1/2+y,z
1/2+x,1/2-y,z
loop_
_atom_site_type_symbol
_atom_site_label
_atom_site_fract_x
_atom_site_fract_y
_atom_site_fract_z
Si Si1 0.811770 0.120485 0.004130
Si Si2 0.305712 0.285562 0.231797
Si Si3 0.321952 0.000000 0.746276
Si Si4 0.470009 0.885670 0.673972
Si Si5 0.430614 0.325275 0.574857
Si Si6 0.882277 0.000000 0.951122
Si Si7 0.520981 0.718665 0.890671
O O1 0.742003 0.153634 0.150108
O O2 0.927713 0.057931 0.048598
O O3 0.558705 0.121830 0.860184
O O4 0.049915 0.154439 0.945959
O O5 0.572235 0.259946 0.187053
O O6 0.342170 0.295820 0.412900
O O7 0.346584 0.052968 0.638992
O O8 0.569321 0.000000 0.887548
O O9 0.050698 0.000000 0.814662
O O10 0.723085 0.874802 0.593975
O O11 0.234735 0.844905 0.599644
O O12 0.429803 0.278335 0.705535
O O13 0.777410 0.755026 0.959180
#
# Coordination Sequence:
#
# PCOD8052917 Si02
#       7
#     4   4   2   4   4   2   4
#     4  10  23  41  63  92 122 161 212 254 305 362
#     4  12  26  43  63  90 129 169 205 255 312 370
#     4  10  18  36  62  94 120 156 207 254 311 354
#     4  10  21  38  64  90 121 160 205 257 299 369
#     4  11  22  39  59  88 126 161 199 249 317 369
#     4  10  22  38  62  90 126 162 199 260 313 360
#     4  11  20  33  57  86 115 148 193 246 294 357
#
# _framework density 22.45326
#
# number of rings (size 3 to 8) (size 9 to 14) (size 15 to 20)
#    0.000    1.333    0.000    8.000    0.000    6.667 
#    0.000    1.667    0.000    0.000    0.000    0.000 
#    0.000    0.000    0.000    0.000    0.000    0.000 
#
# Total GULP energy -148723.268475 kJ/mol
# GULP energy per Si atom -12393.605706 kJ/mol
# Density = 2.240216 g / cm^3
# Si number density = 22.453260 Si / 1000 Ang^3
#
#
#
# Elastic Constant Matrix: (Units=GPa)
#
#
# Indices 1 2 3 4 5 6 
#
# 1 109.1358 45.2142 31.0917 0.0000 -2.5247 0.0000
# 2 45.2142 165.0338 36.9896 0.0000 4.2622 0.0000
# 3 31.0917 36.9896 89.4288 0.0000 -0.9711 0.0000
# 4 0.0000 0.0000 0.0000 28.7906 0.0000 -7.4708
# 5 -2.5247 4.2622 -0.9711 0.0000 27.9580 0.0000
# 6 0.0000 0.0000 0.0000 -7.4708 0.0000 30.7173
#
#
#
# Elastic Compliance Matrix: (Units=1/GPa)
#
#
# Indices 1 2 3 4 5 6 
#
# 1 0.010993 -0.002415 -0.002809 0.000000 0.001263 0.000000
# 2 -0.002415 0.007244 -0.002172 0.000000 -0.001398 0.000000
# 3 -0.002809 -0.002172 0.013063 0.000000 0.000531 0.000000
# 4 0.000000 0.000000 0.000000 0.037073 0.000000 0.009017
# 5 0.001263 -0.001398 0.000531 0.000000 0.036114 0.000000
# 6 0.000000 0.000000 0.000000 0.009017 0.000000 0.034748
#
#
# Mechanical properties :
#
#
# Convention : Reuss Voigt Hill
#
# Bulk Modulus (GPa) = 60.57771 65.57659 63.07715
# Shear Modulus (GPa) = 31.34231 34.18004 32.76117
#
# Velocity S-wave (km/s) = 3.74022 3.90587 3.82394
# Velocity P-wave (km/s) = 6.75946 7.04346 6.90292
#
# Compressibility (1/GPa) = 0.01650772
#
# Stress axis : x y z
#
# Youngs Moduli (GPa) = 90.96807 138.04927 76.55252
#
# Poissons Ratio (x) = 0.33334 0.21507
# Poissons Ratio (y) = 0.21966 0.16626
# Poissons Ratio (z) = 0.25557 0.29982
#
# Static dielectric constant tensor:
#      x y z
#    x 4.082160 0.000000 -0.020620 
#    y 0.000000 4.572090 0.000000 
#    z -0.020620 0.000000 3.886100 
# 
# 
# High freq. dielectric constant tensor:
#      x y z
#    x 1.896320 0.000000 -0.000700 
#    y 0.000000 1.889680 0.000000 
#    z -0.000700 0.000000 1.863520 
# 
# From -- ./inp_files/6934.got.cif
#   From: 2010.03.12/outbox.cif.g09.slc.cpg/sg8_4_cif.got.tgz:6934.got - 2010.03.31 10:45:26.
