data_PCOD8052783
_publ_section_title
;
Structure prediction by ZEFSAII (Michael W. Deem and Ramdas Pophale) SiO2 
 PCOD8052783
Probable space group: C M
;
_chemical_formula_sum "Si O2"
_cell_formula_units_Z 24
_cell_length_a 21.485757
_cell_length_b 7.595453
_cell_length_c 9.423523
_cell_angle_alpha 90.000000
_cell_angle_beta 63.746083
_cell_angle_gamma 90.000000
_cell_volume 1379.220860
_symmetry_space_group_name_H-M "C M"
_symmetry_group_IT_number 8
_symmetry_cell_setting 'monoclinic'
loop_
_space_group_symop_operation_xyz
x,y,z
x,-y,z
1/2+x,1/2+y,z
1/2+x,1/2-y,z
loop_
_atom_site_type_symbol
_atom_site_label
_atom_site_fract_x
_atom_site_fract_y
_atom_site_fract_z
Si Si1 0.843010 0.800568 0.170480
Si Si2 0.480223 0.803573 0.870257
Si Si3 0.084400 0.000000 0.759692
Si Si4 0.463879 0.303607 0.578909
Si Si5 0.240997 0.000000 0.266535
Si Si6 0.737876 0.500000 0.605578
Si Si7 0.842222 0.795787 0.499624
Si Si8 0.587754 0.500000 0.420380
O O1 0.782026 0.673692 0.174859
O O2 0.859547 0.760762 0.318014
O O3 0.817053 0.000000 0.175618
O O4 0.911747 0.767357 0.013499
O O5 0.543309 0.675114 0.848838
O O6 0.466688 0.816838 0.714912
O O7 0.498268 0.000000 0.905556
O O8 0.094098 0.000000 0.583005
O O9 0.161111 0.000000 0.752780
O O10 0.440603 0.500000 0.653658
O O11 0.409628 0.230774 0.518841
O O12 0.541231 0.325601 0.428084
O O13 0.232042 0.000000 0.442940
O O14 0.163896 0.000000 0.272657
O O15 0.777760 0.676428 0.615400
O O16 0.823832 0.000000 0.546038
#
# Coordination Sequence:
#
# PCOD8052783 Si02
#       8
#     4   4   2   4   2   2   4   2
#     4  10  18  30  49  73  98 127 161 201 243 285
#     4  11  19  30  50  73  96 131 167 198 243 289
#     4   9  18  34  45  71 104 129 158 208 243 285
#     4   8  16  32  50  71 100 127 155 203 242 281
#     4   9  16  30  47  73  98 127 162 198 241 291
#     4   9  18  30  51  71 102 129 160 200 249 287
#     4   9  18  31  51  75  98 126 161 199 244 291
#     4   7  14  30  51  65 102 131 148 202 249 273
#
# _framework density 17.401128
#
# number of rings (size 3 to 8) (size 9 to 14) (size 15 to 20)
#    0.500    2.333    2.500    0.000    1.167    0.667 
#    0.000    8.333    0.000    4.000    0.000    2.333 
#    0.000    0.000    0.000    0.000    0.000    0.000 
#
# Total GULP energy -148672.684911 kJ/mol
# GULP energy per Si atom -12389.390409 kJ/mol
# Density = 1.736152 g / cm^3
# Si number density = 17.401128 Si / 1000 Ang^3
#
#
#
# Elastic Constant Matrix: (Units=GPa)
#
#
# Indices 1 2 3 4 5 6 
#
# 1 142.8994 52.6338 43.5358 0.0000 -35.2208 0.0000
# 2 52.6338 107.0916 26.7808 0.0000 -18.2695 0.0000
# 3 43.5358 26.7808 47.7074 0.0000 -22.5174 0.0000
# 4 0.0000 0.0000 0.0000 18.0307 0.0000 -6.0858
# 5 -35.2208 -18.2695 -22.5174 0.0000 28.9297 0.0000
# 6 0.0000 0.0000 0.0000 -6.0858 0.0000 21.9202
#
#
#
# Elastic Compliance Matrix: (Units=1/GPa)
#
#
# Indices 1 2 3 4 5 6 
#
# 1 0.011737 -0.003077 -0.004989 0.000000 0.008463 0.000000
# 2 -0.003077 0.011878 -0.003300 0.000000 0.001186 0.000000
# 3 -0.004989 -0.003300 0.037172 0.000000 0.020775 0.000000
# 4 0.000000 0.000000 0.000000 0.061195 0.000000 0.016990
# 5 0.008463 0.001186 0.020775 0.000000 0.061789 0.000000
# 6 0.000000 0.000000 0.000000 0.016990 0.000000 0.050337
#
#
# Mechanical properties :
#
#
# Convention : Reuss Voigt Hill
#
# Bulk Modulus (GPa) = 26.27776 60.39993 43.33884
# Shear Modulus (GPa) = 18.55115 25.42597 21.98856
#
# Velocity S-wave (km/s) = 3.26864 3.82667 3.55861
# Velocity P-wave (km/s) = 5.42027 7.36955 6.46876
#
# Compressibility (1/GPa) = 0.03805500
#
# Stress axis : x y z
#
# Youngs Moduli (GPa) = 85.19873 84.19114 26.90230
#
# Poissons Ratio (x) = 0.25908 0.13421
# Poissons Ratio (y) = 0.26218 0.08876
# Poissons Ratio (z) = 0.42505 0.27779
#
# Static dielectric constant tensor:
#      x y z
#    x 3.587870 0.000000 -0.229860 
#    y 0.000000 3.302930 0.000000 
#    z -0.229860 0.000000 2.939370 
# 
# 
# High freq. dielectric constant tensor:
#      x y z
#    x 1.663490 0.000000 -0.015460 
#    y 0.000000 1.673850 0.000000 
#    z -0.015460 0.000000 1.634570 
# 
# From -- ./inp_files/16635.got.cif
#   From: 2010.03.12/outbox.cif.g09.slc.cpg/sg8_9_cif.got.tgz:16635.got - 2010.03.31 10:45:26.
