data_PCOD8052229
_publ_section_title
;
Structure prediction by ZEFSAII (Michael W. Deem and Ramdas Pophale) SiO2 
 PCOD8052229
Probable space group: P M
;
_chemical_formula_sum "Si O2"
_cell_formula_units_Z 16
_cell_length_a 11.687285
_cell_length_b 9.205706
_cell_length_c 9.544619
_cell_angle_alpha 90.000000
_cell_angle_beta 109.990212
_cell_angle_gamma 90.000000
_cell_volume 965.032957
_symmetry_space_group_name_H-M "P M"
_symmetry_group_IT_number 6
_symmetry_cell_setting 'monoclinic'
loop_
_space_group_symop_operation_xyz
x,y,z
x,-y,z
loop_
_atom_site_type_symbol
_atom_site_label
_atom_site_fract_x
_atom_site_fract_y
_atom_site_fract_z
Si Si1 0.069290 0.833365 0.430670
Si Si2 0.239408 0.671014 0.302387
Si Si3 0.884290 0.662587 0.511926
Si Si4 0.703234 0.328432 0.652690
Si Si5 0.184790 0.828648 0.009544
Si Si6 0.954592 0.338010 0.844524
Si Si7 0.275701 0.834501 0.744079
Si Si8 0.440458 0.670525 0.612796
O O1 0.119571 0.740183 0.322444
O O2 0.156406 0.815054 0.600180
O O3 0.936375 0.771926 0.417050
O O4 0.056289 0.000000 0.378241
O O5 0.219745 0.500000 0.276830
O O6 0.260477 0.746504 0.161450
O O7 0.357282 0.707898 0.444546
O O8 0.876114 0.500000 0.444103
O O9 0.751458 0.716532 0.515798
O O10 0.975116 0.659399 0.684671
O O11 0.686128 0.500000 0.641810
O O12 0.811802 0.291007 0.810073
O O13 0.573788 0.258375 0.639277
O O14 0.186909 0.000000 0.035868
O O15 0.246355 0.783544 0.889003
O O16 0.044511 0.775737 0.955178
O O17 0.979596 0.500000 0.915808
O O18 0.386568 0.739597 0.731113
O O19 0.319603 0.000000 0.761437
O O20 0.447696 0.500000 0.642219
#
# Coordination Sequence:
#
# PCOD8052229 Si02
#       8
#     2   2   2   2   2   2   2   2
#     4  10  17  29  46  68  96 122 154 193 234 279
#     4  10  21  32  46  69  97 127 158 192 231 277
#     4   8  14  25  45  70  93 116 145 188 232 272
#     4   7  13  27  47  71  94 118 151 195 236 267
#     4  11  20  32  47  68  98 128 155 188 237 287
#     4   8  15  27  47  71  93 117 149 191 232 274
#     4   9  18  29  44  66  92 121 154 193 235 275
#     4   9  17  31  50  71  93 121 158 196 229 271
#
# _framework density 16.579744999999999
#
# number of rings (size 3 to 8) (size 9 to 14) (size 15 to 20)
#    0.750    2.250    1.250    1.125    0.000    2.000 
#    0.000    1.250    0.000    1.500    0.000    7.000 
#    0.000    0.000    0.000    0.000    0.000    0.000 
#
# Total GULP energy -198211.076724 kJ/mol
# GULP energy per Si atom -12388.192295 kJ/mol
# Density = 1.654201 g / cm^3
# Si number density = 16.579745 Si / 1000 Ang^3
#
#
#
# Elastic Constant Matrix: (Units=GPa)
#
#
# Indices 1 2 3 4 5 6 
#
# 1 125.0812 46.0933 36.5303 0.0000 -10.8193 0.0000
# 2 46.0933 73.5197 36.5236 0.0000 -7.1087 0.0000
# 3 36.5303 36.5236 74.0183 0.0000 -12.7274 0.0000
# 4 0.0000 0.0000 0.0000 25.1867 0.0000 -5.9910
# 5 -10.8193 -7.1087 -12.7274 0.0000 15.7325 0.0000
# 6 0.0000 0.0000 0.0000 -5.9910 0.0000 16.0451
#
#
#
# Elastic Compliance Matrix: (Units=1/GPa)
#
#
# Indices 1 2 3 4 5 6 
#
# 1 0.010917 -0.005471 -0.002116 0.000000 0.003323 0.000000
# 2 -0.005471 0.020778 -0.007649 0.000000 -0.000562 0.000000
# 3 -0.002116 -0.007649 0.020310 0.000000 0.011519 0.000000
# 4 0.000000 0.000000 0.000000 0.043573 0.000000 0.016270
# 5 0.003323 -0.000562 0.011519 0.000000 0.074912 0.000000
# 6 0.000000 0.000000 0.000000 0.016270 0.000000 0.068399
#
#
# Mechanical properties :
#
#
# Convention : Reuss Voigt Hill
#
# Bulk Modulus (GPa) = 46.44629 56.76818 51.60723
# Shear Modulus (GPa) = 18.08064 21.62434 19.85249
#
# Velocity S-wave (km/s) = 3.30589 3.61538 3.46409
# Velocity P-wave (km/s) = 6.53044 7.19317 6.86980
#
# Compressibility (1/GPa) = 0.02153025
#
# Stress axis : x y z
#
# Youngs Moduli (GPa) = 91.60333 48.12868 49.23781
#
# Poissons Ratio (x) = 0.26333 0.10421
# Poissons Ratio (y) = 0.50120 0.37661
# Poissons Ratio (z) = 0.19388 0.36813
#
# Static dielectric constant tensor:
#      x y z
#    x 3.237730 0.000000 -0.094200 
#    y 0.000000 2.999690 0.000000 
#    z -0.094200 0.000000 2.863580 
# 
# 
# High freq. dielectric constant tensor:
#      x y z
#    x 1.626920 0.000000 -0.014210 
#    y 0.000000 1.632140 0.000000 
#    z -0.014210 0.000000 1.604970 
# 
# From -- ./inp_files/3620.got.cif
#   From: 2010.03.12/outbox.cif.g09.slc.cpg/sg6_2_cif.got.tgz:3620.got - 2010.03.30 10:24:59.
