data_PCOD8052602
_publ_section_title
;
Structure prediction by ZEFSAII (Michael W. Deem and Ramdas Pophale) SiO2 
 PCOD8052602
Probable space group: P C
;
_chemical_formula_sum "Si O2"
_cell_formula_units_Z 16
_cell_length_a 9.958537
_cell_length_b 16.931233
_cell_length_c 5.135870
_cell_angle_alpha 90.000000
_cell_angle_beta 120.202367
_cell_angle_gamma 90.000000
_cell_volume 748.409960
_symmetry_space_group_name_H-M "P C"
_symmetry_group_IT_number 7
_symmetry_cell_setting 'monoclinic'
loop_
_space_group_symop_operation_xyz
x,y,z
x,-y,1/2+z
loop_
_atom_site_type_symbol
_atom_site_label
_atom_site_fract_x
_atom_site_fract_y
_atom_site_fract_z
Si Si1 0.986030 0.714184 0.948100
Si Si2 0.820097 0.964109 0.447948
Si Si3 0.489882 0.786421 0.835933
Si Si4 0.486973 0.450808 0.927216
Si Si5 0.846683 0.549106 0.778231
Si Si6 0.476391 0.969282 0.727471
Si Si7 0.834199 0.783799 0.298244
Si Si8 0.344030 0.285040 0.694451
O O1 0.953463 0.622228 0.966883
O O2 0.890477 0.734585 0.597894
O O3 0.938395 0.767772 0.146883
O O4 0.165724 0.730443 0.080126
O O5 0.838456 0.875083 0.376890
O O6 0.901168 0.981014 0.804397
O O7 0.640804 0.991053 0.300229
O O8 0.488732 0.880667 0.839859
O O9 0.448478 0.760070 0.505818
O O10 0.661050 0.754696 0.066290
O O11 0.374721 0.749377 0.936619
O O12 0.447885 0.481459 0.178197
O O13 0.666709 0.425121 0.103123
O O14 0.379924 0.377479 0.746751
O O15 0.885586 0.518639 0.526983
O O16 0.387063 0.979052 0.363622
#
# Coordination Sequence:
#
# PCOD8052602 Si02
#       8
#     2   2   2   2   2   2   2   2
#     4  12  27  43  62  97 143 177 212 261 331 404
#     4  10  19  34  61  99 122 150 210 291 319 366
#     4  12  23  40  70  97 126 170 224 278 322 376
#     4  10  21  40  67  95 126 164 218 276 317 367
#     4  10  21  40  67  95 126 164 218 276 317 367
#     4  10  19  34  61  99 122 150 210 291 319 366
#     4  12  23  40  70  97 126 170 224 278 322 376
#     4  12  27  43  62  97 143 177 212 261 331 404
#
# _framework density 21.378658999999999
#
# number of rings (size 3 to 8) (size 9 to 14) (size 15 to 20)
#    0.000    1.000    2.500    6.000    3.500    3.000 
#    0.000    0.000    0.000   15.000    0.000    0.000 
#    0.000    0.000    0.000    0.000    0.000    0.000 
#
# Total GULP energy -198371.320742 kJ/mol
# GULP energy per Si atom -12398.207546 kJ/mol
# Density = 2.133000 g / cm^3
# Si number density = 21.378659 Si / 1000 Ang^3
#
#
#
# Elastic Constant Matrix: (Units=GPa)
#
#
# Indices 1 2 3 4 5 6 
#
# 1 97.7538 26.2726 31.1515 0.0000 -4.7268 0.0000
# 2 26.2726 101.1663 14.5250 0.0000 -3.8078 0.0000
# 3 31.1515 14.5250 106.5761 0.0000 -22.3277 0.0000
# 4 0.0000 0.0000 0.0000 26.7928 0.0000 -18.3020
# 5 -4.7268 -3.8078 -22.3277 0.0000 42.1134 0.0000
# 6 0.0000 0.0000 0.0000 -18.3020 0.0000 18.3555
#
#
#
# Elastic Compliance Matrix: (Units=1/GPa)
#
#
# Indices 1 2 3 4 5 6 
#
# 1 0.011954 -0.002660 -0.003263 0.000000 -0.000629 0.000000
# 2 -0.002660 0.010675 -0.000605 0.000000 0.000346 0.000000
# 3 -0.003263 -0.000605 0.011622 0.000000 0.005741 0.000000
# 4 0.000000 0.000000 0.000000 0.117039 0.000000 0.116698
# 5 -0.000629 0.000346 0.005741 0.000000 0.026750 0.000000
# 6 0.000000 0.000000 0.000000 0.116698 0.000000 0.170838
#
#
# Mechanical properties :
#
#
# Convention : Reuss Voigt Hill
#
# Bulk Modulus (GPa) = 47.18023 49.93271 48.55647
# Shear Modulus (GPa) = 13.55014 33.02214 23.28614
#
# Velocity S-wave (km/s) = 2.52030 3.93444 3.30392
# Velocity P-wave (km/s) = 5.53046 6.63678 6.10872
#
# Compressibility (1/GPa) = 0.02119532
#
# Stress axis : x y z
#
# Youngs Moduli (GPa) = 83.65309 93.67427 86.04375
#
# Poissons Ratio (x) = 0.24913 0.28080
# Poissons Ratio (y) = 0.22248 0.05206
# Poissons Ratio (z) = 0.27299 0.05668
#
# Static dielectric constant tensor:
#      x y z
#    x 3.855700 0.000000 -0.683250 
#    y 0.000000 3.802840 0.000000 
#    z -0.683250 0.000000 4.992230 
# 
# 
# High freq. dielectric constant tensor:
#      x y z
#    x 1.816020 0.000000 -0.032100 
#    y 0.000000 1.845980 0.000000 
#    z -0.032100 0.000000 1.858200 
# 
# From -- ./inp_files/760.got.cif
#   From: 2010.03.12/outbox.cif.g09.slc.cpg/sg7_cif.got.tgz:760.got - 2010.03.30 08:40:41.
