data_PCOD8052122
_publ_section_title
;
Structure prediction by ZEFSAII (Michael W. Deem and Ramdas Pophale) SiO2 
 PCOD8052122
Probable space group: C 2
;
_chemical_formula_sum "Si O2"
_cell_formula_units_Z 18
_cell_length_a 13.319193
_cell_length_b 4.970569
_cell_length_c 12.024078
_cell_angle_alpha 90.000000
_cell_angle_beta 109.376664
_cell_angle_gamma 90.000000
_cell_volume 750.952174
_symmetry_space_group_name_H-M "C 2"
_symmetry_group_IT_number 5
_symmetry_cell_setting 'monoclinic'
loop_
_space_group_symop_operation_xyz
x,y,z
-x,y,-z
1/2+x,1/2+y,z
1/2-x,1/2+y,-z
loop_
_atom_site_type_symbol
_atom_site_label
_atom_site_fract_x
_atom_site_fract_y
_atom_site_fract_z
Si Si1 0.000000 0.513330 0.500000
Si Si2 0.897228 0.942532 0.782937
Si Si3 0.226167 0.666846 0.555884
Si Si4 0.748922 0.868411 0.925588
Si Si5 0.979024 0.421963 0.249603
O O1 0.896187 0.703096 0.452311
O O2 0.000836 0.335041 0.386903
O O3 0.794202 0.019840 0.674157
O O4 0.855901 0.872825 0.890697
O O5 0.976548 0.195470 0.816887
O O6 0.960918 0.699567 0.751452
O O7 0.228574 0.464138 0.450522
O O8 0.646350 0.956821 0.816919
O O9 0.764840 0.066427 0.035334
#
# Coordination Sequence:
#
# PCOD8052122 Si02
#       5
#     2   4   4   4   4
#     4  12  24  44  72 106 140 180 226 272 350 412
#     4  12  25  46  69 104 138 179 229 287 339 402
#     4  12  24  42  67 104 141 179 223 277 342 412
#     4  12  28  49  72 100 136 182 235 287 337 404
#     4  12  27  44  74 104 138 182 226 279 347 407
#
# _framework density 23.969567999999999
#
# number of rings (size 3 to 8) (size 9 to 14) (size 15 to 20)
#    0.000    0.000    6.667    2.667    0.000    8.889 
#    0.000    0.000    0.000    0.000    0.000    0.000 
#    0.000    0.000    0.000    0.000    0.000    0.000 
#
# Total GULP energy -111631.788707 kJ/mol
# GULP energy per Si atom -12403.532079 kJ/mol
# Density = 2.391501 g / cm^3
# Si number density = 23.969568 Si / 1000 Ang^3
#
#
#
# Elastic Constant Matrix: (Units=GPa)
#
#
# Indices 1 2 3 4 5 6 
#
# 1 142.3425 27.9251 18.6083 0.0000 0.1700 0.0000
# 2 27.9251 96.4960 -0.8606 0.0000 0.0925 0.0000
# 3 18.6083 -0.8606 77.8723 0.0000 -3.7944 0.0000
# 4 0.0000 0.0000 0.0000 29.9271 0.0000 1.1656
# 5 0.1700 0.0925 -3.7944 0.0000 38.7866 0.0000
# 6 0.0000 0.0000 0.0000 1.1656 0.0000 28.9084
#
#
#
# Elastic Compliance Matrix: (Units=1/GPa)
#
#
# Indices 1 2 3 4 5 6 
#
# 1 0.007712 -0.002248 -0.001878 0.000000 -0.000212 0.000000
# 2 -0.002248 0.011020 0.000661 0.000000 0.000048 0.000000
# 3 -0.001878 0.000661 0.013362 0.000000 0.001314 0.000000
# 4 0.000000 0.000000 0.000000 0.033467 0.000000 -0.001349
# 5 -0.000212 0.000048 0.001314 0.000000 0.025911 0.000000
# 6 0.000000 0.000000 0.000000 -0.001349 0.000000 0.034646
#
#
# Mechanical properties :
#
#
# Convention : Reuss Voigt Hill
#
# Bulk Modulus (GPa) = 39.74035 45.33961 42.53998
# Shear Modulus (GPa) = 35.35161 37.59363 36.47262
#
# Velocity S-wave (km/s) = 3.84455 3.96459 3.90503
# Velocity P-wave (km/s) = 6.02685 6.31774 6.17401
#
# Compressibility (1/GPa) = 0.02516334
#
# Stress axis : x y z
#
# Youngs Moduli (GPa) = 129.66516 90.74713 74.84111
#
# Poissons Ratio (x) = 0.20403 0.14056
# Poissons Ratio (y) = 0.29154 -0.04950
# Poissons Ratio (z) = 0.24352 -0.06002
#
# Static dielectric constant tensor:
#      x y z
#    x 4.585510 0.000000 -0.032760 
#    y 0.000000 4.055780 0.000000 
#    z -0.032760 0.000000 4.201460 
# 
# 
# High freq. dielectric constant tensor:
#      x y z
#    x 1.977670 0.000000 0.004740 
#    y 0.000000 1.936800 0.000000 
#    z 0.004740 0.000000 1.944380 
# 
# From -- ./inp_files/37760.got.cif
#   From: 2010.03.12/outbox.cif.g09.slc.cpg/sg5_19_cif.got.tgz:37760.got - 2010.03.31 09:47:26.
