data_PCOD8052351
_publ_section_title
;
Structure prediction by ZEFSAII (Michael W. Deem and Ramdas Pophale) SiO2 
 PCOD8052351
Probable space group: P M
;
_chemical_formula_sum "Si O2"
_cell_formula_units_Z 16
_cell_length_a 10.252559
_cell_length_b 8.898718
_cell_length_c 12.120968
_cell_angle_alpha 90.000000
_cell_angle_beta 51.519503
_cell_angle_gamma 90.000000
_cell_volume 865.683111
_symmetry_space_group_name_H-M "P M"
_symmetry_group_IT_number 6
_symmetry_cell_setting 'monoclinic'
loop_
_space_group_symop_operation_xyz
x,y,z
x,-y,z
loop_
_atom_site_type_symbol
_atom_site_label
_atom_site_fract_x
_atom_site_fract_y
_atom_site_fract_z
Si Si1 0.854250 0.325520 0.550690
Si Si2 0.292836 0.328925 0.146503
Si Si3 0.629654 0.672075 0.867127
Si Si4 0.950028 0.823528 0.286443
Si Si5 0.886770 0.826718 0.883526
Si Si6 0.427508 0.326152 0.317552
Si Si7 0.807768 0.676997 0.144142
Si Si8 0.119643 0.174190 0.563386
O O1 0.878342 0.500000 0.511747
O O2 0.690040 0.294232 0.710655
O O3 0.834367 0.238145 0.446297
O O4 0.019206 0.270710 0.526657
O O5 0.226073 0.500000 0.176973
O O6 0.381397 0.294929 0.215494
O O7 0.142212 0.216103 0.207017
O O8 0.431603 0.300774 0.978571
O O9 0.673226 0.500000 0.877378
O O10 0.722557 0.780371 0.902928
O O11 0.892307 0.752052 0.203713
O O12 0.928974 0.000000 0.290674
O O13 0.049384 0.796661 0.722831
O O14 0.869732 0.000000 0.925047
O O15 0.906383 0.730407 0.983735
O O16 0.406363 0.500000 0.359876
O O17 0.615831 0.272106 0.237661
O O18 0.310604 0.228174 0.459705
O O19 0.825761 0.500000 0.144746
O O20 0.103697 0.000000 0.539153
#
# Coordination Sequence:
#
# PCOD8052351 Si02
#       8
#     2   2   2   2   2   2   2   2
#     4  10  19  34  57  83 112 149 189 232 278 329
#     4  10  19  36  59  86 114 145 189 237 277 327
#     4   9  18  34  58  85 112 144 189 236 278 325
#     4  12  25  39  56  83 117 153 188 228 283 342
#     4  10  20  34  54  84 118 149 183 227 282 337
#     4  10  20  35  59  86 112 144 191 238 277 328
#     4  11  23  41  61  82 111 150 192 234 280 335
#     4  10  20  33  54  85 118 148 183 230 281 331
#
# _framework density 18.482513999999998
#
# number of rings (size 3 to 8) (size 9 to 14) (size 15 to 20)
#    0.000    1.750    2.500    2.625    0.000    3.500 
#    0.000    1.250    0.000    1.500    0.000    0.000 
#    0.000    0.000    0.000    0.000    0.000    0.000 
#
# Total GULP energy -198453.400185 kJ/mol
# GULP energy per Si atom -12403.337512 kJ/mol
# Density = 1.844045 g / cm^3
# Si number density = 18.482514 Si / 1000 Ang^3
#
#
#
# Elastic Constant Matrix: (Units=GPa)
#
#
# Indices 1 2 3 4 5 6 
#
# 1 57.6122 29.3985 32.4791 0.0000 9.2785 0.0000
# 2 29.3985 92.1404 48.0158 0.0000 8.6533 0.0000
# 3 32.4791 48.0158 122.8869 0.0000 4.3259 0.0000
# 4 0.0000 0.0000 0.0000 31.8228 0.0000 3.8223
# 5 9.2785 8.6533 4.3259 0.0000 27.5883 0.0000
# 6 0.0000 0.0000 0.0000 3.8223 0.0000 21.4791
#
#
#
# Elastic Compliance Matrix: (Units=1/GPa)
#
#
# Indices 1 2 3 4 5 6 
#
# 1 0.022924 -0.004688 -0.004030 0.000000 -0.005608 0.000000
# 2 -0.004688 0.014923 -0.004507 0.000000 -0.002397 0.000000
# 3 -0.004030 -0.004507 0.010927 0.000000 0.001056 0.000000
# 4 0.000000 0.000000 0.000000 0.032110 0.000000 -0.005714
# 5 -0.005608 -0.002397 0.001056 0.000000 0.038720 0.000000
# 6 0.000000 0.000000 0.000000 -0.005714 0.000000 0.047574
#
#
# Mechanical properties :
#
#
# Convention : Reuss Voigt Hill
#
# Bulk Modulus (GPa) = 44.79510 54.71402 49.75456
# Shear Modulus (GPa) = 24.86712 27.02779 25.94745
#
# Velocity S-wave (km/s) = 3.67200 3.82821 3.75092
# Velocity P-wave (km/s) = 6.50133 7.01482 6.76295
#
# Compressibility (1/GPa) = 0.02232387
#
# Stress axis : x y z
#
# Youngs Moduli (GPa) = 43.62157 67.01221 91.51892
#
# Poissons Ratio (x) = 0.31413 0.36882
# Poissons Ratio (y) = 0.20448 0.41251
# Poissons Ratio (z) = 0.17579 0.30205
#
# Static dielectric constant tensor:
#      x y z
#    x 3.114530 0.000000 -0.063250 
#    y 0.000000 3.451690 0.000000 
#    z -0.063250 0.000000 3.729030 
# 
# 
# High freq. dielectric constant tensor:
#      x y z
#    x 1.682190 0.000000 -0.005540 
#    y 0.000000 1.723440 0.000000 
#    z -0.005540 0.000000 1.735030 
# 
# From -- ./inp_files/3660.got.cif
#   From: 2010.03.12/outbox.cif.g09.slc.cpg/sg6_2_cif.got.tgz:3660.got - 2010.03.30 10:24:59.
