data_PCOD8052541
_publ_section_title
;
Structure prediction by ZEFSAII (Michael W. Deem and Ramdas Pophale) SiO2 
 PCOD8052541
Probable space group: P M
;
_chemical_formula_sum "Si O2"
_cell_formula_units_Z 10
_cell_length_a 4.930389
_cell_length_b 13.535985
_cell_length_c 6.819181
_cell_angle_alpha 90.000000
_cell_angle_beta 80.068022
_cell_angle_gamma 90.000000
_cell_volume 448.275832
_symmetry_space_group_name_H-M "P M"
_symmetry_group_IT_number 6
_symmetry_cell_setting 'monoclinic'
loop_
_space_group_symop_operation_xyz
x,y,z
x,-y,z
loop_
_atom_site_type_symbol
_atom_site_label
_atom_site_fract_x
_atom_site_fract_y
_atom_site_fract_z
Si Si1 0.610830 0.813199 0.294470
Si Si2 0.240484 0.388419 0.792614
Si Si3 0.584854 0.108757 0.705067
Si Si4 0.155637 0.800110 0.033471
Si Si5 0.799134 0.306840 0.604677
O O1 0.531745 0.891115 0.475674
O O2 0.334716 0.795276 0.209436
O O3 0.730503 0.712735 0.384326
O O4 0.858363 0.849040 0.120586
O O5 0.172851 0.500000 0.864449
O O6 0.090325 0.360010 0.604254
O O7 0.565456 0.376588 0.726472
O O8 0.119597 0.313332 0.968453
O O9 0.796866 0.199682 0.722756
O O10 0.695393 0.000000 0.752049
O O11 0.299335 0.130930 0.852833
#
# Coordination Sequence:
#
# PCOD8052541 Si02
#       5
#     2   2   2   2   2
#     4  10  23  40  64  90 132 164 212 262 316 367
#     4  11  21  40  66  93 126 171 213 262 322 381
#     4   9  22  41  66  96 131 173 213 259 324 380
#     4  11  22  41  65  93 129 168 209 268 316 375
#     4   9  21  40  62  90 128 168 202 273 307 369
#
# _framework density 22.307693
#
# number of rings (size 3 to 8) (size 9 to 14) (size 15 to 20)
#    1.200    0.800    0.000    4.200    0.000    1.600 
#    0.000   20.000    0.000    0.000    0.000    0.000 
#    0.000    0.000    0.000    0.000    0.000    0.000 
#
# Total GULP energy -123889.698544 kJ/mol
# GULP energy per Si atom -12388.969854 kJ/mol
# Density = 2.225692 g / cm^3
# Si number density = 22.307693 Si / 1000 Ang^3
#
#
#
# Elastic Constant Matrix: (Units=GPa)
#
#
# Indices 1 2 3 4 5 6 
#
# 1 60.0312 24.1750 -5.4731 0.0000 8.3203 0.0000
# 2 24.1750 148.1721 19.7991 0.0000 0.6750 0.0000
# 3 -5.4731 19.7991 73.3393 0.0000 -16.9460 0.0000
# 4 0.0000 0.0000 0.0000 14.5571 0.0000 3.5572
# 5 8.3203 0.6750 -16.9460 0.0000 30.2837 0.0000
# 6 0.0000 0.0000 0.0000 3.5572 0.0000 16.7294
#
#
#
# Elastic Compliance Matrix: (Units=1/GPa)
#
#
# Indices 1 2 3 4 5 6 
#
# 1 0.018661 -0.003191 0.001247 0.000000 -0.004358 0.000000
# 2 -0.003191 0.007599 -0.002442 0.000000 -0.000659 0.000000
# 3 0.001247 -0.002442 0.016448 0.000000 0.008915 0.000000
# 4 0.000000 0.000000 0.000000 0.072460 0.000000 -0.015407
# 5 -0.004358 -0.000659 0.008915 0.000000 0.039222 0.000000
# 6 0.000000 0.000000 0.000000 -0.015407 0.000000 0.063051
#
#
# Mechanical properties :
#
#
# Convention : Reuss Voigt Hill
#
# Bulk Modulus (GPa) = 29.46787 39.83828 34.65308
# Shear Modulus (GPa) = 21.05048 28.51681 24.78364
#
# Velocity S-wave (km/s) = 3.07521 3.57927 3.33677
# Velocity P-wave (km/s) = 5.08406 5.91429 5.51482
#
# Compressibility (1/GPa) = 0.03393526
#
# Stress axis : x y z
#
# Youngs Moduli (GPa) = 53.58784 131.59802 60.79929
#
# Poissons Ratio (x) = 0.41999 -0.07583
# Poissons Ratio (y) = 0.17102 0.14846
# Poissons Ratio (z) = -0.06684 0.32134
#
# Static dielectric constant tensor:
#      x y z
#    x 3.800310 0.000000 0.007890 
#    y 0.000000 3.671400 0.000000 
#    z 0.007890 0.000000 3.998510 
# 
# 
# High freq. dielectric constant tensor:
#      x y z
#    x 1.878320 0.000000 0.002580 
#    y 0.000000 1.845050 0.000000 
#    z 0.002580 0.000000 1.876480 
# 
# From -- ./inp_files/223.got.cif
#   From: 2010.03.12/outbox.cif.g09.slc.cpg/sg6_1_cif.got.tgz:223.got - 2010.03.30 10:24:59.
