data_PCOD8052925
_publ_section_title
;
Structure prediction by ZEFSAII (Michael W. Deem and Ramdas Pophale) SiO2 
 PCOD8052925
Probable space group: C M
;
_chemical_formula_sum "Si O2"
_cell_formula_units_Z 32
_cell_length_a 9.343271
_cell_length_b 17.786373
_cell_length_c 11.776867
_cell_angle_alpha 90.000000
_cell_angle_beta 53.505190
_cell_angle_gamma 90.000000
_cell_volume 1573.344917
_symmetry_space_group_name_H-M "C M"
_symmetry_group_IT_number 8
_symmetry_cell_setting 'monoclinic'
loop_
_space_group_symop_operation_xyz
x,y,z
x,-y,z
1/2+x,1/2+y,z
1/2+x,1/2-y,z
loop_
_atom_site_type_symbol
_atom_site_label
_atom_site_fract_x
_atom_site_fract_y
_atom_site_fract_z
Si Si1 0.125000 0.412554 0.960640
Si Si2 0.462565 0.666500 0.723604
Si Si3 0.465375 0.648598 0.257696
Si Si4 0.578355 0.839675 0.429176
Si Si5 0.790450 0.675319 0.738510
Si Si6 0.788090 0.413387 0.971534
Si Si7 0.604824 0.332195 0.424706
Si Si8 0.983077 0.321341 0.220944
O O1 0.101252 0.500000 0.000096
O O2 0.320091 0.397692 0.819905
O O3 0.966824 0.384597 0.951236
O O4 0.124388 0.364274 0.076979
O O5 0.604415 0.681170 0.757130
O O6 0.354938 0.741666 0.741613
O O7 0.558670 0.630704 0.567182
O O8 0.266790 0.616516 0.328380
O O9 0.461290 0.648697 0.396951
O O10 0.502600 0.732176 0.190705
O O11 0.613564 0.595531 0.132607
O O12 0.437687 0.868363 0.590685
O O13 0.626036 0.755541 0.443557
O O14 0.491744 0.842748 0.347851
O O15 0.759145 0.629846 0.867879
O O16 0.811038 0.500000 0.929942
O O17 0.791010 0.355599 0.278652
#
# Coordination Sequence:
#
# PCOD8052925 Si02
#       8
#     4   4   4   4   4   4   4   4
#     4  11  25  42  60  85 123 169 208 248 298 356
#     4  11  23  39  65  94 121 158 200 250 306 360
#     4  10  20  36  63  91 120 155 195 249 306 356
#     4   9  20  33  61  96 117 148 192 251 309 355
#     4  11  23  40  64  93 123 157 200 252 303 361
#     4  11  25  43  59  84 125 168 208 250 297 355
#     4   9  18  35  61  90 120 148 192 253 303 360
#     4  10  18  38  61  89 121 149 197 251 302 359
#
# _framework density 20.338833000000001
#
# number of rings (size 3 to 8) (size 9 to 14) (size 15 to 20)
#    0.000    1.750    2.500    1.500    8.750    0.500 
#    0.000    2.500    0.000    0.000    0.000    0.000 
#    0.000    0.000    0.000    0.000    0.000    0.000 
#
# Total GULP energy -198297.350614 kJ/mol
# GULP energy per Si atom -12393.584413 kJ/mol
# Density = 2.029254 g / cm^3
# Si number density = 20.338833 Si / 1000 Ang^3
#
#
#
# Elastic Constant Matrix: (Units=GPa)
#
#
# Indices 1 2 3 4 5 6 
#
# 1 100.9130 20.7888 31.7710 0.0000 -9.8064 0.0000
# 2 20.7888 42.3896 18.9550 0.0000 5.4619 0.0000
# 3 31.7710 18.9550 104.2387 0.0000 1.3054 0.0000
# 4 0.0000 0.0000 0.0000 9.4363 0.0000 -4.2965
# 5 -9.8064 5.4619 1.3054 0.0000 37.3190 0.0000
# 6 0.0000 0.0000 0.0000 -4.2965 0.0000 19.5804
#
#
#
# Elastic Compliance Matrix: (Units=1/GPa)
#
#
# Indices 1 2 3 4 5 6 
#
# 1 0.012290 -0.005288 -0.002836 0.000000 0.004103 0.000000
# 2 -0.005288 0.028446 -0.003493 0.000000 -0.005431 0.000000
# 3 -0.002836 -0.003493 0.011101 0.000000 -0.000622 0.000000
# 4 0.000000 0.000000 0.000000 0.117737 0.000000 0.025835
# 5 0.004103 -0.005431 -0.000622 0.000000 0.028691 0.000000
# 6 0.000000 0.000000 0.000000 0.025835 0.000000 0.056740
#
#
# Mechanical properties :
#
#
# Convention : Reuss Voigt Hill
#
# Bulk Modulus (GPa) = 34.96103 43.39680 39.17891
# Shear Modulus (GPa) = 17.37482 25.00223 21.18853
#
# Velocity S-wave (km/s) = 2.92596 3.50992 3.23116
# Velocity P-wave (km/s) = 5.35178 6.14893 5.76415
#
# Compressibility (1/GPa) = 0.02860328
#
# Stress axis : x y z
#
# Youngs Moduli (GPa) = 81.36427 35.15467 90.08497
#
# Poissons Ratio (x) = 0.18590 0.25546
# Poissons Ratio (y) = 0.43026 0.31466
# Poissons Ratio (z) = 0.23073 0.12279
#
# Static dielectric constant tensor:
#      x y z
#    x 3.796840 0.000000 -0.136750 
#    y 0.000000 3.209950 0.000000 
#    z -0.136750 0.000000 3.878520 
# 
# 
# High freq. dielectric constant tensor:
#      x y z
#    x 1.809450 0.000000 -0.002450 
#    y 0.000000 1.743540 0.000000 
#    z -0.002450 0.000000 1.811580 
# 
# From -- ./inp_files/19272.got.cif
#   From: 2010.03.12/outbox.cif.g09.slc.cpg/sg8_10_cif.got.tgz:19272.got - 2010.03.31 10:45:26.
