data_PCOD8052389
_publ_section_title
;
Structure prediction by ZEFSAII (Michael W. Deem and Ramdas Pophale) SiO2 
 PCOD8052389
Probable space group: P M
;
_chemical_formula_sum "Si O2"
_cell_formula_units_Z 16
_cell_length_a 11.696048
_cell_length_b 8.733179
_cell_length_c 7.626212
_cell_angle_alpha 90.000000
_cell_angle_beta 87.182416
_cell_angle_gamma 90.000000
_cell_volume 778.027667
_symmetry_space_group_name_H-M "P M"
_symmetry_group_IT_number 6
_symmetry_cell_setting 'monoclinic'
loop_
_space_group_symop_operation_xyz
x,y,z
x,-y,z
loop_
_atom_site_type_symbol
_atom_site_label
_atom_site_fract_x
_atom_site_fract_y
_atom_site_fract_z
Si Si1 0.040390 0.679459 0.835470
Si Si2 0.787809 0.321855 0.402576
Si Si3 0.656120 0.679055 0.062816
Si Si4 0.810776 0.820810 0.757687
Si Si5 0.034607 0.321762 0.242453
Si Si6 0.289687 0.680372 0.694100
Si Si7 0.415371 0.819995 0.002383
Si Si8 0.263436 0.179930 0.336347
O O1 0.020274 0.500000 0.802168
O O2 0.162612 0.735531 0.755508
O O3 0.944162 0.774239 0.739606
O O4 0.034071 0.721073 0.039313
O O5 0.784558 0.500000 0.451931
O O6 0.753403 0.224210 0.576220
O O7 0.913805 0.273110 0.330927
O O8 0.698804 0.283998 0.255407
O O9 0.630145 0.500000 0.041627
O O10 0.753308 0.726247 0.918224
O O11 0.544127 0.777825 0.039518
O O12 0.795084 0.000000 0.792854
O O13 0.061134 0.500000 0.269414
O O14 0.131131 0.226588 0.335082
O O15 0.298171 0.500000 0.693317
O O16 0.321708 0.743512 0.500853
O O17 0.382490 0.742562 0.822622
O O18 0.330951 0.759071 0.160803
O O19 0.404281 0.000000 0.980889
O O20 0.275155 0.000000 0.354612
#
# Coordination Sequence:
#
# PCOD8052389 Si02
#       8
#     2   2   2   2   2   2   2   2
#     4  10  20  38  63  92 126 165 209 253 301 363
#     4  10  22  41  65  91 122 162 207 257 305 361
#     4  11  24  45  69  90 117 161 214 262 304 361
#     4  12  25  39  62  95 131 165 199 251 315 376
#     4  10  19  37  64  92 124 162 207 255 304 364
#     4  11  23  40  66  94 124 166 212 256 300 363
#     4  11  25  44  64  90 125 163 204 259 316 367
#     4  11  24  40  61  92 131 166 200 253 315 373
#
# _framework density 20.564820999999998
#
# number of rings (size 3 to 8) (size 9 to 14) (size 15 to 20)
#    0.000    1.250    2.500    3.375    0.000    8.500 
#    0.000    2.500    0.000    0.000    0.000    0.000 
#    0.000    0.000    0.000    0.000    0.000    0.000 
#
# Total GULP energy -198515.146398 kJ/mol
# GULP energy per Si atom -12407.196650 kJ/mol
# Density = 2.051801 g / cm^3
# Si number density = 20.564821 Si / 1000 Ang^3
#
#
#
# Elastic Constant Matrix: (Units=GPa)
#
#
# Indices 1 2 3 4 5 6 
#
# 1 77.5353 13.1927 13.9979 0.0000 20.3526 0.0000
# 2 13.1927 51.7648 31.2677 0.0000 5.1444 0.0000
# 3 13.9979 31.2677 108.5171 0.0000 25.1123 0.0000
# 4 0.0000 0.0000 0.0000 32.3432 0.0000 0.0268
# 5 20.3526 5.1444 25.1123 0.0000 25.0677 0.0000
# 6 0.0000 0.0000 0.0000 0.0268 0.0000 9.6316
#
#
#
# Elastic Compliance Matrix: (Units=1/GPa)
#
#
# Indices 1 2 3 4 5 6 
#
# 1 0.017341 -0.004493 0.002737 0.000000 -0.015899 0.000000
# 2 -0.004493 0.024678 -0.008075 0.000000 0.006673 0.000000
# 3 0.002737 -0.008075 0.014736 0.000000 -0.015327 0.000000
# 4 0.000000 0.000000 0.000000 0.030919 0.000000 -0.000086
# 5 -0.015899 0.006673 -0.015327 0.000000 0.066785 0.000000
# 6 0.000000 0.000000 0.000000 -0.000086 0.000000 0.103825
#
#
# Mechanical properties :
#
#
# Convention : Reuss Voigt Hill
#
# Bulk Modulus (GPa) = 26.95959 39.41486 33.18723
# Shear Modulus (GPa) = 17.22301 25.36575 21.29438
#
# Velocity S-wave (km/s) = 2.89710 3.51587 3.22137
# Velocity P-wave (km/s) = 4.93244 5.97407 5.47807
#
# Compressibility (1/GPa) = 0.03709255
#
# Stress axis : x y z
#
# Youngs Moduli (GPa) = 57.66646 40.52251 67.86270
#
# Poissons Ratio (x) = 0.18205 -0.18573
# Poissons Ratio (y) = 0.25907 0.54800
# Poissons Ratio (z) = -0.15783 0.32723
#
# Static dielectric constant tensor:
#      x y z
#    x 3.688870 0.000000 -0.009000 
#    y 0.000000 3.572230 0.000000 
#    z -0.009000 0.000000 3.921160 
# 
# 
# High freq. dielectric constant tensor:
#      x y z
#    x 1.800200 0.000000 0.005820 
#    y 0.000000 1.798900 0.000000 
#    z 0.005820 0.000000 1.821760 
# 
# From -- ./inp_files/3604.got.cif
#   From: 2010.03.12/outbox.cif.g09.slc.cpg/sg6_2_cif.got.tgz:3604.got - 2010.03.30 10:24:59.
