data_PCOD8052524
_publ_section_title
;
Structure prediction by ZEFSAII (Michael W. Deem and Ramdas Pophale) SiO2 
 PCOD8052524
Probable space group: P M
;
_chemical_formula_sum "Si O2"
_cell_formula_units_Z 12
_cell_length_a 9.602270
_cell_length_b 13.183681
_cell_length_c 5.124977
_cell_angle_alpha 90.000000
_cell_angle_beta 70.793465
_cell_angle_gamma 90.000000
_cell_volume 612.675310
_symmetry_space_group_name_H-M "P M"
_symmetry_group_IT_number 6
_symmetry_cell_setting 'monoclinic'
loop_
_space_group_symop_operation_xyz
x,y,z
x,-y,z
loop_
_atom_site_type_symbol
_atom_site_label
_atom_site_fract_x
_atom_site_fract_y
_atom_site_fract_z
Si Si1 0.471140 0.190573 0.171010
Si Si2 0.726266 0.299744 0.256642
Si Si3 0.609347 0.112259 0.564106
Si Si4 0.206867 0.324932 0.330099
Si Si5 0.026845 0.621867 0.947409
Si Si6 0.615936 0.500000 0.481950
Si Si7 0.431534 0.500000 0.095091
O O1 0.582021 0.287104 0.157856
O O2 0.494108 0.111508 0.393718
O O3 0.297493 0.219336 0.271265
O O4 0.515714 0.138674 0.875315
O O5 0.737389 0.196673 0.427378
O O6 0.710063 0.396999 0.460310
O O7 0.871391 0.321134 0.994070
O O8 0.680565 0.000000 0.548650
O O9 0.137868 0.345096 0.654243
O O10 0.082225 0.333215 0.187904
O O11 0.332527 0.403549 0.192068
O O12 0.009255 0.500000 0.967601
O O13 0.482248 0.500000 0.764218
O O14 0.566072 0.500000 0.211642
#
# Coordination Sequence:
#
# PCOD8052524 Si02
#       7
#     2   2   2   2   2   1   1
#     4  10  22  39  64  93 112 160 207 262 303 353
#     4  10  25  38  62  94 122 166 200 257 300 365
#     4  10  21  41  69  95 115 153 213 265 310 352
#     4  12  23  38  57  86 127 164 207 237 308 364
#     4  12  24  38  55  89 134 173 200 242 297 373
#     4  12  22  34  62  88 130 147 213 250 302 362
#     4  12  20  34  54  84 116 171 197 246 288 354
#
# _framework density 19.58623
#
# number of rings (size 3 to 8) (size 9 to 14) (size 15 to 20)
#    1.000    0.000    4.167    3.500    2.333    0.000 
#    0.000    0.000    0.000    6.000    0.000    0.000 
#    0.000    0.000    0.000    0.000    0.000    0.000 
#
# Total GULP energy -148694.825257 kJ/mol
# GULP energy per Si atom -12391.235438 kJ/mol
# Density = 1.954165 g / cm^3
# Si number density = 19.586230 Si / 1000 Ang^3
#
#
#
# Elastic Constant Matrix: (Units=GPa)
#
#
# Indices 1 2 3 4 5 6 
#
# 1 63.2816 20.0134 22.8505 0.0000 -6.3868 0.0000
# 2 20.0134 131.5346 50.3232 0.0000 -14.6949 0.0000
# 3 22.8505 50.3232 113.4048 0.0000 2.5790 0.0000
# 4 0.0000 0.0000 0.0000 3.2342 0.0000 1.9492
# 5 -6.3868 -14.6949 2.5790 0.0000 33.6417 0.0000
# 6 0.0000 0.0000 0.0000 1.9492 0.0000 24.7569
#
#
#
# Elastic Compliance Matrix: (Units=1/GPa)
#
#
# Indices 1 2 3 4 5 6 
#
# 1 0.017597 -0.001144 -0.003108 0.000000 0.003079 0.000000
# 2 -0.001144 0.009904 -0.004265 0.000000 0.004436 0.000000
# 3 -0.003108 -0.004265 0.011413 0.000000 -0.003328 0.000000
# 4 0.000000 0.000000 0.000000 0.324600 0.000000 -0.025556
# 5 0.003079 0.004436 -0.003328 0.000000 0.032502 0.000000
# 6 0.000000 0.000000 0.000000 -0.025556 0.000000 0.042405
#
#
# Mechanical properties :
#
#
# Convention : Reuss Voigt Hill
#
# Bulk Modulus (GPa) = 45.70635 54.95502 50.33069
# Shear Modulus (GPa) = 10.80499 26.66215 18.73357
#
# Velocity S-wave (km/s) = 2.35130 3.69354 3.09603
# Velocity P-wave (km/s) = 5.54600 6.80504 6.20752
#
# Compressibility (1/GPa) = 0.02187880
#
# Stress axis : x y z
#
# Youngs Moduli (GPa) = 56.82673 100.96868 87.62268
#
# Poissons Ratio (x) = 0.11555 0.27233
# Poissons Ratio (y) = 0.06503 0.37373
# Poissons Ratio (z) = 0.17662 0.43065
#
# Static dielectric constant tensor:
#      x y z
#    x 3.500040 0.000000 0.090750 
#    y 0.000000 3.510820 0.000000 
#    z 0.090750 0.000000 3.558220 
# 
# 
# High freq. dielectric constant tensor:
#      x y z
#    x 1.740650 0.000000 0.006180 
#    y 0.000000 1.749150 0.000000 
#    z 0.006180 0.000000 1.773660 
# 
# From -- ./inp_files/1708.got.cif
#   From: 2010.03.12/outbox.cif.g09.slc.cpg/sg6_1_cif.got.tgz:1708.got - 2010.03.30 10:24:59.
