data_PCOD8052485
_publ_section_title
;
Structure prediction by ZEFSAII (Michael W. Deem and Ramdas Pophale) SiO2 
 PCOD8052485
Probable space group: P M
;
_chemical_formula_sum "Si O2"
_cell_formula_units_Z 16
_cell_length_a 7.587517
_cell_length_b 8.784848
_cell_length_c 12.336613
_cell_angle_alpha 90.000000
_cell_angle_beta 90.361625
_cell_angle_gamma 90.000000
_cell_volume 822.282825
_symmetry_space_group_name_H-M "P M"
_symmetry_group_IT_number 6
_symmetry_cell_setting 'monoclinic'
loop_
_space_group_symop_operation_xyz
x,y,z
x,-y,z
loop_
_atom_site_type_symbol
_atom_site_label
_atom_site_fract_x
_atom_site_fract_y
_atom_site_fract_z
Si Si1 0.912940 0.180574 0.828510
Si Si2 0.610956 0.678999 0.689524
Si Si3 0.667610 0.181599 0.234018
Si Si4 0.233028 0.834377 0.446706
Si Si5 0.960990 0.181026 0.072482
Si Si6 0.647871 0.167060 0.471069
Si Si7 0.275139 0.817493 0.216846
Si Si8 0.232671 0.181768 0.678717
O O1 0.740092 0.260052 0.782242
O O2 0.086270 0.232501 0.763833
O O3 0.887511 0.000000 0.822979
O O4 0.937695 0.241066 0.950850
O O5 0.595959 0.500000 0.696945
O O6 0.690013 0.723377 0.572023
O O7 0.419811 0.749271 0.713218
O O8 0.806651 0.248022 0.148388
O O9 0.721869 0.233755 0.356844
O O10 0.473685 0.243244 0.198783
O O11 0.666621 0.000000 0.232350
O O12 0.441625 0.852683 0.455220
O O13 0.195340 0.751218 0.331415
O O14 0.172056 0.753517 0.558870
O O15 0.141435 0.000000 0.442976
O O16 0.150044 0.237871 0.118843
O O17 0.954061 0.000000 0.073927
O O18 0.730395 0.000000 0.496523
O O19 0.277395 0.000000 0.226491
O O20 0.255404 0.000000 0.673224
#
# Coordination Sequence:
#
# PCOD8052485 Si02
#       8
#     2   2   2   2   2   2   2   2
#     4  10  21  35  52  77 107 139 178 221 260 302
#     4  11  22  35  53  76 105 141 176 216 264 311
#     4   8  14  25  44  70 100 130 158 200 256 307
#     4   7  11  22  42  68  95 121 154 198 249 303
#     4   9  17  27  42  70 102 130 165 207 252 300
#     4   8  14  28  50  75 102 131 165 205 253 311
#     4   8  13  22  37  61  93 123 152 194 248 299
#     4   9  18  34  55  77 102 135 174 217 264 311
#
# _framework density 19.458027000000001
#
# number of rings (size 3 to 8) (size 9 to 14) (size 15 to 20)
#    0.000    3.250    0.000    3.375    0.000    2.500 
#    0.000    7.500    0.000    0.750    0.000    7.875 
#    0.000    0.000    0.000    0.000    0.000    0.000 
#
# Total GULP energy -198213.872772 kJ/mol
# GULP energy per Si atom -12388.367048 kJ/mol
# Density = 1.941374 g / cm^3
# Si number density = 19.458027 Si / 1000 Ang^3
#
#
#
# Elastic Constant Matrix: (Units=GPa)
#
#
# Indices 1 2 3 4 5 6 
#
# 1 66.3102 8.7237 27.2762 0.0000 -2.0200 0.0000
# 2 8.7237 28.9855 8.7029 0.0000 3.6987 0.0000
# 3 27.2762 8.7029 116.7939 0.0000 0.0798 0.0000
# 4 0.0000 0.0000 0.0000 1.6878 0.0000 -1.0636
# 5 -2.0200 3.6987 0.0798 0.0000 37.9120 0.0000
# 6 0.0000 0.0000 0.0000 -1.0636 0.0000 3.7251
#
#
#
# Elastic Compliance Matrix: (Units=1/GPa)
#
#
# Indices 1 2 3 4 5 6 
#
# 1 0.017202 -0.004236 -0.003703 0.000000 0.001338 0.000000
# 2 -0.004236 0.036786 -0.001749 0.000000 -0.003811 0.000000
# 3 -0.003703 -0.001749 0.009557 0.000000 -0.000047 0.000000
# 4 0.000000 0.000000 0.000000 0.722486 0.000000 0.206293
# 5 0.001338 -0.003811 -0.000047 0.000000 0.026820 0.000000
# 6 0.000000 0.000000 0.000000 0.206293 0.000000 0.327350
#
#
# Mechanical properties :
#
#
# Convention : Reuss Voigt Hill
#
# Bulk Modulus (GPa) = 22.64009 33.49947 28.06978
# Shear Modulus (GPa) = 4.25785 19.82410 12.04098
#
# Velocity S-wave (km/s) = 1.48087 3.19535 2.49030
# Velocity P-wave (km/s) = 3.81898 5.55584 4.76717
#
# Compressibility (1/GPa) = 0.04416943
#
# Stress axis : x y z
#
# Youngs Moduli (GPa) = 58.13379 27.18396 104.63348
#
# Poissons Ratio (x) = 0.11515 0.38741
# Poissons Ratio (y) = 0.24626 0.18303
# Poissons Ratio (z) = 0.21524 0.04755
#
# Static dielectric constant tensor:
#      x y z
#    x 3.552550 0.000000 -0.134030 
#    y 0.000000 2.838820 0.000000 
#    z -0.134030 0.000000 4.033230 
# 
# 
# High freq. dielectric constant tensor:
#      x y z
#    x 1.754650 0.000000 -0.001470 
#    y 0.000000 1.678470 0.000000 
#    z -0.001470 0.000000 1.769960 
# 
# From -- ./inp_files/4570.got.cif
#   From: 2010.03.12/outbox.cif.g09.slc.cpg/sg6_3_cif.got.tgz:4570.got - 2010.03.30 10:24:59.
