data_PCOD8052094
_publ_section_title
;
Structure prediction by ZEFSAII (Michael W. Deem and Ramdas Pophale) SiO2 
 PCOD8052094
Probable space group: C 2
;
_chemical_formula_sum "Si O2"
_cell_formula_units_Z 18
_cell_length_a 16.960013
_cell_length_b 8.175225
_cell_length_c 12.750215
_cell_angle_alpha 90.000000
_cell_angle_beta 23.296886
_cell_angle_gamma 90.000000
_cell_volume 699.173634
_symmetry_space_group_name_H-M "C 2"
_symmetry_group_IT_number 5
_symmetry_cell_setting 'monoclinic'
loop_
_space_group_symop_operation_xyz
x,y,z
-x,y,-z
1/2+x,1/2+y,z
1/2-x,1/2+y,-z
loop_
_atom_site_type_symbol
_atom_site_label
_atom_site_fract_x
_atom_site_fract_y
_atom_site_fract_z
Si Si1 0.807675 0.822870 0.026341
Si Si2 0.993089 0.605399 0.628837
Si Si3 0.787989 0.523438 0.312887
Si Si4 0.500000 0.572747 0.500000
Si Si5 0.706347 0.386638 0.631323
O O1 0.676020 0.683812 0.239093
O O2 0.675291 0.969281 0.145464
O O3 0.939698 0.755292 0.769159
O O4 0.964378 0.890449 0.922614
O O5 0.000000 0.662608 0.500000
O O6 0.207244 0.526093 0.397038
O O7 0.610411 0.460095 0.452338
O O8 0.798680 0.414376 0.403096
O O9 0.721715 0.708691 0.420052
O O10 0.000000 0.511169 0.000000
#
# Coordination Sequence:
#
# PCOD8052094 Si02
#       5
#     4   4   4   2   4
#     4  12  25  48  76 106 146 189 244 292 361 427
#     4  12  27  49  73 108 143 194 240 295 361 424
#     4  12  25  48  72 103 144 188 239 294 358 422
#     4  12  22  46  76 100 140 196 226 300 356 414
#     4  12  25  47  71 107 144 185 241 291 355 431
#
# _framework density 25.744678
#
# number of rings (size 3 to 8) (size 9 to 14) (size 15 to 20)
#    0.000    0.000    7.778    1.333    0.000    0.000 
#   12.000    1.111    0.000    0.000    0.000    0.000 
#    0.000    0.000    0.000    0.000    0.000    0.000 
#
# Total GULP energy -111627.849943 kJ/mol
# GULP energy per Si atom -12403.094438 kJ/mol
# Density = 2.568608 g / cm^3
# Si number density = 25.744678 Si / 1000 Ang^3
#
#
#
# Elastic Constant Matrix: (Units=GPa)
#
#
# Indices 1 2 3 4 5 6 
#
# 1 164.4231 -0.5706 47.5509 0.0000 -25.9743 0.0000
# 2 -0.5706 6.0575 8.9373 -0.0001 4.3143 0.0000
# 3 47.5509 8.9373 127.7928 -0.0001 -7.4643 0.0001
# 4 0.0000 -0.0001 -0.0001 18.5368 0.0001 -2.1925
# 5 -25.9743 4.3143 -7.4643 0.0001 48.7137 -0.0001
# 6 0.0000 0.0000 0.0001 -2.1925 -0.0001 39.3013
#
#
#
# Elastic Compliance Matrix: (Units=1/GPa)
#
#
# Indices 1 2 3 4 5 6 
#
# 1 0.007403 0.002352 -0.002725 0.000000 0.003321 0.000000
# 2 0.002352 0.202852 -0.016183 0.000001 -0.019191 0.000000
# 3 -0.002725 -0.016183 0.010060 0.000000 0.001522 0.000000
# 4 0.000000 0.000001 0.000000 0.054305 0.000000 0.003029
# 5 0.003321 -0.019191 0.001522 0.000000 0.024232 0.000000
# 6 0.000000 0.000000 0.000000 0.003029 0.000000 0.025613
#
#
# Mechanical properties :
#
#
# Convention : Reuss Voigt Hill
#
# Bulk Modulus (GPa) = 5.34177 45.56762 25.45469
# Shear Modulus (GPa) = 11.90539 37.46740 24.68640
#
# Velocity S-wave (km/s) = 2.15278 3.81904 3.09996
# Velocity P-wave (km/s) = 2.87379 6.09795 4.76674
#
# Compressibility (1/GPa) = 0.18720395
#
# Stress axis : x y z
#
# Youngs Moduli (GPa) = 135.08427 4.92969 99.40570
#
# Poissons Ratio (x) = -0.01160 0.27089
# Poissons Ratio (y) = -0.31778 1.60867
# Poissons Ratio (z) = 0.36811 0.07978
#
# Static dielectric constant tensor:
#      x y z
#    x 5.251010 0.000000 -0.109570 
#    y 0.000000 4.558750 0.000000 
#    z -0.109570 0.000000 4.699440 
# 
# 
# High freq. dielectric constant tensor:
#      x y z
#    x 2.058560 0.000000 -0.003310 
#    y 0.000000 2.015400 0.000000 
#    z -0.003310 0.000000 2.037720 
# 
# From -- ./inp_files/42124.got.cif
#   From: 2010.03.12/outbox.cif.g09.slc.cpg/sg5_22_cif.got.tgz:42124.got - 2010.03.31 09:47:26.
