data_PCOD8052482
_publ_section_title
;
Structure prediction by ZEFSAII (Michael W. Deem and Ramdas Pophale) SiO2 
 PCOD8052482
Probable space group: P M
;
_chemical_formula_sum "Si O2"
_cell_formula_units_Z 16
_cell_length_a 7.461224
_cell_length_b 13.134389
_cell_length_c 10.759877
_cell_angle_alpha 90.000000
_cell_angle_beta 132.468732
_cell_angle_gamma 90.000000
_cell_volume 777.813009
_symmetry_space_group_name_H-M "P M"
_symmetry_group_IT_number 6
_symmetry_cell_setting 'monoclinic'
loop_
_space_group_symop_operation_xyz
x,y,z
x,-y,z
loop_
_atom_site_type_symbol
_atom_site_label
_atom_site_fract_x
_atom_site_fract_y
_atom_site_fract_z
Si Si1 0.038100 0.115623 0.091230
Si Si2 0.542202 0.887376 0.003289
Si Si3 0.381075 0.386446 0.186215
Si Si4 0.975049 0.285094 0.866458
Si Si5 0.787719 0.243298 0.312634
Si Si6 0.190637 0.290158 0.325919
Si Si7 0.144162 0.249142 0.689188
Si Si8 0.474341 0.621666 0.679178
O O1 0.210948 0.177803 0.269760
O O2 0.768444 0.112057 0.017634
O O3 0.137901 0.000000 0.120148
O O4 0.022654 0.174794 0.952390
O O5 0.613876 0.841960 0.171862
O O6 0.449376 0.000000 0.988464
O O7 0.325225 0.831647 0.832469
O O8 0.468910 0.500000 0.208772
O O9 0.627048 0.322322 0.314302
O O10 0.213905 0.374778 0.230219
O O11 0.219729 0.351820 0.994431
O O12 0.949032 0.278262 0.705073
O O13 0.752770 0.343962 0.829221
O O14 0.925862 0.301329 0.264862
O O15 0.989850 0.199296 0.503178
O O16 0.398172 0.311829 0.523589
O O17 0.301791 0.345800 0.713461
O O18 0.454341 0.500000 0.649711
#
# Coordination Sequence:
#
# PCOD8052482 Si02
#       8
#     2   2   2   2   2   2   2   2
#     4   9  19  39  66  90 122 167 206 258 322 370
#     4  10  20  41  66  89 124 164 205 262 322 372
#     4  11  22  37  60  90 123 167 211 255 312 370
#     4  11  22  39  61  90 131 164 212 259 308 381
#     4  10  22  41  61  91 124 161 205 261 307 372
#     4   9  21  39  61  87 124 158 210 261 307 371
#     4  11  23  40  64  93 128 164 208 261 311 378
#     4  11  23  40  61  90 128 169 209 259 317 370
#
# _framework density 20.570497
#
# number of rings (size 3 to 8) (size 9 to 14) (size 15 to 20)
#    0.000    1.750    2.500    1.500    0.000    4.500 
#    0.000    2.500    0.000    1.500    0.000    0.000 
#    0.000    0.000    0.000    0.000    0.000    0.000 
#
# Total GULP energy -198309.362363 kJ/mol
# GULP energy per Si atom -12394.335148 kJ/mol
# Density = 2.052368 g / cm^3
# Si number density = 20.570497 Si / 1000 Ang^3
#
#
#
# Elastic Constant Matrix: (Units=GPa)
#
#
# Indices 1 2 3 4 5 6 
#
# 1 76.3321 47.2249 34.9602 0.0000 -16.3293 0.0000
# 2 47.2249 149.1043 66.5708 0.0000 -0.0212 0.0000
# 3 34.9602 66.5708 126.9483 0.0000 -2.0987 0.0000
# 4 0.0000 0.0000 0.0000 18.9924 0.0000 1.8387
# 5 -16.3293 -0.0212 -2.0987 0.0000 34.7344 0.0000
# 6 0.0000 0.0000 0.0000 1.8387 0.0000 20.5075
#
#
#
# Elastic Compliance Matrix: (Units=1/GPa)
#
#
# Indices 1 2 3 4 5 6 
#
# 1 0.019234 -0.004950 -0.002554 0.000000 0.008885 0.000000
# 2 -0.004950 0.010034 -0.003941 0.000000 -0.002559 0.000000
# 3 -0.002554 -0.003941 0.010638 0.000000 -0.000560 0.000000
# 4 0.000000 0.000000 0.000000 0.053114 0.000000 -0.004762
# 5 0.008885 -0.002559 -0.000560 0.000000 0.032931 0.000000
# 6 0.000000 0.000000 0.000000 -0.004762 0.000000 0.049190
#
#
# Mechanical properties :
#
#
# Convention : Reuss Voigt Hill
#
# Bulk Modulus (GPa) = 58.77063 72.21072 65.49067
# Shear Modulus (GPa) = 24.54576 28.42209 26.48393
#
# Velocity S-wave (km/s) = 3.45809 3.72114 3.59203
# Velocity P-wave (km/s) = 6.67660 7.32412 7.00784
#
# Compressibility (1/GPa) = 0.01701530
#
# Stress axis : x y z
#
# Youngs Moduli (GPa) = 51.99233 99.66548 94.00494
#
# Poissons Ratio (x) = 0.49336 0.24009
# Poissons Ratio (y) = 0.25737 0.37044
# Poissons Ratio (z) = 0.13279 0.39274
#
# Static dielectric constant tensor:
#      x y z
#    x 3.923240 0.000000 -0.135400 
#    y 0.000000 3.700720 0.000000 
#    z -0.135400 0.000000 3.735070 
# 
# 
# High freq. dielectric constant tensor:
#      x y z
#    x 1.818320 0.000000 -0.003330 
#    y 0.000000 1.782980 0.000000 
#    z -0.003330 0.000000 1.803860 
# 
# From -- ./inp_files/4827.got.cif
#   From: 2010.03.12/outbox.cif.g09.slc.cpg/sg6_3_cif.got.tgz:4827.got - 2010.03.30 10:24:59.
