data_PCOD8052262
_publ_section_title
;
Structure prediction by ZEFSAII (Michael W. Deem and Ramdas Pophale) SiO2 
 PCOD8052262
Probable space group: P M
;
_chemical_formula_sum "Si O2"
_cell_formula_units_Z 16
_cell_length_a 19.269477
_cell_length_b 8.708838
_cell_length_c 14.339100
_cell_angle_alpha 90.000000
_cell_angle_beta 19.273464
_cell_angle_gamma 90.000000
_cell_volume 794.269011
_symmetry_space_group_name_H-M "P M"
_symmetry_group_IT_number 6
_symmetry_cell_setting 'monoclinic'
loop_
_space_group_symop_operation_xyz
x,y,z
x,-y,z
loop_
_atom_site_type_symbol
_atom_site_label
_atom_site_fract_x
_atom_site_fract_y
_atom_site_fract_z
Si Si1 0.100770 0.820620 0.894380
Si Si2 0.378196 0.680908 0.383715
Si Si3 0.464406 0.818691 0.900382
Si Si4 0.839200 0.320222 0.766340
Si Si5 0.263430 0.180281 0.889033
Si Si6 0.664621 0.319075 0.480015
Si Si7 0.067851 0.679780 0.299678
Si Si8 0.261829 0.679993 0.322250
O O1 0.251458 0.778039 0.618714
O O2 0.219765 0.773362 0.838178
O O3 0.048612 0.000000 0.959125
O O4 0.885075 0.728471 0.154913
O O5 0.365904 0.500000 0.421738
O O6 0.282746 0.717484 0.403874
O O7 0.617226 0.745964 0.082726
O O8 0.656978 0.751212 0.594891
O O9 0.479513 0.000000 0.879919
O O10 0.258595 0.757054 0.111422
O O11 0.452838 0.758740 0.021773
O O12 0.834358 0.500000 0.790026
O O13 0.863827 0.288571 0.623231
O O14 0.035368 0.252198 0.576164
O O15 0.478209 0.259375 0.649968
O O16 0.288055 0.000000 0.871689
O O17 0.062283 0.240304 0.205200
O O18 0.648079 0.500000 0.507605
O O19 0.110637 0.500000 0.233078
O O20 0.277588 0.500000 0.281316
#
# Coordination Sequence:
#
# PCOD8052262 Si02
#       8
#     2   2   2   2   2   2   2   2
#     4  11  25  42  57  80 116 153 192 238 287 342
#     4  10  21  37  56  78 105 143 193 239 276 323
#     4  10  18  31  54  84 116 146 179 224 281 342
#     4   8  16  32  53  78 108 137 171 222 276 324
#     4  10  21  38  59  84 117 152 184 230 289 344
#     4  11  22  38  62  87 113 149 192 238 284 335
#     4   9  16  30  54  83 113 144 181 226 276 335
#     4   9  18  34  55  80 110 144 182 227 279 331
#
# _framework density 20.144307999999999
#
# number of rings (size 3 to 8) (size 9 to 14) (size 15 to 20)
#    0.000    2.250    0.000    5.625    0.000    4.500 
#    0.000    5.625    0.000    0.000    0.000    0.000 
#    0.000    0.000    0.000    0.000    0.000    0.000 
#
# Total GULP energy -198325.561381 kJ/mol
# GULP energy per Si atom -12395.347586 kJ/mol
# Density = 2.009846 g / cm^3
# Si number density = 20.144308 Si / 1000 Ang^3
#
#
#
# Elastic Constant Matrix: (Units=GPa)
#
#
# Indices 1 2 3 4 5 6 
#
# 1 92.3428 30.4044 26.6071 0.0000 14.8805 0.0000
# 2 30.4044 87.4285 11.7607 0.0000 7.6589 0.0000
# 3 26.6071 11.7607 90.9653 0.0000 14.2674 0.0000
# 4 0.0000 0.0000 0.0000 16.1173 0.0000 7.6400
# 5 14.8805 7.6589 14.2674 0.0000 31.7083 0.0000
# 6 0.0000 0.0000 0.0000 7.6400 0.0000 20.6797
#
#
#
# Elastic Compliance Matrix: (Units=1/GPa)
#
#
# Indices 1 2 3 4 5 6 
#
# 1 0.013627 -0.003995 -0.002816 0.000000 -0.004163 0.000000
# 2 -0.003995 0.012969 -0.000334 0.000000 -0.001107 0.000000
# 3 -0.002816 -0.000334 0.012524 0.000000 -0.004233 0.000000
# 4 0.000000 0.000000 0.000000 0.075218 0.000000 -0.027789
# 5 -0.004163 -0.001107 -0.004233 0.000000 0.035663 0.000000
# 6 0.000000 0.000000 0.000000 -0.027789 0.000000 0.058623
#
#
# Mechanical properties :
#
#
# Convention : Reuss Voigt Hill
#
# Bulk Modulus (GPa) = 40.27731 45.36453 42.82092
# Shear Modulus (GPa) = 21.62694 27.16536 24.39615
#
# Velocity S-wave (km/s) = 3.28014 3.67623 3.48382
# Velocity P-wave (km/s) = 5.86375 6.37089 6.12257
#
# Compressibility (1/GPa) = 0.02482788
#
# Stress axis : x y z
#
# Youngs Moduli (GPa) = 73.38350 77.10475 79.84586
#
# Poissons Ratio (x) = 0.30807 0.22488
# Poissons Ratio (y) = 0.29320 0.02671
# Poissons Ratio (z) = 0.20668 0.02579
#
# Static dielectric constant tensor:
#      x y z
#    x 3.767680 0.000000 0.165080 
#    y 0.000000 3.561350 0.000000 
#    z 0.165080 0.000000 4.066290 
# 
# 
# High freq. dielectric constant tensor:
#      x y z
#    x 1.780570 0.000000 0.009100 
#    y 0.000000 1.775650 0.000000 
#    z 0.009100 0.000000 1.790040 
# 
# From -- ./inp_files/4565.got.cif
#   From: 2010.03.12/outbox.cif.g09.slc.cpg/sg6_3_cif.got.tgz:4565.got - 2010.03.30 10:24:59.
