data_PCOD8052806
_publ_section_title
;
Structure prediction by ZEFSAII (Michael W. Deem and Ramdas Pophale) SiO2 
 PCOD8052806
Probable space group: C M
;
_chemical_formula_sum "Si O2"
_cell_formula_units_Z 24
_cell_length_a 18.873739
_cell_length_b 8.574563
_cell_length_c 24.855541
_cell_angle_alpha 90.000000
_cell_angle_beta 161.718572
_cell_angle_gamma 90.000000
_cell_volume 1261.788265
_symmetry_space_group_name_H-M "C M"
_symmetry_group_IT_number 8
_symmetry_cell_setting 'monoclinic'
loop_
_space_group_symop_operation_xyz
x,y,z
x,-y,z
1/2+x,1/2+y,z
1/2+x,1/2-y,z
loop_
_atom_site_type_symbol
_atom_site_label
_atom_site_fract_x
_atom_site_fract_y
_atom_site_fract_z
Si Si1 0.229700 0.679865 0.278580
Si Si2 0.657244 0.318917 0.935898
Si Si3 0.085779 0.819050 0.284102
Si Si4 0.210512 0.823656 0.651747
Si Si5 0.315846 0.681764 0.939572
Si Si6 0.526277 0.320659 0.638235
O O1 0.193174 0.500000 0.269997
O O2 0.158381 0.794680 0.274972
O O3 0.494776 0.704670 0.456348
O O4 0.057544 0.727185 0.106642
O O5 0.703468 0.500000 0.960770
O O6 0.405647 0.294892 0.776628
O O7 0.683268 0.235102 0.897323
O O8 0.833290 0.251957 0.107316
O O9 0.264090 0.731936 0.451340
O O10 0.081906 0.000000 0.296532
O O11 0.127444 0.791787 0.652208
O O12 0.301094 0.000000 0.710864
O O13 0.365204 0.500000 0.978419
O O14 0.165337 0.716146 0.779460
O O15 0.541891 0.500000 0.666872
#
# Coordination Sequence:
#
# PCOD8052806 Si02
#       6
#     4   4   4   4   4   4
#     4   9  17  32  53  75 102 137 174 210 254 308
#     4  11  21  34  54  78 106 139 176 215 256 305
#     4  10  18  31  52  76 103 135 174 213 253 306
#     4   9  19  35  55  78 104 135 172 215 261 308
#     4  11  21  34  54  79 107 137 174 216 258 306
#     4  10  20  36  56  78 106 137 172 213 260 311
#
# _framework density 19.020624000000002
#
# number of rings (size 3 to 8) (size 9 to 14) (size 15 to 20)
#    0.000    2.000    0.000    8.500    0.000    4.000 
#    0.000    1.667    0.000    6.000    0.000    0.000 
#    0.000    0.000    0.000    0.000    0.000    0.000 
#
# Total GULP energy -148762.136053 kJ/mol
# GULP energy per Si atom -12396.844671 kJ/mol
# Density = 1.897733 g / cm^3
# Si number density = 19.020624 Si / 1000 Ang^3
#
#
#
# Elastic Constant Matrix: (Units=GPa)
#
#
# Indices 1 2 3 4 5 6 
#
# 1 32.0444 20.6268 37.6555 0.0299 1.6340 0.0079
# 2 20.6268 102.4409 40.7484 0.1628 7.2636 -0.0098
# 3 37.6555 40.7484 159.4746 0.1045 4.1654 -0.0046
# 4 0.0299 0.1628 0.1045 38.6562 -0.0228 -0.8324
# 5 1.6340 7.2636 4.1654 -0.0228 29.0366 -0.0134
# 6 0.0079 -0.0098 -0.0046 -0.8324 -0.0134 23.7994
#
#
#
# Elastic Compliance Matrix: (Units=1/GPa)
#
#
# Indices 1 2 3 4 5 6 
#
# 1 0.045794 -0.005486 -0.009415 0.000013 0.000146 -0.000019
# 2 -0.005486 0.011683 -0.001628 -0.000042 -0.002380 0.000004
# 3 -0.009415 -0.001628 0.008919 -0.000010 -0.000342 0.000004
# 4 0.000013 -0.000042 -0.000010 0.025889 0.000032 0.000906
# 5 0.000146 -0.002380 -0.000342 0.000032 0.035076 0.000020
# 6 -0.000019 0.000004 0.000004 0.000906 0.000020 0.042050
#
#
# Mechanical properties :
#
#
# Convention : Reuss Voigt Hill
#
# Bulk Modulus (GPa) = 29.99580 54.66902 42.33241
# Shear Modulus (GPa) = 23.41049 31.29371 27.35210
#
# Velocity S-wave (km/s) = 3.51207 4.06057 3.79624
# Velocity P-wave (km/s) = 5.67896 7.12662 6.44357
#
# Compressibility (1/GPa) = 0.03333800
#
# Stress axis : x y z
#
# Youngs Moduli (GPa) = 21.83679 85.59741 112.12640
#
# Poissons Ratio (x) = 0.46960 1.05568
# Poissons Ratio (y) = 0.11980 0.18249
# Poissons Ratio (z) = 0.20560 0.13931
#
# Static dielectric constant tensor:
#      x y z
#    x 2.929550 0.000010 -0.058010 
#    y 0.000010 3.466640 -0.000200 
#    z -0.058010 -0.000200 4.002920 
# 
# 
# High freq. dielectric constant tensor:
#      x y z
#    x 1.679250 0.000000 -0.002260 
#    y 0.000000 1.752350 -0.000020 
#    z -0.002260 -0.000020 1.766680 
# 
# From -- ./inp_files/14205.got.cif
#   From: 2010.03.12/outbox.cif.g09.slc.cpg/sg8_8_cif.got.tgz:14205.got - 2010.03.31 10:45:26.
