data_PCOD8052283
_publ_section_title
;
Structure prediction by ZEFSAII (Michael W. Deem and Ramdas Pophale) SiO2 
 PCOD8052283
Probable space group: P M
;
_chemical_formula_sum "Si O2"
_cell_formula_units_Z 16
_cell_length_a 19.483214
_cell_length_b 9.062873
_cell_length_c 14.183429
_cell_angle_alpha 90.000000
_cell_angle_beta 19.511298
_cell_angle_gamma 90.000000
_cell_volume 836.459171
_symmetry_space_group_name_H-M "P M"
_symmetry_group_IT_number 6
_symmetry_cell_setting 'monoclinic'
loop_
_space_group_symop_operation_xyz
x,y,z
x,-y,z
loop_
_atom_site_type_symbol
_atom_site_label
_atom_site_fract_x
_atom_site_fract_y
_atom_site_fract_z
Si Si1 0.441480 0.330102 0.869860
Si Si2 0.605241 0.174775 0.180097
Si Si3 0.876388 0.175048 0.310484
Si Si4 0.000113 0.175201 0.774194
Si Si5 0.341505 0.670052 0.211225
Si Si6 0.091542 0.830537 0.223613
Si Si7 0.698603 0.170177 0.850167
Si Si8 0.147616 0.824480 0.785790
O O1 0.485279 0.500000 0.791139
O O2 0.654160 0.244831 0.591213
O O3 0.329962 0.308592 0.114227
O O4 0.292844 0.265861 0.981960
O O5 0.379519 0.238872 0.496028
O O6 0.595538 0.000000 0.192069
O O7 0.677032 0.229838 0.984370
O O8 0.769947 0.228169 0.044817
O O9 0.987763 0.226372 0.261764
O O10 0.849416 0.000000 0.343472
O O11 0.011922 0.234199 0.047733
O O12 0.156813 0.240884 0.496341
O O13 0.050223 0.233370 0.813979
O O14 0.021226 0.000000 0.740725
O O15 0.324330 0.500000 0.262826
O O16 0.558950 0.732152 0.963439
O O17 0.933167 0.811057 0.514738
O O18 0.160383 0.000000 0.123883
O O19 0.627268 0.000000 0.933935
O O20 0.152264 0.000000 0.779904
#
# Coordination Sequence:
#
# PCOD8052283 Si02
#       8
#     2   2   2   2   2   2   2   2
#     4  11  24  39  57  82 117 158 190 228 285 346
#     4   9  17  30  53  84 110 136 177 224 275 331
#     4  10  21  38  61  87 113 146 193 245 285 326
#     4  10  19  34  59  84 112 147 179 224 280 336
#     4  11  22  35  54  82 114 149 186 227 277 336
#     4  10  21  36  59  88 114 145 190 242 286 332
#     4  10  18  33  57  83 109 143 185 230 284 337
#     4   9  18  33  56  86 113 140 182 234 284 326
#
# _framework density 19.128247999999999
#
# number of rings (size 3 to 8) (size 9 to 14) (size 15 to 20)
#    0.000    2.000    2.500    1.500    0.000    4.500 
#    0.000    5.000    0.000    0.000    0.000    0.000 
#    0.000    0.000    0.000    0.000    0.000    0.000 
#
# Total GULP energy -198423.673916 kJ/mol
# GULP energy per Si atom -12401.479620 kJ/mol
# Density = 1.908471 g / cm^3
# Si number density = 19.128248 Si / 1000 Ang^3
#
#
#
# Elastic Constant Matrix: (Units=GPa)
#
#
# Indices 1 2 3 4 5 6 
#
# 1 113.9664 33.2045 85.2762 0.0000 -19.8735 0.0000
# 2 33.2045 39.1733 36.3906 0.0000 -7.5799 0.0000
# 3 85.2762 36.3906 115.4209 0.0000 -3.3743 0.0000
# 4 0.0000 0.0000 0.0000 6.3197 0.0000 3.0901
# 5 -19.8735 -7.5799 -3.3743 0.0000 39.8489 0.0000
# 6 0.0000 0.0000 0.0000 3.0901 0.0000 16.6446
#
#
#
# Elastic Compliance Matrix: (Units=1/GPa)
#
#
# Indices 1 2 3 4 5 6 
#
# 1 0.023304 -0.003036 -0.015977 0.000000 0.009692 0.000000
# 2 -0.003036 0.037945 -0.009578 0.000000 0.004893 0.000000
# 3 -0.015977 -0.009578 0.023260 0.000000 -0.007821 0.000000
# 4 0.000000 0.000000 0.000000 0.174033 0.000000 -0.032310
# 5 0.009692 0.004893 -0.007821 0.000000 0.030197 0.000000
# 6 0.000000 0.000000 0.000000 -0.032310 0.000000 0.066078
#
#
# Mechanical properties :
#
#
# Convention : Reuss Voigt Hill
#
# Bulk Modulus (GPa) = 36.59350 64.25590 50.42470
# Shear Modulus (GPa) = 11.87349 20.14194 16.00771
#
# Velocity S-wave (km/s) = 2.49415 3.24851 2.89600
# Velocity P-wave (km/s) = 5.24085 6.90909 6.13196
#
# Compressibility (1/GPa) = 0.02732726
#
# Stress axis : x y z
#
# Youngs Moduli (GPa) = 42.91060 26.35418 42.99307
#
# Poissons Ratio (x) = 0.08000 0.68692
# Poissons Ratio (y) = 0.13026 0.41177
# Poissons Ratio (z) = 0.68560 0.25241
#
# Static dielectric constant tensor:
#      x y z
#    x 3.702320 0.000000 -0.026060 
#    y 0.000000 3.184590 0.000000 
#    z -0.026060 0.000000 3.612400 
# 
# 
# High freq. dielectric constant tensor:
#      x y z
#    x 1.752640 0.000000 -0.006310 
#    y 0.000000 1.707160 0.000000 
#    z -0.006310 0.000000 1.749310 
# 
# From -- ./inp_files/3538.got.cif
#   From: 2010.03.12/outbox.cif.g09.slc.cpg/sg6_2_cif.got.tgz:3538.got - 2010.03.30 10:24:59.
