data_PCOD8052017
_publ_section_title
;
Structure prediction by ZEFSAII (Michael W. Deem and Ramdas Pophale) SiO2 
 PCOD8052017
Probable space group: C 2
;
_chemical_formula_sum "Si O2"
_cell_formula_units_Z 22
_cell_length_a 6.699402
_cell_length_b 12.592071
_cell_length_c 10.518276
_cell_angle_alpha 90.000000
_cell_angle_beta 88.230909
_cell_angle_gamma 90.000000
_cell_volume 886.891951
_symmetry_space_group_name_H-M "C 2"
_symmetry_group_IT_number 5
_symmetry_cell_setting 'monoclinic'
loop_
_space_group_symop_operation_xyz
x,y,z
-x,y,-z
1/2+x,1/2+y,z
1/2-x,1/2+y,-z
loop_
_atom_site_type_symbol
_atom_site_label
_atom_site_fract_x
_atom_site_fract_y
_atom_site_fract_z
Si Si1 0.666649 0.456600 0.324063
Si Si2 0.835497 0.234590 0.895612
Si Si3 0.638054 0.454945 0.883674
Si Si4 0.000000 0.791790 0.500000
Si Si5 0.361484 0.693179 0.614544
Si Si6 0.472724 0.042305 0.136175
O O1 0.490137 0.424130 0.234037
O O2 0.668955 0.363693 0.427763
O O3 0.622293 0.566896 0.393200
O O4 0.871655 0.464269 0.240238
O O5 0.744307 0.348058 0.931412
O O6 0.933091 0.235428 0.751845
O O7 0.652481 0.149123 0.887484
O O8 0.000000 0.203685 0.000000
O O9 0.791312 0.548718 0.831773
O O10 0.500000 0.501756 0.000000
O O11 0.872869 0.720761 0.404403
O O12 0.500000 0.741122 0.500000
O O13 0.500000 0.981469 0.000000
#
# Coordination Sequence:
#
# PCOD8052017 Si02
#       6
#     4   4   4   2   4   4
#     4  11  26  49  75 113 150 196 262 311 374 460
#     4  11  27  49  77 116 153 202 256 313 380 459
#     4  12  25  48  77 113 155 195 256 313 388 452
#     4  12  26  52  76 104 154 202 250 320 370 456
#     4  11  27  49  77 109 148 203 253 313 379 450
#     4  11  25  45  73 110 154 202 239 315 379 446
#
# _framework density 24.805727999999998
#
# number of rings (size 3 to 8) (size 9 to 14) (size 15 to 20)
#    0.000    0.727    4.545    1.091    7.636    2.909 
#    1.636    0.000    0.000    0.000    0.000    0.000 
#    0.000    0.000    0.000    0.000    0.000    0.000 
#
# Total GULP energy -136270.197275 kJ/mol
# GULP energy per Si atom -12388.199752 kJ/mol
# Density = 2.474927 g / cm^3
# Si number density = 24.805728 Si / 1000 Ang^3
#
#
#
# Elastic Constant Matrix: (Units=GPa)
#
#
# Indices 1 2 3 4 5 6 
#
# 1 141.0322 49.6121 55.1386 0.0000 -15.2772 0.0000
# 2 49.6121 95.8880 16.0080 0.0000 5.5583 0.0000
# 3 55.1386 16.0080 152.4478 0.0000 -14.2517 0.0000
# 4 0.0000 0.0000 0.0000 8.1674 0.0000 -8.9289
# 5 -15.2772 5.5583 -14.2517 0.0000 55.7126 0.0000
# 6 0.0000 0.0000 0.0000 -8.9289 0.0000 14.0323
#
#
#
# Elastic Compliance Matrix: (Units=1/GPa)
#
#
# Indices 1 2 3 4 5 6 
#
# 1 0.010270 -0.004969 -0.002954 0.000000 0.002556 0.000000
# 2 -0.004969 0.013123 0.000174 0.000000 -0.002627 0.000000
# 3 -0.002954 0.000174 0.007717 0.000000 0.001147 0.000000
# 4 0.000000 0.000000 0.000000 0.402275 0.000000 0.255972
# 5 0.002556 -0.002627 0.001147 0.000000 0.019206 0.000000
# 6 0.000000 0.000000 0.000000 0.255972 0.000000 0.234142
#
#
# Mechanical properties :
#
#
# Convention : Reuss Voigt Hill
#
# Bulk Modulus (GPa) = 64.05367 70.09838 67.07603
# Shear Modulus (GPa) = 7.06778 33.48974 20.27876
#
# Velocity S-wave (km/s) = 1.68980 3.67833 2.86230
# Velocity P-wave (km/s) = 5.44843 6.80885 6.16627
#
# Compressibility (1/GPa) = 0.01561191
#
# Stress axis : x y z
#
# Youngs Moduli (GPa) = 97.36801 76.20187 129.58409
#
# Poissons Ratio (x) = 0.37864 0.38278
# Poissons Ratio (y) = 0.48381 -0.02249
# Poissons Ratio (z) = 0.28762 -0.01323
#
# Static dielectric constant tensor:
#      x y z
#    x 5.187260 0.000000 -0.535570 
#    y 0.000000 4.149490 0.000000 
#    z -0.535570 0.000000 5.699580 
# 
# 
# High freq. dielectric constant tensor:
#      x y z
#    x 1.992170 0.000000 -0.006300 
#    y 0.000000 1.979910 0.000000 
#    z -0.006300 0.000000 1.996000 
# 
# From -- ./inp_files/33272.got.cif
#   From: 2010.03.12/outbox.cif.g09.slc.cpg/sg5_17_cif.got.tgz:33272.got - 2010.03.31 09:47:26.
