data_PCOD8052214
_publ_section_title
;
Structure prediction by ZEFSAII (Michael W. Deem and Ramdas Pophale) SiO2 
 PCOD8052214
Probable space group: C 2
;
_chemical_formula_sum "Si O2"
_cell_formula_units_Z 26
_cell_length_a 26.486572
_cell_length_b 10.005394
_cell_length_c 11.930191
_cell_angle_alpha 90.000000
_cell_angle_beta 150.730049
_cell_angle_gamma 90.000000
_cell_volume 1545.786862
_symmetry_space_group_name_H-M "C 2"
_symmetry_group_IT_number 5
_symmetry_cell_setting 'monoclinic'
loop_
_space_group_symop_operation_xyz
x,y,z
-x,y,-z
1/2+x,1/2+y,z
1/2-x,1/2+y,-z
loop_
_atom_site_type_symbol
_atom_site_label
_atom_site_fract_x
_atom_site_fract_y
_atom_site_fract_z
Si Si1 0.710139 0.051170 0.839162
Si Si2 0.271553 0.762447 0.376078
Si Si3 0.777111 0.564069 0.386194
Si Si4 0.196683 0.764075 0.983046
Si Si5 0.500000 0.154990 0.500000
Si Si6 0.610294 0.567921 0.254273
Si Si7 0.891179 0.763877 0.745502
O O1 0.753301 0.094157 0.800991
O O2 0.754448 0.155604 0.016100
O O3 0.582781 0.059521 0.593653
O O4 0.756249 0.906952 0.960211
O O5 0.360031 0.657760 0.581201
O O6 0.183543 0.742752 0.295960
O O7 0.318552 0.911687 0.472195
O O8 0.222855 0.729278 0.161668
O O9 0.680632 0.584609 0.280824
O O10 0.865281 0.668040 0.591579
O O11 0.071437 0.750424 0.719632
O O12 0.608907 0.416473 0.296730
O O13 0.500000 0.617188 0.000000
O O14 0.000000 0.716027 0.000000
#
# Coordination Sequence:
#
# PCOD8052214 Si02
#       7
#     4   4   4   4   2   4   4
#     4   9  19  36  55  79 109 143 184 225 271 325
#     4   9  18  33  50  72 106 136 169 220 266 305
#     4   9  18  33  50  73 104 134 171 220 259 313
#     4   9  19  36  56  78 107 147 181 229 271 323
#     4   8  20  36  60  74 112 150 172 228 282 316
#     4   9  18  34  50  74 106 138 173 214 269 315
#     4   9  18  28  50  75  98 133 175 212 256 324
#
# _framework density 16.819913
#
# number of rings (size 3 to 8) (size 9 to 14) (size 15 to 20)
#    0.923    2.154    0.000    0.000    2.154    1.846 
#    0.000    3.846    0.000    0.000    0.000    0.000 
#    0.000    0.000    0.000    0.000    0.000    0.000 
#
# Total GULP energy -161054.964353 kJ/mol
# GULP energy per Si atom -12388.843412 kJ/mol
# Density = 1.678163 g / cm^3
# Si number density = 16.819913 Si / 1000 Ang^3
#
#
#
# Elastic Constant Matrix: (Units=GPa)
#
#
# Indices 1 2 3 4 5 6 
#
# 1 31.7500 31.0476 29.6515 0.0000 -17.4254 0.0000
# 2 31.0476 101.3670 77.5842 0.0000 -13.7890 0.0000
# 3 29.6515 77.5842 128.4978 0.0000 -7.8441 0.0000
# 4 0.0000 0.0000 0.0000 45.2725 0.0000 0.4415
# 5 -17.4254 -13.7890 -7.8441 0.0000 32.8915 0.0000
# 6 0.0000 0.0000 0.0000 0.4415 0.0000 26.7534
#
#
#
# Elastic Compliance Matrix: (Units=1/GPa)
#
#
# Indices 1 2 3 4 5 6 
#
# 1 0.062889 -0.010623 -0.006429 0.000000 0.027331 0.000000
# 2 -0.010623 0.021027 -0.010198 0.000000 0.000755 0.000000
# 3 -0.006429 -0.010198 0.015175 0.000000 -0.004062 0.000000
# 4 0.000000 0.000000 0.000000 0.022092 0.000000 -0.000365
# 5 0.027331 0.000755 -0.004062 0.000000 0.044230 0.000000
# 6 0.000000 0.000000 0.000000 -0.000365 0.000000 0.037384
#
#
# Mechanical properties :
#
#
# Convention : Reuss Voigt Hill
#
# Bulk Modulus (GPa) = 22.42698 59.79793 41.11245
# Shear Modulus (GPa) = 18.37137 29.20558 23.78848
#
# Velocity S-wave (km/s) = 3.30849 4.17150 3.76480
# Velocity P-wave (km/s) = 5.28747 7.67013 6.58742
#
# Compressibility (1/GPa) = 0.04458916
#
# Stress axis : x y z
#
# Youngs Moduli (GPa) = 15.90115 47.55728 65.89635
#
# Poissons Ratio (x) = 0.50522 0.42366
# Poissons Ratio (y) = 0.16893 0.67203
# Poissons Ratio (z) = 0.10223 0.48500
#
# Static dielectric constant tensor:
#      x y z
#    x 2.929150 0.000000 -0.103190 
#    y 0.000000 3.257510 0.000000 
#    z -0.103190 0.000000 3.147490 
# 
# 
# High freq. dielectric constant tensor:
#      x y z
#    x 1.641540 0.000000 -0.007540 
#    y 0.000000 1.648400 0.000000 
#    z -0.007540 0.000000 1.640030 
# 
# From -- ./inp_files/38885.got.cif
#   From: 2010.03.12/outbox.cif.g09.slc.cpg/sg5_20_cif.got.tgz:38885.got - 2010.03.31 09:47:26.
