data_PCOD8052560
_publ_section_title
;
Structure prediction by ZEFSAII (Michael W. Deem and Ramdas Pophale) SiO2 
 PCOD8052560
Probable space group: P M
;
_chemical_formula_sum "Si O2"
_cell_formula_units_Z 16
_cell_length_a 5.432037
_cell_length_b 22.267353
_cell_length_c 5.432049
_cell_angle_alpha 90.000000
_cell_angle_beta 83.310221
_cell_angle_gamma 90.000000
_cell_volume 652.571290
_symmetry_space_group_name_H-M "P M"
_symmetry_group_IT_number 6
_symmetry_cell_setting 'monoclinic'
loop_
_space_group_symop_operation_xyz
x,y,z
x,-y,z
loop_
_atom_site_type_symbol
_atom_site_label
_atom_site_fract_x
_atom_site_fract_y
_atom_site_fract_z
Si Si1 0.514120 0.930325 0.127790
Si Si2 0.894970 0.839842 0.985243
Si Si3 0.028537 0.263939 0.262208
Si Si4 0.469205 0.430324 0.172694
Si Si5 0.603631 0.236060 0.687114
Si Si6 0.975662 0.378510 0.971358
Si Si7 0.326664 0.339842 0.553546
Si Si8 0.312781 0.121488 0.634246
O O1 0.332623 0.917699 0.382067
O O2 0.577777 0.000000 0.114716
O O3 0.770419 0.894406 0.150069
O O4 0.411000 0.911536 0.871504
O O5 0.682563 0.791481 0.939815
O O6 0.022908 0.866468 0.724393
O O7 0.091023 0.800051 0.121168
O O8 0.842827 0.249998 0.501402
O O9 0.910715 0.314287 0.097468
O O10 0.281239 0.291482 0.341137
O O11 0.456133 0.500000 0.236338
O O12 0.723481 0.417698 0.991198
O O13 0.491483 0.394408 0.428999
O O14 0.212919 0.411535 0.069577
O O15 0.462597 0.300051 0.749595
O O16 0.438884 0.185713 0.569300
O O17 0.065810 0.366466 0.681488
#
# Coordination Sequence:
#
# PCOD8052560 Si02
#       8
#     2   2   2   2   2   2   2   2
#     4  11  26  47  70 104 146 195 254 314 371 456
#     4  11  26  43  72 104 145 186 242 307 384 453
#     4  11  22  41  68 105 142 183 234 303 379 450
#     4  11  26  47  70 104 146 195 254 314 371 456
#     4  11  22  41  68 105 142 183 234 303 379 450
#     4  11  25  44  73 103 145 192 246 304 382 452
#     4  11  26  43  72 104 145 186 242 307 384 453
#     4  11  25  44  73 103 145 192 246 304 382 452
#
# _framework density 24.518395000000002
#
# number of rings (size 3 to 8) (size 9 to 14) (size 15 to 20)
#    0.000    1.000    2.500    3.000    7.000    2.000 
#    0.000    0.000    0.000    0.000    0.000    0.000 
#    0.000    0.000    0.000    0.000    0.000    0.000 
#
# Total GULP energy -198300.425439 kJ/mol
# GULP energy per Si atom -12393.776590 kJ/mol
# Density = 2.446259 g / cm^3
# Si number density = 24.518395 Si / 1000 Ang^3
#
#
#
# Elastic Constant Matrix: (Units=GPa)
#
#
# Indices 1 2 3 4 5 6 
#
# 1 92.4456 54.6364 22.4426 0.0000 -18.3746 0.0000
# 2 54.6364 197.5054 58.4365 0.0000 -10.7702 0.0000
# 3 22.4426 58.4365 104.6817 0.0000 -16.3153 0.0000
# 4 0.0000 0.0000 0.0000 33.2897 0.0000 -2.5079
# 5 -18.3746 -10.7702 -16.3153 0.0000 32.4024 0.0000
# 6 0.0000 0.0000 0.0000 -2.5079 0.0000 32.4040
#
#
#
# Elastic Compliance Matrix: (Units=1/GPa)
#
#
# Indices 1 2 3 4 5 6 
#
# 1 0.014310 -0.003585 0.000013 0.000000 0.006930 0.000000
# 2 -0.003585 0.006966 -0.003338 0.000000 -0.001398 0.000000
# 3 0.000013 -0.003338 0.012199 0.000000 0.005040 0.000000
# 4 0.000000 0.000000 0.000000 0.030215 0.000000 0.002339
# 5 0.006930 -0.001398 0.005040 0.000000 0.036865 0.000000
# 6 0.000000 0.000000 0.000000 0.002339 0.000000 0.031041
#
#
# Mechanical properties :
#
#
# Convention : Reuss Voigt Hill
#
# Bulk Modulus (GPa) = 50.87494 73.96264 62.41879
# Shear Modulus (GPa) = 32.90167 36.89370 34.89769
#
# Velocity S-wave (km/s) = 3.66719 3.88330 3.77679
# Velocity P-wave (km/s) = 6.22301 7.09495 6.67324
#
# Compressibility (1/GPa) = 0.01965604
#
# Stress axis : x y z
#
# Youngs Moduli (GPa) = 69.88160 143.55036 81.97423
#
# Poissons Ratio (x) = 0.51457 -0.00108
# Poissons Ratio (y) = 0.25050 0.27364
# Poissons Ratio (z) = -0.00092 0.47919
#
# Static dielectric constant tensor:
#      x y z
#    x 4.327400 0.000000 -0.081680 
#    y 0.000000 4.592540 0.000000 
#    z -0.081680 0.000000 4.356230 
# 
# 
# High freq. dielectric constant tensor:
#      x y z
#    x 1.968300 0.000000 -0.011400 
#    y 0.000000 1.975190 0.000000 
#    z -0.011400 0.000000 1.972330 
# 
# From -- ./inp_files/614.got.cif
#   From: 2010.03.12/outbox.cif.g09.slc.cpg/sg6_1_cif.got.tgz:614.got - 2010.03.30 10:24:59.
