data_PCOD8052864
_publ_section_title
;
Structure prediction by ZEFSAII (Michael W. Deem and Ramdas Pophale) SiO2 
 PCOD8052864
Probable space group: C M
;
_chemical_formula_sum "Si O2"
_cell_formula_units_Z 32
_cell_length_a 20.801641
_cell_length_b 8.673499
_cell_length_c 25.531358
_cell_angle_alpha 90.000000
_cell_angle_beta 158.011763
_cell_angle_gamma 90.000000
_cell_volume 1724.727600
_symmetry_space_group_name_H-M "C M"
_symmetry_group_IT_number 8
_symmetry_cell_setting 'monoclinic'
loop_
_space_group_symop_operation_xyz
x,y,z
x,-y,z
1/2+x,1/2+y,z
1/2+x,1/2-y,z
loop_
_atom_site_type_symbol
_atom_site_label
_atom_site_fract_x
_atom_site_fract_y
_atom_site_fract_z
Si Si1 0.569760 0.819748 0.760200
Si Si2 0.602904 0.681308 0.062428
Si Si3 0.334990 0.319460 0.044905
Si Si4 0.891547 0.178496 0.476424
Si Si5 0.240204 0.681822 0.472647
Si Si6 0.648831 0.681655 0.214915
Si Si7 0.878364 0.817753 0.194188
Si Si8 0.243986 0.179407 0.792405
O O1 0.373583 0.762727 0.613175
O O2 0.679337 0.726301 0.800740
O O3 0.580727 0.000000 0.754630
O O4 0.653007 0.784205 0.879751
O O5 0.635434 0.500000 0.081264
O O6 0.641996 0.743704 0.150455
O O7 0.724834 0.773492 0.115937
O O8 0.407399 0.719986 0.899302
O O9 0.367900 0.500000 0.073392
O O10 0.490595 0.246116 0.128498
O O11 0.334353 0.251581 0.103063
O O12 0.786761 0.233616 0.448685
O O13 0.827176 0.271523 0.377171
O O14 0.093309 0.212324 0.636539
O O15 0.856970 0.000000 0.440125
O O16 0.257806 0.500000 0.492832
O O17 0.051739 0.738043 0.345646
O O18 0.631634 0.500000 0.199653
O O19 0.904643 0.000000 0.213967
O O20 0.293254 0.000000 0.830350
#
# Coordination Sequence:
#
# PCOD8052864 Si02
#       8
#     4   4   4   4   4   4   4   4
#     4  10  18  33  57  84 112 145 184 229 278 325
#     4  11  23  39  57  81 114 149 184 226 279 335
#     4   9  18  34  56  84 111 139 184 233 273 320
#     4   9  19  33  53  83 114 141 178 230 276 319
#     4  10  20  35  53  82 117 147 182 227 276 327
#     4  10  19  35  57  82 110 142 184 231 272 322
#     4  11  22  38  59  82 111 149 187 226 277 333
#     4  10  20  35  54  82 115 146 183 228 277 327
#
# _framework density 18.553654000000002
#
# number of rings (size 3 to 8) (size 9 to 14) (size 15 to 20)
#    0.000    2.000    2.500    2.625    0.000    3.500 
#    0.000    3.750    0.000    1.500    0.000    0.000 
#    0.000    0.000    0.000    0.000    0.000    0.000 
#
# Total GULP energy -198422.339942 kJ/mol
# GULP energy per Si atom -12401.396246 kJ/mol
# Density = 1.851143 g / cm^3
# Si number density = 18.553654 Si / 1000 Ang^3
#
#
#
# Elastic Constant Matrix: (Units=GPa)
#
#
# Indices 1 2 3 4 5 6 
#
# 1 97.6317 12.6028 50.9379 0.0045 -7.0584 -0.0011
# 2 12.6028 33.0344 16.6826 0.0109 -12.1160 -0.0016
# 3 50.9379 16.6826 125.6254 0.0178 -9.3036 0.0001
# 4 0.0045 0.0109 0.0178 29.9969 0.0030 4.5201
# 5 -7.0584 -12.1160 -9.3036 0.0030 24.5904 0.0002
# 6 -0.0011 -0.0016 0.0001 4.5201 0.0002 23.6345
#
#
#
# Elastic Compliance Matrix: (Units=1/GPa)
#
#
# Indices 1 2 3 4 5 6 
#
# 1 0.013193 -0.002215 -0.004996 0.000002 0.000806 0.000000
# 2 -0.002215 0.039033 -0.002992 -0.000015 0.017464 0.000005
# 3 -0.004996 -0.002992 0.010461 -0.000005 0.001050 0.000000
# 4 0.000002 -0.000015 -0.000005 0.034326 -0.000013 -0.006565
# 5 0.000806 0.017464 0.001050 -0.000013 0.049899 0.000003
# 6 0.000000 0.000005 0.000000 -0.006565 0.000003 0.043567
#
#
# Mechanical properties :
#
#
# Convention : Reuss Voigt Hill
#
# Bulk Modulus (GPa) = 23.65097 46.30425 34.97761
# Shear Modulus (GPa) = 22.22442 27.38224 24.80333
#
# Velocity S-wave (km/s) = 3.46475 3.84583 3.66025
# Velocity P-wave (km/s) = 5.36479 6.68818 6.06270
#
# Compressibility (1/GPa) = 0.04228156
#
# Stress axis : x y z
#
# Youngs Moduli (GPa) = 75.79683 25.61954 95.59443
#
# Poissons Ratio (x) = 0.05675 0.47756
# Poissons Ratio (y) = 0.16789 0.28601
# Poissons Ratio (z) = 0.37866 0.07665
#
# Static dielectric constant tensor:
#      x y z
#    x 3.281200 0.000000 -0.128430 
#    y 0.000000 3.289540 -0.000010 
#    z -0.128430 -0.000010 3.587060 
# 
# 
# High freq. dielectric constant tensor:
#      x y z
#    x 1.691400 0.000000 -0.009500 
#    y 0.000000 1.714850 0.000000 
#    z -0.009500 0.000000 1.733170 
# 
# From -- ./inp_files/31330.got.cif
#   From: 2010.03.12/outbox.cif.g09.slc.cpg/sg8_16_cif.got.tgz:31330.got - 2010.03.31 10:45:26.
