data_PCOD8052656
_publ_section_title
;
Structure prediction by ZEFSAII (Michael W. Deem and Ramdas Pophale) SiO2 
 PCOD8052656
Probable space group: P C
;
_chemical_formula_sum "Si O2"
_cell_formula_units_Z 14
_cell_length_a 6.546668
_cell_length_b 22.038508
_cell_length_c 5.720563
_cell_angle_alpha 90.000000
_cell_angle_beta 46.700118
_cell_angle_gamma 90.000000
_cell_volume 600.672732
_symmetry_space_group_name_H-M "P C"
_symmetry_group_IT_number 7
_symmetry_cell_setting 'monoclinic'
loop_
_space_group_symop_operation_xyz
x,y,z
x,-y,1/2+z
loop_
_atom_site_type_symbol
_atom_site_label
_atom_site_fract_x
_atom_site_fract_y
_atom_site_fract_z
Si Si1 0.116550 0.710777 0.854360
Si Si2 0.514982 0.999915 0.440545
Si Si3 0.286647 0.818050 0.023392
Si Si4 0.527328 0.278845 0.645458
Si Si5 0.764622 0.897669 0.494281
Si Si6 0.235311 0.613862 0.102874
Si Si7 0.758635 0.465459 0.132631
O O1 0.419243 0.712078 0.493154
O O2 0.100045 0.767531 0.041364
O O3 0.083237 0.644998 0.000924
O O4 0.863908 0.718294 0.869004
O O5 0.710343 0.060158 0.266136
O O6 0.341758 0.994709 0.326493
O O7 0.714469 0.940171 0.305006
O O8 0.424660 0.786993 0.141546
O O9 0.082199 0.873337 0.254234
O O10 0.539192 0.842915 0.665269
O O11 0.412216 0.333251 0.581950
O O12 0.994995 0.586822 0.458314
O O13 0.445452 0.560605 0.862731
O O14 0.799486 0.500126 0.349535
#
# Coordination Sequence:
#
# PCOD8052656 Si02
#       7
#     2   2   2   2   2   2   2
#     4  11  24  43  71 101 137 183 232 288 364 415
#     4   8  20  42  62  98 130 182 226 276 346 418
#     4  11  24  42  66 106 132 176 231 292 354 422
#     4  11  24  43  71 101 137 183 232 288 364 415
#     4  10  22  41  66  94 141 176 234 286 350 422
#     4  11  26  46  72 102 146 188 239 290 354 418
#     4  12  28  47  74 110 151 188 244 290 350 410
#
# _framework density 23.307199000000001
#
# number of rings (size 3 to 8) (size 9 to 14) (size 15 to 20)
#    0.857    0.571    0.000    4.286    6.000    9.143 
#    0.000    0.000    0.000    0.000    0.000    0.000 
#    0.000    0.000    0.000    0.000    0.000    0.000 
#
# Total GULP energy -173433.706507 kJ/mol
# GULP energy per Si atom -12388.121893 kJ/mol
# Density = 2.325415 g / cm^3
# Si number density = 23.307199 Si / 1000 Ang^3
#
#
#
# Elastic Constant Matrix: (Units=GPa)
#
#
# Indices 1 2 3 4 5 6 
#
# 1 84.9558 13.6910 36.8187 0.0000 10.5615 0.0000
# 2 13.6910 71.9229 14.6751 0.0000 3.6719 0.0000
# 3 36.8187 14.6751 81.2286 0.0000 7.6242 0.0000
# 4 0.0000 0.0000 0.0000 35.2052 0.0000 2.8613
# 5 10.5615 3.6719 7.6242 0.0000 54.7548 0.0000
# 6 0.0000 0.0000 0.0000 2.8613 0.0000 19.3075
#
#
#
# Elastic Compliance Matrix: (Units=1/GPa)
#
#
# Indices 1 2 3 4 5 6 
#
# 1 0.014998 -0.001461 -0.006355 0.000000 -0.001910 0.000000
# 2 -0.001461 0.014599 -0.001935 0.000000 -0.000428 0.000000
# 3 -0.006355 -0.001935 0.015618 0.000000 -0.000819 0.000000
# 4 0.000000 0.000000 0.000000 0.028751 0.000000 -0.004261
# 5 -0.001910 -0.000428 -0.000819 0.000000 0.018774 0.000000
# 6 0.000000 0.000000 0.000000 -0.004261 0.000000 0.052425
#
#
# Mechanical properties :
#
#
# Convention : Reuss Voigt Hill
#
# Bulk Modulus (GPa) = 38.89139 40.94186 39.91663
# Shear Modulus (GPa) = 28.86216 33.38167 31.12191
#
# Velocity S-wave (km/s) = 3.52282 3.78861 3.65813
# Velocity P-wave (km/s) = 5.76799 6.06155 5.91659
#
# Compressibility (1/GPa) = 0.02571263
#
# Stress axis : x y z
#
# Youngs Moduli (GPa) = 66.67631 68.50009 64.02893
#
# Poissons Ratio (x) = 0.10006 0.40690
# Poissons Ratio (y) = 0.09740 0.12391
# Poissons Ratio (z) = 0.42372 0.13256
#
# Static dielectric constant tensor:
#      x y z
#    x 3.928340 0.000000 0.100690 
#    y 0.000000 4.368680 0.000000 
#    z 0.100690 0.000000 4.078780 
# 
# 
# High freq. dielectric constant tensor:
#      x y z
#    x 1.907870 0.000000 0.001630 
#    y 0.000000 1.938080 0.000000 
#    z 0.001630 0.000000 1.915690 
# 
# From -- ./inp_files/370.got.cif
#   From: 2010.03.12/outbox.cif.g09.slc.cpg/sg7_cif.got.tgz:370.got - 2010.03.30 08:40:41.
