data_PCOD8052376
_publ_section_title
;
Structure prediction by ZEFSAII (Michael W. Deem and Ramdas Pophale) SiO2 
 PCOD8052376
Probable space group: P M
;
_chemical_formula_sum "Si O2"
_cell_formula_units_Z 16
_cell_length_a 21.543718
_cell_length_b 8.493378
_cell_length_c 9.009955
_cell_angle_alpha 90.000000
_cell_angle_beta 151.205066
_cell_angle_gamma 90.000000
_cell_volume 794.106791
_symmetry_space_group_name_H-M "P M"
_symmetry_group_IT_number 6
_symmetry_cell_setting 'monoclinic'
loop_
_space_group_symop_operation_xyz
x,y,z
x,-y,z
loop_
_atom_site_type_symbol
_atom_site_label
_atom_site_fract_x
_atom_site_fract_y
_atom_site_fract_z
Si Si1 0.566630 0.686634 0.347530
Si Si2 0.841775 0.314720 0.864137
Si Si3 0.609115 0.312890 0.773082
Si Si4 0.379379 0.818571 0.466154
Si Si5 0.099253 0.818161 0.373171
Si Si6 0.882652 0.685224 0.282643
Si Si7 0.321103 0.684151 0.656183
Si Si8 0.158260 0.684428 0.814389
O O1 0.564486 0.500000 0.345448
O O2 0.694315 0.737543 0.519683
O O3 0.570729 0.744203 0.526715
O O4 0.441133 0.753574 0.002369
O O5 0.861142 0.500000 0.881274
O O6 0.861936 0.254834 0.073537
O O7 0.954863 0.225520 0.010956
O O8 0.590326 0.500000 0.751194
O O9 0.521861 0.223436 0.708486
O O10 0.758948 0.260217 0.121262
O O11 0.345442 0.710689 0.534307
O O12 0.374399 0.000000 0.501834
O O13 0.277420 0.784880 0.122318
O O14 0.194306 0.777992 0.437792
O O15 0.139277 0.715401 0.600043
O O16 0.107876 0.000000 0.433146
O O17 0.876590 0.500000 0.263989
O O18 0.028016 0.735890 0.634626
O O19 0.301801 0.500000 0.645711
O O20 0.187934 0.500000 0.897798
#
# Coordination Sequence:
#
# PCOD8052376 Si02
#       8
#     2   2   2   2   2   2   2   2
#     4   8  16  32  59  86 104 128 177 230 264 304
#     4   8  14  30  54  81 108 136 171 217 264 314
#     4   9  16  33  59  84 106 134 171 216 266 323
#     4  12  25  38  50  75 112 146 179 225 275 320
#     4  11  21  34  54  85 116 141 171 218 271 320
#     4   7  13  27  53  83 106 128 169 221 262 305
#     4  11  22  38  57  77 103 145 190 226 264 316
#     4  10  19  36  60  83 105 140 184 223 262 316
#
# _framework density 20.148423999999999
#
# number of rings (size 3 to 8) (size 9 to 14) (size 15 to 20)
#    0.000    2.500    0.000    6.000    0.000    1.000 
#    0.000    9.375    0.000    3.000    0.000    0.000 
#    0.000    0.000    0.000    0.000    0.000    0.000 
#
# Total GULP energy -198252.372022 kJ/mol
# GULP energy per Si atom -12390.773251 kJ/mol
# Density = 2.010257 g / cm^3
# Si number density = 20.148424 Si / 1000 Ang^3
#
#
#
# Elastic Constant Matrix: (Units=GPa)
#
#
# Indices 1 2 3 4 5 6 
#
# 1 109.0874 10.9643 47.4377 0.0000 37.3637 0.0000
# 2 10.9643 63.7944 19.0608 0.0000 9.8654 0.0000
# 3 47.4377 19.0608 53.7674 0.0000 36.8977 0.0000
# 4 0.0000 0.0000 0.0000 9.2949 0.0000 -3.7586
# 5 37.3637 9.8654 36.8977 0.0000 41.8037 0.0000
# 6 0.0000 0.0000 0.0000 -3.7586 0.0000 18.1634
#
#
#
# Elastic Compliance Matrix: (Units=1/GPa)
#
#
# Indices 1 2 3 4 5 6 
#
# 1 0.015290 0.001332 -0.011079 0.000000 -0.004202 0.000000
# 2 0.001332 0.017843 -0.009622 0.000000 0.003092 0.000000
# 3 -0.011079 -0.009622 0.059425 0.000000 -0.040278 0.000000
# 4 0.000000 0.000000 0.000000 0.117410 0.000000 0.024296
# 5 -0.004202 0.003092 -0.040278 0.000000 0.062499 0.000000
# 6 0.000000 0.000000 0.000000 0.024296 0.000000 0.060083
#
#
# Mechanical properties :
#
#
# Convention : Reuss Voigt Hill
#
# Bulk Modulus (GPa) = 18.58036 42.39721 30.48878
# Shear Modulus (GPa) = 12.84594 23.79819 18.32206
#
# Velocity S-wave (km/s) = 2.52775 3.44051 3.01882
# Velocity P-wave (km/s) = 4.21439 6.07214 5.22647
#
# Compressibility (1/GPa) = 0.05382028
#
# Stress axis : x y z
#
# Youngs Moduli (GPa) = 65.40263 56.04334 16.82790
#
# Poissons Ratio (x) = -0.07465 0.18643
# Poissons Ratio (y) = -0.08712 0.16193
# Poissons Ratio (z) = 0.72457 0.53927
#
# Static dielectric constant tensor:
#      x y z
#    x 3.561270 0.000000 0.624140 
#    y 0.000000 3.267410 0.000000 
#    z 0.624140 0.000000 3.878990 
# 
# 
# High freq. dielectric constant tensor:
#      x y z
#    x 1.770350 0.000000 0.040870 
#    y 0.000000 1.756070 0.000000 
#    z 0.040870 0.000000 1.785950 
# 
# From -- ./inp_files/3785.got.cif
#   From: 2010.03.12/outbox.cif.g09.slc.cpg/sg6_2_cif.got.tgz:3785.got - 2010.03.30 10:24:59.
