data_PCOD8052104
_publ_section_title
;
Structure prediction by ZEFSAII (Michael W. Deem and Ramdas Pophale) SiO2 
 PCOD8052104
Probable space group: C 2
;
_chemical_formula_sum "Si O2"
_cell_formula_units_Z 20
_cell_length_a 25.849153
_cell_length_b 5.011381
_cell_length_c 7.855848
_cell_angle_alpha 90.000000
_cell_angle_beta 62.511706
_cell_angle_gamma 90.000000
_cell_volume 902.759180
_symmetry_space_group_name_H-M "C 2"
_symmetry_group_IT_number 5
_symmetry_cell_setting 'monoclinic'
loop_
_space_group_symop_operation_xyz
x,y,z
-x,y,-z
1/2+x,1/2+y,z
1/2-x,1/2+y,-z
loop_
_atom_site_type_symbol
_atom_site_label
_atom_site_fract_x
_atom_site_fract_y
_atom_site_fract_z
Si Si1 0.661202 0.069130 0.743213
Si Si2 0.538520 0.064008 0.095054
Si Si3 0.759160 0.055804 0.869163
Si Si4 0.009809 0.050128 0.672040
Si Si5 0.144662 0.063378 0.541692
O O1 0.716085 0.003712 0.777328
O O2 0.670071 0.352094 0.637942
O O3 0.654299 0.854811 0.604469
O O4 0.606359 0.069808 0.951678
O O5 0.524703 0.268668 0.268647
O O6 0.519045 0.762383 0.157888
O O7 0.500000 0.181270 0.000000
O O8 0.823696 0.048025 0.689671
O O9 0.746703 0.338981 0.974113
O O10 0.077097 0.005778 0.613454
O O11 0.000000 0.167591 0.500000
#
# Coordination Sequence:
#
# PCOD8052104 Si02
#       5
#     4   4   4   4   4
#     4  12  25  44  73  94 133 177 219 269 321 401
#     4  12  23  44  67 101 132 171 223 262 326 396
#     4  12  28  46  69  99 131 170 223 281 329 378
#     4  12  26  41  67 101 139 172 211 275 327 386
#     4  12  24  46  68  97 133 177 222 261 329 396
#
# _framework density 22.154302000000001
#
# number of rings (size 3 to 8) (size 9 to 14) (size 15 to 20)
#    0.000    0.000    4.000    6.000    5.600    0.000 
#    0.000    0.000    0.000    0.000    0.000    0.000 
#    0.000    0.000    0.000    0.000    0.000    0.000 
#
# Total GULP energy -124083.785019 kJ/mol
# GULP energy per Si atom -12408.378502 kJ/mol
# Density = 2.210388 g / cm^3
# Si number density = 22.154302 Si / 1000 Ang^3
#
#
#
# Elastic Constant Matrix: (Units=GPa)
#
#
# Indices 1 2 3 4 5 6 
#
# 1 58.2526 11.7880 19.2907 0.0000 5.0749 0.0000
# 2 11.7880 106.0339 39.8499 0.0000 -11.4908 0.0000
# 3 19.2907 39.8499 138.6987 0.0000 -16.3189 0.0000
# 4 0.0000 0.0000 0.0000 27.4267 0.0000 -2.4656
# 5 5.0749 -11.4908 -16.3189 0.0000 34.4874 0.0000
# 6 0.0000 0.0000 0.0000 -2.4656 0.0000 25.5087
#
#
#
# Elastic Compliance Matrix: (Units=1/GPa)
#
#
# Indices 1 2 3 4 5 6 
#
# 1 0.018775 -0.001568 -0.002697 0.000000 -0.004561 0.000000
# 2 -0.001568 0.010865 -0.002595 0.000000 0.002623 0.000000
# 3 -0.002697 -0.002595 0.008763 0.000000 0.003679 0.000000
# 4 0.000000 0.000000 0.000000 0.036780 0.000000 0.003555
# 5 -0.004561 0.002623 0.003679 0.000000 0.032282 0.000000
# 6 0.000000 0.000000 0.000000 0.003555 0.000000 0.039546
#
#
# Mechanical properties :
#
#
# Convention : Reuss Voigt Hill
#
# Bulk Modulus (GPa) = 40.51472 49.42694 44.97083
# Shear Modulus (GPa) = 29.59298 32.95499 31.27399
#
# Velocity S-wave (km/s) = 3.65878 3.86102 3.76126
# Velocity P-wave (km/s) = 6.01466 6.49888 6.26145
#
# Compressibility (1/GPa) = 0.02468239
#
# Stress axis : x y z
#
# Youngs Moduli (GPa) = 53.26364 92.04127 114.11005
#
# Poissons Ratio (x) = 0.14430 0.30781
# Poissons Ratio (y) = 0.08350 0.29611
# Poissons Ratio (z) = 0.14368 0.23884
#
# Static dielectric constant tensor:
#      x y z
#    x 3.851150 0.000000 -0.086210 
#    y 0.000000 3.962200 0.000000 
#    z -0.086210 0.000000 4.191350 
# 
# 
# High freq. dielectric constant tensor:
#      x y z
#    x 1.869520 0.000000 -0.004390 
#    y 0.000000 1.886320 0.000000 
#    z -0.004390 0.000000 1.890550 
# 
# From -- ./inp_files/31342.got.cif
#   From: 2010.03.12/outbox.cif.g09.slc.cpg/sg5_16_cif.got.tgz:31342.got - 2010.03.31 09:47:26.
