data_PCOD8052854
_publ_section_title
;
Structure prediction by ZEFSAII (Michael W. Deem and Ramdas Pophale) SiO2 
 PCOD8052854
Probable space group: C M
;
_chemical_formula_sum "Si O2"
_cell_formula_units_Z 32
_cell_length_a 20.037268
_cell_length_b 9.001503
_cell_length_c 24.903355
_cell_angle_alpha 90.000000
_cell_angle_beta 156.721037
_cell_angle_gamma 90.000000
_cell_volume 1775.159594
_symmetry_space_group_name_H-M "C M"
_symmetry_group_IT_number 8
_symmetry_cell_setting 'monoclinic'
loop_
_space_group_symop_operation_xyz
x,y,z
x,-y,z
1/2+x,1/2+y,z
1/2+x,1/2-y,z
loop_
_atom_site_type_symbol
_atom_site_label
_atom_site_fract_x
_atom_site_fract_y
_atom_site_fract_z
Si Si1 0.421400 0.170527 0.295280
Si Si2 0.767005 0.676407 0.354270
Si Si3 0.912112 0.326976 0.796931
Si Si4 0.542068 0.325016 0.490783
Si Si5 0.549670 0.828070 0.276000
Si Si6 0.253587 0.673618 0.996410
Si Si7 0.464477 0.326401 0.055567
Si Si8 0.037375 0.825470 0.993958
O O1 0.478972 0.273665 0.386231
O O2 0.549432 0.192547 0.340205
O O3 0.419780 0.000000 0.314256
O O4 0.234554 0.217120 0.138031
O O5 0.781872 0.500000 0.369466
O O6 0.709724 0.739773 0.369935
O O7 0.628124 0.732230 0.208585
O O8 0.944389 0.744882 0.467244
O O9 0.915662 0.500000 0.811780
O O10 0.737273 0.278268 0.640705
O O11 0.060447 0.282567 0.864948
O O12 0.935549 0.247956 0.870804
O O13 0.515195 0.500000 0.476136
O O14 0.564033 0.000000 0.270709
O O15 0.372635 0.766783 0.123328
O O16 0.290517 0.500000 0.034611
O O17 0.296362 0.712006 0.965635
O O18 0.490472 0.500000 0.067937
O O19 0.457936 0.259621 0.990816
O O20 0.010970 0.000000 0.968954
#
# Coordination Sequence:
#
# PCOD8052854 Si02
#       8
#     4   4   4   4   4   4   4   4
#     4  10  20  35  55  81 113 144 182 229 273 322
#     4  10  19  35  56  79 109 143 181 227 278 331
#     4  10  22  37  52  77 113 146 180 225 274 322
#     4  11  23  37  54  78 112 151 188 228 274 326
#     4  10  19  32  53  83 113 139 176 229 277 323
#     4   9  17  32  53  76 105 144 181 219 269 321
#     4   8  15  29  52  78 102 129 171 224 267 311
#     4  10  18  33  55  80 107 138 181 227 270 324
#
# _framework density 18.026548999999999
#
# number of rings (size 3 to 8) (size 9 to 14) (size 15 to 20)
#    0.000    2.250    2.500    1.875    0.000    2.500 
#    0.000    1.875    0.000    1.500    0.000    0.000 
#    0.000    0.000    0.000    0.000    0.000    0.000 
#
# Total GULP energy -198371.436840 kJ/mol
# GULP energy per Si atom -12398.214802 kJ/mol
# Density = 1.798552 g / cm^3
# Si number density = 18.026549 Si / 1000 Ang^3
#
#
#
# Elastic Constant Matrix: (Units=GPa)
#
#
# Indices 1 2 3 4 5 6 
#
# 1 125.0294 41.4317 38.6013 0.0023 19.8256 0.0006
# 2 41.4317 65.8719 38.0531 0.0013 9.0667 0.0003
# 3 38.6013 38.0531 73.2916 0.0052 15.3642 0.0012
# 4 0.0023 0.0013 0.0052 23.8352 0.0008 -0.8698
# 5 19.8256 9.0667 15.3642 0.0008 28.6818 0.0000
# 6 0.0006 0.0003 0.0012 -0.8698 0.0000 31.3843
#
#
#
# Elastic Compliance Matrix: (Units=1/GPa)
#
#
# Indices 1 2 3 4 5 6 
#
# 1 0.011133 -0.005048 -0.002213 0.000000 -0.004915 0.000000
# 2 -0.005048 0.023996 -0.010072 0.000001 0.001299 0.000000
# 3 -0.002213 -0.010072 0.021461 -0.000004 -0.006783 -0.000001
# 4 0.000000 0.000001 -0.000004 0.041997 0.000000 0.001164
# 5 -0.004915 0.001299 -0.006783 0.000000 0.041485 0.000000
# 6 0.000000 0.000000 -0.000001 0.001164 0.000000 0.031895
#
#
# Mechanical properties :
#
#
# Convention : Reuss Voigt Hill
#
# Bulk Modulus (GPa) = 45.61157 55.59612 50.60385
# Shear Modulus (GPa) = 23.37088 26.52072 24.94580
#
# Velocity S-wave (km/s) = 3.60456 3.83979 3.72403
# Velocity P-wave (km/s) = 6.53308 7.11104 6.82818
#
# Compressibility (1/GPa) = 0.02192426
#
# Stress axis : x y z
#
# Youngs Moduli (GPa) = 89.82076 41.67390 46.59637
#
# Poissons Ratio (x) = 0.21037 0.10309
# Poissons Ratio (y) = 0.45341 0.46934
# Poissons Ratio (z) = 0.19873 0.41976
#
# Static dielectric constant tensor:
#      x y z
#    x 3.656250 0.000000 0.206920 
#    y 0.000000 3.222780 0.000000 
#    z 0.206920 0.000000 3.162240 
# 
# 
# High freq. dielectric constant tensor:
#      x y z
#    x 1.715790 0.000000 0.015570 
#    y 0.000000 1.689440 0.000000 
#    z 0.015570 0.000000 1.666980 
# 
# From -- ./inp_files/15798.got.cif
#   From: 2010.03.12/outbox.cif.g09.slc.cpg/sg8_8_cif.got.tgz:15798.got - 2010.03.31 10:45:26.
