data_PCOD8052611
_publ_section_title
;
Structure prediction by ZEFSAII (Michael W. Deem and Ramdas Pophale) SiO2 
 PCOD8052611
Probable space group: P C
;
_chemical_formula_sum "Si O2"
_cell_formula_units_Z 14
_cell_length_a 16.324550
_cell_length_b 7.823961
_cell_length_c 5.144997
_cell_angle_alpha 90.000000
_cell_angle_beta 99.063825
_cell_angle_gamma 90.000000
_cell_volume 648.927304
_symmetry_space_group_name_H-M "P C"
_symmetry_group_IT_number 7
_symmetry_cell_setting 'monoclinic'
loop_
_space_group_symop_operation_xyz
x,y,z
x,-y,1/2+z
loop_
_atom_site_type_symbol
_atom_site_label
_atom_site_fract_x
_atom_site_fract_y
_atom_site_fract_z
Si Si1 0.255190 0.385998 0.112920
Si Si2 0.077331 0.605012 0.427371
Si Si3 0.899473 0.614002 0.435137
Si Si4 0.485730 0.573934 0.601538
Si Si5 0.668970 0.573904 0.193222
Si Si6 0.397541 0.111210 0.172081
Si Si7 0.757117 0.111213 0.851959
O O1 0.265674 0.464317 0.404971
O O2 0.163602 0.297355 0.036262
O O3 0.320568 0.236696 0.092745
O O4 0.077331 0.559482 0.121616
O O5 0.991060 0.702646 0.450028
O O6 0.888992 0.535683 0.716709
O O7 0.834095 0.763307 0.349606
O O8 0.439048 0.532411 0.306528
O O9 0.577361 0.500063 0.589346
O O10 0.481359 0.775475 0.665710
O O11 0.715663 0.467566 0.444879
O O12 0.673306 0.775448 0.261782
O O13 0.396831 0.039919 0.462745
O O14 0.757822 0.960086 0.643325
#
# Coordination Sequence:
#
# PCOD8052611 Si02
#       7
#     2   2   2   2   2   2   2
#     4  10  19  36  60  83 112 154 195 231 271 330
#     4   8  16  30  54  84 108 142 198 238 260 310
#     4  10  19  36  60  83 112 154 195 231 271 330
#     4  10  21  41  63  82 107 147 191 227 275 341
#     4  10  21  41  63  82 107 147 191 227 275 341
#     4  12  24  38  57  88 119 146 183 236 289 336
#     4  12  24  38  57  88 119 146 183 236 289 336
#
# _framework density 21.574065999999998
#
# number of rings (size 3 to 8) (size 9 to 14) (size 15 to 20)
#    0.000    1.714    0.000    5.143    0.000    0.000 
#    0.000   18.571    0.000    0.000    0.000    0.000 
#    0.000    0.000    0.000    0.000    0.000    0.000 
#
# Total GULP energy -173439.322196 kJ/mol
# GULP energy per Si atom -12388.523014 kJ/mol
# Density = 2.152496 g / cm^3
# Si number density = 21.574066 Si / 1000 Ang^3
#
#
#
# Elastic Constant Matrix: (Units=GPa)
#
#
# Indices 1 2 3 4 5 6 
#
# 1 87.3757 25.0177 -8.7463 0.0000 13.1492 0.0000
# 2 25.0177 78.2798 11.3524 0.0000 2.4327 0.0000
# 3 -8.7463 11.3524 126.2735 0.0000 -20.0845 0.0000
# 4 0.0000 0.0000 0.0000 42.6553 0.0000 -4.4952
# 5 13.1492 2.4327 -20.0845 0.0000 17.0500 0.0000
# 6 0.0000 0.0000 0.0000 -4.4952 0.0000 17.4096
#
#
#
# Elastic Compliance Matrix: (Units=1/GPa)
#
#
# Indices 1 2 3 4 5 6 
#
# 1 0.014225 -0.004159 -0.000359 0.000000 -0.010799 0.000000
# 2 -0.004159 0.014380 -0.001719 0.000000 -0.000870 0.000000
# 3 -0.000359 -0.001719 0.010007 0.000000 0.012310 0.000000
# 4 0.000000 0.000000 0.000000 0.024099 0.000000 0.006223
# 5 -0.010799 -0.000870 0.012310 0.000000 0.081605 0.000000
# 6 0.000000 0.000000 0.000000 0.006223 0.000000 0.059046
#
#
# Mechanical properties :
#
#
# Convention : Reuss Voigt Hill
#
# Bulk Modulus (GPa) = 38.25660 38.57518 38.41589
# Shear Modulus (GPa) = 22.26695 33.04334 27.65514
#
# Velocity S-wave (km/s) = 3.21614 3.91784 3.58421
# Velocity P-wave (km/s) = 5.61806 6.19557 5.91387
#
# Compressibility (1/GPa) = 0.02613928
#
# Stress axis : x y z
#
# Youngs Moduli (GPa) = 70.29952 69.54055 99.93013
#
# Poissons Ratio (x) = 0.28919 0.03583
# Poissons Ratio (y) = 0.29234 0.17180
# Poissons Ratio (z) = 0.02521 0.11955
#
# Static dielectric constant tensor:
#      x y z
#    x 4.468980 0.000000 -0.016420 
#    y 0.000000 3.564940 0.000000 
#    z -0.016420 0.000000 4.560830 
# 
# 
# High freq. dielectric constant tensor:
#      x y z
#    x 1.859700 0.000000 -0.004750 
#    y 0.000000 1.795040 0.000000 
#    z -0.004750 0.000000 1.886370 
# 
# From -- ./inp_files/1335.got.cif
#   From: 2010.03.12/outbox.cif.g09.slc.cpg/sg7_cif.got.tgz:1335.got - 2010.03.30 08:40:41.
