data_PCOD8052417
_publ_section_title
;
Structure prediction by ZEFSAII (Michael W. Deem and Ramdas Pophale) SiO2 
 PCOD8052417
Probable space group: P M
;
_chemical_formula_sum "Si O2"
_cell_formula_units_Z 16
_cell_length_a 10.044535
_cell_length_b 8.460172
_cell_length_c 12.098327
_cell_angle_alpha 90.000000
_cell_angle_beta 127.549193
_cell_angle_gamma 90.000000
_cell_volume 815.107013
_symmetry_space_group_name_H-M "P M"
_symmetry_group_IT_number 6
_symmetry_cell_setting 'monoclinic'
loop_
_space_group_symop_operation_xyz
x,y,z
x,-y,z
loop_
_atom_site_type_symbol
_atom_site_label
_atom_site_fract_x
_atom_site_fract_y
_atom_site_fract_z
Si Si1 0.048020 0.186026 0.500000
Si Si2 0.926629 0.315850 0.221530
Si Si3 0.771776 0.315957 0.519269
Si Si4 0.004543 0.817784 0.803743
Si Si5 0.440640 0.683309 0.229892
Si Si6 0.283459 0.684317 0.792197
Si Si7 0.088284 0.183743 0.091710
Si Si8 0.568476 0.182540 0.073077
O O1 0.219726 0.244586 0.643835
O O2 0.050707 0.235191 0.373271
O O3 0.888787 0.269317 0.475741
O O4 0.029313 0.000000 0.504458
O O5 0.965607 0.500000 0.237207
O O6 0.734605 0.287878 0.158231
O O7 0.959258 0.238524 0.119510
O O8 0.793843 0.500000 0.554488
O O9 0.824674 0.221559 0.656980
O O10 0.581038 0.272137 0.391824
O O11 0.144867 0.710353 0.816944
O O12 0.051561 0.000000 0.806065
O O13 0.997862 0.778205 0.929706
O O14 0.454027 0.500000 0.203715
O O15 0.261130 0.720708 0.192122
O O16 0.462908 0.786238 0.130812
O O17 0.319621 0.500000 0.797404
O O18 0.455435 0.772059 0.910682
O O19 0.129262 0.000000 0.124272
O O20 0.620165 0.000000 0.092602
#
# Coordination Sequence:
#
# PCOD8052417 Si02
#       8
#     2   2   2   2   2   2   2   2
#     4  11  21  36  59  87 121 157 198 244 301 358
#     4  12  25  42  62  87 121 160 203 249 305 364
#     4  10  20  34  57  88 121 153 197 246 295 349
#     4  10  20  35  57  86 120 155 198 243 296 354
#     4  11  22  37  60  90 121 156 201 249 298 352
#     4  11  21  35  59  89 122 155 197 248 300 351
#     4  11  24  41  61  87 121 160 202 247 302 362
#     4  12  23  38  61  90 121 156 202 252 301 354
#
# _framework density 19.629324
#
# number of rings (size 3 to 8) (size 9 to 14) (size 15 to 20)
#    0.000    1.000    2.500    7.500    0.000    3.000 
#    0.000    1.250    0.000    3.000    0.000    0.000 
#    0.000    0.000    0.000    0.000    0.000    0.000 
#
# Total GULP energy -198497.301523 kJ/mol
# GULP energy per Si atom -12406.081345 kJ/mol
# Density = 1.958465 g / cm^3
# Si number density = 19.629324 Si / 1000 Ang^3
#
#
#
# Elastic Constant Matrix: (Units=GPa)
#
#
# Indices 1 2 3 4 5 6 
#
# 1 45.7413 3.1702 31.4011 0.0000 -4.5076 0.0000
# 2 3.1702 49.3789 40.7395 0.0000 9.5684 0.0000
# 3 31.4011 40.7395 140.1986 0.0000 0.6209 0.0000
# 4 0.0000 0.0000 0.0000 30.9808 0.0000 -0.3412
# 5 -4.5076 9.5684 0.6209 0.0000 27.6929 0.0000
# 6 0.0000 0.0000 0.0000 -0.3412 0.0000 27.2916
#
#
#
# Elastic Compliance Matrix: (Units=1/GPa)
#
#
# Indices 1 2 3 4 5 6 
#
# 1 0.026759 0.003411 -0.006999 0.000000 0.003334 0.000000
# 2 0.003411 0.029540 -0.009306 0.000000 -0.009443 0.000000
# 3 -0.006999 -0.009306 0.011396 0.000000 0.001821 0.000000
# 4 0.000000 0.000000 0.000000 0.032283 0.000000 0.000404
# 5 0.003334 -0.009443 0.001821 0.000000 0.039875 0.000000
# 6 0.000000 0.000000 0.000000 0.000404 0.000000 0.036646
#
#
# Mechanical properties :
#
#
# Convention : Reuss Voigt Hill
#
# Bulk Modulus (GPa) = 23.86260 42.88226 33.37243
# Shear Modulus (GPa) = 23.12057 27.86027 25.49042
#
# Velocity S-wave (km/s) = 3.43572 3.77147 3.60750
# Velocity P-wave (km/s) = 5.28412 6.39209 5.86433
#
# Compressibility (1/GPa) = 0.04190657
#
# Stress axis : x y z
#
# Youngs Moduli (GPa) = 37.37040 33.85220 87.74624
#
# Poissons Ratio (x) = -0.11546 0.61416
# Poissons Ratio (y) = -0.12745 0.81656
# Poissons Ratio (z) = 0.26156 0.31503
#
# Static dielectric constant tensor:
#      x y z
#    x 3.208270 0.000000 0.049040 
#    y 0.000000 3.653650 0.000000 
#    z 0.049040 0.000000 3.960510 
# 
# 
# High freq. dielectric constant tensor:
#      x y z
#    x 1.723050 0.000000 0.007000 
#    y 0.000000 1.782110 0.000000 
#    z 0.007000 0.000000 1.785310 
# 
# From -- ./inp_files/4650.got.cif
#   From: 2010.03.12/outbox.cif.g09.slc.cpg/sg6_3_cif.got.tgz:4650.got - 2010.03.30 10:24:59.
