data_PCOD8052132
_publ_section_title
;
Structure prediction by ZEFSAII (Michael W. Deem and Ramdas Pophale) SiO2 
 PCOD8052132
Probable space group: C 2
;
_chemical_formula_sum "Si O2"
_cell_formula_units_Z 20
_cell_length_a 11.859098
_cell_length_b 8.518443
_cell_length_c 15.673785
_cell_angle_alpha 90.000000
_cell_angle_beta 26.014973
_cell_angle_gamma 90.000000
_cell_volume 694.480963
_symmetry_space_group_name_H-M "C 2"
_symmetry_group_IT_number 5
_symmetry_cell_setting 'monoclinic'
loop_
_space_group_symop_operation_xyz
x,y,z
-x,y,-z
1/2+x,1/2+y,z
1/2-x,1/2+y,-z
loop_
_atom_site_type_symbol
_atom_site_label
_atom_site_fract_x
_atom_site_fract_y
_atom_site_fract_z
Si Si1 0.920171 0.143280 0.145176
Si Si2 0.351575 0.330277 0.979467
Si Si3 0.097241 0.705494 0.660387
Si Si4 0.123849 0.350392 0.306058
Si Si5 0.789563 0.879175 0.579890
O O1 0.901435 0.277921 0.229843
O O2 0.130610 0.019475 0.038490
O O3 0.661180 0.038151 0.299288
O O4 0.000000 0.216840 0.000000
O O5 0.342654 0.254535 0.889691
O O6 0.622976 0.260305 0.831195
O O7 0.120069 0.299981 0.205934
O O8 0.350893 0.793037 0.529104
O O9 0.057889 0.770043 0.591301
O O10 0.142384 0.518593 0.630116
O O11 0.000000 0.953652 0.500000
#
# Coordination Sequence:
#
# PCOD8052132 Si02
#       5
#     4   4   4   4   4
#     4   8  19  42  69  97 137 181 221 285 346 395
#     4   8  17  38  71 102 130 181 229 279 345 399
#     4  12  24  44  69 101 143 183 228 284 347 414
#     4   8  18  38  74  98 133 184 225 280 345 401
#     4  12  28  44  67 109 137 180 236 281 346 414
#
# _framework density 28.798484999999999
#
# number of rings (size 3 to 8) (size 9 to 14) (size 15 to 20)
#    1.200    1.200    0.000    3.000    5.600    0.000 
#   10.800    0.000    0.000    0.000    0.000    0.000 
#    0.000    0.000    0.000    0.000    0.000    0.000 
#
# Total GULP energy -123902.609821 kJ/mol
# GULP energy per Si atom -12390.260982 kJ/mol
# Density = 2.873294 g / cm^3
# Si number density = 28.798485 Si / 1000 Ang^3
#
#
#
# Elastic Constant Matrix: (Units=GPa)
#
#
# Indices 1 2 3 4 5 6 
#
# 1 128.9211 53.6039 9.0966 0.0014 34.9464 0.0008
# 2 53.6039 125.1476 52.2616 -0.0680 32.2861 0.0173
# 3 9.0966 52.2616 179.9145 -0.0555 38.8369 0.0148
# 4 0.0014 -0.0680 -0.0555 42.5313 0.0115 7.9169
# 5 34.9464 32.2861 38.8369 0.0115 58.5361 -0.0028
# 6 0.0008 0.0173 0.0148 7.9169 -0.0028 54.0563
#
#
#
# Elastic Compliance Matrix: (Units=1/GPa)
#
#
# Indices 1 2 3 4 5 6 
#
# 1 0.010738 -0.003943 0.001770 -0.000003 -0.005410 0.000001
# 2 -0.003943 0.011332 -0.002628 0.000016 -0.002153 -0.000005
# 3 0.001770 -0.002628 0.007175 0.000007 -0.004368 -0.000002
# 4 -0.000003 0.000016 0.000007 0.024171 -0.000017 -0.003540
# 5 -0.005410 -0.002153 -0.004368 -0.000017 0.024399 0.000006
# 6 0.000001 -0.000005 -0.000002 -0.003540 0.000006 0.019018
#
#
# Mechanical properties :
#
#
# Convention : Reuss Voigt Hill
#
# Bulk Modulus (GPa) = 50.90483 73.76748 62.33615
# Shear Modulus (GPa) = 44.25538 52.29282 48.27410
#
# Velocity S-wave (km/s) = 3.92436 4.26586 4.09867
# Velocity P-wave (km/s) = 6.18456 7.06641 6.64014
#
# Compressibility (1/GPa) = 0.01964450
#
# Stress axis : x y z
#
# Youngs Moduli (GPa) = 93.13009 88.24487 139.37638
#
# Poissons Ratio (x) = 0.34792 -0.24673
# Poissons Ratio (y) = 0.36718 0.36623
# Poissons Ratio (z) = -0.16486 0.23187
#
# Static dielectric constant tensor:
#      x y z
#    x 5.790130 -0.000110 -0.166220 
#    y -0.000110 4.577350 0.000110 
#    z -0.166220 0.000110 5.283840 
# 
# 
# High freq. dielectric constant tensor:
#      x y z
#    x 2.220570 0.000000 -0.017850 
#    y 0.000000 2.132940 0.000000 
#    z -0.017850 0.000000 2.193080 
# 
# From -- ./inp_files/61296.got.cif
#   From: 2010.03.12/outbox.cif.g09.slc.cpg/sg5_31_cif.got.tgz:61296.got - 2010.03.31 09:47:26.
