data_PCOD8052212
_publ_section_title
;
Structure prediction by ZEFSAII (Michael W. Deem and Ramdas Pophale) SiO2 
 PCOD8052212
Probable space group: C 2
;
_chemical_formula_sum "Si O2"
_cell_formula_units_Z 24
_cell_length_a 13.710959
_cell_length_b 13.713220
_cell_length_c 21.987071
_cell_angle_alpha 90.000000
_cell_angle_beta 159.302166
_cell_angle_gamma 90.000000
_cell_volume 1461.132881
_symmetry_space_group_name_H-M "C 2"
_symmetry_group_IT_number 5
_symmetry_cell_setting 'monoclinic'
loop_
_space_group_symop_operation_xyz
x,y,z
-x,y,-z
1/2+x,1/2+y,z
1/2-x,1/2+y,-z
loop_
_atom_site_type_symbol
_atom_site_label
_atom_site_fract_x
_atom_site_fract_y
_atom_site_fract_z
Si Si1 0.124557 0.265660 0.188896
Si Si2 0.722043 0.112027 0.811231
Si Si3 0.500000 0.681531 0.500000
Si Si4 0.288529 0.429576 0.188907
Si Si5 0.160518 0.020865 0.499885
Si Si6 0.558076 0.275999 0.811217
Si Si7 0.000000 0.860146 0.500000
O O1 0.223727 0.158875 0.223795
O O2 0.213556 0.344311 0.191369
O O3 0.263221 0.290623 0.334228
O O4 0.790705 0.270966 0.000024
O O5 0.640600 0.197327 0.809374
O O6 0.478644 0.032830 0.665637
O O7 0.000000 0.061359 0.000000
O O8 0.546353 0.615698 0.467674
O O9 0.760696 0.750961 0.665838
O O10 0.481377 0.508969 0.334119
O O11 0.448161 0.382716 0.224164
O O12 0.000000 0.480033 0.000000
O O13 0.142933 0.926002 0.532050
#
# Coordination Sequence:
#
# PCOD8052212 Si02
#       7
#     4   4   2   4   4   4   2
#     4   8  14  26  43  59  77 106 138 160 186 234
#     4   8  14  26  43  59  77 106 138 160 186 234
#     4   9  16  26  42  63  82 100 128 167 202 228
#     4   8  14  26  43  59  77 106 138 160 186 234
#     4   9  16  26  42  63  82 100 128 167 202 228
#     4   8  14  26  43  59  77 106 138 160 186 234
#     4   9  16  26  42  63  82 100 128 167 202 228
#
# _framework density 16.425611
#
# number of rings (size 3 to 8) (size 9 to 14) (size 15 to 20)
#    0.000    3.667    0.000    2.000    0.000    0.000 
#    0.000    3.333    0.000    5.000    0.000    0.000 
#    0.000    0.000    0.000    0.000    0.000    0.000 
#
# Total GULP energy -148705.864787 kJ/mol
# GULP energy per Si atom -12392.155399 kJ/mol
# Density = 1.638823 g / cm^3
# Si number density = 16.425611 Si / 1000 Ang^3
#
#
#
# Elastic Constant Matrix: (Units=GPa)
#
#
# Indices 1 2 3 4 5 6 
#
# 1 44.8402 24.5150 59.0051 -0.0257 -0.2128 -0.0755
# 2 24.5150 44.8712 59.0812 0.0463 -0.1189 -0.0282
# 3 59.0051 59.0812 190.6699 0.0886 -0.2547 -0.0405
# 4 -0.0257 0.0463 0.0886 30.1783 -0.0062 -0.0729
# 5 -0.2128 -0.1189 -0.2547 -0.0062 30.0898 -0.0628
# 6 -0.0755 -0.0282 -0.0405 -0.0729 -0.0628 11.0787
#
#
#
# Elastic Compliance Matrix: (Units=1/GPa)
#
#
# Indices 1 2 3 4 5 6 
#
# 1 0.039813 -0.009339 -0.009426 0.000076 0.000165 0.000214
# 2 -0.009339 0.039835 -0.009453 -0.000041 0.000011 0.000003
# 3 -0.009426 -0.009453 0.011091 -0.000026 -0.000010 -0.000048
# 4 0.000076 -0.000041 -0.000026 0.033137 0.000007 0.000218
# 5 0.000165 0.000011 -0.000010 0.000007 0.033235 0.000189
# 6 0.000214 0.000003 -0.000048 0.000218 0.000189 0.090267
#
#
# Mechanical properties :
#
#
# Convention : Reuss Voigt Hill
#
# Bulk Modulus (GPa) = 29.15336 62.84265 45.99801
# Shear Modulus (GPa) = 15.86039 23.45468 19.65754
#
# Velocity S-wave (km/s) = 3.11076 3.78290 3.46318
# Velocity P-wave (km/s) = 5.53983 7.57776 6.63748
#
# Compressibility (1/GPa) = 0.03430136
#
# Stress axis : x y z
#
# Youngs Moduli (GPa) = 25.11758 25.10324 90.16311
#
# Poissons Ratio (x) = 0.23444 0.84992
# Poissons Ratio (y) = 0.23458 0.85234
# Poissons Ratio (z) = 0.23677 0.23731
#
# Static dielectric constant tensor:
#      x y z
#    x 2.918810 0.000550 -0.004600 
#    y 0.000550 2.919060 0.000290 
#    z -0.004600 0.000290 3.638410 
# 
# 
# High freq. dielectric constant tensor:
#      x y z
#    x 1.596070 0.000000 -0.000230 
#    y 0.000000 1.596120 -0.000010 
#    z -0.000230 -0.000010 1.647640 
# 
# From -- ./inp_files/20911.got.cif
#   From: 2010.03.12/outbox.cif.g09.slc.cpg/sg5_11_cif.got.tgz:20911.got - 2010.03.31 09:47:26.
