data_PCOD8052459
_publ_section_title
;
Structure prediction by ZEFSAII (Michael W. Deem and Ramdas Pophale) SiO2 
 PCOD8052459
Probable space group: P M
;
_chemical_formula_sum "Si O2"
_cell_formula_units_Z 16
_cell_length_a 11.841933
_cell_length_b 9.584454
_cell_length_c 9.521486
_cell_angle_alpha 90.000000
_cell_angle_beta 127.615275
_cell_angle_gamma 90.000000
_cell_volume 856.031015
_symmetry_space_group_name_H-M "P M"
_symmetry_group_IT_number 6
_symmetry_cell_setting 'monoclinic'
loop_
_space_group_symop_operation_xyz
x,y,z
x,-y,z
loop_
_atom_site_type_symbol
_atom_site_label
_atom_site_fract_x
_atom_site_fract_y
_atom_site_fract_z
Si Si1 0.355790 0.663390 0.064880
Si Si2 0.931142 0.837959 0.106886
Si Si3 0.234818 0.662972 0.675127
Si Si4 0.914225 0.663290 0.367354
Si Si5 0.406265 0.155103 0.592660
Si Si6 0.701874 0.838714 0.705830
Si Si7 0.669765 0.663751 0.400966
Si Si8 0.223728 0.843985 0.194168
O O1 0.333293 0.500000 0.069811
O O2 0.518796 0.707925 0.217622
O O3 0.244996 0.739213 0.082724
O O4 0.310783 0.710924 0.875610
O O5 0.880926 0.746560 0.200114
O O6 0.092387 0.797086 0.191737
O O7 0.915465 0.000000 0.136898
O O8 0.841915 0.801801 0.900206
O O9 0.252890 0.500000 0.664588
O O10 0.317191 0.735268 0.611983
O O11 0.068294 0.705142 0.547979
O O12 0.906706 0.500000 0.326116
O O13 0.794593 0.706001 0.388765
O O14 0.572850 0.193114 0.716040
O O15 0.362875 0.160673 0.396508
O O16 0.379323 0.000000 0.634230
O O17 0.697002 0.743163 0.565767
O O18 0.698853 0.000000 0.655275
O O19 0.672068 0.500000 0.435900
O O20 0.197283 0.000000 0.114376
#
# Coordination Sequence:
#
# PCOD8052459 Si02
#       8
#     2   2   2   2   2   2   2   2
#     4  10  22  38  57  83 113 146 185 228 274 326
#     4  10  22  39  58  83 113 145 184 229 276 327
#     4  10  22  38  57  83 113 146 185 228 274 326
#     4  10  22  39  57  81 114 148 184 227 274 327
#     4  10  20  37  59  82 110 143 184 232 276 324
#     4  10  22  39  58  83 113 145 184 229 276 327
#     4  10  22  39  57  81 114 148 184 227 274 327
#     4  10  20  37  59  82 110 143 184 232 276 324
#
# _framework density 18.690912000000001
#
# number of rings (size 3 to 8) (size 9 to 14) (size 15 to 20)
#    0.000    2.000    2.500    0.000    3.500    3.000 
#    0.000    0.000    0.000    0.000    0.000    0.000 
#    0.000    0.000    0.000    0.000    0.000    0.000 
#
# Total GULP energy -198437.441478 kJ/mol
# GULP energy per Si atom -12402.340092 kJ/mol
# Density = 1.864837 g / cm^3
# Si number density = 18.690912 Si / 1000 Ang^3
#
#
#
# Elastic Constant Matrix: (Units=GPa)
#
#
# Indices 1 2 3 4 5 6 
#
# 1 94.5428 44.6391 43.2006 0.0000 -11.8550 0.0000
# 2 44.6391 52.7191 45.9812 0.0000 -12.7833 0.0000
# 3 43.2006 45.9812 108.5332 0.0000 -5.3705 0.0000
# 4 0.0000 0.0000 0.0000 111.2533 0.0000 -82.4366
# 5 -11.8550 -12.7833 -5.3705 0.0000 26.7970 0.0000
# 6 0.0000 0.0000 0.0000 -82.4366 0.0000 104.9563
#
#
#
# Elastic Compliance Matrix: (Units=1/GPa)
#
#
# Indices 1 2 3 4 5 6 
#
# 1 0.017732 -0.013714 -0.001195 0.000000 0.001063 0.000000
# 2 -0.013714 0.044998 -0.012972 0.000000 0.012799 0.000000
# 3 -0.001195 -0.012972 0.015002 0.000000 -0.003710 0.000000
# 4 0.000000 0.000000 0.000000 0.021503 0.000000 0.016889
# 5 0.001063 0.012799 -0.003710 0.000000 0.043150 0.000000
# 6 0.000000 0.000000 0.000000 0.016889 0.000000 0.022793
#
#
# Mechanical properties :
#
#
# Convention : Reuss Voigt Hill
#
# Bulk Modulus (GPa) = 45.51805 58.15965 51.83885
# Shear Modulus (GPa) = 21.90452 56.73293 39.31872
#
# Velocity S-wave (km/s) = 3.42707 5.51535 4.59151
# Velocity P-wave (km/s) = 6.32974 8.47012 7.47692
#
# Compressibility (1/GPa) = 0.02196931
#
# Stress axis : x y z
#
# Youngs Moduli (GPa) = 56.39584 22.22319 66.65930
#
# Poissons Ratio (x) = 0.30477 0.07968
# Poissons Ratio (y) = 0.77340 0.86470
# Poissons Ratio (z) = 0.06741 0.28828
#
# Static dielectric constant tensor:
#      x y z
#    x 3.427580 0.000000 0.228720 
#    y 0.000000 3.339780 0.000000 
#    z 0.228720 0.000000 3.487040 
# 
# 
# High freq. dielectric constant tensor:
#      x y z
#    x 1.732720 0.000000 0.010680 
#    y 0.000000 1.719970 0.000000 
#    z 0.010680 0.000000 1.729600 
# 
# From -- ./inp_files/2947.got.cif
#   From: 2010.03.12/outbox.cif.g09.slc.cpg/sg6_2_cif.got.tgz:2947.got - 2010.03.30 10:24:59.
