data_PCOD8052369
_publ_section_title
;
Structure prediction by ZEFSAII (Michael W. Deem and Ramdas Pophale) SiO2 
 PCOD8052369
Probable space group: P M
;
_chemical_formula_sum "Si O2"
_cell_formula_units_Z 16
_cell_length_a 12.375740
_cell_length_b 8.824996
_cell_length_c 12.348370
_cell_angle_alpha 90.000000
_cell_angle_beta 143.421773
_cell_angle_gamma 90.000000
_cell_volume 803.679904
_symmetry_space_group_name_H-M "P M"
_symmetry_group_IT_number 6
_symmetry_cell_setting 'monoclinic'
loop_
_space_group_symop_operation_xyz
x,y,z
x,-y,z
loop_
_atom_site_type_symbol
_atom_site_label
_atom_site_fract_x
_atom_site_fract_y
_atom_site_fract_z
Si Si1 0.782290 0.677008 0.331560
Si Si2 0.910090 0.322372 0.199535
Si Si3 0.306750 0.677084 0.457905
Si Si4 0.439369 0.324134 0.326504
Si Si5 0.818230 0.178014 0.580918
Si Si6 0.551304 0.823482 0.834165
Si Si7 0.425197 0.822481 0.968037
Si Si8 0.166877 0.677973 0.916395
O O1 0.789391 0.500000 0.365359
O O2 0.893301 0.717654 0.312935
O O3 0.866493 0.771126 0.497625
O O4 0.574301 0.725306 0.151641
O O5 0.888395 0.500000 0.161637
O O6 0.104433 0.260607 0.317090
O O7 0.753534 0.242348 0.004754
O O8 0.313201 0.500000 0.487950
O O9 0.355225 0.716098 0.374323
O O10 0.451778 0.755034 0.651459
O O11 0.492742 0.500000 0.360243
O O12 0.617485 0.225407 0.453150
O O13 0.289502 0.279153 0.117661
O O14 0.964134 0.260697 0.776334
O O15 0.839164 0.000000 0.609747
O O16 0.570964 0.000000 0.831801
O O17 0.435277 0.785610 0.848515
O O18 0.456284 0.000000 0.015237
O O19 0.235596 0.765191 0.863739
O O20 0.163248 0.500000 0.891151
#
# Coordination Sequence:
#
# PCOD8052369 Si02
#       8
#     2   2   2   2   2   2   2   2
#     4  10  19  35  59  89 124 161 203 248 302 363
#     4   9  20  38  61  90 120 158 203 249 300 356
#     4  10  22  41  65  90 118 159 209 255 299 356
#     4  10  23  44  65  87 119 159 208 259 303 355
#     4  12  25  39  60  90 125 161 201 250 310 370
#     4  10  22  38  58  90 127 162 198 244 304 364
#     4  10  20  36  58  89 127 163 199 247 309 362
#     4  11  23  39  62  89 120 161 207 252 305 364
#
# _framework density 19.908422999999999
#
# number of rings (size 3 to 8) (size 9 to 14) (size 15 to 20)
#    0.000    1.750    1.250    2.625    1.750    4.500 
#    0.000    2.500    0.000    0.000    0.000    0.000 
#    0.000    0.000    0.000    0.000    0.000    0.000 
#
# Total GULP energy -198464.155401 kJ/mol
# GULP energy per Si atom -12404.009713 kJ/mol
# Density = 1.986311 g / cm^3
# Si number density = 19.908423 Si / 1000 Ang^3
#
#
#
# Elastic Constant Matrix: (Units=GPa)
#
#
# Indices 1 2 3 4 5 6 
#
# 1 104.9208 48.1369 70.3974 0.0000 7.9808 0.0000
# 2 48.1369 77.6867 53.9857 0.0000 0.9383 0.0000
# 3 70.3974 53.9857 131.6833 0.0000 13.1976 0.0000
# 4 0.0000 0.0000 0.0000 12.9661 0.0000 1.5352
# 5 7.9808 0.9383 13.1976 0.0000 21.3925 0.0000
# 6 0.0000 0.0000 0.0000 1.5352 0.0000 22.9246
#
#
#
# Elastic Compliance Matrix: (Units=1/GPa)
#
#
# Indices 1 2 3 4 5 6 
#
# 1 0.016587 -0.005923 -0.006230 0.000000 -0.002085 0.000000
# 2 -0.005923 0.020444 -0.005699 0.000000 0.004829 0.000000
# 3 -0.006230 -0.005699 0.013860 0.000000 -0.005976 0.000000
# 4 0.000000 0.000000 0.000000 0.077741 0.000000 -0.005206
# 5 -0.002085 0.004829 -0.005976 0.000000 0.050998 0.000000
# 6 0.000000 0.000000 0.000000 -0.005206 0.000000 0.043970
#
#
# Mechanical properties :
#
#
# Convention : Reuss Voigt Hill
#
# Bulk Modulus (GPa) = 65.84661 73.25898 69.55280
# Shear Modulus (GPa) = 18.91301 20.90800 19.91051
#
# Velocity S-wave (km/s) = 3.08555 3.24421 3.16587
# Velocity P-wave (km/s) = 6.77058 7.13520 6.95528
#
# Compressibility (1/GPa) = 0.01518681
#
# Stress axis : x y z
#
# Youngs Moduli (GPa) = 60.28668 48.91306 72.15021
#
# Poissons Ratio (x) = 0.28973 0.44951
# Poissons Ratio (y) = 0.35710 0.41118
# Poissons Ratio (z) = 0.37560 0.27875
#
# Static dielectric constant tensor:
#      x y z
#    x 3.689410 0.000000 0.017490 
#    y 0.000000 3.559150 0.000000 
#    z 0.017490 0.000000 3.654370 
# 
# 
# High freq. dielectric constant tensor:
#      x y z
#    x 1.775110 0.000000 0.004730 
#    y 0.000000 1.776820 0.000000 
#    z 0.004730 0.000000 1.782200 
# 
# From -- ./inp_files/5052.got.cif
#   From: 2010.03.12/outbox.cif.g09.slc.cpg/sg6_3_cif.got.tgz:5052.got - 2010.03.30 10:24:59.
