data_PCOD8052514
_publ_section_title
;
Structure prediction by ZEFSAII (Michael W. Deem and Ramdas Pophale) SiO2 
 PCOD8052514
Probable space group: P M
;
_chemical_formula_sum "Si O2"
_cell_formula_units_Z 12
_cell_length_a 12.039550
_cell_length_b 8.569431
_cell_length_c 9.260326
_cell_angle_alpha 90.000000
_cell_angle_beta 141.373357
_cell_angle_gamma 90.000000
_cell_volume 596.406211
_symmetry_space_group_name_H-M "P M"
_symmetry_group_IT_number 6
_symmetry_cell_setting 'monoclinic'
loop_
_space_group_symop_operation_xyz
x,y,z
x,-y,z
loop_
_atom_site_type_symbol
_atom_site_label
_atom_site_fract_x
_atom_site_fract_y
_atom_site_fract_z
Si Si1 0.560210 0.180082 0.559670
Si Si2 0.153430 0.820719 0.180419
Si Si3 0.510765 0.680384 0.204149
Si Si4 0.139940 0.818046 0.836777
Si Si5 0.852831 0.320831 0.055343
Si Si6 0.801473 0.818543 0.309251
O O1 0.361755 0.213858 0.415498
O O2 0.573738 0.217595 0.404185
O O3 0.613036 0.000000 0.634653
O O4 0.695352 0.287450 0.783510
O O5 0.043059 0.712353 0.175725
O O6 0.108805 0.000000 0.169847
O O7 0.096802 0.780149 0.959489
O O8 0.525639 0.500000 0.260202
O O9 0.633629 0.719726 0.192604
O O10 0.309431 0.720735 0.955057
O O11 0.974693 0.763664 0.573138
O O12 0.184729 0.000000 0.862885
O O13 0.845833 0.500000 0.095972
O O14 0.830559 0.211702 0.170784
O O15 0.763345 0.000000 0.296280
#
# Coordination Sequence:
#
# PCOD8052514 Si02
#       6
#     2   2   2   2   2   2
#     4  10  21  40  64  86 113 153 199 238 278 341
#     4   9  19  38  63  87 111 146 193 240 285 340
#     4  11  22  37  61  91 120 148 186 241 296 340
#     4   9  20  39  63  87 111 148 197 240 281 339
#     4  12  25  38  56  86 122 154 189 240 297 344
#     4  11  23  40  61  83 115 159 200 235 279 344
#
# _framework density 20.120515999999999
#
# number of rings (size 3 to 8) (size 9 to 14) (size 15 to 20)
#    0.000    1.667    0.000    6.000    0.000    7.333 
#    0.000    1.667    0.000    0.000    0.000    0.000 
#    0.000    0.000    0.000    0.000    0.000    0.000 
#
# Total GULP energy -148884.369457 kJ/mol
# GULP energy per Si atom -12407.030788 kJ/mol
# Density = 2.007472 g / cm^3
# Si number density = 20.120516 Si / 1000 Ang^3
#
#
#
# Elastic Constant Matrix: (Units=GPa)
#
#
# Indices 1 2 3 4 5 6 
#
# 1 118.9865 28.1804 40.2600 0.0000 9.2099 0.0000
# 2 28.1804 73.5156 19.0903 0.0000 12.2477 0.0000
# 3 40.2600 19.0903 40.2112 0.0000 10.3933 0.0000
# 4 0.0000 0.0000 0.0000 26.8620 0.0000 -0.2655
# 5 9.2099 12.2477 10.3933 0.0000 20.8783 0.0000
# 6 0.0000 0.0000 0.0000 -0.2655 0.0000 27.8326
#
#
#
# Elastic Compliance Matrix: (Units=1/GPa)
#
#
# Indices 1 2 3 4 5 6 
#
# 1 0.012967 -0.002013 -0.012457 0.000000 0.001662 0.000000
# 2 -0.002013 0.016569 -0.004095 0.000000 -0.006794 0.000000
# 3 -0.012457 -0.004095 0.042743 0.000000 -0.013380 0.000000
# 4 0.000000 0.000000 0.000000 0.037231 0.000000 0.000355
# 5 0.001662 -0.006794 -0.013380 0.000000 0.057810 0.000000
# 6 0.000000 0.000000 0.000000 0.000355 0.000000 0.035932
#
#
# Mechanical properties :
#
#
# Convention : Reuss Voigt Hill
#
# Bulk Modulus (GPa) = 28.44938 45.30831 36.87885
# Shear Modulus (GPa) = 19.83344 24.79343 22.31343
#
# Velocity S-wave (km/s) = 3.14304 3.51414 3.33376
# Velocity P-wave (km/s) = 5.22894 6.24764 5.76085
#
# Compressibility (1/GPa) = 0.03515015
#
# Stress axis : x y z
#
# Youngs Moduli (GPa) = 77.11702 60.35245 23.39542
#
# Poissons Ratio (x) = 0.12147 0.29144
# Poissons Ratio (y) = 0.15522 0.09581
# Poissons Ratio (z) = 0.96065 0.24716
#
# Static dielectric constant tensor:
#      x y z
#    x 3.577590 0.000000 0.126010 
#    y 0.000000 3.521280 0.000000 
#    z 0.126010 0.000000 3.643410 
# 
# 
# High freq. dielectric constant tensor:
#      x y z
#    x 1.788910 0.000000 0.010040 
#    y 0.000000 1.784070 0.000000 
#    z 0.010040 0.000000 1.785470 
# 
# From -- ./inp_files/2494.got.cif
#   From: 2010.03.12/outbox.cif.g09.slc.cpg/sg6_2_cif.got.tgz:2494.got - 2010.03.30 10:24:59.
