data_PCOD8052154
_publ_section_title
;
Structure prediction by ZEFSAII (Michael W. Deem and Ramdas Pophale) SiO2 
 PCOD8052154
Probable space group: C 2
;
_chemical_formula_sum "Si O2"
_cell_formula_units_Z 14
_cell_length_a 8.606761
_cell_length_b 12.729230
_cell_length_c 5.337852
_cell_angle_alpha 90.000000
_cell_angle_beta 107.431858
_cell_angle_gamma 90.000000
_cell_volume 557.943758
_symmetry_space_group_name_H-M "C 2"
_symmetry_group_IT_number 5
_symmetry_cell_setting 'monoclinic'
loop_
_space_group_symop_operation_xyz
x,y,z
-x,y,-z
1/2+x,1/2+y,z
1/2-x,1/2+y,-z
loop_
_atom_site_type_symbol
_atom_site_label
_atom_site_fract_x
_atom_site_fract_y
_atom_site_fract_z
Si Si1 0.173089 0.002190 0.209136
Si Si2 0.103178 0.679626 0.801995
Si Si3 0.500000 0.637145 0.500000
Si Si4 0.142562 0.318366 0.902207
O O1 0.283158 0.078876 0.095938
O O2 0.141164 0.060027 0.459177
O O3 0.281694 0.895400 0.274266
O O4 0.000000 0.977985 0.000000
O O5 0.000000 0.669102 0.500000
O O6 0.215562 0.783968 0.834949
O O7 0.000000 0.693704 0.000000
O O8 0.576637 0.711194 0.747757
O O9 0.000000 0.372273 0.000000
#
# Coordination Sequence:
#
# PCOD8052154 Si02
#       4
#     4   4   2   4
#     4  12  27  50  79 118 165 215 274 339 412 488
#     4  12  26  50  80 123 164 210 277 345 405 489
#     4  12  24  54  80 114 172 206 278 338 402 492
#     4  12  27  52  81 117 160 221 268 343 413 491
#
# _framework density 25.092137000000001
#
# number of rings (size 3 to 8) (size 9 to 14) (size 15 to 20)
#    0.000    0.000    5.714    3.429    2.000    2.286 
#   10.286    0.000    0.000    0.000    0.000    0.000 
#    0.000    0.000    0.000    0.000    0.000    0.000 
#
# Total GULP energy -86757.028963 kJ/mol
# GULP energy per Si atom -12393.861280 kJ/mol
# Density = 2.503503 g / cm^3
# Si number density = 25.092137 Si / 1000 Ang^3
#
#
#
# Elastic Constant Matrix: (Units=GPa)
#
#
# Indices 1 2 3 4 5 6 
#
# 1 187.4339 78.4861 57.7246 0.0000 -18.0705 0.0000
# 2 78.4861 132.4541 29.3023 0.0000 -16.0840 0.0000
# 3 57.7246 29.3023 105.4133 0.0000 -12.2614 0.0000
# 4 0.0000 0.0000 0.0000 26.2705 0.0000 -20.9207
# 5 -18.0705 -16.0840 -12.2614 0.0000 24.9520 0.0000
# 6 0.0000 0.0000 0.0000 -20.9207 0.0000 55.5674
#
#
#
# Elastic Compliance Matrix: (Units=1/GPa)
#
#
# Indices 1 2 3 4 5 6 
#
# 1 0.008108 -0.003887 -0.003148 0.000000 0.001819 0.000000
# 2 -0.003887 0.010376 -0.000324 0.000000 0.003714 0.000000
# 3 -0.003148 -0.000324 0.011678 0.000000 0.003250 0.000000
# 4 0.000000 0.000000 0.000000 0.054365 0.000000 0.020468
# 5 0.001819 0.003714 0.003250 0.000000 0.045386 0.000000
# 6 0.000000 0.000000 0.000000 0.020468 0.000000 0.025702
#
#
# Mechanical properties :
#
#
# Convention : Reuss Voigt Hill
#
# Bulk Modulus (GPa) = 64.74624 84.03639 74.39131
# Shear Modulus (GPa) = 28.49330 38.67721 33.58526
#
# Velocity S-wave (km/s) = 3.37344 3.93034 3.66249
# Velocity P-wave (km/s) = 6.40569 7.35939 6.89904
#
# Compressibility (1/GPa) = 0.01544491
#
# Stress axis : x y z
#
# Youngs Moduli (GPa) = 123.34063 96.37993 85.62973
#
# Poissons Ratio (x) = 0.37462 0.26953
# Poissons Ratio (y) = 0.47942 0.02771
# Poissons Ratio (z) = 0.38824 0.03119
#
# Static dielectric constant tensor:
#      x y z
#    x 5.089710 0.000000 -0.034520 
#    y 0.000000 4.572890 0.000000 
#    z -0.034520 0.000000 3.965700 
# 
# 
# High freq. dielectric constant tensor:
#      x y z
#    x 2.031800 0.000000 -0.002480 
#    y 0.000000 1.999690 0.000000 
#    z -0.002480 0.000000 1.975770 
# 
# From -- ./inp_files/1540.got.cif
#   From: 2010.03.12/outbox.cif.g09.slc.cpg/sg5_1_cif.got.tgz:1540.got - 2010.03.31 09:47:26.
