data_PCOD8052493
_publ_section_title
;
Structure prediction by ZEFSAII (Michael W. Deem and Ramdas Pophale) SiO2 
 PCOD8052493
Probable space group: P M
;
_chemical_formula_sum "Si O2"
_cell_formula_units_Z 16
_cell_length_a 14.191612
_cell_length_b 8.811597
_cell_length_c 19.100357
_cell_angle_alpha 90.000000
_cell_angle_beta 19.169763
_cell_angle_gamma 90.000000
_cell_volume 784.312180
_symmetry_space_group_name_H-M "P M"
_symmetry_group_IT_number 6
_symmetry_cell_setting 'monoclinic'
loop_
_space_group_symop_operation_xyz
x,y,z
x,-y,z
loop_
_atom_site_type_symbol
_atom_site_label
_atom_site_fract_x
_atom_site_fract_y
_atom_site_fract_z
Si Si1 0.831400 0.324132 0.288540
Si Si2 0.891758 0.177137 0.395207
Si Si3 0.446243 0.174535 0.454610
Si Si4 0.846080 0.671170 0.071158
Si Si5 0.330544 0.328507 0.827164
Si Si6 0.443116 0.674586 0.236790
Si Si7 0.435903 0.679425 0.084637
Si Si8 0.011492 0.178234 0.646597
O O1 0.815639 0.500000 0.320375
O O2 0.871549 0.224679 0.328959
O O3 0.531287 0.277300 0.461655
O O4 0.099071 0.288720 0.049475
O O5 0.598887 0.215853 0.642327
O O6 0.144803 0.268380 0.253698
O O7 0.953137 0.000000 0.357942
O O8 0.680310 0.199978 0.229950
O O9 0.142958 0.219705 0.631271
O O10 0.449620 0.000000 0.475917
O O11 0.751310 0.500000 0.162562
O O12 0.761762 0.692192 0.048622
O O13 0.182966 0.689268 0.853299
O O14 0.443789 0.500000 0.757507
O O15 0.347789 0.500000 0.301760
O O16 0.451930 0.742156 0.152778
O O17 0.208192 0.763466 0.445895
O O18 0.456452 0.500000 0.067695
O O19 0.702035 0.746461 0.855043
O O20 0.980949 0.000000 0.659486
#
# Coordination Sequence:
#
# PCOD8052493 Si02
#       8
#     2   2   2   2   2   2   2   2
#     4  10  21  39  63  87 115 152 192 236 282 335
#     4  12  26  41  58  82 114 151 193 242 291 342
#     4   9  17  31  54  87 122 151 183 226 282 344
#     4   8  15  31  56  86 116 146 184 229 280 339
#     4   9  19  37  61  87 115 148 185 229 283 341
#     4   9  19  37  61  87 114 148 190 234 282 337
#     4  11  24  41  60  82 111 151 200 245 281 332
#     4  10  21  37  59  88 121 153 185 231 289 342
#
# _framework density 20.400039
#
# number of rings (size 3 to 8) (size 9 to 14) (size 15 to 20)
#    0.000    2.250    0.000    3.375    0.000    7.000 
#    0.000    2.500    0.000    0.000    0.000    0.000 
#    0.000    0.000    0.000    0.000    0.000    0.000 
#
# Total GULP energy -198335.775256 kJ/mol
# GULP energy per Si atom -12395.985953 kJ/mol
# Density = 2.035361 g / cm^3
# Si number density = 20.400039 Si / 1000 Ang^3
#
#
#
# Elastic Constant Matrix: (Units=GPa)
#
#
# Indices 1 2 3 4 5 6 
#
# 1 54.1204 4.9473 -2.6085 0.0000 -1.9957 0.0000
# 2 4.9473 51.3917 18.2926 0.0000 5.0130 0.0000
# 3 -2.6085 18.2926 61.7667 0.0000 -11.2379 0.0000
# 4 0.0000 0.0000 0.0000 15.3260 0.0000 -2.9687
# 5 -1.9957 5.0130 -11.2379 0.0000 25.8562 0.0000
# 6 0.0000 0.0000 0.0000 -2.9687 0.0000 30.7751
#
#
#
# Elastic Compliance Matrix: (Units=1/GPa)
#
#
# Indices 1 2 3 4 5 6 
#
# 1 0.018959 -0.002900 0.002202 0.000000 0.002983 0.000000
# 2 -0.002900 0.023671 -0.008696 0.000000 -0.008593 0.000000
# 3 0.002202 -0.008696 0.020844 0.000000 0.010916 0.000000
# 4 0.000000 0.000000 0.000000 0.066491 0.000000 0.006414
# 5 0.002983 -0.008593 0.010916 0.000000 0.045316 0.000000
# 6 0.000000 0.000000 0.000000 0.006414 0.000000 0.033113
#
#
# Mechanical properties :
#
#
# Convention : Reuss Voigt Hill
#
# Bulk Modulus (GPa) = 22.37829 23.17128 22.77479
# Shear Modulus (GPa) = 20.65458 24.16794 22.41126
#
# Velocity S-wave (km/s) = 3.18540 3.44568 3.31809
# Velocity P-wave (km/s) = 4.95202 5.21665 5.08606
#
# Compressibility (1/GPa) = 0.04468617
#
# Stress axis : x y z
#
# Youngs Moduli (GPa) = 52.74677 42.24559 47.97450
#
# Poissons Ratio (x) = 0.12250 -0.10564
# Poissons Ratio (y) = 0.15296 0.41720
# Poissons Ratio (z) = -0.11615 0.36738
#
# Static dielectric constant tensor:
#      x y z
#    x 3.873000 0.000000 -0.202420 
#    y 0.000000 3.606850 0.000000 
#    z -0.202420 0.000000 3.522150 
# 
# 
# High freq. dielectric constant tensor:
#      x y z
#    x 1.798550 0.000000 -0.013080 
#    y 0.000000 1.796290 0.000000 
#    z -0.013080 0.000000 1.783380 
# 
# From -- ./inp_files/5938.got.cif
#   From: 2010.03.12/outbox.cif.g09.slc.cpg/sg6_3_cif.got.tgz:5938.got - 2010.03.30 10:24:59.
