data_PCOD8052064
_publ_section_title
;
Structure prediction by ZEFSAII (Michael W. Deem and Ramdas Pophale) SiO2 
 PCOD8052064
Probable space group: C 2
;
_chemical_formula_sum "Si O2"
_cell_formula_units_Z 14
_cell_length_a 19.807945
_cell_length_b 4.980897
_cell_length_c 13.755003
_cell_angle_alpha 90.000000
_cell_angle_beta 24.258639
_cell_angle_gamma 90.000000
_cell_volume 557.567751
_symmetry_space_group_name_H-M "C 2"
_symmetry_group_IT_number 5
_symmetry_cell_setting 'monoclinic'
loop_
_space_group_symop_operation_xyz
x,y,z
-x,y,-z
1/2+x,1/2+y,z
1/2-x,1/2+y,-z
loop_
_atom_site_type_symbol
_atom_site_label
_atom_site_fract_x
_atom_site_fract_y
_atom_site_fract_z
Si Si1 0.000000 0.088431 0.500000
Si Si2 0.693672 0.731022 0.845588
Si Si3 0.212568 0.414327 0.107020
Si Si4 0.675681 0.779391 0.647165
O O1 0.034575 0.278641 0.360385
O O2 0.162293 0.920259 0.305811
O O3 0.703716 0.457689 0.896674
O O4 0.715758 0.671592 0.702893
O O5 0.516720 0.859204 0.104312
O O6 0.182037 0.700378 0.094222
O O7 0.719124 0.543270 0.514904
#
# Coordination Sequence:
#
# PCOD8052064 Si02
#       4
#     2   4   4   4
#     4  12  28  48  80 118 160 196 254 328 378 464
#     4  11  29  51  78 116 154 198 266 310 384 463
#     4  12  28  46  75 118 157 201 246 317 391 452
#     4  11  30  51  80 107 154 210 256 315 379 452
#
# _framework density 25.109055999999999
#
# number of rings (size 3 to 8) (size 9 to 14) (size 15 to 20)
#    0.000    0.571    2.857    0.857   12.000    4.571 
#    0.000    0.000    0.000    0.000    0.000    0.000 
#    0.000    0.000    0.000    0.000    0.000    0.000 
#
# Total GULP energy -86772.511707 kJ/mol
# GULP energy per Si atom -12396.073101 kJ/mol
# Density = 2.505191 g / cm^3
# Si number density = 25.109056 Si / 1000 Ang^3
#
#
#
# Elastic Constant Matrix: (Units=GPa)
#
#
# Indices 1 2 3 4 5 6 
#
# 1 138.3585 62.6168 84.4492 -0.0156 8.5081 0.0068
# 2 62.6168 142.2189 60.1448 0.0054 1.7340 0.0475
# 3 84.4492 60.1448 151.4314 0.0410 3.8780 0.0075
# 4 -0.0156 0.0054 0.0410 27.7533 0.0073 4.9087
# 5 8.5081 1.7340 3.8780 0.0073 35.6400 0.0096
# 6 0.0068 0.0475 0.0075 4.9087 0.0096 30.7760
#
#
#
# Elastic Compliance Matrix: (Units=1/GPa)
#
#
# Indices 1 2 3 4 5 6 
#
# 1 0.012048 -0.002957 -0.005490 0.000016 -0.002135 0.000001
# 2 -0.002957 0.009177 -0.002008 0.000002 0.000478 -0.000013
# 3 -0.005490 -0.002008 0.010456 -0.000019 0.000271 0.000005
# 4 0.000016 0.000002 -0.000019 0.037078 -0.000008 -0.005914
# 5 -0.002135 0.000478 0.000271 -0.000008 0.028515 -0.000008
# 6 0.000001 -0.000013 0.000005 -0.005914 -0.000008 0.033436
#
#
# Mechanical properties :
#
#
# Convention : Reuss Voigt Hill
#
# Bulk Modulus (GPa) = 92.84134 94.04783 93.44459
# Shear Modulus (GPa) = 32.21470 33.82040 33.01755
#
# Velocity S-wave (km/s) = 3.58577 3.67405 3.63018
# Velocity P-wave (km/s) = 7.36201 7.45220 7.40724
#
# Compressibility (1/GPa) = 0.01077106
#
# Stress axis : x y z
#
# Youngs Moduli (GPa) = 83.00310 108.97242 95.64157
#
# Poissons Ratio (x) = 0.32221 0.52504
# Poissons Ratio (y) = 0.24542 0.19205
# Poissons Ratio (z) = 0.45566 0.21882
#
# Static dielectric constant tensor:
#      x y z
#    x 4.903650 -0.000090 0.406160 
#    y -0.000090 4.545080 0.000040 
#    z 0.406160 0.000040 4.828330 
# 
# 
# High freq. dielectric constant tensor:
#      x y z
#    x 1.997850 0.000000 0.029250 
#    y 0.000000 2.001840 0.000000 
#    z 0.029250 0.000000 2.017300 
# 
# From -- ./inp_files/17762.got.cif
#   From: 2010.03.12/outbox.cif.g09.slc.cpg/sg5_9_cif.got.tgz:17762.got - 2010.03.31 09:47:26.
