data_PCOD8052942
_publ_section_title
;
Structure prediction by ZEFSAII (Michael W. Deem and Ramdas Pophale) SiO2 
 PCOD8052942
Probable space group: C M
;
_chemical_formula_sum "Si O2"
_cell_formula_units_Z 32
_cell_length_a 20.803879
_cell_length_b 8.862738
_cell_length_c 12.220527
_cell_angle_alpha 90.000000
_cell_angle_beta 51.321215
_cell_angle_gamma 90.000000
_cell_volume 1758.997122
_symmetry_space_group_name_H-M "C M"
_symmetry_group_IT_number 8
_symmetry_cell_setting 'monoclinic'
loop_
_space_group_symop_operation_xyz
x,y,z
x,-y,z
1/2+x,1/2+y,z
1/2+x,1/2-y,z
loop_
_atom_site_type_symbol
_atom_site_label
_atom_site_fract_x
_atom_site_fract_y
_atom_site_fract_z
Si Si1 0.506380 0.176376 0.785460
Si Si2 0.018016 0.826485 0.106589
Si Si3 0.884698 0.675576 0.103089
Si Si4 0.236130 0.676059 0.363711
Si Si5 0.560013 0.320883 0.517773
Si Si6 0.140258 0.825893 0.791901
Si Si7 0.478029 0.677485 0.385817
Si Si8 0.794317 0.822963 0.545062
O O1 0.499537 0.261766 0.677473
O O2 0.587528 0.231666 0.761562
O O3 0.517596 0.000000 0.752262
O O4 0.424536 0.212203 0.942423
O O5 0.948343 0.721955 0.129304
O O6 0.029195 0.780700 0.221605
O O7 0.987248 0.000000 0.129440
O O8 0.104597 0.803695 0.952342
O O9 0.865037 0.500000 0.136610
O O10 0.800289 0.768181 0.203365
O O11 0.220036 0.500000 0.366120
O O12 0.151470 0.762377 0.438063
O O13 0.273308 0.716107 0.442249
O O14 0.560924 0.500000 0.517890
O O15 0.524805 0.254560 0.440947
O O16 0.232880 0.764108 0.692038
O O17 0.137494 0.000000 0.759337
O O18 0.472508 0.500000 0.405768
O O19 0.385141 0.740258 0.474709
O O20 0.786675 0.000000 0.575642
#
# Coordination Sequence:
#
# PCOD8052942 Si02
#       8
#     4   4   4   4   4   4   4   4
#     4  10  20  35  53  77 112 147 177 220 276 321
#     4   9  17  34  55  77 108 144 179 216 270 325
#     4  10  20  33  54  83 110 138 180 229 270 313
#     4  11  21  35  57  81 110 144 179 223 273 322
#     4  11  22  36  57  81 109 145 185 223 263 323
#     4  10  19  30  53  84 109 136 178 228 266 313
#     4   9  19  37  57  77 105 145 182 216 267 324
#     4  10  19  34  56  78 107 143 178 219 269 321
#
# _framework density 18.192184999999998
#
# number of rings (size 3 to 8) (size 9 to 14) (size 15 to 20)
#    0.000    2.000    2.500    1.875    0.000    2.500 
#    0.000    3.750    0.000    4.500    0.000    0.000 
#    0.000    0.000    0.000    0.000    0.000    0.000 
#
# Total GULP energy -198414.863896 kJ/mol
# GULP energy per Si atom -12400.928994 kJ/mol
# Density = 1.815078 g / cm^3
# Si number density = 18.192185 Si / 1000 Ang^3
#
#
#
# Elastic Constant Matrix: (Units=GPa)
#
#
# Indices 1 2 3 4 5 6 
#
# 1 87.0207 37.5510 56.3760 0.0000 11.9842 0.0000
# 2 37.5510 66.1084 49.8234 0.0000 1.7021 0.0000
# 3 56.3760 49.8234 142.9245 0.0000 5.6692 0.0000
# 4 0.0000 0.0000 0.0000 31.9920 0.0000 -5.1836
# 5 11.9842 1.7021 5.6692 0.0000 29.2708 0.0000
# 6 0.0000 0.0000 0.0000 -5.1836 0.0000 20.6215
#
#
#
# Elastic Compliance Matrix: (Units=1/GPa)
#
#
# Indices 1 2 3 4 5 6 
#
# 1 0.018225 -0.006727 -0.004598 0.000000 -0.006180 0.000000
# 2 -0.006727 0.023001 -0.005463 0.000000 0.002475 0.000000
# 3 -0.004598 -0.005463 0.010710 0.000000 0.000126 0.000000
# 4 0.000000 0.000000 0.000000 0.032585 0.000000 0.008191
# 5 -0.006180 0.002475 0.000126 0.000000 0.036526 0.000000
# 6 0.000000 0.000000 0.000000 0.008191 0.000000 0.050552
#
#
# Mechanical properties :
#
#
# Convention : Reuss Voigt Hill
#
# Bulk Modulus (GPa) = 54.46983 64.83938 59.65461
# Shear Modulus (GPa) = 23.66364 26.53042 25.09703
#
# Velocity S-wave (km/s) = 3.61052 3.82297 3.71826
# Velocity P-wave (km/s) = 6.88385 7.43004 7.16215
#
# Compressibility (1/GPa) = 0.01835879
#
# Stress axis : x y z
#
# Youngs Moduli (GPa) = 54.87110 43.47575 93.37182
#
# Poissons Ratio (x) = 0.29247 0.42936
# Poissons Ratio (y) = 0.36913 0.51008
# Poissons Ratio (z) = 0.25232 0.23750
#
# Static dielectric constant tensor:
#      x y z
#    x 3.225250 0.000000 0.035500 
#    y 0.000000 3.300410 0.000000 
#    z 0.035500 0.000000 3.719740 
# 
# 
# High freq. dielectric constant tensor:
#      x y z
#    x 1.672380 0.000000 -0.005420 
#    y 0.000000 1.701990 0.000000 
#    z -0.005420 0.000000 1.722970 
# 
# From -- ./inp_files/23705.got.cif
#   From: 2010.03.12/outbox.cif.g09.slc.cpg/sg8_12_cif.got.tgz:23705.got - 2010.03.31 10:45:26.
