data_PCOD8052265
_publ_section_title
;
Structure prediction by ZEFSAII (Michael W. Deem and Ramdas Pophale) SiO2 
 PCOD8052265
Probable space group: P M
;
_chemical_formula_sum "Si O2"
_cell_formula_units_Z 16
_cell_length_a 19.507742
_cell_length_b 8.916646
_cell_length_c 14.271347
_cell_angle_alpha 90.000000
_cell_angle_beta 160.618038
_cell_angle_gamma 90.000000
_cell_volume 823.822895
_symmetry_space_group_name_H-M "P M"
_symmetry_group_IT_number 6
_symmetry_cell_setting 'monoclinic'
loop_
_space_group_symop_operation_xyz
x,y,z
x,-y,z
loop_
_atom_site_type_symbol
_atom_site_label
_atom_site_fract_x
_atom_site_fract_y
_atom_site_fract_z
Si Si1 0.216630 0.677806 0.720760
Si Si2 0.468187 0.321132 0.223596
Si Si3 0.385453 0.827920 0.754785
Si Si4 0.928050 0.678224 0.837482
Si Si5 0.660311 0.671629 0.812450
Si Si6 0.069011 0.671666 0.221004
Si Si7 0.316433 0.321763 0.225988
Si Si8 0.778381 0.172094 0.147895
O O1 0.211991 0.500000 0.711538
O O2 0.332312 0.732899 0.777563
O O3 0.983264 0.732895 0.428810
O O4 0.342667 0.739483 0.972650
O O5 0.469479 0.500000 0.226286
O O6 0.702297 0.258121 0.520446
O O7 0.359867 0.258132 0.178205
O O8 0.256832 0.770862 0.499839
O O9 0.327915 0.000000 0.699736
O O10 0.627897 0.809332 0.043368
O O11 0.917408 0.500000 0.828507
O O12 0.998325 0.737529 0.029777
O O13 0.090835 0.733050 0.968891
O O14 0.608477 0.500000 0.772095
O O15 0.489913 0.737523 0.521527
O O16 0.654690 0.770983 0.897851
O O17 0.884433 0.683545 0.056255
O O18 0.143690 0.500000 0.307089
O O19 0.330325 0.500000 0.241503
O O20 0.840891 0.000000 0.212909
#
# Coordination Sequence:
#
# PCOD8052265 Si02
#       8
#     2   2   2   2   2   2   2   2
#     4  11  23  38  59  84 112 147 190 241 282 323
#     4   9  18  32  49  76 110 141 180 225 272 325
#     4  11  24  40  58  81 113 152 190 231 281 337
#     4   9  16  28  49  78 113 146 173 214 274 333
#     4  10  18  31  56  87 116 145 179 224 277 334
#     4  10  18  31  56  87 116 145 179 224 277 334
#     4   9  16  28  49  78 113 146 173 214 274 333
#     4  11  24  40  58  81 113 152 190 231 281 337
#
# _framework density 19.42165
#
# number of rings (size 3 to 8) (size 9 to 14) (size 15 to 20)
#    0.000    2.000    2.500    1.875    0.000    4.000 
#    0.000    2.500    0.000    3.000    0.000    3.500 
#    0.000    0.000    0.000    0.000    0.000    0.000 
#
# Total GULP energy -198413.947268 kJ/mol
# GULP energy per Si atom -12400.871704 kJ/mol
# Density = 1.937745 g / cm^3
# Si number density = 19.421650 Si / 1000 Ang^3
#
#
#
# Elastic Constant Matrix: (Units=GPa)
#
#
# Indices 1 2 3 4 5 6 
#
# 1 115.3735 33.7067 87.2262 0.0000 1.7737 0.0000
# 2 33.7067 57.4005 35.0981 0.0000 -1.8205 0.0000
# 3 87.2262 35.0981 124.0398 0.0000 -13.3948 0.0000
# 4 0.0000 0.0000 0.0000 5.4910 0.0000 9.0400
# 5 1.7737 -1.8205 -13.3948 0.0000 36.5775 0.0000
# 6 0.0000 0.0000 0.0000 9.0400 0.0000 11.4200
#
#
#
# Elastic Compliance Matrix: (Units=1/GPa)
#
#
# Indices 1 2 3 4 5 6 
#
# 1 0.020417 -0.003620 -0.014013 0.000000 -0.006302 0.000000
# 2 -0.003620 0.021757 -0.003618 0.000000 -0.000066 0.000000
# 3 -0.014013 -0.003618 0.019776 0.000000 0.007741 0.000000
# 4 0.000000 0.000000 0.000000 -0.600588 0.000000 0.475423
# 5 -0.006302 -0.000066 0.007741 0.000000 0.030476 0.000000
# 6 0.000000 0.000000 0.000000 0.475423 0.000000 -0.288777
#
#
# Mechanical properties :
#
#
# Convention : Reuss Voigt Hill
#
# Bulk Modulus (GPa) = 51.42150 67.65285 59.53717
# Shear Modulus (GPa) = -6.68490 20.08323 6.69916
#
# Velocity S-wave (km/s) = -1.85727 3.21918 1.85925
# Velocity P-wave (km/s) = 4.68344 6.98046 5.94396
#
# Compressibility (1/GPa) = 0.01944712
#
# Stress axis : x y z
#
# Youngs Moduli (GPa) = 48.97973 45.96142 50.56656
#
# Poissons Ratio (x) = 0.16640 0.70861
# Poissons Ratio (y) = 0.17732 0.18294
# Poissons Ratio (z) = 0.68637 0.16628
#
# Static dielectric constant tensor:
#      x y z
#    x 3.707240 0.000000 0.017370 
#    y 0.000000 3.133060 0.000000 
#    z 0.017370 0.000000 3.696990 
# 
# 
# High freq. dielectric constant tensor:
#      x y z
#    x 1.767950 0.000000 0.008310 
#    y 0.000000 1.710840 0.000000 
#    z 0.008310 0.000000 1.762500 
# 
# From -- ./inp_files/5663.got.cif
#   From: 2010.03.12/outbox.cif.g09.slc.cpg/sg6_3_cif.got.tgz:5663.got - 2010.03.30 10:24:59.
