data_PCOD8052472
_publ_section_title
;
Structure prediction by ZEFSAII (Michael W. Deem and Ramdas Pophale) SiO2 
 PCOD8052472
Probable space group: P M
;
_chemical_formula_sum "Si O2"
_cell_formula_units_Z 10
_cell_length_a 7.689440
_cell_length_b 12.869655
_cell_length_c 5.209553
_cell_angle_alpha 90.000000
_cell_angle_beta 88.936918
_cell_angle_gamma 90.000000
_cell_volume 515.450919
_symmetry_space_group_name_H-M "P M"
_symmetry_group_IT_number 6
_symmetry_cell_setting 'monoclinic'
loop_
_space_group_symop_operation_xyz
x,y,z
x,-y,z
loop_
_atom_site_type_symbol
_atom_site_label
_atom_site_fract_x
_atom_site_fract_y
_atom_site_fract_z
Si Si1 0.907380 0.762173 0.484960
Si Si2 0.609386 0.119658 0.295648
Si Si3 0.744357 0.703534 0.996166
Si Si4 0.386999 0.382256 0.963506
Si Si5 0.298097 0.255836 0.462832
O O1 0.780798 0.863312 0.470639
O O2 0.856908 0.683519 0.252141
O O3 0.107409 0.796615 0.460969
O O4 0.873987 0.703301 0.752708
O O5 0.641649 0.185223 0.032237
O O6 0.438965 0.163855 0.443949
O O7 0.581427 0.000000 0.228664
O O8 0.597781 0.616301 0.961934
O O9 0.320962 0.500000 0.939052
O O10 0.317708 0.317013 0.726498
O O11 0.314571 0.336029 0.229523
#
# Coordination Sequence:
#
# PCOD8052472 Si02
#       5
#     2   2   2   2   2
#     4  10  20  38  60  82 122 152 193 241 293 333
#     4   9  21  38  61  88 120 159 196 236 296 350
#     4   9  19  39  58  84 116 158 186 251 281 343
#     4  11  21  40  63  87 118 160 197 241 298 352
#     4  11  22  39  63  87 124 153 195 249 291 346
#
# _framework density 19.400489
#
# number of rings (size 3 to 8) (size 9 to 14) (size 15 to 20)
#    1.200    0.800    2.000    1.800    0.000    1.600 
#    0.000    6.000    0.000    0.000    0.000    0.000 
#    0.000    0.000    0.000    0.000    0.000    0.000 
#
# Total GULP energy -123912.412201 kJ/mol
# GULP energy per Si atom -12391.241220 kJ/mol
# Density = 1.935633 g / cm^3
# Si number density = 19.400489 Si / 1000 Ang^3
#
#
#
# Elastic Constant Matrix: (Units=GPa)
#
#
# Indices 1 2 3 4 5 6 
#
# 1 155.3582 27.3478 22.9327 0.0000 -7.3398 0.0000
# 2 27.3478 69.6563 -1.7252 0.0000 7.0401 0.0000
# 3 22.9327 -1.7252 91.3367 0.0000 16.3838 0.0000
# 4 0.0000 0.0000 0.0000 15.9225 0.0000 1.5732
# 5 -7.3398 7.0401 16.3838 0.0000 26.4734 0.0000
# 6 0.0000 0.0000 0.0000 1.5732 0.0000 6.5923
#
#
#
# Elastic Compliance Matrix: (Units=1/GPa)
#
#
# Indices 1 2 3 4 5 6 
#
# 1 0.007727 -0.003599 -0.002884 0.000000 0.004884 0.000000
# 2 -0.003599 0.016529 0.002456 0.000000 -0.006913 0.000000
# 3 -0.002884 0.002456 0.013476 0.000000 -0.009792 0.000000
# 4 0.000000 0.000000 0.000000 0.064321 0.000000 -0.015349
# 5 0.004884 -0.006913 -0.009792 0.000000 0.047027 0.000000
# 6 0.000000 0.000000 0.000000 -0.015349 0.000000 0.155354
#
#
# Mechanical properties :
#
#
# Convention : Reuss Voigt Hill
#
# Bulk Modulus (GPa) = 33.69616 45.94021 39.81818
# Shear Modulus (GPa) = 15.50971 27.65070 21.58021
#
# Velocity S-wave (km/s) = 2.83052 3.77935 3.33881
# Velocity P-wave (km/s) = 5.29990 6.54034 5.95252
#
# Compressibility (1/GPa) = 0.02967697
#
# Stress axis : x y z
#
# Youngs Moduli (GPa) = 129.42169 60.50124 74.20831
#
# Poissons Ratio (x) = 0.21772 0.21402
# Poissons Ratio (y) = 0.46574 -0.18224
# Poissons Ratio (z) = 0.37326 -0.14858
#
# Static dielectric constant tensor:
#      x y z
#    x 3.590560 0.000000 0.008720 
#    y 0.000000 3.034680 0.000000 
#    z 0.008720 0.000000 3.559420 
# 
# 
# High freq. dielectric constant tensor:
#      x y z
#    x 1.761100 0.000000 -0.002400 
#    y 0.000000 1.708220 0.000000 
#    z -0.002400 0.000000 1.766700 
# 
# From -- ./inp_files/865.got.cif
#   From: 2010.03.12/outbox.cif.g09.slc.cpg/sg6_1_cif.got.tgz:865.got - 2010.03.30 10:24:59.
