data_PCOD8052198
_publ_section_title
;
Structure prediction by ZEFSAII (Michael W. Deem and Ramdas Pophale) SiO2 
 PCOD8052198
Probable space group: C 2
;
_chemical_formula_sum "Si O2"
_cell_formula_units_Z 14
_cell_length_a 23.119679
_cell_length_b 4.767795
_cell_length_c 5.564394
_cell_angle_alpha 90.000000
_cell_angle_beta 119.759641
_cell_angle_gamma 90.000000
_cell_volume 532.469407
_symmetry_space_group_name_H-M "C 2"
_symmetry_group_IT_number 5
_symmetry_cell_setting 'monoclinic'
loop_
_space_group_symop_operation_xyz
x,y,z
-x,y,-z
1/2+x,1/2+y,z
1/2-x,1/2+y,-z
loop_
_atom_site_type_symbol
_atom_site_label
_atom_site_fract_x
_atom_site_fract_y
_atom_site_fract_z
Si Si1 0.393286 0.043050 0.440417
Si Si2 0.000000 0.749522 0.000000
Si Si3 0.293250 0.752271 0.555405
Si Si4 0.595050 0.555894 0.858001
O O1 0.441398 0.056808 0.771778
O O2 0.379539 0.349670 0.302409
O O3 0.325184 0.893227 0.384311
O O4 0.425692 0.853703 0.298230
O O5 0.028216 0.941023 0.843646
O O6 0.242037 0.506629 0.370855
O O7 0.346733 0.593857 0.829908
#
# Coordination Sequence:
#
# PCOD8052198 Si02
#       4
#     4   2   4   4
#     4  12  28  49  77 111 148 196 244 301 372 435
#     4  12  28  50  76 112 154 186 246 308 364 444
#     4  12  27  51  76 107 151 194 248 306 358 434
#     4  12  28  49  77 111 148 196 244 301 372 435
#
# _framework density 26.292587999999999
#
# number of rings (size 3 to 8) (size 9 to 14) (size 15 to 20)
#    0.000    0.000    0.000    9.429    0.000   21.714 
#    0.000    5.714    0.000    0.000    0.000    0.000 
#    0.000    0.000    0.000    0.000    0.000    0.000 
#
# Total GULP energy -86868.263880 kJ/mol
# GULP energy per Si atom -12409.751983 kJ/mol
# Density = 2.623275 g / cm^3
# Si number density = 26.292588 Si / 1000 Ang^3
#
#
#
# Elastic Constant Matrix: (Units=GPa)
#
#
# Indices 1 2 3 4 5 6 
#
# 1 103.4231 20.3441 11.0537 0.0000 6.5555 0.0000
# 2 20.3441 117.7600 10.9111 0.0000 8.7086 0.0000
# 3 11.0537 10.9111 65.9207 0.0000 -12.4542 0.0000
# 4 0.0000 0.0000 0.0000 56.1339 0.0000 -3.3845
# 5 6.5555 8.7086 -12.4542 0.0000 23.3345 0.0000
# 6 0.0000 0.0000 0.0000 -3.3845 0.0000 51.0441
#
#
#
# Elastic Compliance Matrix: (Units=1/GPa)
#
#
# Indices 1 2 3 4 5 6 
#
# 1 0.010394 -0.001325 -0.002204 0.000000 -0.003602 0.000000
# 2 -0.001325 0.009225 -0.002096 0.000000 -0.004189 0.000000
# 3 -0.002204 -0.002096 0.017962 0.000000 0.010988 0.000000
# 4 0.000000 0.000000 0.000000 0.017886 0.000000 0.001186
# 5 -0.003602 -0.004189 0.010988 0.000000 0.051295 0.000000
# 6 0.000000 0.000000 0.000000 0.001186 0.000000 0.019670
#
#
# Mechanical properties :
#
#
# Convention : Reuss Voigt Hill
#
# Bulk Modulus (GPa) = 37.97901 41.30238 39.64069
# Shear Modulus (GPa) = 34.13940 42.42215 38.28077
#
# Velocity S-wave (km/s) = 3.60730 4.02115 3.81983
# Velocity P-wave (km/s) = 5.64148 6.10757 5.87914
#
# Compressibility (1/GPa) = 0.02633033
#
# Stress axis : x y z
#
# Youngs Moduli (GPa) = 96.21389 108.40364 55.67222
#
# Poissons Ratio (x) = 0.14364 0.12270
# Poissons Ratio (y) = 0.12748 0.11670
# Poissons Ratio (z) = 0.21205 0.22723
#
# Static dielectric constant tensor:
#      x y z
#    x 4.749260 0.000000 -0.053990 
#    y 0.000000 4.951540 0.000000 
#    z -0.053990 0.000000 4.449110 
# 
# 
# High freq. dielectric constant tensor:
#      x y z
#    x 2.058500 0.000000 -0.005120 
#    y 0.000000 2.079030 0.000000 
#    z -0.005120 0.000000 2.042830 
# 
# From -- ./inp_files/9033.got.cif
#   From: 2010.03.12/outbox.cif.g09.slc.cpg/sg5_5_cif.got.tgz:9033.got - 2010.03.31 09:47:26.
