data_PCOD8052088
_publ_section_title
;
Structure prediction by ZEFSAII (Michael W. Deem and Ramdas Pophale) SiO2 
 PCOD8052088
Probable space group: C 2
;
_chemical_formula_sum "Si O2"
_cell_formula_units_Z 26
_cell_length_a 17.854096
_cell_length_b 6.310549
_cell_length_c 11.463184
_cell_angle_alpha 90.000000
_cell_angle_beta 119.813870
_cell_angle_gamma 90.000000
_cell_volume 1120.604602
_symmetry_space_group_name_H-M "C 2"
_symmetry_group_IT_number 5
_symmetry_cell_setting 'monoclinic'
loop_
_space_group_symop_operation_xyz
x,y,z
-x,y,-z
1/2+x,1/2+y,z
1/2-x,1/2+y,-z
loop_
_atom_site_type_symbol
_atom_site_label
_atom_site_fract_x
_atom_site_fract_y
_atom_site_fract_z
Si Si1 0.367143 0.117120 0.632238
Si Si2 0.968816 0.360918 0.191912
Si Si3 0.000000 0.118557 0.000000
Si Si4 0.164591 0.922871 0.186271
Si Si5 0.844697 0.022283 0.186830
Si Si6 0.729986 0.317604 0.647678
Si Si7 0.325510 0.159372 0.017089
O O1 0.367614 0.318024 0.718856
O O2 0.343508 0.210243 0.488113
O O3 0.462501 0.013746 0.691034
O O4 0.297506 0.942013 0.618266
O O5 0.922049 0.196212 0.245412
O O6 0.894505 0.472030 0.057157
O O7 0.024936 0.245438 0.136158
O O8 0.916792 0.977093 0.959810
O O9 0.224885 0.125441 0.249038
O O10 0.205906 0.747609 0.134548
O O11 0.814531 0.981075 0.296691
O O12 0.872424 0.796115 0.154543
O O13 0.769905 0.068191 0.029008
#
# Coordination Sequence:
#
# PCOD8052088 Si02
#       7
#     4   4   2   4   4   4   4
#     4  12  26  48  77 103 142 202 262 307 358 447
#     4  12  26  43  74 112 151 190 245 306 379 450
#     4  12  22  42  70 112 146 176 234 310 374 436
#     4  12  23  42  75 108 142 187 243 305 370 443
#     4  12  25  44  73 111 151 190 237 303 389 452
#     4  12  26  48  78 101 144 205 256 306 371 440
#     4  12  23  43  72 109 145 186 227 302 388 449
#
# _framework density 23.201761999999999
#
# number of rings (size 3 to 8) (size 9 to 14) (size 15 to 20)
#    0.000    0.000    7.692    3.692    0.000    0.000 
#    0.000    0.769    6.769    0.000    0.000    0.000 
#    0.000    0.000    0.000    0.000    0.000    0.000 
#
# Total GULP energy -161112.055304 kJ/mol
# GULP energy per Si atom -12393.235023 kJ/mol
# Density = 2.314895 g / cm^3
# Si number density = 23.201762 Si / 1000 Ang^3
#
#
#
# Elastic Constant Matrix: (Units=GPa)
#
#
# Indices 1 2 3 4 5 6 
#
# 1 103.1230 39.8484 39.4190 0.0000 4.9445 0.0000
# 2 39.8484 94.6123 37.1549 0.0000 0.4825 0.0000
# 3 39.4190 37.1549 106.8339 0.0000 5.2205 0.0000
# 4 0.0000 0.0000 0.0000 47.8646 0.0000 3.3305
# 5 4.9445 0.4825 5.2205 0.0000 33.3069 0.0000
# 6 0.0000 0.0000 0.0000 3.3305 0.0000 39.1130
#
#
#
# Elastic Compliance Matrix: (Units=1/GPa)
#
#
# Indices 1 2 3 4 5 6 
#
# 1 0.012523 -0.004028 -0.003156 0.000000 -0.001306 0.000000
# 2 -0.004028 0.013545 -0.003269 0.000000 0.000914 0.000000
# 3 -0.003156 -0.003269 0.011726 0.000000 -0.001322 0.000000
# 4 0.000000 0.000000 0.000000 0.021017 0.000000 -0.001790
# 5 -0.001306 0.000914 -0.001322 0.000000 0.030412 0.000000
# 6 0.000000 0.000000 0.000000 -0.001790 0.000000 0.025719
#
#
# Mechanical properties :
#
#
# Convention : Reuss Voigt Hill
#
# Bulk Modulus (GPa) = 59.21431 59.71265 59.46348
# Shear Modulus (GPa) = 35.34128 36.60002 35.97065
#
# Velocity S-wave (km/s) = 3.90707 3.97604 3.94171
# Velocity P-wave (km/s) = 6.77720 6.84622 6.81180
#
# Compressibility (1/GPa) = 0.01688781
#
# Stress axis : x y z
#
# Youngs Moduli (GPa) = 79.85513 73.82681 85.27868
#
# Poissons Ratio (x) = 0.29740 0.26912
# Poissons Ratio (y) = 0.32168 0.27879
# Poissons Ratio (z) = 0.25200 0.24135
#
# Static dielectric constant tensor:
#      x y z
#    x 3.951210 0.000000 0.045240 
#    y 0.000000 4.373720 0.000000 
#    z 0.045240 0.000000 3.822400 
# 
# 
# High freq. dielectric constant tensor:
#      x y z
#    x 1.915440 0.000000 0.001280 
#    y 0.000000 1.940090 0.000000 
#    z 0.001280 0.000000 1.897900 
# 
# From -- ./inp_files/45529.got.cif
#   From: 2010.03.12/outbox.cif.g09.slc.cpg/sg5_23_cif.got.tgz:45529.got - 2010.03.31 09:47:26.
