data_PCOD8052101
_publ_section_title
;
Structure prediction by ZEFSAII (Michael W. Deem and Ramdas Pophale) SiO2 
 PCOD8052101
Probable space group: C 2
;
_chemical_formula_sum "Si O2"
_cell_formula_units_Z 28
_cell_length_a 18.627523
_cell_length_b 5.017505
_cell_length_c 17.062547
_cell_angle_alpha 90.000000
_cell_angle_beta 126.022274
_cell_angle_gamma 90.000000
_cell_volume 1289.798039
_symmetry_space_group_name_H-M "C 2"
_symmetry_group_IT_number 5
_symmetry_cell_setting 'monoclinic'
loop_
_space_group_symop_operation_xyz
x,y,z
-x,y,-z
1/2+x,1/2+y,z
1/2-x,1/2+y,-z
loop_
_atom_site_type_symbol
_atom_site_label
_atom_site_fract_x
_atom_site_fract_y
_atom_site_fract_z
Si Si1 0.196299 0.285190 0.752974
Si Si2 0.439497 0.861805 0.789610
Si Si3 0.014040 0.865762 0.918792
Si Si4 0.739180 0.282240 0.684394
Si Si5 0.069946 0.850623 0.475698
Si Si6 0.491585 0.852414 0.649498
Si Si7 0.780322 0.799096 0.974906
O O1 0.240423 0.484742 0.719337
O O2 0.237111 0.342003 0.863221
O O3 0.091949 0.333110 0.685369
O O4 0.216219 0.983642 0.740303
O O5 0.474514 0.657610 0.877556
O O6 0.334604 0.842499 0.709220
O O7 0.487811 0.794959 0.739222
O O8 0.461411 0.158108 0.831534
O O9 0.116518 0.863773 0.962135
O O10 0.000000 0.791080 0.000000
O O11 0.669263 0.307374 0.569474
O O12 0.047549 0.643613 0.392449
O O13 0.000000 0.808810 0.500000
O O14 0.066059 0.143937 0.437025
O O15 0.766696 0.496830 0.994088
#
# Coordination Sequence:
#
# PCOD8052101 Si02
#       7
#     4   4   4   4   4   4   4
#     4  12  23  42  66  95 125 172 217 270 321 385
#     4  12  27  45  65 101 133 176 216 270 334 383
#     4  12  25  47  69  94 138 178 218 265 327 395
#     4  12  25  42  68  94 131 167 226 263 317 399
#     4  12  23  43  68 101 126 172 221 270 328 387
#     4  12  24  42  69  95 136 168 213 277 331 384
#     4  12  25  42  67  99 130 167 219 273 323 383
#
# _framework density 21.708825000000001
#
# number of rings (size 3 to 8) (size 9 to 14) (size 15 to 20)
#    0.000    0.000    2.857    8.571    0.000    1.143 
#    0.000    0.000    0.000    0.000    0.000    0.000 
#    0.000    0.000    0.000    0.000    0.000    0.000 
#
# Total GULP energy -173764.241010 kJ/mol
# GULP energy per Si atom -12411.731501 kJ/mol
# Density = 2.165941 g / cm^3
# Si number density = 21.708825 Si / 1000 Ang^3
#
#
#
# Elastic Constant Matrix: (Units=GPa)
#
#
# Indices 1 2 3 4 5 6 
#
# 1 73.6713 23.4150 19.4374 -0.0002 4.2394 -0.0085
# 2 23.4150 81.9935 18.0992 0.0020 5.5731 -0.0120
# 3 19.4374 18.0992 85.9083 0.0012 -0.9409 0.0006
# 4 -0.0002 0.0020 0.0012 50.7153 0.0007 -2.0527
# 5 4.2394 5.5731 -0.9409 0.0007 28.4901 -0.0019
# 6 -0.0085 -0.0120 0.0006 -2.0527 -0.0019 27.6415
#
#
#
# Elastic Compliance Matrix: (Units=1/GPa)
#
#
# Indices 1 2 3 4 5 6 
#
# 1 0.015583 -0.003727 -0.002759 0.000000 -0.001681 0.000003
# 2 -0.003727 0.013876 -0.002105 0.000000 -0.002229 0.000005
# 3 -0.002759 -0.002105 0.012722 0.000000 0.001242 -0.000002
# 4 0.000000 0.000000 0.000000 0.019777 0.000000 0.001469
# 5 -0.001681 -0.002229 0.001242 0.000000 0.035827 0.000001
# 6 0.000003 0.000005 -0.000002 0.001469 0.000001 0.036287
#
#
# Mechanical properties :
#
#
# Convention : Reuss Voigt Hill
#
# Bulk Modulus (GPa) = 39.99996 40.38627 40.19311
# Shear Modulus (GPa) = 31.33098 33.41081 32.37090
#
# Velocity S-wave (km/s) = 3.80312 3.92732 3.86572
# Velocity P-wave (km/s) = 6.14415 6.26172 6.20321
#
# Compressibility (1/GPa) = 0.02500002
#
# Stress axis : x y z
#
# Youngs Moduli (GPa) = 64.17272 72.06445 78.60651
#
# Poissons Ratio (x) = 0.26857 0.21688
# Poissons Ratio (y) = 0.23916 0.16544
# Poissons Ratio (z) = 0.17705 0.15167
#
# Static dielectric constant tensor:
#      x y z
#    x 3.910800 0.000000 0.120610 
#    y 0.000000 4.089420 0.000000 
#    z 0.120610 0.000000 3.935270 
# 
# 
# High freq. dielectric constant tensor:
#      x y z
#    x 1.855960 0.000000 0.009340 
#    y 0.000000 1.869030 0.000000 
#    z 0.009340 0.000000 1.865930 
# 
# From -- ./inp_files/55494.got.cif
#   From: 2010.03.12/outbox.cif.g09.slc.cpg/sg5_28_cif.got.tgz:55494.got - 2010.03.31 09:47:26.
