data_PCOD8052182
_publ_section_title
;
Structure prediction by ZEFSAII (Michael W. Deem and Ramdas Pophale) SiO2 
 PCOD8052182
Probable space group: C 2
;
_chemical_formula_sum "Si O2"
_cell_formula_units_Z 18
_cell_length_a 7.317557
_cell_length_b 9.132942
_cell_length_c 11.520900
_cell_angle_alpha 90.000000
_cell_angle_beta 64.674707
_cell_angle_gamma 90.000000
_cell_volume 695.954154
_symmetry_space_group_name_H-M "C 2"
_symmetry_group_IT_number 5
_symmetry_cell_setting 'monoclinic'
loop_
_space_group_symop_operation_xyz
x,y,z
-x,y,-z
1/2+x,1/2+y,z
1/2-x,1/2+y,-z
loop_
_atom_site_type_symbol
_atom_site_label
_atom_site_fract_x
_atom_site_fract_y
_atom_site_fract_z
Si Si1 0.035197 0.515870 0.265736
Si Si2 0.000000 0.687443 0.500000
Si Si3 0.805015 0.029643 0.833526
Si Si4 0.230445 0.225804 0.943698
Si Si5 0.554130 0.724186 0.618303
O O1 0.942330 0.590346 0.404819
O O2 0.230120 0.605317 0.167870
O O3 0.089795 0.350706 0.288987
O O4 0.876126 0.511220 0.206088
O O5 0.210573 0.775509 0.424413
O O6 0.005049 0.078120 0.706551
O O7 0.856205 0.876033 0.885498
O O8 0.727054 0.154305 0.943288
O O9 0.000000 0.274552 0.000000
O O10 0.500000 0.696771 0.500000
#
# Coordination Sequence:
#
# PCOD8052182 Si02
#       5
#     4   2   4   4   4
#     4  12  26  49  79 116 157 211 262 320 397 468
#     4  12  26  48  78 118 160 210 260 318 388 474
#     4  12  26  50  80 113 160 209 264 326 397 467
#     4  12  27  50  78 114 159 209 266 327 397 465
#     4  12  27  52  80 117 163 210 259 323 394 470
#
# _framework density 25.863773999999999
#
# number of rings (size 3 to 8) (size 9 to 14) (size 15 to 20)
#    0.000    0.000    3.333    7.333    0.000    8.889 
#    6.000    3.333    0.000    1.333    0.000    0.000 
#    0.000    0.000    0.000    0.000    0.000    0.000 
#
# Total GULP energy -111577.900288 kJ/mol
# GULP energy per Si atom -12397.544476 kJ/mol
# Density = 2.580491 g / cm^3
# Si number density = 25.863774 Si / 1000 Ang^3
#
#
#
# Elastic Constant Matrix: (Units=GPa)
#
#
# Indices 1 2 3 4 5 6 
#
# 1 73.0879 28.6845 43.0514 0.0000 -2.8925 0.0000
# 2 28.6845 160.7268 95.4744 0.0000 -0.5474 0.0000
# 3 43.0514 95.4744 181.2287 0.0000 15.2485 0.0000
# 4 0.0000 0.0000 0.0000 47.8197 0.0000 -2.4882
# 5 -2.8925 -0.5474 15.2485 0.0000 58.7826 0.0000
# 6 0.0000 0.0000 0.0000 -2.4882 0.0000 21.6527
#
#
#
# Elastic Compliance Matrix: (Units=1/GPa)
#
#
# Indices 1 2 3 4 5 6 
#
# 1 0.016157 -0.000745 -0.003591 0.000000 0.001720 0.000000
# 2 -0.000745 0.009196 -0.004776 0.000000 0.001288 0.000000
# 3 -0.003591 -0.004776 0.009104 0.000000 -0.002583 0.000000
# 4 0.000000 0.000000 0.000000 0.021038 0.000000 0.002417
# 5 0.001720 0.001288 -0.002583 0.000000 0.017778 0.000000
# 6 0.000000 0.000000 0.000000 0.002417 0.000000 0.046461
#
#
# Mechanical properties :
#
#
# Convention : Reuss Voigt Hill
#
# Bulk Modulus (GPa) = 61.59573 83.27378 72.43476
# Shear Modulus (GPa) = 34.87478 42.17322 38.52400
#
# Velocity S-wave (km/s) = 3.67604 4.04244 3.86359
# Velocity P-wave (km/s) = 6.47185 7.35224 6.92605
#
# Compressibility (1/GPa) = 0.01623489
#
# Stress axis : x y z
#
# Youngs Moduli (GPa) = 61.89077 108.74115 109.83849
#
# Poissons Ratio (x) = 0.08100 0.39438
# Poissons Ratio (y) = 0.04610 0.52460
# Poissons Ratio (z) = 0.22222 0.51936
#
# Static dielectric constant tensor:
#      x y z
#    x 4.321180 0.000000 0.058690 
#    y 0.000000 4.698310 0.000000 
#    z 0.058690 0.000000 5.265210 
# 
# 
# High freq. dielectric constant tensor:
#      x y z
#    x 2.018250 0.000000 0.013700 
#    y 0.000000 2.027570 0.000000 
#    z 0.013700 0.000000 2.068010 
# 
# From -- ./inp_files/34717.got.cif
#   From: 2010.03.12/outbox.cif.g09.slc.cpg/sg5_18_cif.got.tgz:34717.got - 2010.03.31 09:47:26.
