data_PCOD8052050
_publ_section_title
;
Structure prediction by ZEFSAII (Michael W. Deem and Ramdas Pophale) SiO2 
 PCOD8052050
Probable space group: C 2
;
_chemical_formula_sum "Si O2"
_cell_formula_units_Z 22
_cell_length_a 9.621100
_cell_length_b 15.233008
_cell_length_c 6.701873
_cell_angle_alpha 90.000000
_cell_angle_beta 72.416847
_cell_angle_gamma 90.000000
_cell_volume 936.325523
_symmetry_space_group_name_H-M "C 2"
_symmetry_group_IT_number 5
_symmetry_cell_setting 'monoclinic'
loop_
_space_group_symop_operation_xyz
x,y,z
-x,y,-z
1/2+x,1/2+y,z
1/2-x,1/2+y,-z
loop_
_atom_site_type_symbol
_atom_site_label
_atom_site_fract_x
_atom_site_fract_y
_atom_site_fract_z
Si Si1 0.500000 0.041610 0.000000
Si Si2 0.166564 0.915293 0.488911
Si Si3 0.878490 0.413581 0.726296
Si Si4 0.250168 0.603160 0.662046
Si Si5 0.830615 0.727917 0.634608
Si Si6 0.363461 0.724323 0.924324
O O1 0.591626 0.109911 0.828666
O O2 0.402119 0.983085 0.892464
O O3 0.216568 0.928244 0.698512
O O4 0.240189 0.822907 0.391618
O O5 0.000000 0.905611 0.500000
O O6 0.221090 0.999420 0.346324
O O7 0.000000 0.426125 0.500000
O O8 0.883267 0.318573 0.819431
O O9 0.250197 0.649233 0.446881
O O10 0.367336 0.652306 0.748200
O O11 0.789258 0.715990 0.885056
O O12 0.000000 0.725442 0.500000
O O13 0.500000 0.701216 0.000000
#
# Coordination Sequence:
#
# PCOD8052050 Si02
#       6
#     2   4   4   4   4   4
#     4  12  26  44  76 114 142 204 260 296 384 452
#     4  11  26  47  72 105 153 199 237 311 376 436
#     4  12  24  48  78 108 153 199 255 312 371 455
#     4  12  27  44  73 109 145 195 250 307 368 449
#     4  11  26  51  70 103 150 196 244 307 377 443
#     4  12  27  44  78 111 144 196 256 310 381 441
#
# _framework density 23.496102
#
# number of rings (size 3 to 8) (size 9 to 14) (size 15 to 20)
#    0.000    0.364    4.545    3.273    7.636    0.000 
#    0.000    1.818    0.000    0.000    0.000    0.000 
#    0.000    0.000    0.000    0.000    0.000    0.000 
#
# Total GULP energy -136317.120537 kJ/mol
# GULP energy per Si atom -12392.465503 kJ/mol
# Density = 2.344262 g / cm^3
# Si number density = 23.496102 Si / 1000 Ang^3
#
#
#
# Elastic Constant Matrix: (Units=GPa)
#
#
# Indices 1 2 3 4 5 6 
#
# 1 94.4383 3.8802 14.7468 0.0000 26.6791 0.0000
# 2 3.8802 96.8817 19.9677 0.0000 6.4454 0.0000
# 3 14.7468 19.9677 90.7071 0.0000 12.3390 0.0000
# 4 0.0000 0.0000 0.0000 39.4911 0.0000 5.3804
# 5 26.6791 6.4454 12.3390 0.0000 48.4434 0.0000
# 6 0.0000 0.0000 0.0000 5.3804 0.0000 31.8529
#
#
#
# Elastic Compliance Matrix: (Units=1/GPa)
#
#
# Indices 1 2 3 4 5 6 
#
# 1 0.012658 0.000183 -0.001188 0.000000 -0.006693 0.000000
# 2 0.000183 0.010850 -0.002287 0.000000 -0.000962 0.000000
# 3 -0.001188 -0.002287 0.012007 0.000000 -0.002100 0.000000
# 4 0.000000 0.000000 0.000000 0.025919 0.000000 -0.004378
# 5 -0.006693 -0.000962 -0.002100 0.000000 0.024991 0.000000
# 6 0.000000 0.000000 0.000000 -0.004378 0.000000 0.032134
#
#
# Mechanical properties :
#
#
# Convention : Reuss Voigt Hill
#
# Bulk Modulus (GPa) = 34.56580 39.91295 37.23938
# Shear Modulus (GPa) = 37.09596 40.18629 38.64113
#
# Velocity S-wave (km/s) = 3.97774 4.14011 4.05974
# Velocity P-wave (km/s) = 5.98663 6.31490 6.15296
#
# Compressibility (1/GPa) = 0.02893033
#
# Stress axis : x y z
#
# Youngs Moduli (GPa) = 79.00399 92.16618 83.28645
#
# Poissons Ratio (x) = -0.01688 0.09892
# Poissons Ratio (y) = -0.01447 0.19051
# Poissons Ratio (z) = 0.09383 0.21082
#
# Static dielectric constant tensor:
#      x y z
#    x 4.637790 0.000000 0.149580 
#    y 0.000000 4.557530 0.000000 
#    z 0.149580 0.000000 4.456810 
# 
# 
# High freq. dielectric constant tensor:
#      x y z
#    x 1.925640 0.000000 0.015680 
#    y 0.000000 1.950200 0.000000 
#    z 0.015680 0.000000 1.930170 
# 
# From -- ./inp_files/4759.got.cif
#   From: 2010.03.12/outbox.cif.g09.slc.cpg/sg5_3_cif.got.tgz:4759.got - 2010.03.31 09:47:26.
