data_PCOD8052181
_publ_section_title
;
Structure prediction by ZEFSAII (Michael W. Deem and Ramdas Pophale) SiO2 
 PCOD8052181
Probable space group: C 2
;
_chemical_formula_sum "Si O2"
_cell_formula_units_Z 22
_cell_length_a 8.160764
_cell_length_b 4.988204
_cell_length_c 20.167775
_cell_angle_alpha 90.000000
_cell_angle_beta 77.191355
_cell_angle_gamma 90.000000
_cell_volume 800.551466
_symmetry_space_group_name_H-M "C 2"
_symmetry_group_IT_number 5
_symmetry_cell_setting 'monoclinic'
loop_
_space_group_symop_operation_xyz
x,y,z
-x,y,-z
1/2+x,1/2+y,z
1/2-x,1/2+y,-z
loop_
_atom_site_type_symbol
_atom_site_label
_atom_site_fract_x
_atom_site_fract_y
_atom_site_fract_z
Si Si1 0.588849 0.277100 0.864014
Si Si2 0.799707 0.057228 0.956419
Si Si3 0.632517 0.083573 0.227672
Si Si4 0.085916 0.092865 0.318235
Si Si5 0.000000 0.452249 0.500000
Si Si6 0.677529 0.255044 0.592497
O O1 0.718120 0.084344 0.890779
O O2 0.470663 0.082624 0.831676
O O3 0.680468 0.482067 0.805781
O O4 0.487784 0.445303 0.928928
O O5 0.808662 0.345867 0.991000
O O6 0.635700 0.380062 0.257548
O O7 0.551838 0.882279 0.288698
O O8 0.912505 0.025676 0.372685
O O9 0.247889 0.096897 0.351716
O O10 0.829448 0.287311 0.526398
O O11 0.973539 0.611347 0.433695
#
# Coordination Sequence:
#
# PCOD8052181 Si02
#       6
#     4   4   4   4   2   4
#     4  12  30  52  80 115 156 204 256 318 384 456
#     4  12  30  52  80 115 155 204 257 317 384 457
#     4  12  30  52  80 116 156 204 257 317 384 457
#     4  12  29  51  80 115 155 204 257 317 384 457
#     4  12  26  48  76 112 152 200 254 314 380 452
#     4  12  27  48  78 113 154 202 255 316 382 454
#
# _framework density 27.481058000000001
#
# number of rings (size 3 to 8) (size 9 to 14) (size 15 to 20)
#    0.000    0.000    0.000    7.091    0.000   30.545 
#    0.000    0.000    0.000    0.000    0.000    0.000 
#    0.000    0.000    0.000    0.000    0.000    0.000 
#
# Total GULP energy -136498.497100 kJ/mol
# GULP energy per Si atom -12408.954282 kJ/mol
# Density = 2.741851 g / cm^3
# Si number density = 27.481058 Si / 1000 Ang^3
#
#
#
# Elastic Constant Matrix: (Units=GPa)
#
#
# Indices 1 2 3 4 5 6 
#
# 1 107.5999 18.5889 20.5438 0.0000 7.3831 0.0000
# 2 18.5889 84.3175 20.7516 0.0000 26.5573 0.0000
# 3 20.5438 20.7516 112.9426 0.0000 18.5114 0.0000
# 4 0.0000 0.0000 0.0000 31.7393 0.0000 -4.6258
# 5 7.3831 26.5573 18.5114 0.0000 45.5104 0.0000
# 6 0.0000 0.0000 0.0000 -4.6258 0.0000 28.0986
#
#
#
# Elastic Compliance Matrix: (Units=1/GPa)
#
#
# Indices 1 2 3 4 5 6 
#
# 1 0.009888 -0.001839 -0.001472 0.000000 0.000068 0.000000
# 2 -0.001839 0.015074 -0.001117 0.000000 -0.008044 0.000000
# 3 -0.001472 -0.001117 0.009837 0.000000 -0.003111 0.000000
# 4 0.000000 0.000000 0.000000 0.032281 0.000000 0.005314
# 5 0.000068 -0.008044 -0.003111 0.000000 0.027921 0.000000
# 6 0.000000 0.000000 0.000000 0.005314 0.000000 0.036464
#
#
# Mechanical properties :
#
#
# Convention : Reuss Voigt Hill
#
# Bulk Modulus (GPa) = 38.54561 47.18095 42.86328
# Shear Modulus (GPa) = 33.56447 37.40137 35.48292
#
# Velocity S-wave (km/s) = 3.49860 3.69316 3.59719
# Velocity P-wave (km/s) = 5.51153 5.94909 5.73449
#
# Compressibility (1/GPa) = 0.02594329
#
# Stress axis : x y z
#
# Youngs Moduli (GPa) = 101.13524 66.34090 101.65918
#
# Poissons Ratio (x) = 0.12200 0.14962
# Poissons Ratio (y) = 0.18599 0.11352
# Poissons Ratio (z) = 0.14885 0.07408
#
# Static dielectric constant tensor:
#      x y z
#    x 5.002930 0.000000 0.088210 
#    y 0.000000 4.686400 0.000000 
#    z 0.088210 0.000000 5.096870 
# 
# 
# High freq. dielectric constant tensor:
#      x y z
#    x 2.118330 0.000000 0.003170 
#    y 0.000000 2.098750 0.000000 
#    z 0.003170 0.000000 2.133330 
# 
# From -- ./inp_files/64191.got.cif
#   From: 2010.03.12/outbox.cif.g09.slc.cpg/sg5_33_cif.got.tgz:64191.got - 2010.03.31 09:47:26.
