data_PCOD8052030
_publ_section_title
;
Structure prediction by ZEFSAII (Michael W. Deem and Ramdas Pophale) SiO2 
 PCOD8052030
Probable space group: C 2
;
_chemical_formula_sum "Si O2"
_cell_formula_units_Z 16
_cell_length_a 8.223420
_cell_length_b 16.430631
_cell_length_c 7.634560
_cell_angle_alpha 90.000000
_cell_angle_beta 142.293574
_cell_angle_gamma 90.000000
_cell_volume 630.912898
_symmetry_space_group_name_H-M "C 2"
_symmetry_group_IT_number 5
_symmetry_cell_setting 'monoclinic'
loop_
_space_group_symop_operation_xyz
x,y,z
-x,y,-z
1/2+x,1/2+y,z
1/2-x,1/2+y,-z
loop_
_atom_site_type_symbol
_atom_site_label
_atom_site_fract_x
_atom_site_fract_y
_atom_site_fract_z
Si Si1 0.500000 0.449721 0.000000
Si Si2 0.191476 0.052213 0.493907
Si Si3 0.362017 0.736789 0.568857
Si Si4 0.314870 0.331916 0.099263
Si Si5 0.000000 0.456288 0.000000
O O1 0.610429 0.504226 0.251466
O O2 0.285091 0.386322 0.896932
O O3 0.233488 0.145257 0.474183
O O4 0.000000 0.044735 0.500000
O O5 0.468372 0.013529 0.800324
O O6 0.500000 0.742801 0.500000
O O7 0.104424 0.793376 0.371115
O O8 0.586059 0.762886 0.899893
O O9 0.257023 0.396717 0.205150
#
# Coordination Sequence:
#
# PCOD8052030 Si02
#       5
#     2   4   4   4   2
#     4  12  24  50  76 114 148 204 256 312 378 460
#     4  11  27  48  76 113 158 200 255 321 389 455
#     4  11  25  46  76 110 155 202 255 316 389 456
#     4  12  26  47  78 112 154 205 257 315 382 463
#     4  12  28  48  76 114 160 198 260 318 386 454
#
# _framework density 25.36008
#
# number of rings (size 3 to 8) (size 9 to 14) (size 15 to 20)
#    0.000    0.500    5.000    1.500    7.000    1.000 
#    0.000    2.500    0.000    0.000    0.000    0.000 
#    0.000    0.000    0.000    0.000    0.000    0.000 
#
# Total GULP energy -99112.032025 kJ/mol
# GULP energy per Si atom -12389.004003 kJ/mol
# Density = 2.530236 g / cm^3
# Si number density = 25.360080 Si / 1000 Ang^3
#
#
#
# Elastic Constant Matrix: (Units=GPa)
#
#
# Indices 1 2 3 4 5 6 
#
# 1 65.3764 41.6203 18.1249 0.0000 -3.2814 0.0000
# 2 41.6203 177.5379 53.6950 0.0000 5.7120 0.0000
# 3 18.1249 53.6950 127.7205 0.0000 5.0570 0.0000
# 4 0.0000 0.0000 0.0000 34.5822 0.0000 -0.2680
# 5 -3.2814 5.7120 5.0570 0.0000 48.3237 0.0000
# 6 0.0000 0.0000 0.0000 -0.2680 0.0000 44.3711
#
#
#
# Elastic Compliance Matrix: (Units=1/GPa)
#
#
# Indices 1 2 3 4 5 6 
#
# 1 0.018226 -0.004041 -0.000959 0.000000 0.001816 0.000000
# 2 -0.004041 0.007360 -0.002486 0.000000 -0.000884 0.000000
# 3 -0.000959 -0.002486 0.009039 0.000000 -0.000717 0.000000
# 4 0.000000 0.000000 0.000000 0.028918 0.000000 0.000175
# 5 0.001816 -0.000884 -0.000717 0.000000 0.020997 0.000000
# 6 0.000000 0.000000 0.000000 0.000175 0.000000 0.022538
#
#
# Mechanical properties :
#
#
# Convention : Reuss Voigt Hill
#
# Bulk Modulus (GPa) = 50.88358 66.39059 58.63709
# Shear Modulus (GPa) = 38.87984 42.60170 40.74077
#
# Velocity S-wave (km/s) = 3.91975 4.10307 4.01246
# Velocity P-wave (km/s) = 6.37133 6.97732 6.68120
#
# Compressibility (1/GPa) = 0.01965270
#
# Stress axis : x y z
#
# Youngs Moduli (GPa) = 54.86750 135.86621 110.62897
#
# Poissons Ratio (x) = 0.54902 0.10615
# Poissons Ratio (y) = 0.22171 0.27501
# Poissons Ratio (z) = 0.05264 0.33774
#
# Static dielectric constant tensor:
#      x y z
#    x 4.960310 0.000000 0.011500 
#    y 0.000000 5.025510 0.000000 
#    z 0.011500 0.000000 4.273010 
# 
# 
# High freq. dielectric constant tensor:
#      x y z
#    x 2.017990 0.000000 -0.001920 
#    y 0.000000 2.037120 0.000000 
#    z -0.001920 0.000000 1.998110 
# 
# From -- ./inp_files/1928.got.cif
#   From: 2010.03.12/outbox.cif.g09.slc.cpg/sg5_1_cif.got.tgz:1928.got - 2010.03.31 09:47:26.
