data_PCOD8052532
_publ_section_title
;
Structure prediction by ZEFSAII (Michael W. Deem and Ramdas Pophale) SiO2 
 PCOD8052532
Probable space group: P M
;
_chemical_formula_sum "Si O2"
_cell_formula_units_Z 16
_cell_length_a 9.603885
_cell_length_b 8.712351
_cell_length_c 11.851991
_cell_angle_alpha 90.000000
_cell_angle_beta 51.649928
_cell_angle_gamma 90.000000
_cell_volume 777.713315
_symmetry_space_group_name_H-M "P M"
_symmetry_group_IT_number 6
_symmetry_cell_setting 'monoclinic'
loop_
_space_group_symop_operation_xyz
x,y,z
x,-y,z
loop_
_atom_site_type_symbol
_atom_site_label
_atom_site_fract_x
_atom_site_fract_y
_atom_site_fract_z
Si Si1 0.605080 0.178905 0.760540
Si Si2 0.279338 0.319743 0.791768
Si Si3 0.976326 0.320328 0.539475
Si Si4 0.500382 0.671774 0.029689
Si Si5 0.260412 0.180081 0.555764
Si Si6 0.094954 0.671287 0.235759
Si Si7 0.566550 0.822368 0.230723
Si Si8 0.968077 0.176777 0.088317
O O1 0.450286 0.272817 0.777773
O O2 0.793525 0.229275 0.617387
O O3 0.573652 0.000000 0.755585
O O4 0.607576 0.215711 0.893047
O O5 0.284515 0.500000 0.766900
O O6 0.285207 0.232404 0.670779
O O7 0.098667 0.279913 0.948183
O O8 0.937834 0.500000 0.573350
O O9 0.089968 0.263580 0.588447
O O10 0.084180 0.280430 0.371740
O O11 0.577506 0.500000 0.978636
O O12 0.296969 0.675981 0.093900
O O13 0.514198 0.721893 0.150924
O O14 0.439437 0.223651 0.398370
O O15 0.222937 0.000000 0.571254
O O16 0.016462 0.500000 0.259284
O O17 0.987468 0.788339 0.211439
O O18 0.767387 0.781972 0.159790
O O19 0.542764 0.000000 0.211649
O O20 0.013326 0.000000 0.042276
#
# Coordination Sequence:
#
# PCOD8052532 Si02
#       8
#     2   2   2   2   2   2   2   2
#     4  12  26  44  67  96 129 170 216 267 322 384
#     4  12  26  45  66  93 130 173 217 267 322 383
#     4  11  24  44  67  97 131 170 215 265 321 383
#     4  11  22  41  68  96 127 166 214 266 321 382
#     4  11  24  44  67  95 131 173 216 265 320 382
#     4  10  22  41  66  95 128 165 212 266 321 381
#     4  10  24  43  65  96 131 169 215 263 319 382
#     4  11  24  42  66  96 129 170 217 265 320 383
#
# _framework density 20.573134
#
# number of rings (size 3 to 8) (size 9 to 14) (size 15 to 20)
#    0.000    1.000    2.500    3.750    3.500    3.000 
#    0.000    0.000    0.000    0.000    0.000    0.000 
#    0.000    0.000    0.000    0.000    0.000    0.000 
#
# Total GULP energy -198494.116258 kJ/mol
# GULP energy per Si atom -12405.882266 kJ/mol
# Density = 2.052631 g / cm^3
# Si number density = 20.573134 Si / 1000 Ang^3
#
#
#
# Elastic Constant Matrix: (Units=GPa)
#
#
# Indices 1 2 3 4 5 6 
#
# 1 94.1118 25.3167 32.6848 0.0000 -1.4325 0.0000
# 2 25.3167 62.9460 22.3385 0.0000 -4.3496 0.0000
# 3 32.6848 22.3385 86.6949 0.0000 3.0241 0.0000
# 4 0.0000 0.0000 0.0000 34.9944 0.0000 5.2548
# 5 -1.4325 -4.3496 3.0241 0.0000 40.2759 0.0000
# 6 0.0000 0.0000 0.0000 5.2548 0.0000 36.7231
#
#
#
# Elastic Compliance Matrix: (Units=1/GPa)
#
#
# Indices 1 2 3 4 5 6 
#
# 1 0.013026 -0.003817 -0.003939 0.000000 0.000347 0.000000
# 2 -0.003817 0.018807 -0.003482 0.000000 0.002157 0.000000
# 3 -0.003939 -0.003482 0.013972 0.000000 -0.001565 0.000000
# 4 0.000000 0.000000 0.000000 0.029204 0.000000 -0.004179
# 5 0.000347 0.002157 -0.001565 0.000000 0.025192 0.000000
# 6 0.000000 0.000000 0.000000 -0.004179 0.000000 0.027829
#
#
# Mechanical properties :
#
#
# Convention : Reuss Voigt Hill
#
# Bulk Modulus (GPa) = 42.86835 44.93695 43.90265
# Shear Modulus (GPa) = 31.58945 33.29286 32.44116
#
# Velocity S-wave (km/s) = 3.92276 4.02714 3.97529
# Velocity P-wave (km/s) = 6.43426 6.59649 6.51588
#
# Compressibility (1/GPa) = 0.02332724
#
# Stress axis : x y z
#
# Youngs Moduli (GPa) = 76.77017 53.17295 71.57310
#
# Poissons Ratio (x) = 0.20296 0.28196
# Poissons Ratio (y) = 0.29303 0.24922
# Poissons Ratio (z) = 0.30243 0.18515
#
# Static dielectric constant tensor:
#      x y z
#    x 3.694650 0.000000 -0.014080 
#    y 0.000000 3.757030 0.000000 
#    z -0.014080 0.000000 3.809170 
# 
# 
# High freq. dielectric constant tensor:
#      x y z
#    x 1.809810 0.000000 0.002820 
#    y 0.000000 1.812000 0.000000 
#    z 0.002820 0.000000 1.815670 
# 
# From -- ./inp_files/3735.got.cif
#   From: 2010.03.12/outbox.cif.g09.slc.cpg/sg6_2_cif.got.tgz:3735.got - 2010.03.30 10:24:59.
