data_PCOD8052129
_publ_section_title
;
Structure prediction by ZEFSAII (Michael W. Deem and Ramdas Pophale) SiO2 
 PCOD8052129
Probable space group: C 2
;
_chemical_formula_sum "Si O2"
_cell_formula_units_Z 20
_cell_length_a 8.653716
_cell_length_b 4.992062
_cell_length_c 21.150554
_cell_angle_alpha 90.000000
_cell_angle_beta 81.918829
_cell_angle_gamma 90.000000
_cell_volume 904.628399
_symmetry_space_group_name_H-M "C 2"
_symmetry_group_IT_number 5
_symmetry_cell_setting 'monoclinic'
loop_
_space_group_symop_operation_xyz
x,y,z
-x,y,-z
1/2+x,1/2+y,z
1/2-x,1/2+y,-z
loop_
_atom_site_type_symbol
_atom_site_label
_atom_site_fract_x
_atom_site_fract_y
_atom_site_fract_z
Si Si1 0.886059 0.104200 0.827204
Si Si2 0.342396 0.719662 0.975329
Si Si3 0.734698 0.607117 0.776657
Si Si4 0.222481 0.650555 0.373447
Si Si5 0.461971 0.647780 0.575449
O O1 0.874200 0.135842 0.902356
O O2 0.852240 0.380175 0.793523
O O3 0.058815 0.009025 0.798438
O O4 0.763210 0.879161 0.813593
O O5 0.500000 0.816100 0.000000
O O6 0.276245 0.467335 0.017711
O O7 0.766095 0.661967 0.702057
O O8 0.386954 0.563156 0.393335
O O9 0.090002 0.443895 0.402234
O O10 0.177105 0.942894 0.401461
O O11 0.500000 0.639159 0.500000
#
# Coordination Sequence:
#
# PCOD8052129 Si02
#       5
#     4   4   4   4   4
#     4  12  25  44  67  96 130 169 213 264 319 379
#     4  12  25  44  67  96 129 169 214 264 318 379
#     4  12  25  43  66  96 130 169 213 264 319 379
#     4  12  24  43  67  96 129 169 214 264 318 379
#     4  12  25  44  67  96 130 170 214 264 318 378
#
# _framework density 22.108526000000001
#
# number of rings (size 3 to 8) (size 9 to 14) (size 15 to 20)
#    0.000    0.000    0.000   12.000    0.000    0.000 
#    0.000    0.000    0.000    0.000    0.000    0.000 
#    0.000    0.000    0.000    0.000    0.000    0.000 
#
# Total GULP energy -124128.731205 kJ/mol
# GULP energy per Si atom -12412.873120 kJ/mol
# Density = 2.205821 g / cm^3
# Si number density = 22.108526 Si / 1000 Ang^3
#
#
#
# Elastic Constant Matrix: (Units=GPa)
#
#
# Indices 1 2 3 4 5 6 
#
# 1 95.4964 17.0227 24.9979 0.0000 1.8628 0.0000
# 2 17.0227 94.5786 26.8102 0.0000 -0.8176 0.0000
# 3 24.9979 26.8102 146.9253 0.0000 -22.1769 0.0000
# 4 0.0000 0.0000 0.0000 30.4267 0.0000 -2.2520
# 5 1.8628 -0.8176 -22.1769 0.0000 55.0381 0.0000
# 6 0.0000 0.0000 0.0000 -2.2520 0.0000 30.1790
#
#
#
# Elastic Compliance Matrix: (Units=1/GPa)
#
#
# Indices 1 2 3 4 5 6 
#
# 1 0.011237 -0.001521 -0.001805 0.000000 -0.001130 0.000000
# 2 -0.001521 0.011381 -0.001900 0.000000 -0.000545 0.000000
# 3 -0.001805 -0.001900 0.007948 0.000000 0.003236 0.000000
# 4 0.000000 0.000000 0.000000 0.033048 0.000000 0.002466
# 5 -0.001130 -0.000545 0.003236 0.000000 0.019503 0.000000
# 6 0.000000 0.000000 0.000000 0.002466 0.000000 0.033320
#
#
# Mechanical properties :
#
#
# Convention : Reuss Voigt Hill
#
# Bulk Modulus (GPa) = 49.71511 52.74022 51.22766
# Shear Modulus (GPa) = 37.42671 41.00672 39.21672
#
# Velocity S-wave (km/s) = 4.11891 4.31140 4.21625
# Velocity P-wave (km/s) = 6.71983 6.97791 6.85009
#
# Compressibility (1/GPa) = 0.02011461
#
# Stress axis : x y z
#
# Youngs Moduli (GPa) = 88.99014 87.86674 125.81116
#
# Poissons Ratio (x) = 0.13361 0.22709
# Poissons Ratio (y) = 0.13532 0.23908
# Poissons Ratio (z) = 0.16063 0.16697
#
# Static dielectric constant tensor:
#      x y z
#    x 4.098300 0.000000 0.011680 
#    y 0.000000 3.970530 0.000000 
#    z 0.011680 0.000000 4.080010 
# 
# 
# High freq. dielectric constant tensor:
#      x y z
#    x 1.883280 0.000000 0.000780 
#    y 0.000000 1.881660 0.000000 
#    z 0.000780 0.000000 1.891610 
# 
# From -- ./inp_files/59139.got.cif
#   From: 2010.03.12/outbox.cif.g09.slc.cpg/sg5_30_cif.got.tgz:59139.got - 2010.03.31 09:47:26.
