data_PCOD8052664
_publ_section_title
;
Structure prediction by ZEFSAII (Michael W. Deem and Ramdas Pophale) SiO2 
 PCOD8052664
Probable space group: P C
;
_chemical_formula_sum "Si O2"
_cell_formula_units_Z 16
_cell_length_a 7.122850
_cell_length_b 17.212806
_cell_length_c 5.590788
_cell_angle_alpha 90.000000
_cell_angle_beta 122.647648
_cell_angle_gamma 90.000000
_cell_volume 577.155290
_symmetry_space_group_name_H-M "P C"
_symmetry_group_IT_number 7
_symmetry_cell_setting 'monoclinic'
loop_
_space_group_symop_operation_xyz
x,y,z
x,-y,1/2+z
loop_
_atom_site_type_symbol
_atom_site_label
_atom_site_fract_x
_atom_site_fract_y
_atom_site_fract_z
Si Si1 0.547090 0.024368 0.067660
Si Si2 0.171937 0.467051 0.512588
Si Si3 0.572069 0.199643 0.172292
Si Si4 0.677851 0.525150 0.072093
Si Si5 0.314220 0.299422 0.685684
Si Si6 0.049892 0.966345 0.636504
Si Si7 0.724009 0.305926 0.668049
Si Si8 0.002796 0.790080 0.644734
O O1 0.503526 0.110415 0.133028
O O2 0.666761 0.978508 0.380164
O O3 0.309527 0.987875 0.836659
O O4 0.275624 0.481705 0.311176
O O5 0.168747 0.377362 0.598276
O O6 0.911788 0.485774 0.302052
O O7 0.641177 0.229027 0.477656
O O8 0.773330 0.210283 0.130001
O O9 0.356036 0.253258 0.961596
O O10 0.555308 0.516852 0.256168
O O11 0.730214 0.613628 0.025643
O O12 0.556632 0.325702 0.766150
O O13 0.210552 0.233769 0.445613
O O14 0.042063 0.875403 0.565378
O O15 0.944412 0.014209 0.332016
O O16 0.969351 0.278851 0.924801
#
# Coordination Sequence:
#
# PCOD8052664 Si02
#       8
#     2   2   2   2   2   2   2   2
#     4  10  23  45  74 101 148 194 243 306 368 438
#     4  10  23  42  71 104 141 192 250 302 364 440
#     4  11  28  46  74 110 151 195 247 311 378 447
#     4  10  23  45  74 101 148 194 243 306 368 438
#     4  11  26  47  74 107 148 198 248 307 377 449
#     4  10  23  42  71 104 141 192 250 302 364 440
#     4  11  28  46  74 110 151 195 247 311 378 447
#     4  11  26  47  74 107 148 198 248 307 377 449
#
# _framework density 27.722175
#
# number of rings (size 3 to 8) (size 9 to 14) (size 15 to 20)
#    0.000    1.500    0.000    3.000   17.500    3.000 
#    0.000    0.000    0.000    0.000    0.000    0.000 
#    0.000    0.000    0.000    0.000    0.000    0.000 
#
# Total GULP energy -198307.422315 kJ/mol
# GULP energy per Si atom -12394.213895 kJ/mol
# Density = 2.765908 g / cm^3
# Si number density = 27.722175 Si / 1000 Ang^3
#
#
#
# Elastic Constant Matrix: (Units=GPa)
#
#
# Indices 1 2 3 4 5 6 
#
# 1 57.5731 -3.2788 18.3662 0.0000 -13.1829 0.0000
# 2 -3.2788 165.0305 26.8253 0.0000 -3.1294 0.0000
# 3 18.3662 26.8253 191.4860 0.0000 -9.8211 0.0000
# 4 0.0000 0.0000 0.0000 57.5183 0.0000 3.2530
# 5 -13.1829 -3.1294 -9.8211 0.0000 30.5872 0.0000
# 6 0.0000 0.0000 0.0000 3.2530 0.0000 31.6443
#
#
#
# Elastic Compliance Matrix: (Units=1/GPa)
#
#
# Indices 1 2 3 4 5 6 
#
# 1 0.019777 0.000806 -0.001595 0.000000 0.008094 0.000000
# 2 0.000806 0.006237 -0.000916 0.000000 0.000691 0.000000
# 3 -0.001595 -0.000916 0.005555 0.000000 0.001003 0.000000
# 4 0.000000 0.000000 0.000000 0.017487 0.000000 -0.001798
# 5 0.008094 0.000691 0.001003 0.000000 0.036575 0.000000
# 6 0.000000 0.000000 0.000000 -0.001798 0.000000 0.031786
#
#
# Mechanical properties :
#
#
# Convention : Reuss Voigt Hill
#
# Bulk Modulus (GPa) = 35.51090 55.32389 45.41740
# Shear Modulus (GPa) = 38.39839 48.76175 43.58007
#
# Velocity S-wave (km/s) = 3.72575 4.19853 3.96918
# Velocity P-wave (km/s) = 5.59872 6.59571 6.11756
#
# Compressibility (1/GPa) = 0.02816037
#
# Stress axis : x y z
#
# Youngs Moduli (GPa) = 50.56326 160.32238 180.01948
#
# Poissons Ratio (x) = -0.12916 0.28706
# Poissons Ratio (y) = -0.04073 0.16483
# Poissons Ratio (z) = 0.08063 0.14679
#
# Static dielectric constant tensor:
#      x y z
#    x 6.061930 0.000000 -0.450450 
#    y 0.000000 5.212680 0.000000 
#    z -0.450450 0.000000 5.731530 
# 
# 
# High freq. dielectric constant tensor:
#      x y z
#    x 2.161300 0.000000 0.015800 
#    y 0.000000 2.109620 0.000000 
#    z 0.015800 0.000000 2.154610 
# 
# From -- ./inp_files/755.got.cif
#   From: 2010.03.12/outbox.cif.g09.slc.cpg/sg7_cif.got.tgz:755.got - 2010.03.30 08:40:41.
