data_PCOD8052506
_publ_section_title
;
Structure prediction by ZEFSAII (Michael W. Deem and Ramdas Pophale) SiO2 
 PCOD8052506
Probable space group: P M
;
_chemical_formula_sum "Si O2"
_cell_formula_units_Z 16
_cell_length_a 5.297089
_cell_length_b 24.799989
_cell_length_c 4.883459
_cell_angle_alpha 90.000000
_cell_angle_beta 117.368310
_cell_angle_gamma 90.000000
_cell_volume 569.722534
_symmetry_space_group_name_H-M "P M"
_symmetry_group_IT_number 6
_symmetry_cell_setting 'monoclinic'
loop_
_space_group_symop_operation_xyz
x,y,z
x,-y,z
loop_
_atom_site_type_symbol
_atom_site_label
_atom_site_fract_x
_atom_site_fract_y
_atom_site_fract_z
Si Si1 0.865850 0.706760 0.477860
Si Si2 0.454244 0.685224 0.854011
Si Si3 0.967114 0.901415 0.770816
Si Si4 0.018433 0.185246 0.369294
Si Si5 0.148428 0.561195 0.778970
Si Si6 0.324246 0.938805 0.444188
Si Si7 0.606850 0.206771 0.745411
Si Si8 0.505547 0.598584 0.452352
O O1 0.010153 0.749135 0.332238
O O2 0.736350 0.750016 0.611517
O O3 0.120518 0.668794 0.722711
O O4 0.655102 0.665359 0.207959
O O5 0.462678 0.750839 0.891107
O O6 0.564824 0.659547 0.617526
O O7 0.166155 0.932228 0.654762
O O8 0.907835 0.840447 0.605729
O O9 0.660203 0.928537 0.644685
O O10 0.148475 0.900702 0.144182
O O11 0.352144 0.168803 0.500659
O O12 0.817619 0.165381 0.015359
O O13 0.186263 0.500000 0.899627
O O14 0.324381 0.599296 0.078952
O O15 0.306228 0.567789 0.568108
O O16 0.812428 0.571443 0.578731
O O17 0.286576 0.000000 0.323553
#
# Coordination Sequence:
#
# PCOD8052506 Si02
#       8
#     2   2   2   2   2   2   2   2
#     4  10  21  38  62  87 135 173 217 278 326 402
#     4  10  23  38  59  97 124 177 225 269 338 391
#     4  12  27  45  76 103 140 182 234 290 339 433
#     4  10  23  38  59  97 124 177 225 269 338 391
#     4  12  26  47  71 102 136 179 227 292 360 413
#     4  12  26  47  71 102 136 179 227 292 360 413
#     4  10  21  38  62  87 135 173 217 278 326 402
#     4  12  27  45  76 103 140 182 234 290 339 433
#
# _framework density 28.083848
#
# number of rings (size 3 to 8) (size 9 to 14) (size 15 to 20)
#    0.000    1.000    0.000    6.000    7.000    0.000 
#    0.000    0.000    0.000    0.000    0.000    0.000 
#    0.000    0.000    0.000    0.000    0.000    0.000 
#
# Total GULP energy -198352.987361 kJ/mol
# GULP energy per Si atom -12397.061710 kJ/mol
# Density = 2.801993 g / cm^3
# Si number density = 28.083848 Si / 1000 Ang^3
#
#
#
# Elastic Constant Matrix: (Units=GPa)
#
#
# Indices 1 2 3 4 5 6 
#
# 1 167.0995 18.2806 74.4721 0.0000 41.2600 0.0000
# 2 18.2806 111.8373 25.3849 0.0000 30.8341 0.0000
# 3 74.4721 25.3849 222.5613 0.0000 52.9269 0.0000
# 4 0.0000 0.0000 0.0000 42.1822 0.0000 7.1800
# 5 41.2600 30.8341 52.9269 0.0000 54.1150 0.0000
# 6 0.0000 0.0000 0.0000 7.1800 0.0000 31.3203
#
#
#
# Elastic Compliance Matrix: (Units=1/GPa)
#
#
# Indices 1 2 3 4 5 6 
#
# 1 0.007774 0.000353 -0.001543 0.000000 -0.004619 0.000000
# 2 0.000353 0.010639 0.000227 0.000000 -0.006553 0.000000
# 3 -0.001543 0.000227 0.006170 0.000000 -0.004987 0.000000
# 4 0.000000 0.000000 0.000000 0.024669 0.000000 -0.005655
# 5 -0.004619 -0.006553 -0.004987 0.000000 0.030612 0.000000
# 6 0.000000 0.000000 0.000000 -0.005655 0.000000 0.033225
#
#
# Mechanical properties :
#
#
# Convention : Reuss Voigt Hill
#
# Bulk Modulus (GPa) = 44.13797 81.97479 63.05638
# Shear Modulus (GPa) = 40.79385 51.08087 45.93736
#
# Velocity S-wave (km/s) = 3.81540 4.26945 4.04879
# Velocity P-wave (km/s) = 5.92961 7.31826 6.66023
#
# Compressibility (1/GPa) = 0.02265623
#
# Stress axis : x y z
#
# Youngs Moduli (GPa) = 128.63132 93.99314 162.08758
#
# Poissons Ratio (x) = -0.03319 0.25011
# Poissons Ratio (y) = -0.04542 -0.03675
# Poissons Ratio (z) = 0.19849 -0.02131
#
# Static dielectric constant tensor:
#      x y z
#    x 5.851060 0.000000 0.609900 
#    y 0.000000 11.041060 0.000000 
#    z 0.609900 0.000000 5.739340 
# 
# 
# High freq. dielectric constant tensor:
#      x y z
#    x 2.163230 0.000000 0.009470 
#    y 0.000000 2.167080 0.000000 
#    z 0.009470 0.000000 2.159760 
# 
# From -- ./inp_files/687.got.cif
#   From: 2010.03.12/outbox.cif.g09.slc.cpg/sg6_1_cif.got.tgz:687.got - 2010.03.30 10:24:59.
