data_PCOD8052099
_publ_section_title
;
Structure prediction by ZEFSAII (Michael W. Deem and Ramdas Pophale) SiO2 
 PCOD8052099
Probable space group: C 2
;
_chemical_formula_sum "Si O2"
_cell_formula_units_Z 20
_cell_length_a 21.787727
_cell_length_b 4.989743
_cell_length_c 8.598247
_cell_angle_alpha 90.000000
_cell_angle_beta 96.936008
_cell_angle_gamma 90.000000
_cell_volume 927.918880
_symmetry_space_group_name_H-M "C 2"
_symmetry_group_IT_number 5
_symmetry_cell_setting 'monoclinic'
loop_
_space_group_symop_operation_xyz
x,y,z
-x,y,-z
1/2+x,1/2+y,z
1/2-x,1/2+y,-z
loop_
_atom_site_type_symbol
_atom_site_label
_atom_site_fract_x
_atom_site_fract_y
_atom_site_fract_z
Si Si1 0.381043 0.682610 0.796213
Si Si2 0.073379 0.139052 0.528343
Si Si3 0.930414 0.687080 0.975070
Si Si4 0.121050 0.641374 0.711983
Si Si5 0.251069 0.629553 0.890640
O O1 0.397788 0.743651 0.623673
O O2 0.427333 0.453241 0.870109
O O3 0.310767 0.587213 0.799840
O O4 0.387716 0.954710 0.894355
O O5 0.089104 0.358956 0.663227
O O6 0.000000 0.096777 0.500000
O O7 0.106396 0.857250 0.574385
O O8 0.907469 0.760111 0.139299
O O9 0.000000 0.581181 0.000000
O O10 0.194007 0.595876 0.755025
O O11 0.250411 0.419544 0.030837
#
# Coordination Sequence:
#
# PCOD8052099 Si02
#       5
#     4   4   4   4   4
#     4  12  24  43  67  95 135 175 213 278 330 379
#     4  12  26  44  64  99 139 171 215 273 334 397
#     4  12  23  41  68  98 126 175 229 266 322 396
#     4  12  24  42  69  94 132 177 218 269 332 384
#     4  12  23  44  68  98 132 168 229 280 316 386
#
# _framework density 21.553609000000002
#
# number of rings (size 3 to 8) (size 9 to 14) (size 15 to 20)
#    0.000    0.000    4.000    7.200    0.000    1.600 
#    0.000    0.000    0.000    0.000    0.000    0.000 
#    0.000    0.000    0.000    0.000    0.000    0.000 
#
# Total GULP energy -124101.035972 kJ/mol
# GULP energy per Si atom -12410.103597 kJ/mol
# Density = 2.150455 g / cm^3
# Si number density = 21.553609 Si / 1000 Ang^3
#
#
#
# Elastic Constant Matrix: (Units=GPa)
#
#
# Indices 1 2 3 4 5 6 
#
# 1 125.0388 0.4517 43.2001 0.0000 0.7534 0.0000
# 2 0.4517 98.0414 21.8812 0.0000 7.6043 0.0000
# 3 43.2001 21.8812 85.0871 0.0000 7.9039 0.0000
# 4 0.0000 0.0000 0.0000 25.1063 0.0000 1.7467
# 5 0.7534 7.6043 7.9039 0.0000 35.6961 0.0000
# 6 0.0000 0.0000 0.0000 1.7467 0.0000 28.6355
#
#
#
# Elastic Compliance Matrix: (Units=1/GPa)
#
#
# Indices 1 2 3 4 5 6 
#
# 1 0.009835 0.001089 -0.005343 0.000000 0.000743 0.000000
# 2 0.001089 0.011046 -0.003240 0.000000 -0.001659 0.000000
# 3 -0.005343 -0.003240 0.015543 0.000000 -0.002639 0.000000
# 4 0.000000 0.000000 0.000000 0.040000 0.000000 -0.002440
# 5 0.000743 -0.001659 -0.002639 0.000000 0.028936 0.000000
# 6 0.000000 0.000000 0.000000 -0.002440 0.000000 0.035070
#
#
# Mechanical properties :
#
#
# Convention : Reuss Voigt Hill
#
# Bulk Modulus (GPa) = 46.64392 48.80370 47.72381
# Shear Modulus (GPa) = 30.75711 34.06320 32.41016
#
# Velocity S-wave (km/s) = 3.78167 3.97973 3.88196
# Velocity P-wave (km/s) = 6.38404 6.61889 6.50253
#
# Compressibility (1/GPa) = 0.02143902
#
# Stress axis : x y z
#
# Youngs Moduli (GPa) = 101.67859 90.52656 64.33593
#
# Poissons Ratio (x) = -0.09862 0.34372
# Poissons Ratio (y) = -0.11077 0.20843
# Poissons Ratio (z) = 0.54322 0.29328
#
# Static dielectric constant tensor:
#      x y z
#    x 3.976770 0.000000 0.157840 
#    y 0.000000 3.842430 0.000000 
#    z 0.157840 0.000000 3.806950 
# 
# 
# High freq. dielectric constant tensor:
#      x y z
#    x 1.858690 0.000000 0.005070 
#    y 0.000000 1.859640 0.000000 
#    z 0.005070 0.000000 1.844970 
# 
# From -- ./inp_files/28370.got.cif
#   From: 2010.03.12/outbox.cif.g09.slc.cpg/sg5_15_cif.got.tgz:28370.got - 2010.03.31 09:47:26.
