data_PCOD8052068
_publ_section_title
;
Structure prediction by ZEFSAII (Michael W. Deem and Ramdas Pophale) SiO2 
 PCOD8052068
Probable space group: C 2
;
_chemical_formula_sum "Si O2"
_cell_formula_units_Z 26
_cell_length_a 5.342360
_cell_length_b 17.338080
_cell_length_c 11.946661
_cell_angle_alpha 90.000000
_cell_angle_beta 85.525888
_cell_angle_gamma 90.000000
_cell_volume 1103.202504
_symmetry_space_group_name_H-M "C 2"
_symmetry_group_IT_number 5
_symmetry_cell_setting 'monoclinic'
loop_
_space_group_symop_operation_xyz
x,y,z
-x,y,-z
1/2+x,1/2+y,z
1/2-x,1/2+y,-z
loop_
_atom_site_type_symbol
_atom_site_label
_atom_site_fract_x
_atom_site_fract_y
_atom_site_fract_z
Si Si1 0.500000 0.326650 0.500000
Si Si2 0.524352 0.291989 0.865595
Si Si3 0.500000 0.733148 0.500000
Si Si4 0.000000 0.547268 0.000000
Si Si5 0.205258 0.167023 0.269889
Si Si6 0.946202 0.930296 0.290272
Si Si7 0.056987 0.514197 0.759804
Si Si8 0.150487 0.168870 0.895516
O O1 0.245003 0.279123 0.537453
O O2 0.414077 0.375473 0.397148
O O3 0.760593 0.248613 0.798490
O O4 0.509755 0.378942 0.822312
O O5 0.305675 0.236078 0.828414
O O6 0.500000 0.291304 0.000000
O O7 0.604792 0.679330 0.397613
O O8 0.784888 0.601383 0.959320
O O9 0.079742 0.494042 0.891978
O O10 0.443903 0.107828 0.260582
O O11 0.001898 0.124692 0.197273
O O12 0.692263 0.979611 0.287098
O O13 0.191605 0.981493 0.306518
O O14 0.000000 0.212186 0.000000
#
# Coordination Sequence:
#
# PCOD8052068 Si02
#       8
#     2   4   2   2   4   4   4   4
#     4  12  26  57  78 107 160 208 254 314 410 445
#     4  12  24  44  72 115 146 197 251 318 370 452
#     4  12  28  49  86 117 144 202 272 330 360 463
#     4  12  24  44  70 110 156 208 236 322 392 460
#     4  12  26  47  80 110 150 198 266 317 376 451
#     4  12  30  48  75 110 156 204 246 314 382 470
#     4  12  28  47  73 114 153 199 253 307 390 456
#     4  12  20  41  75 111 148 201 250 316 389 442
#
# _framework density 23.567751999999999
#
# number of rings (size 3 to 8) (size 9 to 14) (size 15 to 20)
#    0.000    0.000    6.923    2.769    4.308    0.615 
#    0.000    1.538    0.000    0.000    0.000    0.000 
#    0.000    0.000    0.000    0.000    0.000    0.000 
#
# Total GULP energy -161077.942351 kJ/mol
# GULP energy per Si atom -12390.610950 kJ/mol
# Density = 2.351411 g / cm^3
# Si number density = 23.567752 Si / 1000 Ang^3
#
#
#
# Elastic Constant Matrix: (Units=GPa)
#
#
# Indices 1 2 3 4 5 6 
#
# 1 139.2077 40.1649 35.3285 0.0000 15.2310 0.0000
# 2 40.1649 84.5800 30.2149 0.0000 10.8042 0.0000
# 3 35.3285 30.2149 158.0964 0.0000 -3.6698 0.0000
# 4 0.0000 0.0000 0.0000 25.0599 0.0000 -13.3135
# 5 15.2310 10.8042 -3.6698 0.0000 35.2891 0.0000
# 6 0.0000 0.0000 0.0000 -13.3135 0.0000 -28.8905
#
#
#
# Elastic Compliance Matrix: (Units=1/GPa)
#
#
# Indices 1 2 3 4 5 6 
#
# 1 0.008817 -0.003309 -0.001406 0.000000 -0.002938 0.000000
# 2 -0.003309 0.014567 -0.002120 0.000000 -0.003252 0.000000
# 3 -0.001406 -0.002120 0.007091 0.000000 0.001993 0.000000
# 4 0.000000 0.000000 0.000000 0.032056 0.000000 -0.014772
# 5 -0.002938 -0.003252 0.001993 0.000000 0.030809 0.000000
# 6 0.000000 0.000000 0.000000 -0.014772 0.000000 -0.027806
#
#
# Mechanical properties :
#
#
# Convention : Reuss Voigt Hill
#
# Bulk Modulus (GPa) = 59.50810 65.92229 62.71519
# Shear Modulus (GPa) = 58.95831 24.70341 41.83086
#
# Velocity S-wave (km/s) = 5.00708 3.24108 4.21755
# Velocity P-wave (km/s) = 7.66371 6.48369 7.09826
#
# Compressibility (1/GPa) = 0.01680444
#
# Stress axis : x y z
#
# Youngs Moduli (GPa) = 113.42264 68.64655 141.02618
#
# Poissons Ratio (x) = 0.22716 0.19827
# Poissons Ratio (y) = 0.37534 0.29899
# Poissons Ratio (z) = 0.15946 0.14554
#
# Static dielectric constant tensor:
#      x y z
#    x 4.598670 0.000000 -0.248320 
#    y 0.000000 4.093900 0.000000 
#    z -0.248320 0.000000 5.102970 
# 
# 
# High freq. dielectric constant tensor:
#      x y z
#    x 1.949160 0.000000 -0.008440 
#    y 0.000000 1.918260 0.000000 
#    z -0.008440 0.000000 1.936930 
# 
# From -- ./inp_files/33550.got.cif
#   From: 2010.03.12/outbox.cif.g09.slc.cpg/sg5_17_cif.got.tgz:33550.got - 2010.03.31 09:47:26.
