data_PCOD8052695
_publ_section_title
;
Structure prediction by ZEFSAII (Michael W. Deem and Ramdas Pophale) SiO2 
 PCOD8052695
Probable space group: C M
;
_chemical_formula_sum "Si O2"
_cell_formula_units_Z 22
_cell_length_a 19.010780
_cell_length_b 11.608273
_cell_length_c 15.248141
_cell_angle_alpha 90.000000
_cell_angle_beta 161.016577
_cell_angle_gamma 90.000000
_cell_volume 1094.614700
_symmetry_space_group_name_H-M "C M"
_symmetry_group_IT_number 8
_symmetry_cell_setting 'monoclinic'
loop_
_space_group_symop_operation_xyz
x,y,z
x,-y,z
1/2+x,1/2+y,z
1/2+x,1/2-y,z
loop_
_atom_site_type_symbol
_atom_site_label
_atom_site_fract_x
_atom_site_fract_y
_atom_site_fract_z
Si Si1 0.379110 0.258703 0.468450
Si Si2 0.401926 0.223009 0.862999
Si Si3 0.298259 0.500000 0.544813
Si Si4 0.701003 0.751088 0.448588
Si Si5 0.071520 0.000000 0.718142
Si Si6 0.911059 0.500000 0.982555
Si Si7 0.784882 0.864964 0.880398
O O1 0.342287 0.232542 0.528157
O O2 0.469262 0.385091 0.556280
O O3 0.544213 0.161296 0.630295
O O4 0.155916 0.249916 0.151137
O O5 0.298793 0.188039 0.648161
O O6 0.299260 0.331403 0.794324
O O7 0.343075 0.113589 0.852320
O O8 0.226050 0.385057 0.510035
O O9 0.544708 0.500000 0.794341
O O10 0.169734 0.500000 0.299120
O O11 0.457021 0.709474 0.141459
O O12 0.316727 0.000000 0.971210
O O13 0.835777 0.000000 0.951333
#
# Coordination Sequence:
#
# PCOD8052695 Si02
#       7
#     4   4   2   4   2   2   4
#     4  10  20  41  62  87 124 160 203 245 306 355
#     4  11  23  39  65  91 122 157 206 251 301 358
#     4  10  18  40  62  87 112 158 205 246 304 347
#     4  10  23  40  63  92 121 157 205 252 299 358
#     4  10  16  34  66  86 109 153 201 253 289 351
#     4  12  18  38  66  87 113 159 198 255 305 348
#     4  11  24  42  61  87 127 167 198 245 310 362
#
# _framework density 20.098396999999999
#
# number of rings (size 3 to 8) (size 9 to 14) (size 15 to 20)
#    0.000    1.455    7.273    0.000    2.545    4.364 
#    0.000    0.000    4.000    0.000    0.000    0.000 
#    0.000    0.000    0.000    0.000    0.000    0.000 
#
# Total GULP energy -136280.623258 kJ/mol
# GULP energy per Si atom -12389.147569 kJ/mol
# Density = 2.005265 g / cm^3
# Si number density = 20.098397 Si / 1000 Ang^3
#
#
#
# Elastic Constant Matrix: (Units=GPa)
#
#
# Indices 1 2 3 4 5 6 
#
# 1 78.0812 16.8902 57.6214 -0.0046 -3.1583 -0.0051
# 2 16.8902 94.1097 11.0012 0.0085 18.6589 -0.0023
# 3 57.6214 11.0012 90.5277 0.0229 6.8077 -0.0030
# 4 -0.0046 0.0085 0.0229 14.9715 0.0036 8.9538
# 5 -3.1583 18.6589 6.8077 0.0036 38.0294 -0.0032
# 6 -0.0051 -0.0023 -0.0030 8.9538 -0.0032 24.0599
#
#
#
# Elastic Compliance Matrix: (Units=1/GPa)
#
#
# Indices 1 2 3 4 5 6 
#
# 1 0.026481 -0.004225 -0.016890 0.000041 0.007295 -0.000011
# 2 -0.004225 0.012537 0.001677 -0.000012 -0.006802 0.000004
# 3 -0.016890 0.001677 0.022058 -0.000048 -0.006174 0.000016
# 4 0.000041 -0.000012 -0.000048 0.085915 0.000007 -0.031973
# 5 0.007295 -0.006802 -0.006174 0.000007 0.031344 0.000002
# 6 -0.000011 0.000004 0.000016 -0.031973 0.000002 0.053462
#
#
# Mechanical properties :
#
#
# Convention : Reuss Voigt Hill
#
# Bulk Modulus (GPa) = 45.04682 48.19383 46.62032
# Shear Modulus (GPa) = 17.98100 27.22587 22.60344
#
# Velocity S-wave (km/s) = 2.99431 3.68452 3.35720
# Velocity P-wave (km/s) = 5.86654 6.49091 6.18661
#
# Compressibility (1/GPa) = 0.02219913
#
# Stress axis : x y z
#
# Youngs Moduli (GPa) = 37.76344 79.76582 45.33577
#
# Poissons Ratio (x) = 0.33698 0.76574
# Poissons Ratio (y) = 0.15954 -0.07603
# Poissons Ratio (z) = 0.63784 -0.13377
#
# Static dielectric constant tensor:
#      x y z
#    x 3.520070 0.000000 0.224960 
#    y 0.000000 3.874950 0.000000 
#    z 0.224960 0.000000 3.578360 
# 
# 
# High freq. dielectric constant tensor:
#      x y z
#    x 1.773390 0.000000 0.022190 
#    y 0.000000 1.791180 0.000000 
#    z 0.022190 0.000000 1.770320 
# 
# From -- ./inp_files/26702.got.cif
#   From: 2010.03.12/outbox.cif.g09.slc.cpg/sg8_14_cif.got.tgz:26702.got - 2010.03.31 10:45:26.
