data_PCOD8052185
_publ_section_title
;
Structure prediction by ZEFSAII (Michael W. Deem and Ramdas Pophale) SiO2 
 PCOD8052185
Probable space group: C 2
;
_chemical_formula_sum "Si O2"
_cell_formula_units_Z 18
_cell_length_a 17.200866
_cell_length_b 9.212059
_cell_length_c 4.879535
_cell_angle_alpha 90.000000
_cell_angle_beta 111.351953
_cell_angle_gamma 90.000000
_cell_volume 720.118099
_symmetry_space_group_name_H-M "C 2"
_symmetry_group_IT_number 5
_symmetry_cell_setting 'monoclinic'
loop_
_space_group_symop_operation_xyz
x,y,z
-x,y,-z
1/2+x,1/2+y,z
1/2-x,1/2+y,-z
loop_
_atom_site_type_symbol
_atom_site_label
_atom_site_fract_x
_atom_site_fract_y
_atom_site_fract_z
Si Si1 0.171490 0.560680 0.337169
Si Si2 0.555764 0.322306 0.322891
Si Si3 0.855550 0.110583 0.514389
Si Si4 0.000000 0.271153 0.000000
Si Si5 0.377316 0.880849 0.224607
O O1 0.118260 0.707216 0.265776
O O2 0.266068 0.594728 0.547995
O O3 0.124325 0.452762 0.480205
O O4 0.177892 0.479308 0.051431
O O5 0.500000 0.255634 0.500000
O O6 0.608209 0.453915 0.525450
O O7 0.500000 0.379937 0.000000
O O8 0.920267 0.177431 0.813293
O O9 0.845060 0.214764 0.233630
O O10 0.029145 0.371645 0.782218
#
# Coordination Sequence:
#
# PCOD8052185 Si02
#       5
#     4   4   4   2   4
#     4  12  30  49  81 116 163 200 268 335 397 460
#     4  12  28  48  77 114 158 203 259 326 399 461
#     4  12  28  53  80 116 158 214 266 320 398 483
#     4  12  26  50  82 112 156 218 262 316 386 510
#     4  12  28  50  80 116 154 213 262 324 394 479
#
# _framework density 24.995898
#
# number of rings (size 3 to 8) (size 9 to 14) (size 15 to 20)
#    0.000    0.000    3.333    4.667    7.778    1.778 
#    0.000    0.000    0.000    0.000    0.000    0.000 
#    0.000    0.000    0.000    0.000    0.000    0.000 
#
# Total GULP energy -111585.709784 kJ/mol
# GULP energy per Si atom -12398.412198 kJ/mol
# Density = 2.493901 g / cm^3
# Si number density = 24.995898 Si / 1000 Ang^3
#
#
#
# Elastic Constant Matrix: (Units=GPa)
#
#
# Indices 1 2 3 4 5 6 
#
# 1 155.3709 66.2161 35.7563 0.0000 9.4843 0.0000
# 2 66.2161 160.1557 57.8879 0.0000 9.7484 0.0000
# 3 35.7563 57.8879 90.2251 0.0000 -7.0303 0.0000
# 4 0.0000 0.0000 0.0000 18.6242 0.0000 0.7031
# 5 9.4843 9.7484 -7.0303 0.0000 46.8041 0.0000
# 6 0.0000 0.0000 0.0000 0.7031 0.0000 34.3494
#
#
#
# Elastic Compliance Matrix: (Units=1/GPa)
#
#
# Indices 1 2 3 4 5 6 
#
# 1 0.008013 -0.002668 -0.001565 0.000000 -0.001303 0.000000
# 2 -0.002668 0.009319 -0.005090 0.000000 -0.002165 0.000000
# 3 -0.001565 -0.005090 0.015255 0.000000 0.003669 0.000000
# 4 0.000000 0.000000 0.000000 0.053735 0.000000 -0.001100
# 5 -0.001303 -0.002165 0.003669 0.000000 0.022632 0.000000
# 6 0.000000 0.000000 0.000000 -0.001100 0.000000 0.029135
#
#
# Mechanical properties :
#
#
# Convention : Reuss Voigt Hill
#
# Bulk Modulus (GPa) = 71.73511 80.60805 76.17158
# Shear Modulus (GPa) = 30.98230 36.34829 33.66529
#
# Velocity S-wave (km/s) = 3.52447 3.81750 3.67390
# Velocity P-wave (km/s) = 6.73228 7.19372 6.96682
#
# Compressibility (1/GPa) = 0.01394018
#
# Stress axis : x y z
#
# Youngs Moduli (GPa) = 124.79721 107.31334 65.55030
#
# Poissons Ratio (x) = 0.28629 0.10262
# Poissons Ratio (y) = 0.33293 0.33366
# Poissons Ratio (z) = 0.19537 0.54624
#
# Static dielectric constant tensor:
#      x y z
#    x 4.583220 0.000000 -0.041230 
#    y 0.000000 4.686670 0.000000 
#    z -0.041230 0.000000 4.253800 
# 
# 
# High freq. dielectric constant tensor:
#      x y z
#    x 2.008540 0.000000 -0.003720 
#    y 0.000000 2.004990 0.000000 
#    z -0.003720 0.000000 1.989830 
# 
# From -- ./inp_files/8084.got.cif
#   From: 2010.03.12/outbox.cif.g09.slc.cpg/sg5_5_cif.got.tgz:8084.got - 2010.03.31 09:47:26.
