data_PCOD8052820
_publ_section_title
;
Structure prediction by ZEFSAII (Michael W. Deem and Ramdas Pophale) SiO2 
 PCOD8052820
Probable space group: C M
;
_chemical_formula_sum "Si O2"
_cell_formula_units_Z 32
_cell_length_a 24.618668
_cell_length_b 9.218626
_cell_length_c 9.698563
_cell_angle_alpha 90.000000
_cell_angle_beta 118.874582
_cell_angle_gamma 90.000000
_cell_volume 1927.449435
_symmetry_space_group_name_H-M "C M"
_symmetry_group_IT_number 8
_symmetry_cell_setting 'monoclinic'
loop_
_space_group_symop_operation_xyz
x,y,z
x,-y,z
1/2+x,1/2+y,z
1/2+x,1/2-y,z
loop_
_atom_site_type_symbol
_atom_site_label
_atom_site_fract_x
_atom_site_fract_y
_atom_site_fract_z
Si Si1 0.501810 0.161484 0.553340
Si Si2 0.201537 0.831755 0.148789
Si Si3 0.036586 0.662192 0.300363
Si Si4 0.785518 0.169044 0.048658
Si Si5 0.097419 0.836980 0.818250
Si Si6 0.206265 0.164226 0.740428
Si Si7 0.428305 0.669662 0.263114
Si Si8 0.156334 0.831468 0.389517
O O1 0.549039 0.153091 0.480634
O O2 0.537795 0.233986 0.725516
O O3 0.442585 0.257859 0.431250
O O4 0.479776 0.000000 0.569790
O O5 0.257155 0.740367 0.151372
O O6 0.198900 0.802238 0.308295
O O7 0.213942 0.000000 0.128676
O O8 0.135918 0.785756 0.999517
O O9 0.028366 0.500000 0.228618
O O10 0.093722 0.739782 0.296055
O O11 0.972948 0.755556 0.202171
O O12 0.858263 0.200980 0.134886
O O13 0.770436 0.000000 0.035071
O O14 0.756998 0.233935 0.874048
O O15 0.141002 0.826942 0.738219
O O16 0.072439 0.000000 0.807015
O O17 0.196012 0.217323 0.570934
O O18 0.231804 0.000000 0.774668
O O19 0.443405 0.500000 0.290506
O O20 0.137412 0.000000 0.378526
#
# Coordination Sequence:
#
# PCOD8052820 Si02
#       8
#     4   4   4   4   4   4   4   4
#     4   9  17  26  43  71  94 116 148 191 238 274
#     4   9  20  33  48  70  99 132 160 188 231 284
#     4   9  18  28  45  73  96 118 149 193 240 275
#     4  10  20  32  48  71  96 125 160 199 238 274
#     4   9  15  27  45  68  95 123 154 191 232 277
#     4   9  17  28  47  69  92 123 158 195 234 277
#     4   9  17  30  47  68  92 122 160 198 236 278
#     4  10  18  32  51  72  98 129 159 189 233 287
#
# _framework density 16.602250999999999
#
# number of rings (size 3 to 8) (size 9 to 14) (size 15 to 20)
#    0.750    2.000    1.250    1.875    0.000    5.000 
#    0.000    0.000    0.000    1.500    0.000    1.750 
#    0.000    0.000    0.000    0.000    0.000    0.000 
#
# Total GULP energy -198289.558344 kJ/mol
# GULP energy per Si atom -12393.097397 kJ/mol
# Density = 1.656446 g / cm^3
# Si number density = 16.602251 Si / 1000 Ang^3
#
#
#
# Elastic Constant Matrix: (Units=GPa)
#
#
# Indices 1 2 3 4 5 6 
#
# 1 72.6515 56.3921 40.5246 0.0000 11.4179 0.0000
# 2 56.3921 111.4253 39.2641 0.0000 15.8041 0.0000
# 3 40.5246 39.2641 87.4123 0.0000 -1.2679 0.0000
# 4 0.0000 0.0000 0.0000 22.7509 0.0000 6.1555
# 5 11.4179 15.8041 -1.2679 0.0000 22.8434 0.0000
# 6 0.0000 0.0000 0.0000 6.1555 0.0000 24.5922
#
#
#
# Elastic Compliance Matrix: (Units=1/GPa)
#
#
# Indices 1 2 3 4 5 6 
#
# 1 0.027110 -0.009773 -0.008283 0.000000 -0.007249 0.000000
# 2 -0.009773 0.015712 -0.002616 0.000000 -0.006131 0.000000
# 3 -0.008283 -0.002616 0.016555 0.000000 0.006869 0.000000
# 4 0.000000 0.000000 0.000000 0.047147 0.000000 -0.011801
# 5 -0.007249 -0.006131 0.006869 0.000000 0.052022 0.000000
# 6 0.000000 0.000000 0.000000 -0.011801 0.000000 0.043617
#
#
# Mechanical properties :
#
#
# Convention : Reuss Voigt Hill
#
# Bulk Modulus (GPa) = 55.45621 60.42786 57.94203
# Shear Modulus (GPa) = 20.03859 23.05786 21.54822
#
# Velocity S-wave (km/s) = 3.47793 3.73076 3.60656
# Velocity P-wave (km/s) = 7.04296 7.41852 7.23318
#
# Compressibility (1/GPa) = 0.01803225
#
# Stress axis : x y z
#
# Youngs Moduli (GPa) = 36.88675 63.64535 60.40560
#
# Poissons Ratio (x) = 0.62202 0.50037
# Poissons Ratio (y) = 0.36050 0.15800
# Poissons Ratio (z) = 0.30555 0.16647
#
# Static dielectric constant tensor:
#      x y z
#    x 2.733050 0.000000 0.048570 
#    y 0.000000 3.184290 0.000000 
#    z 0.048570 0.000000 2.986930 
# 
# 
# High freq. dielectric constant tensor:
#      x y z
#    x 1.600930 0.000000 0.012980 
#    y 0.000000 1.649170 0.000000 
#    z 0.012980 0.000000 1.621730 
# 
# From -- ./inp_files/17265.got.cif
#   From: 2010.03.12/outbox.cif.g09.slc.cpg/sg8_9_cif.got.tgz:17265.got - 2010.03.31 10:45:26.
