data_PCOD8052271
_publ_section_title
;
Structure prediction by ZEFSAII (Michael W. Deem and Ramdas Pophale) SiO2 
 PCOD8052271
Probable space group: P M
;
_chemical_formula_sum "Si O2"
_cell_formula_units_Z 16
_cell_length_a 12.192365
_cell_length_b 8.962869
_cell_length_c 10.415190
_cell_angle_alpha 90.000000
_cell_angle_beta 51.587693
_cell_angle_gamma 90.000000
_cell_volume 891.814376
_symmetry_space_group_name_H-M "P M"
_symmetry_group_IT_number 6
_symmetry_cell_setting 'monoclinic'
loop_
_space_group_symop_operation_xyz
x,y,z
x,-y,z
loop_
_atom_site_type_symbol
_atom_site_label
_atom_site_fract_x
_atom_site_fract_y
_atom_site_fract_z
Si Si1 0.550200 0.175676 0.700920
Si Si2 0.125213 0.671455 0.363414
Si Si3 0.401833 0.176105 0.545822
Si Si4 0.380586 0.176332 0.072075
Si Si5 0.556758 0.824462 0.182061
Si Si6 0.129712 0.676264 0.654802
Si Si7 0.810358 0.674220 0.616692
Si Si8 0.844418 0.175823 0.860858
O O1 0.477097 0.221313 0.622024
O O2 0.696508 0.263953 0.599882
O O3 0.581052 0.000000 0.686158
O O4 0.450043 0.230071 0.889050
O O5 0.165890 0.500000 0.318354
O O6 0.221927 0.764706 0.196489
O O7 0.151640 0.723681 0.490812
O O8 0.963649 0.700398 0.443933
O O9 0.497247 0.237653 0.359532
O O10 0.252476 0.256853 0.651946
O O11 0.376854 0.000000 0.554601
O O12 0.469754 0.244001 0.125921
O O13 0.375739 0.000000 0.079763
O O14 0.536028 0.000000 0.192330
O O15 0.720671 0.784673 0.050993
O O16 0.122461 0.500000 0.676052
O O17 0.983528 0.744055 0.810910
O O18 0.787471 0.500000 0.662981
O O19 0.794895 0.765220 0.759126
O O20 0.870658 0.000000 0.831199
#
# Coordination Sequence:
#
# PCOD8052271 Si02
#       8
#     2   2   2   2   2   2   2   2
#     4  10  21  36  54  78 107 137 175 217 260 312
#     4   9  19  33  50  77 106 134 170 215 257 305
#     4  10  20  36  56  77 104 141 176 212 261 313
#     4  10  18  32  53  79 104 130 173 220 256 301
#     4   9  17  31  53  80 104 129 173 220 256 303
#     4  10  20  34  51  78 111 138 173 215 259 312
#     4  10  20  34  52  77 109 139 174 214 261 313
#     4  10  18  32  55  80 107 136 172 219 264 303
#
# _framework density 17.940953
#
# number of rings (size 3 to 8) (size 9 to 14) (size 15 to 20)
#    0.000    2.250    2.500    1.875    0.000    3.500 
#    0.000    2.500    0.000    6.000    0.000    0.000 
#    0.000    0.000    0.000    0.000    0.000    0.000 
#
# Total GULP energy -198416.661472 kJ/mol
# GULP energy per Si atom -12401.041342 kJ/mol
# Density = 1.790012 g / cm^3
# Si number density = 17.940953 Si / 1000 Ang^3
#
#
#
# Elastic Constant Matrix: (Units=GPa)
#
#
# Indices 1 2 3 4 5 6 
#
# 1 148.4609 49.8310 72.2883 0.0000 -9.9606 0.0000
# 2 49.8310 52.4575 30.4364 0.0000 -4.9642 0.0000
# 3 72.2883 30.4364 112.0960 0.0000 -4.2285 0.0000
# 4 0.0000 0.0000 0.0000 13.7578 0.0000 -3.8374
# 5 -9.9606 -4.9642 -4.2285 0.0000 27.4752 0.0000
# 6 0.0000 0.0000 0.0000 -3.8374 0.0000 27.2552
#
#
#
# Elastic Compliance Matrix: (Units=1/GPa)
#
#
# Indices 1 2 3 4 5 6 
#
# 1 0.012436 -0.008315 -0.005682 0.000000 0.002132 0.000000
# 2 -0.008315 0.028464 -0.002299 0.000000 0.001774 0.000000
# 3 -0.005682 -0.002299 0.013192 0.000000 -0.000445 0.000000
# 4 0.000000 0.000000 0.000000 0.075657 0.000000 0.010652
# 5 0.002132 0.001774 -0.000445 0.000000 0.037421 0.000000
# 6 0.000000 0.000000 0.000000 0.010652 0.000000 0.038190
#
#
# Mechanical properties :
#
#
# Convention : Reuss Voigt Hill
#
# Bulk Modulus (GPa) = 46.51122 68.68063 57.59592
# Shear Modulus (GPa) = 20.39806 24.39488 22.39647
#
# Velocity S-wave (km/s) = 3.37553 3.69145 3.53702
# Velocity P-wave (km/s) = 6.41663 7.51889 6.98952
#
# Compressibility (1/GPa) = 0.02150019
#
# Stress axis : x y z
#
# Youngs Moduli (GPa) = 80.40894 35.13202 75.80075
#
# Poissons Ratio (x) = 0.29214 0.43068
# Poissons Ratio (y) = 0.66863 0.17428
# Poissons Ratio (z) = 0.45687 0.08078
#
# Static dielectric constant tensor:
#      x y z
#    x 3.304040 0.000000 -0.146830 
#    y 0.000000 3.145240 0.000000 
#    z -0.146830 0.000000 3.331190 
# 
# 
# High freq. dielectric constant tensor:
#      x y z
#    x 1.692000 0.000000 -0.021730 
#    y 0.000000 1.684300 0.000000 
#    z -0.021730 0.000000 1.682310 
# 
# From -- ./inp_files/3651.got.cif
#   From: 2010.03.12/outbox.cif.g09.slc.cpg/sg6_2_cif.got.tgz:3651.got - 2010.03.30 10:24:59.
