data_PCOD8052563
_publ_section_title
;
Structure prediction by ZEFSAII (Michael W. Deem and Ramdas Pophale) SiO2 
 PCOD8052563
Probable space group: P M
;
_chemical_formula_sum "Si O2"
_cell_formula_units_Z 12
_cell_length_a 6.619824
_cell_length_b 17.107321
_cell_length_c 4.944940
_cell_angle_alpha 90.000000
_cell_angle_beta 105.839052
_cell_angle_gamma 90.000000
_cell_volume 538.739820
_symmetry_space_group_name_H-M "P M"
_symmetry_group_IT_number 6
_symmetry_cell_setting 'monoclinic'
loop_
_space_group_symop_operation_xyz
x,y,z
x,-y,z
loop_
_atom_site_type_symbol
_atom_site_label
_atom_site_fract_x
_atom_site_fract_y
_atom_site_fract_z
Si Si1 0.481040 0.000000 0.284330
Si Si2 0.707327 0.150427 0.146371
Si Si3 0.969570 0.848055 0.724027
Si Si4 0.338867 0.264944 0.935645
Si Si5 0.202950 0.000000 0.692099
Si Si6 0.341375 0.373874 0.435807
Si Si7 0.990138 0.500000 0.208817
Si Si8 0.693360 0.500000 0.597542
O O1 0.613722 0.923399 0.269877
O O2 0.405342 0.000000 0.568495
O O3 0.273520 0.000000 0.028332
O O4 0.839824 0.193688 0.432932
O O5 0.836368 0.122572 0.931763
O O6 0.535411 0.208529 0.960419
O O7 0.135397 0.787997 0.910887
O O8 0.068645 0.921939 0.601705
O O9 0.290558 0.318672 0.664851
O O10 0.392833 0.319900 0.203384
O O11 0.546600 0.424555 0.580520
O O12 0.135054 0.424337 0.297102
O O13 0.794361 0.500000 0.338997
O O14 0.887422 0.500000 0.875149
#
# Coordination Sequence:
#
# PCOD8052563 Si02
#       8
#     1   2   2   2   1   2   1   1
#     4  12  24  44  72  93 133 180 234 291 338 394
#     4  12  26  44  68  98 134 182 231 284 344 400
#     4  12  26  44  68  98 134 182 231 284 344 400
#     4  12  26  44  68  98 146 172 224 278 340 404
#     4  12  24  44  72  93 133 180 234 291 338 394
#     4  11  26  44  68 105 134 178 220 275 330 402
#     4  11  24  45  74 100 136 175 224 269 327 399
#     4  11  24  45  74 100 136 175 224 269 327 399
#
# _framework density 22.274204000000001
#
# number of rings (size 3 to 8) (size 9 to 14) (size 15 to 20)
#    0.000    0.333    1.667    7.000    2.333   10.667 
#    0.000    0.000    0.000    0.000    0.000    0.000 
#    0.000    0.000    0.000    0.000    0.000    0.000 
#
# Total GULP energy -148853.897393 kJ/mol
# GULP energy per Si atom -12404.491449 kJ/mol
# Density = 2.222351 g / cm^3
# Si number density = 22.274204 Si / 1000 Ang^3
#
#
#
# Elastic Constant Matrix: (Units=GPa)
#
#
# Indices 1 2 3 4 5 6 
#
# 1 120.8707 51.1045 32.1174 0.0000 -7.9742 0.0000
# 2 51.1045 128.0884 32.1775 0.0000 1.5158 0.0000
# 3 32.1174 32.1775 121.7210 0.0000 2.2499 0.0000
# 4 0.0000 0.0000 0.0000 36.9162 0.0000 -3.8402
# 5 -7.9742 1.5158 2.2499 0.0000 54.0459 0.0000
# 6 0.0000 0.0000 0.0000 -3.8402 0.0000 -40.9297
#
#
#
# Elastic Compliance Matrix: (Units=1/GPa)
#
#
# Indices 1 2 3 4 5 6 
#
# 1 0.010444 -0.003735 -0.001800 0.000000 0.001721 0.000000
# 2 -0.003735 0.009699 -0.001564 0.000000 -0.000758 0.000000
# 3 -0.001800 -0.001564 0.009115 0.000000 -0.000601 0.000000
# 4 0.000000 0.000000 0.000000 0.026827 0.000000 -0.002517
# 5 0.001721 -0.000758 -0.000601 0.000000 0.018803 0.000000
# 6 0.000000 0.000000 0.000000 -0.002517 0.000000 -0.024196
#
#
# Mechanical properties :
#
#
# Convention : Reuss Voigt Hill
#
# Bulk Modulus (GPa) = 66.40503 66.83099 66.61801
# Shear Modulus (GPa) = 71.51830 27.02521 49.27175
#
# Velocity S-wave (km/s) = 5.67255 3.48702 4.70835
# Velocity P-wave (km/s) = 8.53118 6.80304 7.71564
#
# Compressibility (1/GPa) = 0.01505910
#
# Stress axis : x y z
#
# Youngs Moduli (GPa) = 95.74461 103.09946 109.70662
#
# Poissons Ratio (x) = 0.38510 0.19750
# Poissons Ratio (y) = 0.35763 0.17163
# Poissons Ratio (z) = 0.17237 0.16130
#
# Static dielectric constant tensor:
#      x y z
#    x 4.073620 0.000000 0.191130 
#    y 0.000000 4.081110 0.000000 
#    z 0.191130 0.000000 4.051610 
# 
# 
# High freq. dielectric constant tensor:
#      x y z
#    x 1.888550 0.000000 0.005150 
#    y 0.000000 1.879000 0.000000 
#    z 0.005150 0.000000 1.898540 
# 
# From -- ./inp_files/344.got.cif
#   From: 2010.03.12/outbox.cif.g09.slc.cpg/sg6_1_cif.got.tgz:344.got - 2010.03.30 10:24:59.
