data_PCOD8052220
_publ_section_title
;
Structure prediction by ZEFSAII (Michael W. Deem and Ramdas Pophale) SiO2 
 PCOD8052220
Probable space group: P M
;
_chemical_formula_sum "Si O2"
_cell_formula_units_Z 16
_cell_length_a 9.379280
_cell_length_b 9.014129
_cell_length_c 11.407627
_cell_angle_alpha 90.000000
_cell_angle_beta 114.057301
_cell_angle_gamma 90.000000
_cell_volume 880.694140
_symmetry_space_group_name_H-M "P M"
_symmetry_group_IT_number 6
_symmetry_cell_setting 'monoclinic'
loop_
_space_group_symop_operation_xyz
x,y,z
x,-y,z
loop_
_atom_site_type_symbol
_atom_site_label
_atom_site_fract_x
_atom_site_fract_y
_atom_site_fract_z
Si Si1 0.597230 0.174550 0.897690
Si Si2 0.015102 0.828135 0.378106
Si Si3 0.304438 0.670221 0.897799
Si Si4 0.737292 0.672072 0.153987
Si Si5 0.413594 0.667163 0.176542
Si Si6 0.484005 0.332853 0.645336
Si Si7 0.135035 0.663974 0.625671
Si Si8 0.352595 0.827764 0.391262
O O1 0.430511 0.210368 0.898631
O O2 0.605029 0.245428 0.769925
O O3 0.622737 0.000000 0.896108
O O4 0.729771 0.243632 0.026631
O O5 0.030680 0.782223 0.520621
O O6 0.175348 0.788959 0.365967
O O7 0.881595 0.732665 0.275054
O O8 0.971606 0.000000 0.356980
O O9 0.365385 0.500000 0.894295
O O10 0.143766 0.696912 0.769631
O O11 0.282071 0.689331 0.030321
O O12 0.763134 0.500000 0.136381
O O13 0.582169 0.699884 0.177580
O O14 0.405512 0.500000 0.224363
O O15 0.379439 0.782947 0.266595
O O16 0.544997 0.500000 0.649603
O O17 0.313890 0.328025 0.645405
O O18 0.475981 0.257077 0.515048
O O19 0.065679 0.500000 0.578474
O O20 0.386070 0.000000 0.418071
#
# Coordination Sequence:
#
# PCOD8052220 Si02
#       8
#     2   2   2   2   2   2   2   2
#     4  10  17  26  44  70  97 122 153 198 246 284
#     4  10  20  32  47  71 100 127 158 198 243 290
#     4   8  15  28  45  67  94 124 161 199 234 279
#     4  10  20  34  51  71  96 128 165 201 238 285
#     4   9  18  32  50  72  97 126 161 200 240 286
#     4   9  16  28  46  67  93 125 161 198 235 279
#     4   8  14  26  45  67  91 121 156 196 237 277
#     4  10  20  32  48  73 102 129 159 198 243 288
#
# _framework density 18.167487000000001
#
# number of rings (size 3 to 8) (size 9 to 14) (size 15 to 20)
#    0.000    2.750    0.000    4.125    0.000    7.000 
#    0.000    0.000    0.000    1.500    0.000    1.750 
#    0.000    0.000    0.000    0.000    0.000    0.000 
#
# Total GULP energy -198308.382851 kJ/mol
# GULP energy per Si atom -12394.273928 kJ/mol
# Density = 1.812614 g / cm^3
# Si number density = 18.167487 Si / 1000 Ang^3
#
#
#
# Elastic Constant Matrix: (Units=GPa)
#
#
# Indices 1 2 3 4 5 6 
#
# 1 22.3870 27.4903 33.5182 0.0000 -3.4383 0.0000
# 2 27.4903 118.6742 75.1492 0.0000 1.9646 0.0000
# 3 33.5182 75.1492 173.2172 0.0000 -4.9943 0.0000
# 4 0.0000 0.0000 0.0000 34.2954 0.0000 -0.6686
# 5 -3.4383 1.9646 -4.9943 0.0000 20.8241 0.0000
# 6 0.0000 0.0000 0.0000 -0.6686 0.0000 19.5624
#
#
#
# Elastic Compliance Matrix: (Units=1/GPa)
#
#
# Indices 1 2 3 4 5 6 
#
# 1 0.074151 -0.011693 -0.008953 0.000000 0.011199 0.000000
# 2 -0.011693 0.013575 -0.003745 0.000000 -0.004110 0.000000
# 3 -0.008953 -0.003745 0.009161 0.000000 0.001072 0.000000
# 4 0.000000 0.000000 0.000000 0.029178 0.000000 0.000997
# 5 0.011199 -0.004110 0.001072 0.000000 0.050515 0.000000
# 6 0.000000 0.000000 0.000000 0.000997 0.000000 0.051153
#
#
# Mechanical properties :
#
#
# Convention : Reuss Voigt Hill
#
# Bulk Modulus (GPa) = 20.78762 65.17708 42.98235
# Shear Modulus (GPa) = 17.09109 26.81108 21.95108
#
# Velocity S-wave (km/s) = 3.07049 3.84575 3.47978
# Velocity P-wave (km/s) = 4.90282 7.46145 6.31312
#
# Compressibility (1/GPa) = 0.04810555
#
# Stress axis : x y z
#
# Youngs Moduli (GPa) = 13.48592 73.66673 109.15590
#
# Poissons Ratio (x) = 0.86138 0.97725
# Poissons Ratio (y) = 0.15769 0.40880
# Poissons Ratio (z) = 0.12074 0.27589
#
# Static dielectric constant tensor:
#      x y z
#    x 2.724960 0.000000 -0.073910 
#    y 0.000000 3.370070 0.000000 
#    z -0.073910 0.000000 3.863120 
# 
# 
# High freq. dielectric constant tensor:
#      x y z
#    x 1.626570 0.000000 -0.005790 
#    y 0.000000 1.711150 0.000000 
#    z -0.005790 0.000000 1.732260 
# 
# From -- ./inp_files/3451.got.cif
#   From: 2010.03.12/outbox.cif.g09.slc.cpg/sg6_2_cif.got.tgz:3451.got - 2010.03.30 10:24:59.
