data_PCOD8052792
_publ_section_title
;
Structure prediction by ZEFSAII (Michael W. Deem and Ramdas Pophale) SiO2 
 PCOD8052792
Probable space group: C M
;
_chemical_formula_sum "Si O2"
_cell_formula_units_Z 32
_cell_length_a 20.178063
_cell_length_b 8.849476
_cell_length_c 12.225036
_cell_angle_alpha 90.000000
_cell_angle_beta 54.729128
_cell_angle_gamma 90.000000
_cell_volume 1782.242512
_symmetry_space_group_name_H-M "C M"
_symmetry_group_IT_number 8
_symmetry_cell_setting 'monoclinic'
loop_
_space_group_symop_operation_xyz
x,y,z
x,-y,z
1/2+x,1/2+y,z
1/2+x,1/2-y,z
loop_
_atom_site_type_symbol
_atom_site_label
_atom_site_fract_x
_atom_site_fract_y
_atom_site_fract_z
Si Si1 0.411460 0.322613 0.002930
Si Si2 0.446570 0.678560 0.543212
Si Si3 0.232627 0.676100 0.220470
Si Si4 0.971193 0.823538 0.182984
Si Si5 0.672723 0.180199 0.509241
Si Si6 0.992383 0.321116 0.718226
Si Si7 0.071486 0.323708 0.260424
Si Si8 0.329177 0.322135 0.472348
O O1 0.410883 0.500000 0.975366
O O2 0.320123 0.257021 0.103709
O O3 0.463699 0.289492 0.062018
O O4 0.453313 0.230560 0.867660
O O5 0.455288 0.500000 0.547364
O O6 0.441115 0.754125 0.666659
O O7 0.522838 0.738244 0.401871
O O8 0.362985 0.723145 0.559601
O O9 0.246408 0.500000 0.228088
O O10 0.199674 0.745702 0.365582
O O11 0.167258 0.707391 0.187090
O O12 0.890454 0.762081 0.320432
O O13 0.048135 0.736187 0.161952
O O14 0.983694 0.000000 0.194467
O O15 0.584295 0.243309 0.624977
O O16 0.738401 0.240324 0.536316
O O17 0.668481 0.000000 0.509871
O O18 0.990258 0.500000 0.712070
O O19 0.051634 0.500000 0.290144
O O20 0.325791 0.500000 0.462779
#
# Coordination Sequence:
#
# PCOD8052792 Si02
#       8
#     4   4   4   4   4   4   4   4
#     4  10  20  36  57  76 102 140 182 218 251 306
#     4  10  19  32  52  78 106 137 175 213 257 311
#     4   9  16  30  54  79 100 133 179 218 250 297
#     4   9  17  31  52  77 103 134 170 214 264 308
#     4   9  15  29  53  78 100 128 174 219 253 297
#     4  11  22  35  53  77 109 141 169 213 271 316
#     4  10  18  30  52  81 108 133 169 218 265 305
#     4   8  14  27  51  78  98 124 170 219 251 290
#
# _framework density 17.954906999999999
#
# number of rings (size 3 to 8) (size 9 to 14) (size 15 to 20)
#    0.000    2.500    2.500    1.875    0.000    0.500 
#    0.000    2.500    0.000   13.500    0.000    0.000 
#    0.000    0.000    0.000    0.000    0.000    0.000 
#
# Total GULP energy -198330.522235 kJ/mol
# GULP energy per Si atom -12395.657640 kJ/mol
# Density = 1.791404 g / cm^3
# Si number density = 17.954907 Si / 1000 Ang^3
#
#
#
# Elastic Constant Matrix: (Units=GPa)
#
#
# Indices 1 2 3 4 5 6 
#
# 1 155.2256 40.7870 69.8538 0.0000 5.3592 0.0000
# 2 40.7870 49.8647 33.2014 0.0000 6.8533 0.0000
# 3 69.8538 33.2014 110.6185 0.0000 3.3621 0.0000
# 4 0.0000 0.0000 0.0000 25.5457 0.0000 3.9740
# 5 5.3592 6.8533 3.3621 0.0000 28.0365 0.0000
# 6 0.0000 0.0000 0.0000 3.9740 0.0000 24.4979
#
#
#
# Elastic Compliance Matrix: (Units=1/GPa)
#
#
# Indices 1 2 3 4 5 6 
#
# 1 0.009875 -0.004888 -0.004765 0.000000 -0.000121 0.000000
# 2 -0.004888 0.028275 -0.005237 0.000000 -0.005349 0.000000
# 3 -0.004765 -0.005237 0.013604 0.000000 0.000560 0.000000
# 4 0.000000 0.000000 0.000000 0.040159 0.000000 -0.006514
# 5 -0.000121 -0.005349 0.000560 0.000000 0.036931 0.000000
# 6 0.000000 0.000000 0.000000 -0.006514 0.000000 0.041877
#
#
# Mechanical properties :
#
#
# Convention : Reuss Voigt Hill
#
# Bulk Modulus (GPa) = 45.50998 67.04368 56.27683
# Shear Modulus (GPa) = 24.05856 27.07379 25.56618
#
# Velocity S-wave (km/s) = 3.66450 3.88735 3.77757
# Velocity P-wave (km/s) = 6.58077 7.58747 7.10198
#
# Compressibility (1/GPa) = 0.02197320
#
# Stress axis : x y z
#
# Youngs Moduli (GPa) = 101.26352 35.36741 73.50687
#
# Poissons Ratio (x) = 0.17287 0.35028
# Poissons Ratio (y) = 0.49497 0.38497
# Poissons Ratio (z) = 0.48255 0.18523
#
# Static dielectric constant tensor:
#      x y z
#    x 3.770970 0.000000 -0.036680 
#    y 0.000000 3.024660 0.000000 
#    z -0.036680 0.000000 3.122970 
# 
# 
# High freq. dielectric constant tensor:
#      x y z
#    x 1.715440 0.000000 0.005830 
#    y 0.000000 1.663020 0.000000 
#    z 0.005830 0.000000 1.666390 
# 
# From -- ./inp_files/23702.got.cif
#   From: 2010.03.12/outbox.cif.g09.slc.cpg/sg8_12_cif.got.tgz:23702.got - 2010.03.31 10:45:26.
