data_PCOD8052316
_publ_section_title
;
Structure prediction by ZEFSAII (Michael W. Deem and Ramdas Pophale) SiO2 
 PCOD8052316
Probable space group: P M
;
_chemical_formula_sum "Si O2"
_cell_formula_units_Z 16
_cell_length_a 10.291275
_cell_length_b 8.811530
_cell_length_c 12.247050
_cell_angle_alpha 90.000000
_cell_angle_beta 51.817145
_cell_angle_gamma 90.000000
_cell_volume 872.966745
_symmetry_space_group_name_H-M "P M"
_symmetry_group_IT_number 6
_symmetry_cell_setting 'monoclinic'
loop_
_space_group_symop_operation_xyz
x,y,z
x,-y,z
loop_
_atom_site_type_symbol
_atom_site_label
_atom_site_fract_x
_atom_site_fract_y
_atom_site_fract_z
Si Si1 0.483150 0.179027 0.480670
Si Si2 0.041349 0.821245 0.897310
Si Si3 0.541820 0.677989 0.897564
Si Si4 0.714253 0.178086 0.173685
Si Si5 0.915410 0.674197 0.747608
Si Si6 0.392896 0.678752 0.745672
Si Si7 0.423656 0.179798 0.171815
Si Si8 0.227492 0.674514 0.453057
O O1 0.651722 0.221142 0.327608
O O2 0.497245 0.245384 0.594241
O O3 0.326096 0.248788 0.501169
O O4 0.455608 0.000000 0.500226
O O5 0.204319 0.731271 0.843874
O O6 0.981050 0.784385 0.807298
O O7 0.075839 0.000000 0.888520
O O8 0.899360 0.762837 0.055422
O O9 0.518145 0.500000 0.925949
O O10 0.732712 0.726613 0.808265
O O11 0.477840 0.731533 0.813252
O O12 0.429032 0.761703 0.045577
O O13 0.585806 0.243656 0.150873
O O14 0.713618 0.000000 0.156593
O O15 0.917061 0.500000 0.788575
O O16 0.033002 0.691146 0.580605
O O17 0.399405 0.500000 0.726129
O O18 0.263701 0.244830 0.318506
O O19 0.411439 0.000000 0.179325
O O20 0.281655 0.500000 0.417473
#
# Coordination Sequence:
#
# PCOD8052316 Si02
#       8
#     2   2   2   2   2   2   2   2
#     4  10  19  34  55  80 110 143 183 227 276 327
#     4  11  20  34  57  83 110 142 181 230 279 323
#     4  10  22  39  57  78 111 151 186 225 275 330
#     4   8  17  32  52  81 110 136 172 226 276 320
#     4  10  20  35  56  83 110 140 184 231 272 324
#     4  11  23  38  54  79 114 150 187 225 272 332
#     4  10  19  34  55  81 112 143 182 226 273 327
#     4  10  19  32  54  83 113 141 177 226 279 329
#
# _framework density 18.328305
#
# number of rings (size 3 to 8) (size 9 to 14) (size 15 to 20)
#    0.000    2.000    2.500    2.625    0.000    1.500 
#    0.000    3.125    0.000    4.500    0.000    0.000 
#    0.000    0.000    0.000    0.000    0.000    0.000 
#
# Total GULP energy -198399.349277 kJ/mol
# GULP energy per Si atom -12399.959330 kJ/mol
# Density = 1.828659 g / cm^3
# Si number density = 18.328305 Si / 1000 Ang^3
#
#
#
# Elastic Constant Matrix: (Units=GPa)
#
#
# Indices 1 2 3 4 5 6 
#
# 1 85.7325 29.2938 55.1765 0.0000 9.0971 0.0000
# 2 29.2938 64.7243 45.5659 0.0000 13.9371 0.0000
# 3 55.1765 45.5659 160.5240 0.0000 8.7441 0.0000
# 4 0.0000 0.0000 0.0000 31.1756 0.0000 4.6854
# 5 9.0971 13.9371 8.7441 0.0000 26.6367 0.0000
# 6 0.0000 0.0000 0.0000 4.6854 0.0000 12.2078
#
#
#
# Elastic Compliance Matrix: (Units=1/GPa)
#
#
# Indices 1 2 3 4 5 6 
#
# 1 0.015929 -0.003734 -0.004302 0.000000 -0.002074 0.000000
# 2 -0.003734 0.022255 -0.004550 0.000000 -0.008875 0.000000
# 3 -0.004302 -0.004550 0.008950 0.000000 0.000912 0.000000
# 4 0.000000 0.000000 0.000000 0.034040 0.000000 -0.013065
# 5 -0.002074 -0.008875 0.000912 0.000000 0.042595 0.000000
# 6 0.000000 0.000000 0.000000 -0.013065 0.000000 0.086929
#
#
# Mechanical properties :
#
#
# Convention : Reuss Voigt Hill
#
# Bulk Modulus (GPa) = 45.53521 63.45035 54.49278
# Shear Modulus (GPa) = 20.55995 26.06700 23.31348
#
# Velocity S-wave (km/s) = 3.35290 3.77533 3.57037
# Velocity P-wave (km/s) = 6.31565 7.32790 6.84052
#
# Compressibility (1/GPa) = 0.02196103
#
# Stress axis : x y z
#
# Youngs Moduli (GPa) = 62.77829 44.93465 111.72713
#
# Poissons Ratio (x) = 0.16778 0.48069
# Poissons Ratio (y) = 0.23441 0.50838
# Poissons Ratio (z) = 0.27010 0.20446
#
# Static dielectric constant tensor:
#      x y z
#    x 3.246010 0.000000 -0.149480 
#    y 0.000000 3.331030 0.000000 
#    z -0.149480 0.000000 3.733310 
# 
# 
# High freq. dielectric constant tensor:
#      x y z
#    x 1.675760 0.000000 -0.007990 
#    y 0.000000 1.711240 0.000000 
#    z -0.007990 0.000000 1.729940 
# 
# From -- ./inp_files/3767.got.cif
#   From: 2010.03.12/outbox.cif.g09.slc.cpg/sg6_2_cif.got.tgz:3767.got - 2010.03.30 10:24:59.
