data_PCOD8052401
_publ_section_title
;
Structure prediction by ZEFSAII (Michael W. Deem and Ramdas Pophale) SiO2 
 PCOD8052401
Probable space group: P M
;
_chemical_formula_sum "Si O2"
_cell_formula_units_Z 16
_cell_length_a 8.963482
_cell_length_b 8.864506
_cell_length_c 12.792851
_cell_angle_alpha 90.000000
_cell_angle_beta 52.090592
_cell_angle_gamma 90.000000
_cell_volume 801.985269
_symmetry_space_group_name_H-M "P M"
_symmetry_group_IT_number 6
_symmetry_cell_setting 'monoclinic'
loop_
_space_group_symop_operation_xyz
x,y,z
x,-y,z
loop_
_atom_site_type_symbol
_atom_site_label
_atom_site_fract_x
_atom_site_fract_y
_atom_site_fract_z
Si Si1 0.421710 0.170000 0.157160
Si Si2 0.076916 0.820604 0.656235
Si Si3 0.462857 0.178264 0.819294
Si Si4 0.841163 0.326605 0.349535
Si Si5 0.121745 0.677006 0.417488
Si Si6 0.473030 0.822140 0.578575
Si Si7 0.709824 0.679195 0.890765
Si Si8 0.126000 0.166356 0.097344
O O1 0.326177 0.258687 0.294757
O O2 0.277789 0.166314 0.123998
O O3 0.473280 0.000000 0.170830
O O4 0.609548 0.256259 0.038081
O O5 0.049579 0.762740 0.550455
O O6 0.278832 0.764355 0.611684
O O7 0.920601 0.745581 0.797915
O O8 0.054440 0.000000 0.668708
O O9 0.491923 0.236080 0.689163
O O10 0.605048 0.271341 0.829955
O O11 0.504431 0.000000 0.815978
O O12 0.243248 0.213320 0.943498
O O13 0.790846 0.500000 0.364120
O O14 0.645556 0.237742 0.435699
O O15 0.965798 0.287165 0.396961
O O16 0.956125 0.280794 0.195425
O O17 0.141363 0.500000 0.430634
O O18 0.477778 0.000000 0.575379
O O19 0.713350 0.500000 0.895582
O O20 0.036982 0.000000 0.122952
#
# Coordination Sequence:
#
# PCOD8052401 Si02
#       8
#     2   2   2   2   2   2   2   2
#     4   9  17  32  55  82 109 140 176 217 263 315
#     4  11  23  38  54  75 105 145 187 225 265 316
#     4   9  18  35  58  82 105 134 175 223 268 316
#     4  10  20  33  53  80 108 137 171 212 263 318
#     4  10  20  35  56  84 112 139 174 220 270 320
#     4  10  22  38  55  75 103 140 182 223 264 311
#     4  11  21  34  55  83 111 141 176 220 270 319
#     4   8  15  29  52  79 105 132 167 212 261 309
#
# _framework density 19.950493000000002
#
# number of rings (size 3 to 8) (size 9 to 14) (size 15 to 20)
#    0.000    2.250    0.000    4.125    0.000    8.000 
#    0.000    1.250    0.000    6.000    0.000    0.000 
#    0.000    0.000    0.000    0.000    0.000    0.000 
#
# Total GULP energy -198414.068880 kJ/mol
# GULP energy per Si atom -12400.879305 kJ/mol
# Density = 1.990508 g / cm^3
# Si number density = 19.950493 Si / 1000 Ang^3
#
#
#
# Elastic Constant Matrix: (Units=GPa)
#
#
# Indices 1 2 3 4 5 6 
#
# 1 51.5221 27.8510 20.8105 0.0000 -24.6256 0.0000
# 2 27.8510 82.6376 29.2556 0.0000 -14.7455 0.0000
# 3 20.8105 29.2556 98.5570 0.0000 -36.9324 0.0000
# 4 0.0000 0.0000 0.0000 31.6974 0.0000 -4.2299
# 5 -24.6256 -14.7455 -36.9324 0.0000 26.2396 0.0000
# 6 0.0000 0.0000 0.0000 -4.2299 0.0000 16.9309
#
#
#
# Elastic Compliance Matrix: (Units=1/GPa)
#
#
# Indices 1 2 3 4 5 6 
#
# 1 0.048699 -0.011065 0.016501 0.000000 0.062711 0.000000
# 2 -0.011065 0.016250 -0.006257 0.000000 -0.010058 0.000000
# 3 0.016501 -0.006257 0.027520 0.000000 0.050705 0.000000
# 4 0.000000 0.000000 0.000000 0.032636 0.000000 0.008154
# 5 0.062711 -0.010058 0.050705 0.000000 0.162679 0.000000
# 6 0.000000 0.000000 0.000000 0.008154 0.000000 0.061101
#
#
# Mechanical properties :
#
#
# Convention : Reuss Voigt Hill
#
# Bulk Modulus (GPa) = 11.00964 43.17231 27.09098
# Shear Modulus (GPa) = 13.13020 25.29354 19.21187
#
# Velocity S-wave (km/s) = 2.56821 3.56450 3.10655
# Velocity P-wave (km/s) = 3.78480 6.21511 5.14550
#
# Compressibility (1/GPa) = 0.09082946
#
# Stress axis : x y z
#
# Youngs Moduli (GPa) = 20.53450 61.53727 36.33703
#
# Poissons Ratio (x) = 0.68089 -0.59961
# Poissons Ratio (y) = 0.22721 0.22734
# Poissons Ratio (z) = -0.33885 0.38501
#
# Static dielectric constant tensor:
#      x y z
#    x 3.309250 0.000000 -0.145160 
#    y 0.000000 3.584330 0.000000 
#    z -0.145160 0.000000 3.951820 
# 
# 
# High freq. dielectric constant tensor:
#      x y z
#    x 1.741200 0.000000 -0.016720 
#    y 0.000000 1.777840 0.000000 
#    z -0.016720 0.000000 1.794970 
# 
# From -- ./inp_files/3819.got.cif
#   From: 2010.03.12/outbox.cif.g09.slc.cpg/sg6_2_cif.got.tgz:3819.got - 2010.03.30 10:24:59.
