data_PCOD8052635
_publ_section_title
;
Structure prediction by ZEFSAII (Michael W. Deem and Ramdas Pophale) SiO2 
 PCOD8052635
Probable space group: P C
;
_chemical_formula_sum "Si O2"
_cell_formula_units_Z 14
_cell_length_a 23.066571
_cell_length_b 8.324929
_cell_length_c 5.224164
_cell_angle_alpha 90.000000
_cell_angle_beta 40.316196
_cell_angle_gamma 90.000000
_cell_volume 649.065079
_symmetry_space_group_name_H-M "P C"
_symmetry_group_IT_number 7
_symmetry_cell_setting 'monoclinic'
loop_
_space_group_symop_operation_xyz
x,y,z
x,-y,1/2+z
loop_
_atom_site_type_symbol
_atom_site_label
_atom_site_fract_x
_atom_site_fract_y
_atom_site_fract_z
Si Si1 0.261010 0.111888 0.697560
Si Si2 0.128190 0.600524 0.645749
Si Si3 0.917930 0.593527 0.342729
Si Si4 0.605281 0.594766 0.060946
Si Si5 0.886468 0.943641 0.526097
Si Si6 0.689613 0.922758 0.723086
Si Si7 0.398979 0.603904 0.730816
O O1 0.347070 0.227936 0.408220
O O2 0.261536 0.000257 0.445495
O O3 0.173340 0.224950 0.993086
O O4 0.157726 0.499615 0.296781
O O5 0.022672 0.633276 0.003506
O O6 0.889494 0.472125 0.662221
O O7 0.864150 0.757197 0.568368
O O8 0.625134 0.541444 0.283938
O O9 0.503020 0.652363 0.378408
O O10 0.674068 0.734494 0.763615
O O11 0.941715 0.019521 0.101266
O O12 0.795552 0.044238 0.879164
O O13 0.643567 0.004330 0.631684
O O14 0.373415 0.501964 0.564743
#
# Coordination Sequence:
#
# PCOD8052635 Si02
#       7
#     2   2   2   2   2   2   2
#     4  12  24  36  56  90 120 148 188 234 280 332
#     4  10  21  39  60  81 113 155 191 230 280 331
#     4  10  21  38  61  85 109 147 197 236 271 331
#     4  10  21  38  61  85 109 147 197 236 271 331
#     4  10  21  38  56  81 114 147 180 227 293 341
#     4  10  21  38  56  81 114 147 180 227 293 341
#     4  10  21  39  60  81 113 155 191 230 280 331
#
# _framework density 21.569483999999999
#
# number of rings (size 3 to 8) (size 9 to 14) (size 15 to 20)
#    0.000    1.714    0.000    4.286    0.000    2.286 
#    0.000   17.143    0.000    0.000    0.000    0.000 
#    0.000    0.000    0.000    0.000    0.000    0.000 
#
# Total GULP energy -173583.005386 kJ/mol
# GULP energy per Si atom -12398.786099 kJ/mol
# Density = 2.152039 g / cm^3
# Si number density = 21.569484 Si / 1000 Ang^3
#
#
#
# Elastic Constant Matrix: (Units=GPa)
#
#
# Indices 1 2 3 4 5 6 
#
# 1 77.0528 42.2688 58.1336 0.0000 41.3642 0.0000
# 2 42.2688 129.1238 49.2132 0.0000 17.6953 0.0000
# 3 58.1336 49.2132 73.7572 0.0000 37.3563 0.0000
# 4 0.0000 0.0000 0.0000 43.7641 0.0000 7.2887
# 5 41.3642 17.6953 37.3563 0.0000 47.7736 0.0000
# 6 0.0000 0.0000 0.0000 7.2887 0.0000 36.0469
#
#
#
# Elastic Compliance Matrix: (Units=1/GPa)
#
#
# Indices 1 2 3 4 5 6 
#
# 1 0.038662 -0.002647 -0.020280 0.000000 -0.016636 0.000000
# 2 -0.002647 0.010766 -0.007018 0.000000 0.003791 0.000000
# 3 -0.020280 -0.007018 0.039762 0.000000 -0.010933 0.000000
# 4 0.000000 0.000000 0.000000 0.023646 0.000000 -0.004781
# 5 -0.016636 0.003791 -0.010933 0.000000 0.042481 0.000000
# 6 0.000000 0.000000 0.000000 -0.004781 0.000000 0.028708
#
#
# Mechanical properties :
#
#
# Convention : Reuss Voigt Hill
#
# Bulk Modulus (GPa) = 34.12887 64.35166 49.24027
# Shear Modulus (GPa) = 19.70979 34.20481 26.95730
#
# Velocity S-wave (km/s) = 3.02616 3.98653 3.53907
# Velocity P-wave (km/s) = 5.29786 7.14767 6.29113
#
# Compressibility (1/GPa) = 0.02930071
#
# Stress axis : x y z
#
# Youngs Moduli (GPa) = 25.86540 92.88570 25.14961
#
# Poissons Ratio (x) = 0.24583 0.51004
# Poissons Ratio (y) = 0.06845 0.17649
# Poissons Ratio (z) = 0.52456 0.65183
#
# Static dielectric constant tensor:
#      x y z
#    x 4.900990 0.000000 0.956490 
#    y 0.000000 3.781170 0.000000 
#    z 0.956490 0.000000 4.390030 
# 
# 
# High freq. dielectric constant tensor:
#      x y z
#    x 1.855410 0.000000 0.029730 
#    y 0.000000 1.849970 0.000000 
#    z 0.029730 0.000000 1.849240 
# 
# From -- ./inp_files/1328.got.cif
#   From: 2010.03.12/outbox.cif.g09.slc.cpg/sg7_cif.got.tgz:1328.got - 2010.03.30 08:40:41.
