data_PCOD8052346
_publ_section_title
;
Structure prediction by ZEFSAII (Michael W. Deem and Ramdas Pophale) SiO2 
 PCOD8052346
Probable space group: P M
;
_chemical_formula_sum "Si O2"
_cell_formula_units_Z 16
_cell_length_a 21.880217
_cell_length_b 9.034811
_cell_length_c 9.806450
_cell_angle_alpha 90.000000
_cell_angle_beta 26.512796
_cell_angle_gamma 90.000000
_cell_volume 865.375178
_symmetry_space_group_name_H-M "P M"
_symmetry_group_IT_number 6
_symmetry_cell_setting 'monoclinic'
loop_
_space_group_symop_operation_xyz
x,y,z
x,-y,z
loop_
_atom_site_type_symbol
_atom_site_label
_atom_site_fract_x
_atom_site_fract_y
_atom_site_fract_z
Si Si1 0.363230 0.828946 0.989600
Si Si2 0.129236 0.825639 0.814836
Si Si3 0.428913 0.174786 0.163184
Si Si4 0.056196 0.173750 0.665449
Si Si5 0.866920 0.325004 0.835259
Si Si6 0.635064 0.326085 0.946728
Si Si7 0.911189 0.824038 0.469619
Si Si8 0.560357 0.670722 0.396501
O O1 0.437239 0.751072 0.716953
O O2 0.386930 0.000000 0.919603
O O3 0.427592 0.782699 0.006269
O O4 0.202533 0.791122 0.304611
O O5 0.285685 0.770109 0.515936
O O6 0.058764 0.768460 0.816221
O O7 0.137006 0.000000 0.781884
O O8 0.042920 0.776347 0.117852
O O9 0.452466 0.000000 0.138088
O O10 0.550062 0.266590 0.989195
O O11 0.939183 0.269115 0.827096
O O12 0.020978 0.000000 0.724404
O O13 0.883870 0.500000 0.782274
O O14 0.935862 0.244390 0.568746
O O15 0.707543 0.279659 0.161991
O O16 0.663263 0.500000 0.875089
O O17 0.779131 0.242385 0.659275
O O18 0.554275 0.291551 0.248010
O O19 0.896225 0.000000 0.509887
O O20 0.537508 0.500000 0.469217
#
# Coordination Sequence:
#
# PCOD8052346 Si02
#       8
#     2   2   2   2   2   2   2   2
#     4   9  19  34  54  78 102 129 169 213 252 295
#     4   8  17  34  55  77 102 129 167 214 253 293
#     4   9  18  35  55  76 102 133 167 208 253 300
#     4   9  18  35  55  76 102 133 167 208 253 300
#     4  10  21  36  51  74 106 137 168 207 251 300
#     4  10  21  36  51  74 106 137 168 207 251 300
#     4  10  19  34  56  79 100 131 171 210 252 299
#     4   9  20  36  51  70 102 137 169 205 251 301
#
# _framework density 18.489089
#
# number of rings (size 3 to 8) (size 9 to 14) (size 15 to 20)
#    0.000    2.750    0.000    3.375    0.000    6.000 
#    0.000   11.875    0.000    0.000    0.000    0.000 
#    0.000    0.000    0.000    0.000    0.000    0.000 
#
# Total GULP energy -198384.971944 kJ/mol
# GULP energy per Si atom -12399.060746 kJ/mol
# Density = 1.844701 g / cm^3
# Si number density = 18.489089 Si / 1000 Ang^3
#
#
#
# Elastic Constant Matrix: (Units=GPa)
#
#
# Indices 1 2 3 4 5 6 
#
# 1 49.4208 8.0206 -21.2942 0.0000 -10.9816 0.0000
# 2 8.0206 47.6885 13.4256 0.0000 1.8120 0.0000
# 3 -21.2942 13.4256 41.5892 0.0000 10.0913 0.0000
# 4 0.0000 0.0000 0.0000 14.4789 0.0000 2.3453
# 5 -10.9816 1.8120 10.0913 0.0000 19.2915 0.0000
# 6 0.0000 0.0000 0.0000 2.3453 0.0000 21.4128
#
#
#
# Elastic Compliance Matrix: (Units=1/GPa)
#
#
# Indices 1 2 3 4 5 6 
#
# 1 0.031529 -0.010499 0.017110 0.000000 0.009984 0.000000
# 2 -0.010499 0.026628 -0.013647 0.000000 -0.001339 0.000000
# 3 0.017110 -0.013647 0.039557 0.000000 -0.009670 0.000000
# 4 0.000000 0.000000 0.000000 0.070314 0.000000 -0.007701
# 5 0.009984 -0.001339 -0.009670 0.000000 0.062704 0.000000
# 6 0.000000 0.000000 0.000000 -0.007701 0.000000 0.047545
#
#
# Mechanical properties :
#
#
# Convention : Reuss Voigt Hill
#
# Bulk Modulus (GPa) = 11.95562 15.44473 13.70018
# Shear Modulus (GPa) = 15.61385 20.27305 17.94345
#
# Velocity S-wave (km/s) = 2.90916 3.31492 3.11865
# Velocity P-wave (km/s) = 4.21481 4.79824 4.51596
#
# Compressibility (1/GPa) = 0.08364268
#
# Stress axis : x y z
#
# Youngs Moduli (GPa) = 31.71687 37.55450 25.27996
#
# Poissons Ratio (x) = 0.39429 -0.43254
# Poissons Ratio (y) = 0.33300 0.34499
# Poissons Ratio (z) = -0.54267 0.51249
#
# Static dielectric constant tensor:
#      x y z
#    x 3.371160 0.000000 0.031800 
#    y 0.000000 3.221950 0.000000 
#    z 0.031800 0.000000 3.526180 
# 
# 
# High freq. dielectric constant tensor:
#      x y z
#    x 1.719510 0.000000 0.000320 
#    y 0.000000 1.705640 0.000000 
#    z 0.000320 0.000000 1.716770 
# 
# From -- ./inp_files/4263.got.cif
#   From: 2010.03.12/outbox.cif.g09.slc.cpg/sg6_3_cif.got.tgz:4263.got - 2010.03.30 10:24:59.
