data_PCOD8052758
_publ_section_title
;
Structure prediction by ZEFSAII (Michael W. Deem and Ramdas Pophale) SiO2 
 PCOD8052758
Probable space group: C M
;
_chemical_formula_sum "Si O2"
_cell_formula_units_Z 32
_cell_length_a 23.200034
_cell_length_b 9.093260
_cell_length_c 28.065451
_cell_angle_alpha 90.000000
_cell_angle_beta 161.352800
_cell_angle_gamma 90.000000
_cell_volume 1893.115814
_symmetry_space_group_name_H-M "C M"
_symmetry_group_IT_number 8
_symmetry_cell_setting 'monoclinic'
loop_
_space_group_symop_operation_xyz
x,y,z
x,-y,z
1/2+x,1/2+y,z
1/2+x,1/2-y,z
loop_
_atom_site_type_symbol
_atom_site_label
_atom_site_fract_x
_atom_site_fract_y
_atom_site_fract_z
Si Si1 0.452710 0.837971 0.600480
Si Si2 0.643708 0.674092 0.426469
Si Si3 0.248142 0.826689 0.785604
Si Si4 0.410157 0.672223 0.821209
Si Si5 0.817355 0.161647 0.928293
Si Si6 0.326937 0.171280 0.133044
Si Si7 0.865232 0.672068 0.691634
Si Si8 0.776417 0.172061 0.999925
O O1 0.271888 0.774795 0.482933
O O2 0.539512 0.727552 0.629074
O O3 0.599406 0.856113 0.757839
O O4 0.417507 0.000000 0.549968
O O5 0.617577 0.500000 0.404303
O O6 0.452776 0.754220 0.271406
O O7 0.728437 0.722129 0.543159
O O8 0.326541 0.753036 0.800518
O O9 0.369849 0.774385 0.926776
O O10 0.255809 0.000000 0.786829
O O11 0.370120 0.500000 0.793354
O O12 0.315117 0.736491 0.699652
O O13 0.622488 0.706861 0.987091
O O14 0.868782 0.217331 0.021663
O O15 0.904426 0.000000 0.986621
O O16 0.367228 0.000000 0.162891
O O17 0.374380 0.238422 0.118440
O O18 0.846976 0.500000 0.688800
O O19 0.066648 0.714168 0.833850
O O20 0.803897 0.000000 0.031310
#
# Coordination Sequence:
#
# PCOD8052758 Si02
#       8
#     4   4   4   4   4   4   4   4
#     4   8  15  29  48  72  97 123 154 191 235 285
#     4  10  18  32  52  74 100 131 160 190 239 296
#     4  10  18  28  47  74  97 122 160 204 243 278
#     4  10  20  34  48  67  97 133 166 199 239 284
#     4   8  14  27  47  71  96 121 151 191 236 283
#     4  10  22  33  45  70 104 134 161 197 239 283
#     4   9  16  28  49  73  94 119 160 206 239 278
#     4   9  15  29  50  71  95 125 160 196 238 287
#
# _framework density 16.90335
#
# number of rings (size 3 to 8) (size 9 to 14) (size 15 to 20)
#    0.750    2.000    1.250    1.500    0.000    3.000 
#    0.000    1.250    0.000    1.500    0.000    8.750 
#    0.000    0.000    0.000    0.000    0.000    0.000 
#
# Total GULP energy -198248.936039 kJ/mol
# GULP energy per Si atom -12390.558502 kJ/mol
# Density = 1.686488 g / cm^3
# Si number density = 16.903350 Si / 1000 Ang^3
#
#
#
# Elastic Constant Matrix: (Units=GPa)
#
#
# Indices 1 2 3 4 5 6 
#
# 1 125.3945 68.6965 39.2067 0.0317 -16.3950 0.0051
# 2 68.6965 91.6463 40.9784 0.0805 -10.4890 0.0250
# 3 39.2067 40.9784 76.9137 0.1293 -17.0157 0.0517
# 4 0.0317 0.0805 0.1293 23.0610 0.0089 -3.6903
# 5 -16.3950 -10.4890 -17.0157 0.0089 18.5732 -0.0028
# 6 0.0051 0.0250 0.0517 -3.6903 -0.0028 29.1871
#
#
#
# Elastic Compliance Matrix: (Units=1/GPa)
#
#
# Indices 1 2 3 4 5 6 
#
# 1 0.014370 -0.009707 -0.000702 0.000017 0.006559 0.000010
# 2 -0.009707 0.020909 -0.006867 -0.000021 -0.003051 -0.000007
# 3 -0.000702 -0.006867 0.020096 -0.000100 0.013913 -0.000041
# 4 0.000017 -0.000021 -0.000100 0.044259 -0.000108 0.005596
# 5 0.006559 -0.003051 0.013913 -0.000108 0.070655 -0.000030
# 6 0.000010 -0.000007 -0.000041 0.005596 -0.000030 0.034969
#
#
# Mechanical properties :
#
#
# Convention : Reuss Voigt Hill
#
# Bulk Modulus (GPa) = 48.02345 65.74643 56.88494
# Shear Modulus (GPa) = 20.26335 23.83577 22.04956
#
# Velocity S-wave (km/s) = 3.46609 3.75923 3.61563
# Velocity P-wave (km/s) = 6.67013 7.60410 7.15238
#
# Compressibility (1/GPa) = 0.02082316
#
# Stress axis : x y z
#
# Youngs Moduli (GPa) = 69.59080 47.82716 49.76006
#
# Poissons Ratio (x) = 0.46424 0.03495
# Poissons Ratio (y) = 0.67549 0.34170
# Poissons Ratio (z) = 0.04888 0.32842
#
# Static dielectric constant tensor:
#      x y z
#    x 3.080170 0.000000 -0.144610 
#    y 0.000000 3.084400 -0.000070 
#    z -0.144610 -0.000070 2.908390 
# 
# 
# High freq. dielectric constant tensor:
#      x y z
#    x 1.643920 0.000000 -0.015260 
#    y 0.000000 1.648920 -0.000010 
#    z -0.015260 -0.000010 1.615100 
# 
# From -- ./inp_files/32625.got.cif
#   From: 2010.03.12/outbox.cif.g09.slc.cpg/sg8_17_cif.got.tgz:32625.got - 2010.03.31 10:45:26.
