data_PCOD8052589
_publ_section_title
;
Structure prediction by ZEFSAII (Michael W. Deem and Ramdas Pophale) SiO2 
 PCOD8052589
Probable space group: P C
;
_chemical_formula_sum "Si O2"
_cell_formula_units_Z 16
_cell_length_a 7.543512
_cell_length_b 16.735450
_cell_length_c 5.354011
_cell_angle_alpha 90.000000
_cell_angle_beta 57.956292
_cell_angle_gamma 90.000000
_cell_volume 572.932591
_symmetry_space_group_name_H-M "P C"
_symmetry_group_IT_number 7
_symmetry_cell_setting 'monoclinic'
loop_
_space_group_symop_operation_xyz
x,y,z
x,-y,1/2+z
loop_
_atom_site_type_symbol
_atom_site_label
_atom_site_fract_x
_atom_site_fract_y
_atom_site_fract_z
Si Si1 0.743120 0.788364 0.333980
Si Si2 0.282190 0.723812 0.631942
Si Si3 0.260058 0.965096 0.963883
Si Si4 0.257406 0.541665 0.561833
Si Si5 0.742739 0.034369 0.022053
Si Si6 0.262544 0.213208 0.643069
Si Si7 0.758989 0.458210 0.405841
Si Si8 0.727063 0.275527 0.342560
O O1 0.496352 0.773311 0.495252
O O2 0.787309 0.879095 0.373578
O O3 0.843968 0.737443 0.488982
O O4 0.849605 0.761643 0.990823
O O5 0.331584 0.631546 0.549805
O O6 0.163635 0.735523 0.986236
O O7 0.156504 0.759546 0.486051
O O8 0.501261 0.986273 0.743453
O O9 0.216962 0.877540 0.104875
O O10 0.160613 0.979254 0.760525
O O11 0.345990 0.511927 0.226712
O O12 0.008180 0.536959 0.733963
O O13 0.841316 0.977910 0.727322
O O14 0.509183 0.228318 0.483511
O O15 0.670312 0.488444 0.740513
O O16 0.685168 0.368260 0.419274
#
# Coordination Sequence:
#
# PCOD8052589 Si02
#       8
#     2   2   2   2   2   2   2   2
#     4  10  19  32  45  73 108 129 155 193 237 292
#     4  10  19  32  49  69  99 130 152 195 248 284
#     4  10  18  26  43  66 100 136 163 189 222 274
#     4  10  21  38  56  72  91 120 164 209 242 281
#     4  10  18  26  43  66 100 136 163 189 222 274
#     4  10  19  32  45  73 108 129 155 193 237 292
#     4  10  21  38  56  72  91 120 164 209 242 281
#     4  10  19  32  49  69  99 130 152 195 248 284
#
# _framework density 27.926497000000001
#
# number of rings (size 3 to 8) (size 9 to 14) (size 15 to 20)
#    0.000    2.000    2.500    3.000    7.000    0.000 
#    0.000   15.000    0.000    0.000    0.000    0.000 
#    0.000   34.000    0.000    0.000    0.000    0.000 
#
# Total GULP energy -198278.502778 kJ/mol
# GULP energy per Si atom -12392.406424 kJ/mol
# Density = 2.786293 g / cm^3
# Si number density = 27.926497 Si / 1000 Ang^3
#
#
#
# Elastic Constant Matrix: (Units=GPa)
#
#
# Indices 1 2 3 4 5 6 
#
# 1 98.3946 13.9223 57.6241 0.0000 49.0877 0.0000
# 2 13.9223 223.4500 92.9717 0.0000 52.8189 0.0000
# 3 57.6241 92.9717 291.6422 0.0000 65.1261 0.0000
# 4 0.0000 0.0000 0.0000 48.3989 0.0000 25.6802
# 5 49.0877 52.8189 65.1261 0.0000 54.2842 0.0000
# 6 0.0000 0.0000 0.0000 25.6802 0.0000 24.1370
#
#
#
# Elastic Compliance Matrix: (Units=1/GPa)
#
#
# Indices 1 2 3 4 5 6 
#
# 1 0.021164 0.004242 -0.000463 0.000000 -0.022711 0.000000
# 2 0.004242 0.006804 -0.000918 0.000000 -0.009355 0.000000
# 3 -0.000463 -0.000918 0.004808 0.000000 -0.004457 0.000000
# 4 0.000000 0.000000 0.000000 0.047445 0.000000 -0.050479
# 5 -0.022711 -0.009355 -0.004457 0.000000 0.053408 0.000000
# 6 0.000000 0.000000 0.000000 -0.050479 0.000000 0.095136
#
#
# Mechanical properties :
#
#
# Convention : Reuss Voigt Hill
#
# Bulk Modulus (GPa) = 25.97470 104.72477 65.34973
# Shear Modulus (GPa) = 21.19756 55.29527 38.24642
#
# Velocity S-wave (km/s) = 2.75807 4.45458 3.70474
# Velocity P-wave (km/s) = 4.41179 8.00245 6.46155
#
# Compressibility (1/GPa) = 0.03849901
#
# Stress axis : x y z
#
# Youngs Moduli (GPa) = 47.25054 146.96447 207.97719
#
# Poissons Ratio (x) = -0.62344 0.09619
# Poissons Ratio (y) = -0.20044 0.19098
# Poissons Ratio (z) = 0.02185 0.13495
#
# Static dielectric constant tensor:
#      x y z
#    x 5.465770 0.000000 1.415130 
#    y 0.000000 4.656180 0.000000 
#    z 1.415130 0.000000 6.576270 
# 
# 
# High freq. dielectric constant tensor:
#      x y z
#    x 2.163040 0.000000 0.009660 
#    y 0.000000 2.100870 0.000000 
#    z 0.009660 0.000000 2.176610 
# 
# From -- ./inp_files/637.got.cif
#   From: 2010.03.12/outbox.cif.g09.slc.cpg/sg7_cif.got.tgz:637.got - 2010.03.30 08:40:41.
