data_PCOD8052628
_publ_section_title
;
Structure prediction by ZEFSAII (Michael W. Deem and Ramdas Pophale) SiO2 
 PCOD8052628
Probable space group: P C
;
_chemical_formula_sum "Si O2"
_cell_formula_units_Z 14
_cell_length_a 8.824072
_cell_length_b 16.351031
_cell_length_c 5.162085
_cell_angle_alpha 90.000000
_cell_angle_beta 122.340251
_cell_angle_gamma 90.000000
_cell_volume 629.270788
_symmetry_space_group_name_H-M "P C"
_symmetry_group_IT_number 7
_symmetry_cell_setting 'monoclinic'
loop_
_space_group_symop_operation_xyz
x,y,z
x,-y,1/2+z
loop_
_atom_site_type_symbol
_atom_site_label
_atom_site_fract_x
_atom_site_fract_y
_atom_site_fract_z
Si Si1 0.672850 0.036445 0.797180
Si Si2 0.065010 0.031508 0.520846
Si Si3 0.138313 0.688321 0.441490
Si Si4 0.557369 0.209911 0.845776
Si Si5 0.141180 0.208390 0.447581
Si Si6 0.556286 0.312385 0.349435
Si Si7 0.844904 0.553344 0.175018
O O1 0.671131 0.128941 0.896122
O O2 0.577863 0.020220 0.433477
O O3 0.878493 0.008799 0.951007
O O4 0.036598 0.124133 0.400007
O O5 0.169450 0.978323 0.392607
O O6 0.088899 0.730855 0.128046
O O7 0.347157 0.664177 0.644926
O O8 0.026614 0.605521 0.337971
O O9 0.084271 0.749256 0.626146
O O10 0.349943 0.185826 0.642666
O O11 0.607658 0.273699 0.670188
O O12 0.609120 0.249516 0.168582
O O13 0.670171 0.394507 0.440134
O O14 0.842853 0.518357 0.462823
#
# Coordination Sequence:
#
# PCOD8052628 Si02
#       7
#     2   2   2   2   2   2   2
#     4  10  21  34  51  81 117 155 202 251 305 350
#     4  10  21  34  51  81 117 155 202 251 305 350
#     4  10  23  43  66  91 122 162 204 249 301 360
#     4  10  21  39  61  85 118 163 211 255 300 357
#     4  10  21  39  61  85 118 163 211 255 300 357
#     4  10  23  43  66  91 122 162 204 249 301 360
#     4  12  26  42  66 100 128 156 194 242 306 376
#
# _framework density 22.247973999999999
#
# number of rings (size 3 to 8) (size 9 to 14) (size 15 to 20)
#    0.000    1.714    0.000    3.429    0.000    9.143 
#    0.000    0.000    0.000    0.000    0.000    0.000 
#    0.000    0.000    0.000    0.000    0.000    0.000 
#
# Total GULP energy -173533.418421 kJ/mol
# GULP energy per Si atom -12395.244173 kJ/mol
# Density = 2.219734 g / cm^3
# Si number density = 22.247974 Si / 1000 Ang^3
#
#
#
# Elastic Constant Matrix: (Units=GPa)
#
#
# Indices 1 2 3 4 5 6 
#
# 1 89.2642 62.5434 56.9966 0.0000 -21.0310 0.0000
# 2 62.5434 118.7266 21.9495 0.0000 7.5565 0.0000
# 3 56.9966 21.9495 79.4069 0.0000 -22.8204 0.0000
# 4 0.0000 0.0000 0.0000 32.8572 0.0000 -15.3471
# 5 -21.0310 7.5565 -22.8204 0.0000 44.3166 0.0000
# 6 0.0000 0.0000 0.0000 -15.3471 0.0000 26.6597
#
#
#
# Elastic Compliance Matrix: (Units=1/GPa)
#
#
# Indices 1 2 3 4 5 6 
#
# 1 0.038586 -0.017396 -0.019686 0.000000 0.011141 0.000000
# 2 -0.017396 0.017139 0.005325 0.000000 -0.008436 0.000000
# 3 -0.019686 0.005325 0.026180 0.000000 0.003231 0.000000
# 4 0.000000 0.000000 0.000000 0.041628 0.000000 0.023964
# 5 0.011141 -0.008436 0.003231 0.000000 0.030954 0.000000
# 6 0.000000 0.000000 0.000000 0.023964 0.000000 0.051305
#
#
# Mechanical properties :
#
#
# Convention : Reuss Voigt Hill
#
# Bulk Modulus (GPa) = 54.37591 63.37521 58.87556
# Shear Modulus (GPa) = 18.15291 30.49389 24.32340
#
# Velocity S-wave (km/s) = 2.85956 3.70623 3.31007
# Velocity P-wave (km/s) = 5.94951 6.84562 6.41323
#
# Compressibility (1/GPa) = 0.01839050
#
# Stress axis : x y z
#
# Youngs Moduli (GPa) = 25.91616 58.34539 38.19659
#
# Poissons Ratio (x) = 1.01499 0.75194
# Poissons Ratio (y) = 0.45084 -0.20338
# Poissons Ratio (z) = 0.51018 -0.31066
#
# Static dielectric constant tensor:
#      x y z
#    x 4.312000 0.000000 -0.779640 
#    y 0.000000 3.801220 0.000000 
#    z -0.779640 0.000000 5.601760 
# 
# 
# High freq. dielectric constant tensor:
#      x y z
#    x 1.883840 0.000000 -0.023320 
#    y 0.000000 1.867840 0.000000 
#    z -0.023320 0.000000 1.895590 
# 
# From -- ./inp_files/612.got.cif
#   From: 2010.03.12/outbox.cif.g09.slc.cpg/sg7_cif.got.tgz:612.got - 2010.03.30 08:40:41.
