data_PCOD8052002
_publ_section_title
;
Structure prediction by ZEFSAII (Michael W. Deem and Ramdas Pophale) SiO2 
 PCOD8052002
Probable space group: C 2
;
_chemical_formula_sum "Si O2"
_cell_formula_units_Z 26
_cell_length_a 11.304353
_cell_length_b 10.622135
_cell_length_c 17.312946
_cell_angle_alpha 90.000000
_cell_angle_beta 146.778889
_cell_angle_gamma 90.000000
_cell_volume 1138.956688
_symmetry_space_group_name_H-M "C 2"
_symmetry_group_IT_number 5
_symmetry_cell_setting 'monoclinic'
loop_
_space_group_symop_operation_xyz
x,y,z
-x,y,-z
1/2+x,1/2+y,z
1/2-x,1/2+y,-z
loop_
_atom_site_type_symbol
_atom_site_label
_atom_site_fract_x
_atom_site_fract_y
_atom_site_fract_z
Si Si1 0.500000 0.131630 0.500000
Si Si2 0.659050 0.918321 0.479430
Si Si3 0.141057 0.947652 0.798397
Si Si4 0.671916 0.635427 0.941440
Si Si5 0.500000 0.739288 0.000000
Si Si6 0.000000 0.209525 0.500000
Si Si7 0.391596 0.822336 0.716128
Si Si8 0.353567 0.067658 0.781446
O O1 0.703656 0.220113 0.624157
O O2 0.541417 0.043188 0.447726
O O3 0.555196 0.793123 0.456765
O O4 0.620073 0.905995 0.367244
O O5 0.911343 0.917640 0.635662
O O6 0.284698 0.822884 0.876528
O O7 0.116992 0.999666 0.872814
O O8 0.249322 0.063582 0.809785
O O9 0.527916 0.649866 0.940300
O O10 0.613942 0.745613 0.848240
O O11 0.925305 0.645546 0.098959
O O12 0.200918 0.123649 0.632260
O O13 0.385306 0.919804 0.782699
#
# Coordination Sequence:
#
# PCOD8052002 Si02
#       8
#     2   4   4   4   2   2   4   4
#     4  11  25  46  72 110 155 191 256 312 368 459
#     4  11  26  43  74 111 151 196 257 314 382 447
#     4  12  22  47  72 106 151 193 248 315 371 452
#     4  12  25  46  75 107 147 199 259 305 378 451
#     4  12  26  46  74 106 146 204 246 316 374 440
#     4  11  25  44  66 112 149 197 256 320 372 451
#     4  12  25  46  76 109 146 206 247 316 383 446
#     4  12  25  46  76 109 149 204 258 309 386 460
#
# _framework density 22.827908000000001
#
# number of rings (size 3 to 8) (size 9 to 14) (size 15 to 20)
#    0.000    0.308    4.615    4.154    2.154    1.231 
#    0.000    0.000    6.769    0.000    0.000    0.000 
#    0.000    0.000    0.000    0.000    0.000    0.000 
#
# Total GULP energy -161223.811559 kJ/mol
# GULP energy per Si atom -12401.831658 kJ/mol
# Density = 2.277595 g / cm^3
# Si number density = 22.827908 Si / 1000 Ang^3
#
#
#
# Elastic Constant Matrix: (Units=GPa)
#
#
# Indices 1 2 3 4 5 6 
#
# 1 125.5320 53.8943 47.2244 0.0001 -5.4390 0.0000
# 2 53.8943 111.8846 62.1039 0.0007 13.2011 0.0002
# 3 47.2244 62.1039 155.6078 0.0030 5.0950 0.0006
# 4 0.0001 0.0007 0.0030 44.9177 0.0008 -0.1136
# 5 -5.4390 13.2011 5.0950 0.0008 33.0262 0.0001
# 6 0.0000 0.0002 0.0006 -0.1136 0.0001 35.2745
#
#
#
# Elastic Compliance Matrix: (Units=1/GPa)
#
#
# Indices 1 2 3 4 5 6 
#
# 1 0.010764 -0.004835 -0.001466 0.000000 0.003931 0.000000
# 2 -0.004835 0.014176 -0.003999 0.000000 -0.005846 0.000000
# 3 -0.001466 -0.003999 0.008466 0.000000 0.000051 0.000000
# 4 0.000000 0.000000 0.000000 0.022263 -0.000001 0.000072
# 5 0.003931 -0.005846 0.000051 -0.000001 0.033255 0.000000
# 6 0.000000 0.000000 0.000000 0.000072 0.000000 0.028349
#
#
# Mechanical properties :
#
#
# Convention : Reuss Voigt Hill
#
# Bulk Modulus (GPa) = 78.08854 79.94107 79.01481
# Shear Modulus (GPa) = 35.17622 37.96380 36.57001
#
# Velocity S-wave (km/s) = 3.92973 4.08247 4.00683
# Velocity P-wave (km/s) = 7.40757 7.57080 7.48963
#
# Compressibility (1/GPa) = 0.01280598
#
# Stress axis : x y z
#
# Youngs Moduli (GPa) = 92.90536 70.53997 118.12573
#
# Poissons Ratio (x) = 0.34107 0.17312
# Poissons Ratio (y) = 0.44921 0.47239
# Poissons Ratio (z) = 0.13616 0.28209
#
# Static dielectric constant tensor:
#      x y z
#    x 4.327060 0.000000 -0.023120 
#    y 0.000000 4.071740 0.000000 
#    z -0.023120 0.000000 4.213510 
# 
# 
# High freq. dielectric constant tensor:
#      x y z
#    x 1.905720 0.000000 -0.005550 
#    y 0.000000 1.901630 0.000000 
#    z -0.005550 0.000000 1.913050 
# 
# From -- ./inp_files/29680.got.cif
#   From: 2010.03.12/outbox.cif.g09.slc.cpg/sg5_15_cif.got.tgz:29680.got - 2010.03.31 09:47:26.
