data_PCOD8052224
_publ_section_title
;
Structure prediction by ZEFSAII (Michael W. Deem and Ramdas Pophale) SiO2 
 PCOD8052224
Probable space group: P M
;
_chemical_formula_sum "Si O2"
_cell_formula_units_Z 16
_cell_length_a 11.565238
_cell_length_b 8.734804
_cell_length_c 9.522233
_cell_angle_alpha 90.000000
_cell_angle_beta 115.106665
_cell_angle_gamma 90.000000
_cell_volume 871.052486
_symmetry_space_group_name_H-M "P M"
_symmetry_group_IT_number 6
_symmetry_cell_setting 'monoclinic'
loop_
_space_group_symop_operation_xyz
x,y,z
x,-y,z
loop_
_atom_site_type_symbol
_atom_site_label
_atom_site_fract_x
_atom_site_fract_y
_atom_site_fract_z
Si Si1 0.558330 0.177176 0.237230
Si Si2 0.832691 0.671491 0.706325
Si Si3 0.337458 0.181522 0.633938
Si Si4 0.344133 0.320247 0.942873
Si Si5 0.087960 0.821003 0.825149
Si Si6 0.085065 0.679604 0.521901
Si Si7 0.573455 0.820838 0.568305
Si Si8 0.811382 0.669968 0.361640
O O1 0.461680 0.282666 0.103585
O O2 0.547732 0.225886 0.394105
O O3 0.703023 0.210839 0.257852
O O4 0.526720 0.000000 0.195449
O O5 0.840851 0.500000 0.768460
O O6 0.701873 0.744842 0.695489
O O7 0.833628 0.676530 0.539207
O O8 0.956962 0.761146 0.829043
O O9 0.210870 0.264105 0.502890
O O10 0.455188 0.236715 0.599485
O O11 0.320119 0.000000 0.618670
O O12 0.364454 0.233820 0.806333
O O13 0.336810 0.500000 0.911056
O O14 0.213806 0.263053 0.952088
O O15 0.085909 0.785084 0.659578
O O16 0.100483 0.000000 0.859527
O O17 0.095418 0.500000 0.567835
O O18 0.951947 0.709085 0.368365
O O19 0.594450 0.000000 0.591363
O O20 0.767492 0.500000 0.293348
#
# Coordination Sequence:
#
# PCOD8052224 Si02
#       8
#     2   2   2   2   2   2   2   2
#     4  10  19  32  50  72  97 126 160 198 241 288
#     4   9  16  27  45  69  96 124 157 197 239 282
#     4  10  19  32  50  73 100 129 162 198 239 287
#     4  11  21  33  49  71  99 129 162 200 242 287
#     4  10  17  27  45  68  94 123 158 200 242 281
#     4   9  16  27  44  68  96 124 158 198 239 282
#     4   9  19  33  50  73 100 129 161 198 239 286
#     4   8  15  27  43  66  94 122 154 195 237 279
#
# _framework density 18.368582
#
# number of rings (size 3 to 8) (size 9 to 14) (size 15 to 20)
#    0.000    2.500    0.000    6.000    0.000    5.000 
#    0.000    0.000    0.000    1.500    0.000    5.250 
#    0.000    0.000    0.000    0.000    0.000    0.000 
#
# Total GULP energy -198305.105092 kJ/mol
# GULP energy per Si atom -12394.069068 kJ/mol
# Density = 1.832677 g / cm^3
# Si number density = 18.368582 Si / 1000 Ang^3
#
#
#
# Elastic Constant Matrix: (Units=GPa)
#
#
# Indices 1 2 3 4 5 6 
#
# 1 161.7633 45.3907 42.3894 0.0000 31.8603 0.0000
# 2 45.3907 74.5625 21.6600 0.0000 13.4731 0.0000
# 3 42.3894 21.6600 44.3220 0.0000 21.4688 0.0000
# 4 0.0000 0.0000 0.0000 19.1479 0.0000 12.1156
# 5 31.8603 13.4731 21.4688 0.0000 27.2222 0.0000
# 6 0.0000 0.0000 0.0000 12.1156 0.0000 33.1285
#
#
#
# Elastic Compliance Matrix: (Units=1/GPa)
#
#
# Indices 1 2 3 4 5 6 
#
# 1 0.009479 -0.003386 -0.004610 0.000000 -0.005782 0.000000
# 2 -0.003386 0.016971 -0.004702 0.000000 -0.000727 0.000000
# 3 -0.004610 -0.004702 0.041309 0.000000 -0.024856 0.000000
# 4 0.000000 0.000000 0.000000 0.067948 0.000000 -0.024850
# 5 -0.005782 -0.000727 -0.024856 0.000000 0.063465 0.000000
# 6 0.000000 0.000000 0.000000 -0.024850 0.000000 0.039274
#
#
# Mechanical properties :
#
#
# Convention : Reuss Voigt Hill
#
# Bulk Modulus (GPa) = 23.60669 55.50313 39.55491
# Shear Modulus (GPa) = 17.98803 27.31355 22.65079
#
# Velocity S-wave (km/s) = 3.13274 3.86031 3.51540
# Velocity P-wave (km/s) = 5.09559 7.08176 6.16913
#
# Compressibility (1/GPa) = 0.04236088
#
# Stress axis : x y z
#
# Youngs Moduli (GPa) = 105.49666 58.92570 24.20801
#
# Poissons Ratio (x) = 0.19955 0.11159
# Poissons Ratio (y) = 0.35726 0.11384
# Poissons Ratio (z) = 0.48632 0.27709
#
# Static dielectric constant tensor:
#      x y z
#    x 3.927740 0.000000 0.429250 
#    y 0.000000 3.398100 0.000000 
#    z 0.429250 0.000000 2.940850 
# 
# 
# High freq. dielectric constant tensor:
#      x y z
#    x 1.722580 0.000000 0.041850 
#    y 0.000000 1.722610 0.000000 
#    z 0.041850 0.000000 1.653800 
# 
# From -- ./inp_files/3656.got.cif
#   From: 2010.03.12/outbox.cif.g09.slc.cpg/sg6_2_cif.got.tgz:3656.got - 2010.03.30 10:24:59.
