data_PCOD8052199
_publ_section_title
;
Structure prediction by ZEFSAII (Michael W. Deem and Ramdas Pophale) SiO2 
 PCOD8052199
Probable space group: C 2
;
_chemical_formula_sum "Si O2"
_cell_formula_units_Z 16
_cell_length_a 18.190110
_cell_length_b 4.992102
_cell_length_c 9.931324
_cell_angle_alpha 90.000000
_cell_angle_beta 136.466094
_cell_angle_gamma 90.000000
_cell_volume 621.167599
_symmetry_space_group_name_H-M "C 2"
_symmetry_group_IT_number 5
_symmetry_cell_setting 'monoclinic'
loop_
_space_group_symop_operation_xyz
x,y,z
-x,y,-z
1/2+x,1/2+y,z
1/2-x,1/2+y,-z
loop_
_atom_site_type_symbol
_atom_site_label
_atom_site_fract_x
_atom_site_fract_y
_atom_site_fract_z
Si Si1 0.992031 0.115350 0.633812
Si Si2 0.682438 0.303111 0.939726
Si Si3 0.589209 0.942367 0.012862
Si Si4 0.731595 0.385416 0.561603
O O1 0.876646 0.999958 0.517759
O O2 0.000000 0.272983 0.500000
O O3 0.074885 0.872464 0.715447
O O4 0.038935 0.286904 0.819582
O O5 0.759448 0.558312 0.058023
O O6 0.644688 0.217665 0.038672
O O7 0.685576 0.782723 0.213824
O O8 0.500000 0.022394 0.000000
O O9 0.708710 0.124413 0.440788
#
# Coordination Sequence:
#
# PCOD8052199 Si02
#       4
#     4   4   4   4
#     4  12  29  52  85 128 169 222 283 345 425 508
#     4  12  27  52  82 122 164 224 276 345 417 491
#     4  12  27  54  87 123 170 220 278 352 418 500
#     4  12  29  53  84 125 168 221 284 347 418 502
#
# _framework density 25.757942
#
# number of rings (size 3 to 8) (size 9 to 14) (size 15 to 20)
#    0.000    0.000    5.000    3.000    3.500    2.000 
#    0.000    0.000    0.000    0.000    0.000    0.000 
#    0.000    0.000    0.000    0.000    0.000    0.000 
#
# Total GULP energy -99138.836715 kJ/mol
# GULP energy per Si atom -12392.354589 kJ/mol
# Density = 2.569932 g / cm^3
# Si number density = 25.757942 Si / 1000 Ang^3
#
#
#
# Elastic Constant Matrix: (Units=GPa)
#
#
# Indices 1 2 3 4 5 6 
#
# 1 175.0664 18.5552 66.7375 0.0000 9.6944 0.0000
# 2 18.5552 72.7778 20.3844 0.0000 0.4278 0.0000
# 3 66.7375 20.3844 151.5145 0.0000 -1.5517 0.0000
# 4 0.0000 0.0000 0.0000 34.6105 0.0000 3.0455
# 5 9.6944 0.4278 -1.5517 0.0000 52.1217 0.0000
# 6 0.0000 0.0000 0.0000 3.0455 0.0000 11.7318
#
#
#
# Elastic Compliance Matrix: (Units=1/GPa)
#
#
# Indices 1 2 3 4 5 6 
#
# 1 0.007026 -0.000948 -0.002981 0.000000 -0.001388 0.000000
# 2 -0.000948 0.014408 -0.001521 0.000000 0.000013 0.000000
# 3 -0.002981 -0.001521 0.008126 0.000000 0.000809 0.000000
# 4 0.000000 0.000000 0.000000 0.029568 0.000000 -0.007676
# 5 -0.001388 0.000013 0.000809 0.000000 0.019468 0.000000
# 6 0.000000 0.000000 0.000000 -0.007676 0.000000 0.087231
#
#
# Mechanical properties :
#
#
# Convention : Reuss Voigt Hill
#
# Bulk Modulus (GPa) = 53.59120 67.85699 60.72410
# Shear Modulus (GPa) = 27.33021 39.27159 33.30090
#
# Velocity S-wave (km/s) = 3.26089 3.90890 3.59951
# Velocity P-wave (km/s) = 5.91851 6.83915 6.39542
#
# Compressibility (1/GPa) = 0.01865978
#
# Stress axis : x y z
#
# Youngs Moduli (GPa) = 142.32842 69.40577 123.06004
#
# Poissons Ratio (x) = 0.06580 0.36689
# Poissons Ratio (y) = 0.13494 0.18713
# Poissons Ratio (z) = 0.42434 0.10554
#
# Static dielectric constant tensor:
#      x y z
#    x 5.244050 0.000000 0.061130 
#    y 0.000000 4.746260 0.000000 
#    z 0.061130 0.000000 5.013310 
# 
# 
# High freq. dielectric constant tensor:
#      x y z
#    x 2.061910 0.000000 0.007250 
#    y 0.000000 2.012810 0.000000 
#    z 0.007250 0.000000 2.043560 
# 
# From -- ./inp_files/25895.got.cif
#   From: 2010.03.12/outbox.cif.g09.slc.cpg/sg5_13_cif.got.tgz:25895.got - 2010.03.31 09:47:26.
