data_PCOD8052938
_publ_section_title
;
Structure prediction by ZEFSAII (Michael W. Deem and Ramdas Pophale) SiO2 
 PCOD8052938
Probable space group: C M
;
_chemical_formula_sum "Si O2"
_cell_formula_units_Z 32
_cell_length_a 20.145940
_cell_length_b 9.079408
_cell_length_c 14.317504
_cell_angle_alpha 90.000000
_cell_angle_beta 135.302906
_cell_angle_gamma 90.000000
_cell_volume 1841.998257
_symmetry_space_group_name_H-M "C M"
_symmetry_group_IT_number 8
_symmetry_cell_setting 'monoclinic'
loop_
_space_group_symop_operation_xyz
x,y,z
x,-y,z
1/2+x,1/2+y,z
1/2+x,1/2-y,z
loop_
_atom_site_type_symbol
_atom_site_label
_atom_site_fract_x
_atom_site_fract_y
_atom_site_fract_z
Si Si1 0.579810 0.825154 0.055320
Si Si2 0.730258 0.174007 0.352532
Si Si3 0.931943 0.675059 0.054712
Si Si4 0.218505 0.824454 0.841325
Si Si5 0.087495 0.673028 0.567186
Si Si6 0.926854 0.331934 0.549104
Si Si7 0.086954 0.673104 0.852334
Si Si8 0.580404 0.174852 0.349940
O O1 0.673663 0.771421 0.203859
O O2 0.486941 0.767658 0.017271
O O3 0.577489 0.000000 0.049872
O O4 0.579655 0.763799 0.949937
O O5 0.835224 0.232971 0.457160
O O6 0.674183 0.228446 0.388863
O O7 0.735817 0.000000 0.358028
O O8 0.932233 0.500000 0.055070
O O9 0.987439 0.732526 0.202335
O O10 0.825759 0.734515 0.948732
O O11 0.170473 0.761835 0.700341
O O12 0.170288 0.761609 0.885877
O O13 0.211802 0.000000 0.834676
O O14 0.112091 0.500000 0.596198
O O15 0.080552 0.736170 0.455322
O O16 0.988192 0.703775 0.518583
O O17 0.893619 0.500000 0.516051
O O18 0.987930 0.295666 0.702156
O O19 0.111285 0.500000 0.872267
O O20 0.577921 0.000000 0.350535
#
# Coordination Sequence:
#
# PCOD8052938 Si02
#       8
#     4   4   4   4   4   4   4   4
#     4   8  15  30  50  69  90 120 157 189 221 270
#     4   9  17  30  50  72  92 117 151 193 232 265
#     4   8  15  28  47  71  94 117 151 192 229 267
#     4  10  19  30  48  73  96 117 147 194 238 265
#     4   9  18  33  50  66  90 126 159 184 219 274
#     4   9  18  30  45  66  92 123 155 187 225 271
#     4   9  18  33  50  66  90 126 159 184 219 274
#     4   8  15  30  50  69  90 120 157 189 221 270
#
# _framework density 17.372437999999999
#
# number of rings (size 3 to 8) (size 9 to 14) (size 15 to 20)
#    0.000    3.250    0.000    2.625    0.000    4.000 
#    0.000    3.750    0.000    9.000    0.000    0.000 
#    0.000    0.000    0.000    0.000    0.000    0.000 
#
# Total GULP energy -198327.379192 kJ/mol
# GULP energy per Si atom -12395.461200 kJ/mol
# Density = 1.733290 g / cm^3
# Si number density = 17.372438 Si / 1000 Ang^3
#
#
#
# Elastic Constant Matrix: (Units=GPa)
#
#
# Indices 1 2 3 4 5 6 
#
# 1 141.6819 32.4806 112.9260 0.0000 -10.5153 0.0000
# 2 32.4806 30.1662 33.2036 0.0000 4.0801 0.0000
# 3 112.9260 33.2036 138.3839 0.0000 -4.5861 0.0000
# 4 0.0000 0.0000 0.0000 21.7647 0.0000 4.3425
# 5 -10.5153 4.0801 -4.5861 0.0000 43.2231 0.0000
# 6 0.0000 0.0000 0.0000 4.3425 0.0000 20.9269
#
#
#
# Elastic Compliance Matrix: (Units=1/GPa)
#
#
# Indices 1 2 3 4 5 6 
#
# 1 0.021421 -0.006155 -0.015867 0.000000 0.004109 0.000000
# 2 -0.006155 0.048116 -0.006746 0.000000 -0.006755 0.000000
# 3 -0.015867 -0.006746 0.021763 0.000000 -0.000914 0.000000
# 4 0.000000 0.000000 0.000000 0.047930 0.000000 -0.009946
# 5 0.004109 -0.006755 -0.000914 0.000000 0.024676 0.000000
# 6 0.000000 0.000000 0.000000 -0.009946 0.000000 0.049849
#
#
# Mechanical properties :
#
#
# Convention : Reuss Voigt Hill
#
# Bulk Modulus (GPa) = 29.61823 74.16139 51.88981
# Shear Modulus (GPa) = 17.69630 25.95773 21.82702
#
# Velocity S-wave (km/s) = 3.19508 3.86967 3.54844
# Velocity P-wave (km/s) = 5.54052 7.92134 6.83538
#
# Compressibility (1/GPa) = 0.03376300
#
# Stress axis : x y z
#
# Youngs Moduli (GPa) = 46.68387 20.78319 45.95056
#
# Poissons Ratio (x) = 0.12793 0.72910
# Poissons Ratio (y) = 0.28735 0.30997
# Poissons Ratio (z) = 0.74073 0.14020
#
# Static dielectric constant tensor:
#      x y z
#    x 3.504740 0.000000 -0.179700 
#    y 0.000000 2.826340 0.000000 
#    z -0.179700 0.000000 3.467540 
# 
# 
# High freq. dielectric constant tensor:
#      x y z
#    x 1.677220 0.000000 -0.003510 
#    y 0.000000 1.631490 0.000000 
#    z -0.003510 0.000000 1.676450 
# 
# From -- ./inp_files/23137.got.cif
#   From: 2010.03.12/outbox.cif.g09.slc.cpg/sg8_12_cif.got.tgz:23137.got - 2010.03.31 10:45:26.
