data_PCOD8052446
_publ_section_title
;
Structure prediction by ZEFSAII (Michael W. Deem and Ramdas Pophale) SiO2 
 PCOD8052446
Probable space group: P M
;
_chemical_formula_sum "Si O2"
_cell_formula_units_Z 16
_cell_length_a 7.377420
_cell_length_b 8.673346
_cell_length_c 12.221174
_cell_angle_alpha 90.000000
_cell_angle_beta 89.980171
_cell_angle_gamma 90.000000
_cell_volume 781.995190
_symmetry_space_group_name_H-M "P M"
_symmetry_group_IT_number 6
_symmetry_cell_setting 'monoclinic'
loop_
_space_group_symop_operation_xyz
x,y,z
x,-y,z
loop_
_atom_site_type_symbol
_atom_site_label
_atom_site_fract_x
_atom_site_fract_y
_atom_site_fract_z
Si Si1 0.922350 0.181688 0.839420
Si Si2 0.616111 0.676798 0.707319
Si Si3 0.701511 0.181941 0.253720
Si Si4 0.255775 0.822649 0.435099
Si Si5 0.004281 0.182400 0.081722
Si Si6 0.635458 0.321697 0.465812
Si Si7 0.307941 0.680128 0.219182
Si Si8 0.226104 0.182241 0.674645
O O1 0.724673 0.231867 0.799470
O O2 0.074568 0.246713 0.756966
O O3 0.928984 0.000000 0.839740
O O4 0.957898 0.244903 0.960890
O O5 0.616410 0.500000 0.741611
O O6 0.713472 0.699951 0.588224
O O7 0.410864 0.733280 0.704852
O O8 0.840272 0.233713 0.159970
O O9 0.767334 0.265223 0.367507
O O10 0.501064 0.234710 0.218209
O O11 0.704978 0.000000 0.271099
O O12 0.467375 0.793536 0.454693
O O13 0.195066 0.720994 0.330679
O O14 0.159550 0.778106 0.550283
O O15 0.220486 0.000000 0.404447
O O16 0.191285 0.262633 0.116654
O O17 0.033369 0.000000 0.083396
O O18 0.577184 0.500000 0.447225
O O19 0.342397 0.500000 0.210899
O O20 0.258225 0.000000 0.685961
#
# Coordination Sequence:
#
# PCOD8052446 Si02
#       8
#     2   2   2   2   2   2   2   2
#     4  10  22  40  59  79 106 143 189 232 267 315
#     4  10  21  36  56  83 115 146 175 218 275 329
#     4  10  20  36  59  83 109 143 182 226 271 318
#     4   9  16  30  54  83 112 140 176 220 266 322
#     4  10  23  41  58  78 106 144 190 232 268 314
#     4   9  17  31  52  81 114 144 175 214 268 329
#     4  11  22  36  57  83 113 146 177 220 276 329
#     4   9  19  36  59  84 109 142 182 224 269 318
#
# _framework density 20.460483
#
# number of rings (size 3 to 8) (size 9 to 14) (size 15 to 20)
#    0.000    2.250    0.000    4.125    0.000    6.000 
#    0.000    8.750    0.000    0.000    0.000    0.000 
#    0.000    0.000    0.000    0.000    0.000    0.000 
#
# Total GULP energy -198337.503066 kJ/mol
# GULP energy per Si atom -12396.093942 kJ/mol
# Density = 2.041391 g / cm^3
# Si number density = 20.460483 Si / 1000 Ang^3
#
#
#
# Elastic Constant Matrix: (Units=GPa)
#
#
# Indices 1 2 3 4 5 6 
#
# 1 45.9753 8.2256 14.4013 0.0000 -0.1547 0.0000
# 2 8.2256 33.3436 16.4458 0.0000 -1.6862 0.0000
# 3 14.4013 16.4458 96.2169 0.0000 5.9412 0.0000
# 4 0.0000 0.0000 0.0000 18.6559 0.0000 1.3456
# 5 -0.1547 -1.6862 5.9412 0.0000 36.6947 0.0000
# 6 0.0000 0.0000 0.0000 1.3456 0.0000 8.9215
#
#
#
# Elastic Compliance Matrix: (Units=1/GPa)
#
#
# Indices 1 2 3 4 5 6 
#
# 1 0.023406 -0.004388 -0.002775 0.000000 0.000346 0.000000
# 2 -0.004388 0.033792 -0.005266 0.000000 0.002387 0.000000
# 3 -0.002775 -0.005266 0.011843 0.000000 -0.002171 0.000000
# 4 0.000000 0.000000 0.000000 0.054192 0.000000 -0.008174
# 5 0.000346 0.002387 -0.002171 0.000000 0.027715 0.000000
# 6 0.000000 0.000000 0.000000 -0.008174 0.000000 0.113322
#
#
# Mechanical properties :
#
#
# Convention : Reuss Voigt Hill
#
# Bulk Modulus (GPa) = 22.63358 28.18679 25.41018
# Shear Modulus (GPa) = 16.45524 21.95195 19.20360
#
# Velocity S-wave (km/s) = 2.83900 3.27906 3.06693
# Velocity P-wave (km/s) = 4.67254 5.30494 4.99875
#
# Compressibility (1/GPa) = 0.04418214
#
# Stress axis : x y z
#
# Youngs Moduli (GPa) = 42.72370 29.59321 84.44022
#
# Poissons Ratio (x) = 0.12986 0.23429
# Poissons Ratio (y) = 0.18748 0.44470
# Poissons Ratio (z) = 0.11854 0.15585
#
# Static dielectric constant tensor:
#      x y z
#    x 3.470870 0.000000 -0.202900 
#    y 0.000000 3.561970 0.000000 
#    z -0.202900 0.000000 4.217300 
# 
# 
# High freq. dielectric constant tensor:
#      x y z
#    x 1.779960 0.000000 -0.001960 
#    y 0.000000 1.794870 0.000000 
#    z -0.001960 0.000000 1.809180 
# 
# From -- ./inp_files/4572.got.cif
#   From: 2010.03.12/outbox.cif.g09.slc.cpg/sg6_3_cif.got.tgz:4572.got - 2010.03.30 10:24:59.
