data_PCOD8052060
_publ_section_title
;
Structure prediction by ZEFSAII (Michael W. Deem and Ramdas Pophale) SiO2 
 PCOD8052060
Probable space group: C 2
;
_chemical_formula_sum "Si O2"
_cell_formula_units_Z 16
_cell_length_a 5.183460
_cell_length_b 24.410195
_cell_length_c 5.143635
_cell_angle_alpha 90.000000
_cell_angle_beta 98.405526
_cell_angle_gamma 90.000000
_cell_volume 643.829422
_symmetry_space_group_name_H-M "C 2"
_symmetry_group_IT_number 5
_symmetry_cell_setting 'monoclinic'
loop_
_space_group_symop_operation_xyz
x,y,z
-x,y,-z
1/2+x,1/2+y,z
1/2-x,1/2+y,-z
loop_
_atom_site_type_symbol
_atom_site_label
_atom_site_fract_x
_atom_site_fract_y
_atom_site_fract_z
Si Si1 0.781592 0.779970 0.657814
Si Si2 0.000000 0.877112 0.000000
Si Si3 0.500000 0.192931 0.000000
Si Si4 0.500000 0.949917 0.000000
Si Si5 0.000000 0.524674 0.500000
Si Si6 0.662212 0.620661 0.286504
O O1 0.500000 0.790033 0.500000
O O2 0.000000 0.754870 0.500000
O O3 0.891201 0.838984 0.755750
O O4 0.762306 0.734063 0.883380
O O5 0.240884 0.913698 0.945181
O O6 0.412118 0.156118 0.233063
O O7 0.527773 0.987404 0.254195
O O8 0.747999 0.562809 0.420456
O O9 0.500000 0.650036 0.500000
O O10 0.500000 0.610911 0.000000
#
# Coordination Sequence:
#
# PCOD8052060 Si02
#       6
#     4   2   2   2   2   4
#     4  11  27  49  81 116 161 209 263 334 399 494
#     4  11  28  52  77 122 151 210 264 337 404 484
#     4  11  29  46  74 126 160 212 273 319 412 478
#     4  12  29  50  89 114 161 210 267 338 406 478
#     4  12  30  52  74 122 152 212 272 332 400 482
#     4  12  28  50  80 112 166 219 267 336 398 483
#
# _framework density 24.851299999999998
#
# number of rings (size 3 to 8) (size 9 to 14) (size 15 to 20)
#    0.000    0.500    0.000    5.250   19.250    2.000 
#    0.000    0.000    0.000    0.000    0.000    0.000 
#    0.000    0.000    0.000    0.000    0.000    0.000 
#
# Total GULP energy -99181.461406 kJ/mol
# GULP energy per Si atom -12397.682676 kJ/mol
# Density = 2.479474 g / cm^3
# Si number density = 24.851300 Si / 1000 Ang^3
#
#
#
# Elastic Constant Matrix: (Units=GPa)
#
#
# Indices 1 2 3 4 5 6 
#
# 1 180.4368 68.0315 70.9033 0.0000 4.8641 0.0000
# 2 68.0315 162.0685 79.5677 0.0000 0.7089 0.0000
# 3 70.9033 79.5677 182.7425 0.0000 -0.9082 0.0000
# 4 0.0000 0.0000 0.0000 228.1353 0.0000 89.3605
# 5 4.8641 0.7089 -0.9082 0.0000 60.3745 0.0000
# 6 0.0000 0.0000 0.0000 89.3605 0.0000 68.6481
#
#
#
# Elastic Compliance Matrix: (Units=1/GPa)
#
#
# Indices 1 2 3 4 5 6 
#
# 1 0.007058 -0.002053 -0.001847 0.000000 -0.000572 0.000000
# 2 -0.002053 0.008446 -0.002881 0.000000 0.000023 0.000000
# 3 -0.001847 -0.002881 0.007445 0.000000 0.000295 0.000000
# 4 0.000000 0.000000 0.000000 0.008944 0.000000 -0.011642
# 5 -0.000572 0.000023 0.000295 0.000000 0.016614 0.000000
# 6 0.000000 0.000000 0.000000 -0.011642 0.000000 0.029722
#
#
# Mechanical properties :
#
#
# Convention : Reuss Voigt Hill
#
# Bulk Modulus (GPa) = 106.54002 106.91698 106.72850
# Shear Modulus (GPa) = 52.67683 91.88124 72.27904
#
# Velocity S-wave (km/s) = 4.60899 6.08709 5.39887
# Velocity P-wave (km/s) = 8.44321 9.61871 9.05007
#
# Compressibility (1/GPa) = 0.00938614
#
# Stress axis : x y z
#
# Youngs Moduli (GPa) = 141.69319 118.39416 134.32363
#
# Poissons Ratio (x) = 0.24308 0.24812
# Poissons Ratio (y) = 0.29092 0.38697
# Poissons Ratio (z) = 0.26173 0.34108
#
# Static dielectric constant tensor:
#      x y z
#    x 4.415920 0.000000 -0.053880 
#    y 0.000000 4.647530 0.000000 
#    z -0.053880 0.000000 4.639580 
# 
# 
# High freq. dielectric constant tensor:
#      x y z
#    x 1.993510 0.000000 0.011180 
#    y 0.000000 2.004040 0.000000 
#    z 0.011180 0.000000 2.012100 
# 
# From -- ./inp_files/705.got.cif
#   From: 2010.03.12/outbox.cif.g09.slc.cpg/sg5_1_cif.got.tgz:705.got - 2010.03.31 09:47:26.
