data_PCOD8052575
_publ_section_title
;
Structure prediction by ZEFSAII (Michael W. Deem and Ramdas Pophale) SiO2 
 PCOD8052575
Probable space group: P C
;
_chemical_formula_sum "Si O2"
_cell_formula_units_Z 14
_cell_length_a 17.353402
_cell_length_b 7.068295
_cell_length_c 5.294322
_cell_angle_alpha 90.000000
_cell_angle_beta 107.368188
_cell_angle_gamma 90.000000
_cell_volume 619.787631
_symmetry_space_group_name_H-M "P C"
_symmetry_group_IT_number 7
_symmetry_cell_setting 'monoclinic'
loop_
_space_group_symop_operation_xyz
x,y,z
x,-y,1/2+z
loop_
_atom_site_type_symbol
_atom_site_label
_atom_site_fract_x
_atom_site_fract_y
_atom_site_fract_z
Si Si1 0.402210 0.380802 0.332300
Si Si2 0.002739 0.377254 0.372621
Si Si3 0.653803 0.721308 0.560338
Si Si4 0.585871 0.706525 0.993744
Si Si5 0.237308 0.211693 0.129291
Si Si6 0.168654 0.211360 0.561590
Si Si7 0.827522 0.617115 0.769520
O O1 0.391259 0.466489 0.600145
O O2 0.489636 0.289269 0.393092
O O3 0.334653 0.217835 0.231416
O O4 0.011915 0.468642 0.104324
O O5 0.071140 0.216602 0.470538
O O6 0.914038 0.279111 0.312221
O O7 0.616468 0.817313 0.273254
O O8 0.625086 0.502237 0.537727
O O9 0.750525 0.751168 0.649772
O O10 0.617589 0.817638 0.777124
O O11 0.201322 0.316714 0.341774
O O12 0.203083 0.000019 0.089134
O O13 0.204245 0.316183 0.844709
O O14 0.822163 0.452650 0.553388
#
# Coordination Sequence:
#
# PCOD8052575 Si02
#       7
#     2   2   2   2   2   2   2
#     4  12  21  32  48  81 111 133 179 222 261 295
#     4  10  21  32  53  80 107 135 169 224 266 301
#     4  10  14  25  41  61 100 151 158 184 254 302
#     4  10  16  25  41  64 101 146 160 198 246 297
#     4  10  23  37  58  71  98 144 180 220 260 317
#     4  10  21  42  54  72 101 136 187 211 266 324
#     4  10  16  25  41  69 100 135 163 195 247 302
#
# _framework density 22.588383
#
# number of rings (size 3 to 8) (size 9 to 14) (size 15 to 20)
#    0.000    1.714    5.714    1.714    0.000    3.429 
#    0.000    0.000    0.000    0.000    0.000    0.000 
#    0.000   27.429    0.000    0.000    0.000    0.000 
#
# Total GULP energy -173437.571779 kJ/mol
# GULP energy per Si atom -12388.397984 kJ/mol
# Density = 2.253697 g / cm^3
# Si number density = 22.588383 Si / 1000 Ang^3
#
#
#
# Elastic Constant Matrix: (Units=GPa)
#
#
# Indices 1 2 3 4 5 6 
#
# 1 213.7637 27.0419 75.3457 0.0000 39.2945 0.0000
# 2 27.0419 31.8800 0.4911 0.0000 13.4368 0.0000
# 3 75.3457 0.4911 201.8420 0.0000 -14.1562 0.0000
# 4 0.0000 0.0000 0.0000 -7.2234 0.0000 6.8597
# 5 39.2945 13.4368 -14.1562 0.0000 64.9154 0.0000
# 6 0.0000 0.0000 0.0000 6.8597 0.0000 10.1785
#
#
#
# Elastic Compliance Matrix: (Units=1/GPa)
#
#
# Indices 1 2 3 4 5 6 
#
# 1 0.006942 -0.004175 -0.002859 0.000000 -0.003962 0.000000
# 2 -0.004175 0.036946 0.001127 0.000000 -0.004875 0.000000
# 3 -0.002859 0.001127 0.006219 0.000000 0.002854 0.000000
# 4 0.000000 0.000000 0.000000 -0.084414 0.000000 0.056890
# 5 -0.003962 -0.004875 0.002854 0.000000 0.019434 0.000000
# 6 0.000000 0.000000 0.000000 0.056890 0.000000 0.059906
#
#
# Mechanical properties :
#
#
# Convention : Reuss Voigt Hill
#
# Bulk Modulus (GPa) = 26.11467 72.58256 49.34861
# Shear Modulus (GPa) = 71.82617 36.54791 54.18704
#
# Velocity S-wave (km/s) = 5.64507 4.02680 4.90316
# Velocity P-wave (km/s) = 7.35360 7.33639 7.34500
#
# Compressibility (1/GPa) = 0.03829265
#
# Stress axis : x y z
#
# Youngs Moduli (GPa) = 144.04673 27.06645 160.79597
#
# Poissons Ratio (x) = 0.11300 0.45974
# Poissons Ratio (y) = 0.60138 -0.18116
# Poissons Ratio (z) = 0.41185 -0.03049
#
# Static dielectric constant tensor:
#      x y z
#    x 5.150100 0.000000 -1.735930 
#    y 0.000000 3.219670 0.000000 
#    z -1.735930 0.000000 8.842800 
# 
# 
# High freq. dielectric constant tensor:
#      x y z
#    x 1.912790 0.000000 -0.008290 
#    y 0.000000 1.807330 0.000000 
#    z -0.008290 0.000000 1.936410 
# 
# From -- ./inp_files/1257.got.cif
#   From: 2010.03.12/outbox.cif.g09.slc.cpg/sg7_cif.got.tgz:1257.got - 2010.03.30 08:40:41.
