data_PCOD8052856
_publ_section_title
;
Structure prediction by ZEFSAII (Michael W. Deem and Ramdas Pophale) SiO2 
 PCOD8052856
Probable space group: C M
;
_chemical_formula_sum "Si O2"
_cell_formula_units_Z 32
_cell_length_a 20.118531
_cell_length_b 9.062005
_cell_length_c 12.163951
_cell_angle_alpha 90.000000
_cell_angle_beta 125.146190
_cell_angle_gamma 90.000000
_cell_volume 1813.350413
_symmetry_space_group_name_H-M "C M"
_symmetry_group_IT_number 8
_symmetry_cell_setting 'monoclinic'
loop_
_space_group_symop_operation_xyz
x,y,z
x,-y,z
1/2+x,1/2+y,z
1/2+x,1/2-y,z
loop_
_atom_site_type_symbol
_atom_site_label
_atom_site_fract_x
_atom_site_fract_y
_atom_site_fract_z
Si Si1 0.787080 0.672108 0.401620
Si Si2 0.737096 0.673713 0.585933
Si Si3 0.655289 0.325428 0.103968
Si Si4 0.551329 0.674075 0.371145
Si Si5 0.268416 0.671090 0.058962
Si Si6 0.999759 0.825478 0.082864
Si Si7 0.905025 0.326267 0.329086
Si Si8 0.320780 0.329687 0.866952
O O1 0.770960 0.500000 0.398876
O O2 0.783418 0.737933 0.521411
O O3 0.713169 0.732737 0.257216
O O4 0.872204 0.706489 0.421623
O O5 0.748258 0.500000 0.607649
O O6 0.642911 0.717520 0.487269
O O7 0.774727 0.745626 0.728246
O O8 0.665024 0.500000 0.094047
O O9 0.683514 0.240884 0.020671
O O10 0.563292 0.280954 0.047562
O O11 0.536795 0.500000 0.365777
O O12 0.529561 0.735495 0.229044
O O13 0.493863 0.755320 0.404658
O O14 0.274253 0.500000 0.097535
O O15 0.345506 0.754470 0.183127
O O16 0.269792 0.691788 0.929601
O O17 0.995249 0.000000 0.090199
O O18 0.911418 0.761891 0.967764
O O19 0.908038 0.500000 0.309292
O O20 0.327064 0.500000 0.839844
#
# Coordination Sequence:
#
# PCOD8052856 Si02
#       8
#     4   4   4   4   4   4   4   4
#     4   8  15  30  51  75 101 132 167 207 261 309
#     4  10  20  35  56  77 102 139 179 216 256 312
#     4   9  16  30  55  80 101 128 173 223 261 309
#     4  10  18  33  56  79 104 137 177 217 262 309
#     4  10  19  33  52  75 107 142 173 212 265 314
#     4   9  16  32  56  77 100 137 176 212 259 314
#     4  10  19  31  53  81 107 134 172 220 262 308
#     4  10  21  36  53  74 106 145 175 209 264 317
#
# _framework density 17.646892999999999
#
# number of rings (size 3 to 8) (size 9 to 14) (size 15 to 20)
#    0.000    2.500    2.500    1.500    0.000    1.500 
#    0.000    5.625    0.000    6.000    0.000    0.000 
#    0.000    0.000    0.000    0.000    0.000    0.000 
#
# Total GULP energy -198348.589563 kJ/mol
# GULP energy per Si atom -12396.786848 kJ/mol
# Density = 1.760673 g / cm^3
# Si number density = 17.646893 Si / 1000 Ang^3
#
#
#
# Elastic Constant Matrix: (Units=GPa)
#
#
# Indices 1 2 3 4 5 6 
#
# 1 157.8765 53.6421 71.3054 0.0000 -1.5240 0.0000
# 2 53.6421 51.0104 40.5821 0.0000 -1.0740 0.0000
# 3 71.3054 40.5821 115.5291 0.0000 0.3675 0.0000
# 4 0.0000 0.0000 0.0000 25.8449 0.0000 0.8412
# 5 -1.5240 -1.0740 0.3675 0.0000 22.4767 0.0000
# 6 0.0000 0.0000 0.0000 0.8412 0.0000 29.4796
#
#
#
# Elastic Compliance Matrix: (Units=1/GPa)
#
#
# Indices 1 2 3 4 5 6 
#
# 1 0.010918 -0.008481 -0.003761 0.000000 0.000397 0.000000
# 2 -0.008481 0.033843 -0.006657 0.000000 0.001151 0.000000
# 3 -0.003761 -0.006657 0.013318 0.000000 -0.000791 0.000000
# 4 0.000000 0.000000 0.000000 0.038728 0.000000 -0.001105
# 5 0.000397 0.001151 -0.000791 0.000000 0.044585 0.000000
# 6 0.000000 0.000000 0.000000 -0.001105 0.000000 0.033953
#
#
# Mechanical properties :
#
#
# Convention : Reuss Voigt Hill
#
# Bulk Modulus (GPa) = 49.30741 72.83060 61.06901
# Shear Modulus (GPa) = 22.73717 26.15268 24.44492
#
# Velocity S-wave (km/s) = 3.59340 3.85385 3.72590
# Velocity P-wave (km/s) = 6.72447 7.82071 7.29322
#
# Compressibility (1/GPa) = 0.02028093
#
# Stress axis : x y z
#
# Youngs Moduli (GPa) = 91.59078 29.54833 75.08618
#
# Poissons Ratio (x) = 0.25060 0.28239
# Poissons Ratio (y) = 0.77679 0.49986
# Poissons Ratio (z) = 0.34446 0.19671
#
# Static dielectric constant tensor:
#      x y z
#    x 3.638480 0.000000 -0.051640 
#    y 0.000000 3.053010 0.000000 
#    z -0.051640 0.000000 3.070500 
# 
# 
# High freq. dielectric constant tensor:
#      x y z
#    x 1.701990 0.000000 -0.005460 
#    y 0.000000 1.657790 0.000000 
#    z -0.005460 0.000000 1.653340 
# 
# From -- ./inp_files/23726.got.cif
#   From: 2010.03.12/outbox.cif.g09.slc.cpg/sg8_12_cif.got.tgz:23726.got - 2010.03.31 10:45:26.
