data_PCOD8052301
_publ_section_title
;
Structure prediction by ZEFSAII (Michael W. Deem and Ramdas Pophale) SiO2 
 PCOD8052301
Probable space group: P M
;
_chemical_formula_sum "Si O2"
_cell_formula_units_Z 14
_cell_length_a 8.875005
_cell_length_b 17.011614
_cell_length_c 8.873828
_cell_angle_alpha 90.000000
_cell_angle_beta 146.395617
_cell_angle_gamma 90.000000
_cell_volume 741.494024
_symmetry_space_group_name_H-M "P M"
_symmetry_group_IT_number 6
_symmetry_cell_setting 'monoclinic'
loop_
_space_group_symop_operation_xyz
x,y,z
x,-y,z
loop_
_atom_site_type_symbol
_atom_site_label
_atom_site_fract_x
_atom_site_fract_y
_atom_site_fract_z
Si Si1 0.693060 0.411792 0.064860
Si Si2 0.864451 0.168435 0.818163
Si Si3 0.006108 0.682556 0.751926
Si Si4 0.360706 0.000000 0.517151
Si Si5 0.958055 0.000000 0.919658
Si Si6 0.259212 0.831565 0.423555
Si Si7 0.505978 0.411793 0.252246
Si Si8 0.192735 0.317442 0.564981
O O1 0.727015 0.500000 0.029177
O O2 0.599581 0.415853 0.158615
O O3 0.976016 0.365805 0.286103
O O4 0.472560 0.365322 0.782848
O O5 0.973480 0.230844 0.790069
O O6 0.541514 0.178606 0.568645
O O7 0.937171 0.081791 0.808875
O O8 0.009637 0.178604 0.100564
O O9 0.727486 0.634095 0.535447
O O10 0.098784 0.691543 0.657816
O O11 0.224212 0.634774 0.032004
O O12 0.249992 0.918211 0.496339
O O13 0.242867 0.000000 0.247310
O O14 0.688325 0.000000 0.801928
O O15 0.231215 0.769158 0.532685
O O16 0.470037 0.500000 0.285943
#
# Coordination Sequence:
#
# PCOD8052301 Si02
#       8
#     2   2   2   1   1   2   2   2
#     4   9  17  30  49  71  95 126 163 198 232 279
#     4  10  19  33  52  72  97 128 161 194 235 286
#     4  10  19  31  50  75  98 122 159 203 241 277
#     4   8  16  30  49  70  91 124 164 192 220 280
#     4   8  16  30  49  70  91 124 164 192 220 280
#     4  10  19  33  52  72  97 128 161 194 235 286
#     4   9  17  30  49  71  95 126 163 198 232 279
#     4  10  19  31  50  75  98 122 159 203 241 277
#
# _framework density 18.880797999999999
#
# number of rings (size 3 to 8) (size 9 to 14) (size 15 to 20)
#    0.000    2.571    0.000    2.571    0.000    3.429 
#    0.000    0.714    0.000   17.143    0.000   18.000 
#    0.000    0.000    0.000    0.000    0.000    0.000 
#
# Total GULP energy -173531.183499 kJ/mol
# GULP energy per Si atom -12395.084536 kJ/mol
# Density = 1.883782 g / cm^3
# Si number density = 18.880798 Si / 1000 Ang^3
#
#
#
# Elastic Constant Matrix: (Units=GPa)
#
#
# Indices 1 2 3 4 5 6 
#
# 1 21.2755 39.7047 21.4767 0.0000 4.0097 0.0000
# 2 39.7047 211.9846 62.2195 0.0000 6.6540 0.0000
# 3 21.4767 62.2195 128.2995 0.0000 27.0631 0.0000
# 4 0.0000 0.0000 0.0000 31.1101 0.0000 -0.6434
# 5 4.0097 6.6540 27.0631 0.0000 13.4718 0.0000
# 6 0.0000 0.0000 0.0000 -0.6434 0.0000 33.5216
#
#
#
# Elastic Compliance Matrix: (Units=1/GPa)
#
#
# Indices 1 2 3 4 5 6 
#
# 1 0.077365 -0.012654 -0.005683 0.000000 -0.005360 0.000000
# 2 -0.012654 0.007738 -0.002816 0.000000 0.005601 0.000000
# 3 -0.005683 -0.002816 0.016418 0.000000 -0.029899 0.000000
# 4 0.000000 0.000000 0.000000 0.032157 0.000000 0.000617
# 5 -0.005360 0.005601 -0.029899 0.000000 0.133122 0.000000
# 6 0.000000 0.000000 0.000000 0.000617 0.000000 0.029843
#
#
# Mechanical properties :
#
#
# Convention : Reuss Voigt Hill
#
# Bulk Modulus (GPa) = 16.88775 67.59569 42.24172
# Shear Modulus (GPa) = 13.93971 31.49795 22.71883
#
# Velocity S-wave (km/s) = 2.72012 4.08886 3.47259
# Velocity P-wave (km/s) = 4.33926 7.62697 6.20483
#
# Compressibility (1/GPa) = 0.05921452
#
# Stress axis : x y z
#
# Youngs Moduli (GPa) = 12.92579 129.23066 60.90853
#
# Poissons Ratio (x) = 1.63529 0.34616
# Poissons Ratio (y) = 0.16356 0.17151
# Poissons Ratio (z) = 0.07346 0.36390
#
# Static dielectric constant tensor:
#      x y z
#    x 2.804980 0.000000 0.266610 
#    y 0.000000 3.882890 0.000000 
#    z 0.266610 0.000000 3.728550 
# 
# 
# High freq. dielectric constant tensor:
#      x y z
#    x 1.665150 0.000000 0.025230 
#    y 0.000000 1.760790 0.000000 
#    z 0.025230 0.000000 1.752440 
# 
# From -- ./inp_files/1074.got.cif
#   From: 2010.03.12/outbox.cif.g09.slc.cpg/sg6_1_cif.got.tgz:1074.got - 2010.03.30 10:24:59.
