data_PCOD8052787
_publ_section_title
;
Structure prediction by ZEFSAII (Michael W. Deem and Ramdas Pophale) SiO2 
 PCOD8052787
Probable space group: C M
;
_chemical_formula_sum "Si O2"
_cell_formula_units_Z 24
_cell_length_a 18.211846
_cell_length_b 8.643891
_cell_length_c 24.542002
_cell_angle_alpha 90.000000
_cell_angle_beta 19.582217
_cell_angle_gamma 90.000000
_cell_volume 1294.864542
_symmetry_space_group_name_H-M "C M"
_symmetry_group_IT_number 8
_symmetry_cell_setting 'monoclinic'
loop_
_space_group_symop_operation_xyz
x,y,z
x,-y,z
1/2+x,1/2+y,z
1/2+x,1/2-y,z
loop_
_atom_site_type_symbol
_atom_site_label
_atom_site_fract_x
_atom_site_fract_y
_atom_site_fract_z
Si Si1 0.288130 0.680809 0.893160
Si Si2 0.429892 0.819241 0.427467
Si Si3 0.604362 0.180205 0.583198
Si Si4 0.117944 0.321761 0.733387
Si Si5 0.990466 0.820053 0.549902
Si Si6 0.288248 0.181183 0.239532
O O1 0.308169 0.500000 0.867859
O O2 0.409789 0.769103 0.759524
O O3 0.399917 0.721013 0.873733
O O4 0.037960 0.735974 0.070188
O O5 0.332732 0.772311 0.436207
O O6 0.291896 0.713502 0.564840
O O7 0.682532 0.772026 0.261562
O O8 0.393767 0.000000 0.463391
O O9 0.533729 0.214794 0.571332
O O10 0.648146 0.000000 0.559238
O O11 0.050021 0.500000 0.778159
O O12 0.240609 0.284464 0.704561
O O13 0.164362 0.773525 0.381769
O O14 0.015056 0.000000 0.547966
O O15 0.270266 0.000000 0.240387
#
# Coordination Sequence:
#
# PCOD8052787 Si02
#       6
#     4   4   4   4   4   4
#     4  10  19  33  54  77 102 132 166 205 249 297
#     4  10  18  30  51  74  98 131 169 205 244 296
#     4  11  21  33  51  75 103 134 169 207 246 293
#     4   9  17  31  51  73 100 132 166 204 245 294
#     4   9  18  34  53  73  99 132 168 207 251 295
#     4   9  19  35  54  76 102 131 164 206 253 297
#
# _framework density 18.534758
#
# number of rings (size 3 to 8) (size 9 to 14) (size 15 to 20)
#    0.000    2.333    0.000    7.000    0.000    4.667 
#    0.000    1.667    0.000    4.000    0.000    0.000 
#    0.000    0.000    0.000    0.000    0.000    0.000 
#
# Total GULP energy -148732.720783 kJ/mol
# GULP energy per Si atom -12394.393399 kJ/mol
# Density = 1.849257 g / cm^3
# Si number density = 18.534758 Si / 1000 Ang^3
#
#
#
# Elastic Constant Matrix: (Units=GPa)
#
#
# Indices 1 2 3 4 5 6 
#
# 1 127.3474 43.2522 53.8926 -0.0162 -29.1815 -0.0064
# 2 43.2522 65.2964 33.4414 -0.0217 -11.0105 0.0077
# 3 53.8926 33.4414 93.7546 0.0430 -33.4568 0.0127
# 4 -0.0162 -0.0217 0.0430 23.0538 0.0492 -7.0094
# 5 -29.1815 -11.0105 -33.4568 0.0492 32.2733 0.0226
# 6 -0.0064 0.0077 0.0127 -7.0094 0.0226 35.2013
#
#
#
# Elastic Compliance Matrix: (Units=1/GPa)
#
#
# Indices 1 2 3 4 5 6 
#
# 1 0.012459 -0.005720 -0.002854 -0.000005 0.006356 -0.000001
# 2 -0.005720 0.021378 -0.005683 0.000037 -0.003769 0.000006
# 3 -0.002854 -0.005683 0.020190 -0.000091 0.016412 -0.000035
# 4 -0.000005 0.000037 -0.000091 0.046173 -0.000163 0.009194
# 5 0.006356 -0.003769 0.016412 -0.000163 0.052460 -0.000070
# 6 -0.000001 0.000006 -0.000035 0.009194 -0.000070 0.030239
#
#
# Mechanical properties :
#
#
# Convention : Reuss Voigt Hill
#
# Bulk Modulus (GPa) = 39.19173 60.84119 50.01646
# Shear Modulus (GPa) = 22.73585 28.49317 25.61451
#
# Velocity S-wave (km/s) = 3.50617 3.92507 3.72152
# Velocity P-wave (km/s) = 6.13041 7.31015 6.74612
#
# Compressibility (1/GPa) = 0.02551559
#
# Stress axis : x y z
#
# Youngs Moduli (GPa) = 80.26140 46.77630 49.52936
#
# Poissons Ratio (x) = 0.26755 0.14133
# Poissons Ratio (y) = 0.45908 0.28146
# Poissons Ratio (z) = 0.22903 0.26582
#
# Static dielectric constant tensor:
#      x y z
#    x 3.835920 -0.000010 -0.564790 
#    y -0.000010 3.329890 0.000040 
#    z -0.564790 0.000040 3.346860 
# 
# 
# High freq. dielectric constant tensor:
#      x y z
#    x 1.724050 0.000000 -0.037880 
#    y 0.000000 1.724640 0.000010 
#    z -0.037880 0.000010 1.685660 
# 
# From -- ./inp_files/22571.got.cif
#   From: 2010.03.12/outbox.cif.g09.slc.cpg/sg8_12_cif.got.tgz:22571.got - 2010.03.31 10:45:26.
