data_PCOD8052033
_publ_section_title
;
Structure prediction by ZEFSAII (Michael W. Deem and Ramdas Pophale) SiO2 
 PCOD8052033
Probable space group: C 2
;
_chemical_formula_sum "Si O2"
_cell_formula_units_Z 26
_cell_length_a 25.709294
_cell_length_b 6.015345
_cell_length_c 20.983549
_cell_angle_alpha 90.000000
_cell_angle_beta 159.920085
_cell_angle_gamma 90.000000
_cell_volume 1114.145700
_symmetry_space_group_name_H-M "C 2"
_symmetry_group_IT_number 5
_symmetry_cell_setting 'monoclinic'
loop_
_space_group_symop_operation_xyz
x,y,z
-x,y,-z
1/2+x,1/2+y,z
1/2-x,1/2+y,-z
loop_
_atom_site_type_symbol
_atom_site_label
_atom_site_fract_x
_atom_site_fract_y
_atom_site_fract_z
Si Si1 0.779372 0.700390 0.335624
Si Si2 0.479771 0.876043 0.159195
Si Si3 0.711519 0.678885 0.836755
Si Si4 0.420859 0.475538 0.999722
Si Si5 0.060758 0.345961 0.395971
Si Si6 0.000000 0.947472 0.500000
Si Si7 0.849368 0.601273 0.746286
O O1 0.689176 0.538595 0.184787
O O2 0.860266 0.573607 0.488226
O O3 0.922667 0.797671 0.463965
O O4 0.651048 0.882790 0.208518
O O5 0.551207 0.828693 0.309298
O O6 0.589032 0.059758 0.253791
O O7 0.490914 0.681507 0.119177
O O8 0.308124 0.966607 0.973017
O O9 0.604344 0.790424 0.766143
O O10 0.622701 0.607196 0.672031
O O11 0.827595 0.863823 0.948717
O O12 0.550121 0.315773 0.116574
O O13 0.171050 0.148318 0.542859
#
# Coordination Sequence:
#
# PCOD8052033 Si02
#       7
#     4   4   4   4   4   2   4
#     4  12  26  47  78 108 149 194 252 311 376 438
#     4  11  28  48  73 107 154 194 246 307 376 445
#     4  11  25  47  75 109 145 189 251 308 374 447
#     4  11  26  50  75 107 151 195 244 315 373 444
#     4  12  28  45  77 110 146 196 251 306 373 447
#     4  12  22  50  72 110 144 188 250 318 358 446
#     4  11  28  48  74 108 148 197 248 300 371 458
#
# _framework density 23.336264
#
# number of rings (size 3 to 8) (size 9 to 14) (size 15 to 20)
#    0.000    0.615    3.077    2.769    6.462    4.923 
#    0.000    0.000    0.000    0.000    0.000    0.000 
#    0.000    0.000    0.000    0.000    0.000    0.000 
#
# Total GULP energy -161108.476431 kJ/mol
# GULP energy per Si atom -12392.959725 kJ/mol
# Density = 2.328315 g / cm^3
# Si number density = 23.336264 Si / 1000 Ang^3
#
#
#
# Elastic Constant Matrix: (Units=GPa)
#
#
# Indices 1 2 3 4 5 6 
#
# 1 106.8012 31.9697 38.5981 0.0000 10.1826 0.0000
# 2 31.9697 96.3482 31.4298 0.0004 3.8396 0.0002
# 3 38.5981 31.4298 76.9040 0.0001 9.7108 0.0001
# 4 0.0000 0.0004 0.0001 35.9430 0.0000 10.5959
# 5 10.1826 3.8396 9.7108 0.0000 52.0728 0.0000
# 6 0.0000 0.0002 0.0001 10.5959 0.0000 39.2226
#
#
#
# Elastic Compliance Matrix: (Units=1/GPa)
#
#
# Indices 1 2 3 4 5 6 
#
# 1 0.011943 -0.002318 -0.004889 0.000000 -0.001253 0.000000
# 2 -0.002318 0.012426 -0.003949 0.000000 0.000274 0.000000
# 3 -0.004889 -0.003949 0.017321 0.000000 -0.001983 0.000000
# 4 0.000000 0.000000 0.000000 0.030229 0.000000 -0.008166
# 5 -0.001253 0.000274 -0.001983 0.000000 0.019799 0.000000
# 6 0.000000 0.000000 0.000000 -0.008166 0.000000 0.027702
#
#
# Mechanical properties :
#
#
# Convention : Reuss Voigt Hill
#
# Bulk Modulus (GPa) = 51.60539 53.78319 52.69429
# Shear Modulus (GPa) = 33.74014 37.31805 35.52909
#
# Velocity S-wave (km/s) = 3.80652 4.00327 3.90614
# Velocity P-wave (km/s) = 6.44060 6.66823 6.55540
#
# Compressibility (1/GPa) = 0.01937782
#
# Stress axis : x y z
#
# Youngs Moduli (GPa) = 83.72831 80.47873 57.73255
#
# Poissons Ratio (x) = 0.18657 0.28224
# Poissons Ratio (y) = 0.19411 0.22800
# Poissons Ratio (z) = 0.40932 0.31783
#
# Static dielectric constant tensor:
#      x y z
#    x 4.174510 0.000000 0.312800 
#    y 0.000000 4.408970 0.000000 
#    z 0.312800 0.000000 4.297230 
# 
# 
# High freq. dielectric constant tensor:
#      x y z
#    x 1.935330 0.000000 0.018730 
#    y 0.000000 1.932260 0.000000 
#    z 0.018730 0.000000 1.926470 
# 
# From -- ./inp_files/69991.got.cif
#   From: 2010.03.12/outbox.cif.g09.slc.cpg/sg5_35_cif.got.tgz:69991.got - 2010.03.31 09:47:26.
