data_PCOD8052909
_publ_section_title
;
Structure prediction by ZEFSAII (Michael W. Deem and Ramdas Pophale) SiO2 
 PCOD8052909
Probable space group: C M
;
_chemical_formula_sum "Si O2"
_cell_formula_units_Z 32
_cell_length_a 8.901630
_cell_length_b 23.450086
_cell_length_c 7.205499
_cell_angle_alpha 90.000000
_cell_angle_beta 84.940871
_cell_angle_gamma 90.000000
_cell_volume 1498.244949
_symmetry_space_group_name_H-M "C M"
_symmetry_group_IT_number 8
_symmetry_cell_setting 'monoclinic'
loop_
_space_group_symop_operation_xyz
x,y,z
x,-y,z
1/2+x,1/2+y,z
1/2+x,1/2-y,z
loop_
_atom_site_type_symbol
_atom_site_label
_atom_site_fract_x
_atom_site_fract_y
_atom_site_fract_z
Si Si1 0.700490 0.564131 0.180410
Si Si2 0.742216 0.874021 0.812993
Si Si3 0.858668 0.064760 0.120489
Si Si4 0.200347 0.237618 0.522051
Si Si5 0.393881 0.140634 0.896997
Si Si6 0.164490 0.359160 0.406210
Si Si7 0.919968 0.236708 0.787390
Si Si8 0.321079 0.122239 0.488688
O O1 0.738681 0.500000 0.112191
O O2 0.529749 0.579038 0.150465
O O3 0.734341 0.569829 0.398262
O O4 0.808800 0.609318 0.070439
O O5 0.569405 0.873902 0.894161
O O6 0.745221 0.878171 0.589844
O O7 0.838635 0.819382 0.876013
O O8 0.825381 0.927358 0.903482
O O9 0.755434 0.111269 0.232862
O O10 0.818455 0.000000 0.183156
O O11 0.158722 0.289902 0.389828
O O12 0.365453 0.251560 0.583480
O O13 0.223039 0.176603 0.421655
O O14 0.098371 0.232273 0.722539
O O15 0.382555 0.209137 0.922424
O O16 0.317911 0.119254 0.712376
O O17 0.993912 0.379660 0.406576
#
# Coordination Sequence:
#
# PCOD8052909 Si02
#       8
#     4   4   4   4   4   4   4   4
#     4  11  27  44  60  89 123 161 213 260 301 359
#     4  10  22  39  67  93 123 164 201 247 310 362
#     4  11  27  44  60  89 123 161 213 260 301 359
#     4  10  18  35  62  97 129 154 195 247 303 375
#     4  10  21  41  65  93 125 161 204 246 306 368
#     4  10  21  41  65  93 125 161 204 246 306 368
#     4  10  18  35  62  97 129 154 195 247 303 375
#     4  10  22  39  67  93 123 164 201 247 310 362
#
# _framework density 21.358324
#
# number of rings (size 3 to 8) (size 9 to 14) (size 15 to 20)
#    0.000    1.750    5.000    0.750    7.000    4.000 
#    0.000    5.000    0.000    0.000    0.000    0.000 
#    0.000    0.000    0.000    0.000    0.000    0.000 
#
# Total GULP energy -198243.716919 kJ/mol
# GULP energy per Si atom -12390.232307 kJ/mol
# Density = 2.130971 g / cm^3
# Si number density = 21.358324 Si / 1000 Ang^3
#
#
#
# Elastic Constant Matrix: (Units=GPa)
#
#
# Indices 1 2 3 4 5 6 
#
# 1 77.6198 42.3288 33.9356 0.0000 11.0155 0.0000
# 2 42.3288 86.2758 34.4283 0.0000 -3.2944 0.0000
# 3 33.9356 34.4283 67.3569 0.0000 6.3455 0.0000
# 4 0.0000 0.0000 0.0000 20.6049 0.0000 2.6575
# 5 11.0155 -3.2944 6.3455 0.0000 35.9996 0.0000
# 6 0.0000 0.0000 0.0000 2.6575 0.0000 25.2200
#
#
#
# Elastic Compliance Matrix: (Units=1/GPa)
#
#
# Indices 1 2 3 4 5 6 
#
# 1 0.020642 -0.008085 -0.005697 0.000000 -0.006052 0.000000
# 2 -0.008085 0.017988 -0.005602 0.000000 0.005108 0.000000
# 3 -0.005697 -0.005602 0.020810 0.000000 -0.002437 0.000000
# 4 0.000000 0.000000 0.000000 0.049201 0.000000 -0.005185
# 5 -0.006052 0.005108 -0.002437 0.000000 0.030527 0.000000
# 6 0.000000 0.000000 0.000000 -0.005185 0.000000 0.040197
#
#
# Mechanical properties :
#
#
# Convention : Reuss Voigt Hill
#
# Bulk Modulus (GPa) = 48.37658 50.29310 49.33484
# Shear Modulus (GPa) = 22.21988 24.40220 23.31104
#
# Velocity S-wave (km/s) = 3.22893 3.38378 3.30726
# Velocity P-wave (km/s) = 6.04983 6.23418 6.14270
#
# Compressibility (1/GPa) = 0.02067116
#
# Stress axis : x y z
#
# Youngs Moduli (GPa) = 48.44472 55.59270 48.05472
#
# Poissons Ratio (x) = 0.44947 0.27378
# Poissons Ratio (y) = 0.39168 0.26920
# Poissons Ratio (z) = 0.27600 0.31143
#
# Static dielectric constant tensor:
#      x y z
#    x 3.950290 0.000000 0.193350 
#    y 0.000000 3.820730 0.000000 
#    z 0.193350 0.000000 3.570760 
# 
# 
# High freq. dielectric constant tensor:
#      x y z
#    x 1.856230 0.000000 0.012830 
#    y 0.000000 1.827020 0.000000 
#    z 0.012830 0.000000 1.811880 
# 
# From -- ./inp_files/8955.got.cif
#   From: 2010.03.12/outbox.cif.g09.slc.cpg/sg8_5_cif.got.tgz:8955.got - 2010.03.31 10:45:26.
