data_PCOD8052138
_publ_section_title
;
Structure prediction by ZEFSAII (Michael W. Deem and Ramdas Pophale) SiO2 
 PCOD8052138
Probable space group: C 2
;
_chemical_formula_sum "Si O2"
_cell_formula_units_Z 20
_cell_length_a 24.131861
_cell_length_b 6.414828
_cell_length_c 16.970162
_cell_angle_alpha 90.000000
_cell_angle_beta 159.861076
_cell_angle_gamma 90.000000
_cell_volume 904.473409
_symmetry_space_group_name_H-M "C 2"
_symmetry_group_IT_number 5
_symmetry_cell_setting 'monoclinic'
loop_
_space_group_symop_operation_xyz
x,y,z
-x,y,-z
1/2+x,1/2+y,z
1/2-x,1/2+y,-z
loop_
_atom_site_type_symbol
_atom_site_label
_atom_site_fract_x
_atom_site_fract_y
_atom_site_fract_z
Si Si1 0.500000 0.046890 0.000000
Si Si2 0.538115 0.736189 0.187890
Si Si3 0.051493 0.475221 0.463180
Si Si4 0.500000 0.595585 0.500000
Si Si5 0.724153 0.373615 0.369880
Si Si6 0.209318 0.717016 0.812734
O O1 0.657688 0.185329 0.227780
O O2 0.468107 0.908240 0.034660
O O3 0.574762 0.526783 0.187807
O O4 0.705290 0.798893 0.452363
O O5 0.403137 0.703917 0.076018
O O6 0.047068 0.238571 0.488406
O O7 0.129893 0.486104 0.481679
O O8 0.162560 0.612021 0.667908
O O9 0.873091 0.583936 0.225837
O O10 0.648661 0.455148 0.728989
#
# Coordination Sequence:
#
# PCOD8052138 Si02
#       6
#     2   4   4   2   4   4
#     4  12  24  44  76  94 138 180 206 302 322 388
#     4  12  25  45  66 101 135 178 228 270 336 401
#     4   9  19  38  64  92 128 167 215 274 327 393
#     4   8  16  36  64  96 114 172 216 262 346 386
#     4  12  25  45  66 101 135 178 228 270 336 401
#     4   9  19  38  64  92 128 167 215 274 327 393
#
# _framework density 22.112313
#
# number of rings (size 3 to 8) (size 9 to 14) (size 15 to 20)
#    0.000    2.000    2.000    4.200    0.000    3.200 
#    3.600    0.000    0.000    0.000    0.000    0.000 
#    0.000    0.000    0.000    0.000    0.000    0.000 
#
# Total GULP energy -123981.872572 kJ/mol
# GULP energy per Si atom -12398.187257 kJ/mol
# Density = 2.206198 g / cm^3
# Si number density = 22.112313 Si / 1000 Ang^3
#
#
#
# Elastic Constant Matrix: (Units=GPa)
#
#
# Indices 1 2 3 4 5 6 
#
# 1 54.0243 11.9934 23.7228 0.0000 26.1983 0.0000
# 2 11.9934 118.6194 34.9546 0.0000 9.4937 0.0000
# 3 23.7228 34.9546 92.6025 0.0000 9.9291 0.0000
# 4 0.0000 0.0000 0.0000 27.3955 0.0000 -0.8981
# 5 26.1983 9.4937 9.9291 0.0000 46.8422 0.0000
# 6 0.0000 0.0000 0.0000 -0.8981 0.0000 24.3216
#
#
#
# Elastic Compliance Matrix: (Units=1/GPa)
#
#
# Indices 1 2 3 4 5 6 
#
# 1 0.027992 -0.000019 -0.005613 0.000000 -0.014462 0.000000
# 2 -0.000019 0.009551 -0.003473 0.000000 -0.001189 0.000000
# 3 -0.005613 -0.003473 0.013441 0.000000 0.000994 0.000000
# 4 0.000000 0.000000 0.000000 0.036547 0.000000 0.001349
# 5 -0.014462 -0.001189 0.000994 0.000000 0.029467 0.000000
# 6 0.000000 0.000000 0.000000 0.001349 0.000000 0.041166
#
#
# Mechanical properties :
#
#
# Convention : Reuss Voigt Hill
#
# Bulk Modulus (GPa) = 30.51133 45.17641 37.84387
# Shear Modulus (GPa) = 26.69540 32.68356 29.68948
#
# Velocity S-wave (km/s) = 3.47834 3.84874 3.66822
# Velocity P-wave (km/s) = 5.47358 6.34233 5.92390
#
# Compressibility (1/GPa) = 0.03277471
#
# Stress axis : x y z
#
# Youngs Moduli (GPa) = 35.72388 104.70379 74.39841
#
# Poissons Ratio (x) = 0.00195 0.41762
# Poissons Ratio (y) = 0.00067 0.25837
# Poissons Ratio (z) = 0.20053 0.36362
#
# Static dielectric constant tensor:
#      x y z
#    x 3.826020 0.000000 0.247810 
#    y 0.000000 4.153380 0.000000 
#    z 0.247810 0.000000 3.757450 
# 
# 
# High freq. dielectric constant tensor:
#      x y z
#    x 1.861730 0.000000 0.016310 
#    y 0.000000 1.878540 0.000000 
#    z 0.016310 0.000000 1.852630 
# 
# From -- ./inp_files/40976.got.cif
#   From: 2010.03.12/outbox.cif.g09.slc.cpg/sg5_21_cif.got.tgz:40976.got - 2010.03.31 09:47:26.
