data_PCOD8052863
_publ_section_title
;
Structure prediction by ZEFSAII (Michael W. Deem and Ramdas Pophale) SiO2 
 PCOD8052863
Probable space group: C M
;
_chemical_formula_sum "Si O2"
_cell_formula_units_Z 32
_cell_length_a 20.031861
_cell_length_b 8.953686
_cell_length_c 25.044433
_cell_angle_alpha 90.000000
_cell_angle_beta 156.609139
_cell_angle_gamma 90.000000
_cell_volume 1783.308616
_symmetry_space_group_name_H-M "C M"
_symmetry_group_IT_number 8
_symmetry_cell_setting 'monoclinic'
loop_
_space_group_symop_operation_xyz
x,y,z
x,-y,z
1/2+x,1/2+y,z
1/2+x,1/2-y,z
loop_
_atom_site_type_symbol
_atom_site_label
_atom_site_fract_x
_atom_site_fract_y
_atom_site_fract_z
Si Si1 0.759580 0.828686 0.047130
Si Si2 0.830385 0.674201 0.319748
Si Si3 0.174609 0.822571 0.602360
Si Si4 0.978520 0.823490 0.775046
Si Si5 0.810822 0.323626 0.814020
Si Si6 0.689135 0.826298 0.112530
Si Si7 0.990053 0.828955 0.122239
Si Si8 0.210817 0.175573 0.852729
O O1 0.795306 0.800872 0.135863
O O2 0.929611 0.792374 0.138465
O O3 0.701766 0.000000 0.995807
O O4 0.606467 0.725459 0.915419
O O5 0.876257 0.500000 0.350830
O O6 0.772378 0.725833 0.218817
O O7 0.686498 0.707093 0.258416
O O8 0.988419 0.768688 0.454165
O O9 0.299852 0.756988 0.649767
O O10 0.232089 0.756969 0.702146
O O11 0.179797 0.000000 0.603742
O O12 0.053471 0.769474 0.772749
O O13 0.952732 0.000000 0.758763
O O14 0.814572 0.500000 0.810708
O O15 0.694348 0.273557 0.778826
O O16 0.000529 0.267841 0.962864
O O17 0.691421 0.000000 0.131652
O O18 0.953295 0.000000 0.081250
O O19 0.886951 0.733656 0.004253
O O20 0.224369 0.000000 0.866663
#
# Coordination Sequence:
#
# PCOD8052863 Si02
#       8
#     4   4   4   4   4   4   4   4
#     4   9  17  32  54  79 106 139 179 218 256 309
#     4  11  23  37  52  78 112 143 174 219 271 318
#     4  11  22  38  57  76 103 145 184 218 260 318
#     4  10  19  31  51  80 111 140 169 216 272 313
#     4   9  17  32  55  81 104 133 180 223 254 302
#     4  10  18  33  57  81 105 139 181 221 256 308
#     4   9  18  32  51  76 108 140 172 214 263 310
#     4   9  17  31  53  79 107 135 171 217 262 310
#
# _framework density 17.944174
#
# number of rings (size 3 to 8) (size 9 to 14) (size 15 to 20)
#    0.000    2.250    2.500    1.125    0.000    1.500 
#    0.000    2.500    0.000    3.000    0.000    0.000 
#    0.000    0.000    0.000    0.000    0.000    0.000 
#
# Total GULP energy -198355.435298 kJ/mol
# GULP energy per Si atom -12397.214706 kJ/mol
# Density = 1.790333 g / cm^3
# Si number density = 17.944174 Si / 1000 Ang^3
#
#
#
# Elastic Constant Matrix: (Units=GPa)
#
#
# Indices 1 2 3 4 5 6 
#
# 1 126.0290 32.7934 59.6050 -0.0038 10.0230 0.0003
# 2 32.7934 43.8075 24.3138 0.0026 5.5966 0.0010
# 3 59.6050 24.3138 95.2947 0.0080 6.7827 0.0005
# 4 -0.0038 0.0026 0.0080 26.3546 -0.0010 1.7284
# 5 10.0230 5.5966 6.7827 -0.0010 26.7300 -0.0005
# 6 0.0003 0.0010 0.0005 1.7284 -0.0005 23.2869
#
#
#
# Elastic Compliance Matrix: (Units=1/GPa)
#
#
# Indices 1 2 3 4 5 6 
#
# 1 0.012514 -0.005654 -0.006248 0.000004 -0.001923 0.000000
# 2 -0.005654 0.029557 -0.003783 -0.000003 -0.003108 -0.000001
# 3 -0.006248 -0.003783 0.015422 -0.000005 -0.000779 0.000000
# 4 0.000004 -0.000003 -0.000005 0.038130 0.000002 -0.002830
# 5 -0.001923 -0.003108 -0.000779 0.000002 0.038981 0.000001
# 6 0.000000 -0.000001 0.000000 -0.002830 0.000001 0.043153
#
#
# Mechanical properties :
#
#
# Convention : Reuss Voigt Hill
#
# Bulk Modulus (GPa) = 38.28151 55.39506 46.83829
# Shear Modulus (GPa) = 22.95335 25.16890 24.06113
#
# Velocity S-wave (km/s) = 3.58041 3.74922 3.66579
# Velocity P-wave (km/s) = 6.20261 7.04841 6.63899
#
# Compressibility (1/GPa) = 0.02612227
#
# Stress axis : x y z
#
# Youngs Moduli (GPa) = 79.91279 33.83330 64.84177
#
# Poissons Ratio (x) = 0.19130 0.40510
# Poissons Ratio (y) = 0.45185 0.24532
# Poissons Ratio (z) = 0.49926 0.12800
#
# Static dielectric constant tensor:
#      x y z
#    x 3.893370 0.000000 0.125170 
#    y 0.000000 3.224830 0.000000 
#    z 0.125170 0.000000 3.097510 
# 
# 
# High freq. dielectric constant tensor:
#      x y z
#    x 1.713730 0.000000 0.013680 
#    y 0.000000 1.685760 0.000000 
#    z 0.013680 0.000000 1.662720 
# 
# From -- ./inp_files/15781.got.cif
#   From: 2010.03.12/outbox.cif.g09.slc.cpg/sg8_8_cif.got.tgz:15781.got - 2010.03.31 10:45:26.
