data_PCOD8052660
_publ_section_title
;
Structure prediction by ZEFSAII (Michael W. Deem and Ramdas Pophale) SiO2 
 PCOD8052660
Probable space group: P C
;
_chemical_formula_sum "Si O2"
_cell_formula_units_Z 16
_cell_length_a 6.691853
_cell_length_b 20.906089
_cell_length_c 5.257829
_cell_angle_alpha 90.000000
_cell_angle_beta 109.766812
_cell_angle_gamma 90.000000
_cell_volume 692.230486
_symmetry_space_group_name_H-M "P C"
_symmetry_group_IT_number 7
_symmetry_cell_setting 'monoclinic'
loop_
_space_group_symop_operation_xyz
x,y,z
x,-y,1/2+z
loop_
_atom_site_type_symbol
_atom_site_label
_atom_site_fract_x
_atom_site_fract_y
_atom_site_fract_z
Si Si1 0.222210 0.958874 0.339190
Si Si2 0.595506 0.131227 0.032085
Si Si3 0.867405 0.541024 0.552713
Si Si4 0.594998 0.639959 0.215082
Si Si5 0.193316 0.353083 0.255235
Si Si6 0.885493 0.712316 0.018284
Si Si7 0.449637 0.735080 0.536940
Si Si8 0.871578 0.852851 0.147117
O O1 0.464695 0.934210 0.445657
O O2 0.067405 0.898976 0.274460
O O3 0.178188 0.999787 0.570941
O O4 0.425319 0.188763 0.998518
O O5 0.747069 0.124757 0.341234
O O6 0.723537 0.144858 0.830483
O O7 0.869725 0.486874 0.337502
O O8 0.649980 0.582785 0.434368
O O9 0.070536 0.585888 0.594377
O O10 0.828194 0.660974 0.212259
O O11 0.482989 0.702603 0.280299
O O12 0.420596 0.616794 0.936919
O O13 0.238468 0.297549 0.065283
O O14 0.063218 0.318711 0.421223
O O15 0.964357 0.780951 0.155692
O O16 0.660833 0.722217 0.786683
#
# Coordination Sequence:
#
# PCOD8052660 Si02
#       8
#     2   2   2   2   2   2   2   2
#     4  12  28  46  69 103 145 195 249 292 346 425
#     4  11  25  46  72 106 144 187 236 300 364 423
#     4  12  29  50  70 100 145 194 243 288 347 436
#     4  11  24  45  73 103 139 180 233 297 358 428
#     4  11  26  43  75 104 142 187 229 298 369 425
#     4  10  22  44  70 108 144 175 230 299 372 426
#     4  10  23  42  72 109 138 176 236 298 369 426
#     4  11  25  44  73 105 141 188 236 294 359 433
#
# _framework density 23.113689000000001
#
# number of rings (size 3 to 8) (size 9 to 14) (size 15 to 20)
#    0.000    1.000    2.500    2.250    7.000    7.000 
#    0.000    0.000    0.000    0.000    0.000    0.000 
#    0.000    0.000    0.000    0.000    0.000    0.000 
#
# Total GULP energy -198391.770010 kJ/mol
# GULP energy per Si atom -12399.485626 kJ/mol
# Density = 2.306108 g / cm^3
# Si number density = 23.113689 Si / 1000 Ang^3
#
#
#
# Elastic Constant Matrix: (Units=GPa)
#
#
# Indices 1 2 3 4 5 6 
#
# 1 85.0016 40.7507 15.6096 0.0000 -19.8912 0.0000
# 2 40.7507 107.4125 36.6013 0.0000 9.6016 0.0000
# 3 15.6096 36.6013 100.4867 0.0000 -13.8226 0.0000
# 4 0.0000 0.0000 0.0000 45.6503 0.0000 4.8233
# 5 -19.8912 9.6016 -13.8226 0.0000 41.6980 0.0000
# 6 0.0000 0.0000 0.0000 4.8233 0.0000 32.5953
#
#
#
# Elastic Compliance Matrix: (Units=1/GPa)
#
#
# Indices 1 2 3 4 5 6 
#
# 1 0.018128 -0.008500 0.001822 0.000000 0.011209 0.000000
# 2 -0.008500 0.015260 -0.005531 0.000000 -0.009402 0.000000
# 3 0.001822 -0.005531 0.012550 0.000000 0.006303 0.000000
# 4 0.000000 0.000000 0.000000 0.022254 0.000000 -0.003293
# 5 0.011209 -0.009402 0.006303 0.000000 0.033583 0.000000
# 6 0.000000 0.000000 0.000000 -0.003293 0.000000 0.031167
#
#
# Mechanical properties :
#
#
# Convention : Reuss Voigt Hill
#
# Bulk Modulus (GPa) = 46.46997 53.20265 49.83631
# Shear Modulus (GPa) = 30.38883 37.31802 33.85342
#
# Velocity S-wave (km/s) = 3.62989 4.02250 3.83122
# Velocity P-wave (km/s) = 6.14139 6.68145 6.41710
#
# Compressibility (1/GPa) = 0.02151928
#
# Stress axis : x y z
#
# Youngs Moduli (GPa) = 55.16311 65.53047 79.67957
#
# Poissons Ratio (x) = 0.55703 -0.14518
# Poissons Ratio (y) = 0.46891 0.44073
# Poissons Ratio (z) = -0.10051 0.36246
#
# Static dielectric constant tensor:
#      x y z
#    x 4.093870 0.000000 0.083620 
#    y 0.000000 4.436990 0.000000 
#    z 0.083620 0.000000 4.439210 
# 
# 
# High freq. dielectric constant tensor:
#      x y z
#    x 1.917200 0.000000 0.009300 
#    y 0.000000 1.917140 0.000000 
#    z 0.009300 0.000000 1.930470 
# 
# From -- ./inp_files/357.got.cif
#   From: 2010.03.12/outbox.cif.g09.slc.cpg/sg7_cif.got.tgz:357.got - 2010.03.30 08:40:41.
