data_PCOD8052632
_publ_section_title
;
Structure prediction by ZEFSAII (Michael W. Deem and Ramdas Pophale) SiO2 
 PCOD8052632
Probable space group: P C
;
_chemical_formula_sum "Si O2"
_cell_formula_units_Z 16
_cell_length_a 7.852286
_cell_length_b 17.325258
_cell_length_c 5.486731
_cell_angle_alpha 90.000000
_cell_angle_beta 114.892883
_cell_angle_gamma 90.000000
_cell_volume 677.084523
_symmetry_space_group_name_H-M "P C"
_symmetry_group_IT_number 7
_symmetry_cell_setting 'monoclinic'
loop_
_space_group_symop_operation_xyz
x,y,z
x,-y,1/2+z
loop_
_atom_site_type_symbol
_atom_site_label
_atom_site_fract_x
_atom_site_fract_y
_atom_site_fract_z
Si Si1 0.424170 0.696320 0.877980
Si Si2 0.044981 0.690083 0.914742
Si Si3 0.527326 0.172891 0.118609
Si Si4 0.239662 0.047312 0.815555
Si Si5 0.900875 0.841582 0.095834
Si Si6 0.949452 0.524957 0.984254
Si Si7 0.754046 0.263714 0.883147
Si Si8 0.362315 0.534908 0.682126
O O1 0.265506 0.688270 0.988970
O O2 0.399335 0.780192 0.736182
O O3 0.405782 0.625723 0.678539
O O4 0.638180 0.690318 0.107345
O O5 0.993937 0.615793 0.046300
O O6 0.918048 0.683628 0.594072
O O7 0.998639 0.769436 0.021501
O O8 0.708544 0.131801 0.348510
O O9 0.402350 0.110951 0.903439
O O10 0.597579 0.239071 0.981400
O O11 0.034819 0.085040 0.686460
O O12 0.263748 0.997754 0.584901
O O13 0.851762 0.813995 0.338216
O O14 0.840493 0.506201 0.661291
O O15 0.140083 0.476409 0.063802
O O16 0.450171 0.494942 0.493511
#
# Coordination Sequence:
#
# PCOD8052632 Si02
#       8
#     2   2   2   2   2   2   2   2
#     4  11  22  40  72  95 134 184 240 290 344 416
#     4  11  22  40  72  95 134 184 240 290 344 416
#     4  10  25  46  73 101 142 184 234 286 342 410
#     4  12  30  48  76 114 144 180 230 274 352 430
#     4  10  25  46  73 101 142 184 234 286 342 410
#     4  10  21  37  60  97 135 180 230 289 360 406
#     4  10  24  42  68 102 132 180 248 280 342 404
#     4  10  21  37  60  97 135 180 230 289 360 406
#
# _framework density 23.630725000000002
#
# number of rings (size 3 to 8) (size 9 to 14) (size 15 to 20)
#    0.000    1.500    2.500    1.500   12.250    3.000 
#    0.000    1.250    0.000    0.000    0.000    0.000 
#    0.000    0.000    0.000    0.000    0.000    0.000 
#
# Total GULP energy -198344.547057 kJ/mol
# GULP energy per Si atom -12396.534191 kJ/mol
# Density = 2.357694 g / cm^3
# Si number density = 23.630725 Si / 1000 Ang^3
#
#
#
# Elastic Constant Matrix: (Units=GPa)
#
#
# Indices 1 2 3 4 5 6 
#
# 1 63.7902 11.6293 22.8185 0.0000 8.1504 0.0000
# 2 11.6293 84.4345 38.3118 0.0000 12.3446 0.0000
# 3 22.8185 38.3118 118.6775 0.0000 -14.1528 0.0000
# 4 0.0000 0.0000 0.0000 41.3669 0.0000 -2.3168
# 5 8.1504 12.3446 -14.1528 0.0000 39.0214 0.0000
# 6 0.0000 0.0000 0.0000 -2.3168 0.0000 -3.2616
#
#
#
# Elastic Compliance Matrix: (Units=1/GPa)
#
#
# Indices 1 2 3 4 5 6 
#
# 1 0.017784 0.000183 -0.004106 0.000000 -0.005262 0.000000
# 2 0.000183 0.015529 -0.005894 0.000000 -0.007088 0.000000
# 3 -0.004106 -0.005894 0.011960 0.000000 0.007060 0.000000
# 4 0.000000 0.000000 0.000000 0.023249 0.000000 -0.016514
# 5 -0.005262 -0.007088 0.007060 0.000000 0.031529 0.000000
# 6 0.000000 0.000000 0.000000 -0.016514 0.000000 -0.294870
#
#
# Mechanical properties :
#
#
# Convention : Reuss Voigt Hill
#
# Bulk Modulus (GPa) = 39.00173 45.82459 42.41316
# Shear Modulus (GPa) = -30.00489 28.36819 -0.81835
#
# Velocity S-wave (km/s) = -3.56721 3.46855 -0.58912
# Velocity P-wave (km/s) = 0.65278 5.95611 4.18623
#
# Compressibility (1/GPa) = 0.02563989
#
# Stress axis : x y z
#
# Youngs Moduli (GPa) = 56.23017 64.39648 83.61103
#
# Poissons Ratio (x) = -0.01178 0.34330
# Poissons Ratio (y) = -0.01028 0.49276
# Poissons Ratio (z) = 0.23088 0.37952
#
# Static dielectric constant tensor:
#      x y z
#    x 4.215140 0.000000 -0.240260 
#    y 0.000000 4.009810 0.000000 
#    z -0.240260 0.000000 4.962000 
# 
# 
# High freq. dielectric constant tensor:
#      x y z
#    x 1.931150 0.000000 -0.002700 
#    y 0.000000 1.921370 0.000000 
#    z -0.002700 0.000000 1.948910 
# 
# From -- ./inp_files/763.got.cif
#   From: 2010.03.12/outbox.cif.g09.slc.cpg/sg7_cif.got.tgz:763.got - 2010.03.30 08:40:41.
