data_PCOD8052943
_publ_section_title
;
Structure prediction by ZEFSAII (Michael W. Deem and Ramdas Pophale) SiO2 
 PCOD8052943
Probable space group: C M
;
_chemical_formula_sum "Si O2"
_cell_formula_units_Z 32
_cell_length_a 19.871307
_cell_length_b 8.844688
_cell_length_c 19.772984
_cell_angle_alpha 90.000000
_cell_angle_beta 149.686441
_cell_angle_gamma 90.000000
_cell_volume 1754.049909
_symmetry_space_group_name_H-M "C M"
_symmetry_group_IT_number 8
_symmetry_cell_setting 'monoclinic'
loop_
_space_group_symop_operation_xyz
x,y,z
x,-y,z
1/2+x,1/2+y,z
1/2+x,1/2-y,z
loop_
_atom_site_type_symbol
_atom_site_label
_atom_site_fract_x
_atom_site_fract_y
_atom_site_fract_z
Si Si1 0.254080 0.826899 0.500000
Si Si2 0.567254 0.325585 0.457660
Si Si3 0.543201 0.179472 0.936667
Si Si4 0.264224 0.677145 0.732771
Si Si5 0.274179 0.320809 0.233822
Si Si6 0.106769 0.826484 0.707747
Si Si7 0.303919 0.675754 0.410026
Si Si8 0.018603 0.823319 0.777160
O O1 0.119024 0.808970 0.425860
O O2 0.225556 0.769239 0.399365
O O3 0.367320 0.728278 0.634094
O O4 0.302411 0.000000 0.539997
O O5 0.575202 0.500000 0.489131
O O6 0.654576 0.226224 0.583636
O O7 0.416216 0.263898 0.328452
O O8 0.401424 0.239782 0.836848
O O9 0.581315 0.235726 0.894814
O O10 0.539229 0.000000 0.933307
O O11 0.655432 0.244540 0.084889
O O12 0.288475 0.500000 0.749317
O O13 0.214700 0.721064 0.764873
O O14 0.272297 0.500000 0.229890
O O15 0.253468 0.266982 0.293273
O O16 0.107650 0.788259 0.788342
O O17 0.961432 0.793034 0.550986
O O18 0.146360 0.000000 0.729552
O O19 0.273464 0.500000 0.395705
O O20 0.014654 0.000000 0.789894
#
# Coordination Sequence:
#
# PCOD8052943 Si02
#       8
#     4   4   4   4   4   4   4   4
#     4  10  19  30  53  84 112 142 178 224 274 327
#     4  10  19  36  58  80 108 143 185 228 272 326
#     4  11  22  37  58  81 111 152 190 226 275 334
#     4  12  23  34  54  84 114 143 184 234 277 324
#     4   9  19  37  59  80 106 148 191 223 273 336
#     4   9  18  34  57  80 108 144 181 227 278 326
#     4   9  17  33  56  79 109 144 178 224 275 325
#     4  10  20  35  55  80 112 146 183 228 278 328
#
# _framework density 18.243493999999998
#
# number of rings (size 3 to 8) (size 9 to 14) (size 15 to 20)
#    0.000    2.000    2.500    3.000    0.000    3.000 
#    0.000    3.750    0.000    3.000    0.000    0.000 
#    0.000    0.000    0.000    0.000    0.000    0.000 
#
# Total GULP energy -198417.236145 kJ/mol
# GULP energy per Si atom -12401.077259 kJ/mol
# Density = 1.820197 g / cm^3
# Si number density = 18.243494 Si / 1000 Ang^3
#
#
#
# Elastic Constant Matrix: (Units=GPa)
#
#
# Indices 1 2 3 4 5 6 
#
# 1 132.4215 43.6637 61.4495 0.0000 -16.7047 0.0000
# 2 43.6637 74.6105 31.5689 0.0001 -5.4305 0.0001
# 3 61.4495 31.5689 111.2027 0.0001 -18.7199 0.0001
# 4 0.0000 0.0001 0.0001 10.8091 0.0001 -8.4238
# 5 -16.7047 -5.4305 -18.7199 0.0001 25.4713 0.0000
# 6 0.0000 0.0001 0.0001 -8.4238 0.0000 31.9386
#
#
#
# Elastic Compliance Matrix: (Units=1/GPa)
#
#
# Indices 1 2 3 4 5 6 
#
# 1 0.011600 -0.004627 -0.004544 0.000000 0.003281 0.000000
# 2 -0.004627 0.017078 -0.002498 0.000000 -0.001230 0.000000
# 3 -0.004544 -0.002498 0.013262 0.000000 0.006234 0.000000
# 4 0.000000 0.000000 0.000000 0.116451 0.000000 0.030714
# 5 0.003281 -0.001230 0.006234 0.000000 0.045732 0.000000
# 6 0.000000 0.000000 0.000000 0.030714 0.000000 0.039411
#
#
# Mechanical properties :
#
#
# Convention : Reuss Voigt Hill
#
# Bulk Modulus (GPa) = 53.75888 65.73321 59.74604
# Shear Modulus (GPa) = 18.31009 25.74731 22.02870
#
# Velocity S-wave (km/s) = 3.17148 3.76082 3.47865
# Velocity P-wave (km/s) = 6.55305 7.41402 6.99679
#
# Compressibility (1/GPa) = 0.01860158
#
# Stress axis : x y z
#
# Youngs Moduli (GPa) = 86.20757 58.55344 75.40143
#
# Poissons Ratio (x) = 0.27093 0.34263
# Poissons Ratio (y) = 0.39888 0.18839
# Poissons Ratio (z) = 0.39173 0.14629
#
# Static dielectric constant tensor:
#      x y z
#    x 3.666330 0.000000 -0.134370 
#    y 0.000000 3.271730 0.000000 
#    z -0.134370 0.000000 3.305760 
# 
# 
# High freq. dielectric constant tensor:
#      x y z
#    x 1.724820 0.000000 -0.009520 
#    y 0.000000 1.698170 0.000000 
#    z -0.009520 0.000000 1.676480 
# 
# From -- ./inp_files/31349.got.cif
#   From: 2010.03.12/outbox.cif.g09.slc.cpg/sg8_16_cif.got.tgz:31349.got - 2010.03.31 10:45:26.
