data_PCOD8052900
_publ_section_title
;
Structure prediction by ZEFSAII (Michael W. Deem and Ramdas Pophale) SiO2 
 PCOD8052900
Probable space group: C M
;
_chemical_formula_sum "Si O2"
_cell_formula_units_Z 32
_cell_length_a 16.372707
_cell_length_b 19.869103
_cell_length_c 9.626312
_cell_angle_alpha 90.000000
_cell_angle_beta 148.143283
_cell_angle_gamma 90.000000
_cell_volume 1652.819675
_symmetry_space_group_name_H-M "C M"
_symmetry_group_IT_number 8
_symmetry_cell_setting 'monoclinic'
loop_
_space_group_symop_operation_xyz
x,y,z
x,-y,z
1/2+x,1/2+y,z
1/2+x,1/2-y,z
loop_
_atom_site_type_symbol
_atom_site_label
_atom_site_fract_x
_atom_site_fract_y
_atom_site_fract_z
Si Si1 0.245880 0.203713 0.227210
Si Si2 0.374146 0.674830 0.081448
Si Si3 0.889776 0.323186 0.166761
Si Si4 0.242016 0.679937 0.605141
Si Si5 0.224667 0.826411 0.505426
Si Si6 0.264872 0.926728 0.779978
Si Si7 0.926455 0.925841 0.376216
Si Si8 0.423659 0.672861 0.615909
O O1 0.372634 0.167662 0.309171
O O2 0.223044 0.161639 0.337131
O O3 0.318200 0.275635 0.373654
O O4 0.080877 0.206746 0.906439
O O5 0.311139 0.750277 0.021706
O O6 0.557338 0.678179 0.332782
O O7 0.321779 0.623247 0.127540
O O8 0.304194 0.648757 0.836832
O O9 0.059127 0.325731 0.346465
O O10 0.799859 0.383822 0.966926
O O11 0.304725 0.756157 0.665793
O O12 0.316690 0.640310 0.583334
O O13 0.315878 0.887377 0.712699
O O14 0.082376 0.938113 0.515993
O O15 0.348308 0.000000 0.903524
O O16 0.964279 0.890000 0.576860
O O17 0.848902 0.000000 0.287455
#
# Coordination Sequence:
#
# PCOD8052900 Si02
#       8
#     4   4   4   4   4   4   4   4
#     4  11  22  34  60  88 123 145 200 251 290 340
#     4  10  18  35  56  83 114 149 195 237 292 342
#     4  11  21  34  58  89 115 154 193 243 291 353
#     4  10  21  34  59  84 118 151 190 247 294 344
#     4   9  19  34  54  84 114 151 193 236 290 344
#     4  10  20  37  59  84 119 155 194 237 294 357
#     4  10  21  37  59  84 116 155 196 241 294 355
#     4  11  22  39  57  92 119 156 195 248 299 347
#
# _framework density 19.360854
#
# number of rings (size 3 to 8) (size 9 to 14) (size 15 to 20)
#    0.000    1.750    5.000    0.000    1.750    0.000 
#    0.000    3.125    0.000    0.000    0.000    0.000 
#    0.000    0.000    0.000    0.000    0.000    0.000 
#
# Total GULP energy -198225.459455 kJ/mol
# GULP energy per Si atom -12389.091216 kJ/mol
# Density = 1.931679 g / cm^3
# Si number density = 19.360854 Si / 1000 Ang^3
#
#
#
# Elastic Constant Matrix: (Units=GPa)
#
#
# Indices 1 2 3 4 5 6 
#
# 1 108.5856 32.6840 28.0968 0.0000 -21.8185 0.0000
# 2 32.6840 113.1977 36.3446 0.0000 -23.3784 0.0000
# 3 28.0968 36.3446 72.9243 0.0000 -23.6853 0.0000
# 4 0.0000 0.0000 0.0000 18.8965 0.0000 -4.9555
# 5 -21.8185 -23.3784 -23.6853 0.0000 38.2538 0.0000
# 6 0.0000 0.0000 0.0000 -4.9555 0.0000 14.7246
#
#
#
# Elastic Compliance Matrix: (Units=1/GPa)
#
#
# Indices 1 2 3 4 5 6 
#
# 1 0.011066 -0.001693 -0.002135 0.000000 0.003955 0.000000
# 2 -0.001693 0.011284 -0.003812 0.000000 0.003570 0.000000
# 3 -0.002135 -0.003812 0.019130 0.000000 0.008297 0.000000
# 4 0.000000 0.000000 0.000000 0.058043 0.000000 0.019534
# 5 0.003955 0.003570 0.008297 0.000000 0.035716 0.000000
# 6 0.000000 0.000000 0.000000 0.019534 0.000000 0.074488
#
#
# Mechanical properties :
#
#
# Convention : Reuss Voigt Hill
#
# Bulk Modulus (GPa) = 38.16767 54.32870 46.24818
# Shear Modulus (GPa) = 21.39120 27.54713 24.46916
#
# Velocity S-wave (km/s) = 3.32756 3.77613 3.55892
# Velocity P-wave (km/s) = 5.87539 6.86544 6.38962
#
# Compressibility (1/GPa) = 0.02620019
#
# Stress axis : x y z
#
# Youngs Moduli (GPa) = 90.36635 88.61966 52.27303
#
# Poissons Ratio (x) = 0.15001 0.11163
# Poissons Ratio (y) = 0.15296 0.19927
# Poissons Ratio (z) = 0.19297 0.33782
#
# Static dielectric constant tensor:
#      x y z
#    x 3.807650 0.000000 -0.126440 
#    y 0.000000 3.672960 0.000000 
#    z -0.126440 0.000000 3.380140 
# 
# 
# High freq. dielectric constant tensor:
#      x y z
#    x 1.763930 0.000000 -0.018740 
#    y 0.000000 1.719370 0.000000 
#    z -0.018740 0.000000 1.737130 
# 
# From -- ./inp_files/11349.got.cif
#   From: 2010.03.12/outbox.cif.g09.slc.cpg/sg8_6_cif.got.tgz:11349.got - 2010.03.31 10:45:26.
