data_PCOD8052687
_publ_section_title
;
Structure prediction by ZEFSAII (Michael W. Deem and Ramdas Pophale) SiO2 
 PCOD8052687
Probable space group: P C
;
_chemical_formula_sum "Si O2"
_cell_formula_units_Z 12
_cell_length_a 6.713985
_cell_length_b 16.793608
_cell_length_c 4.931476
_cell_angle_alpha 90.000000
_cell_angle_beta 105.811284
_cell_angle_gamma 90.000000
_cell_volume 534.996036
_symmetry_space_group_name_H-M "P C"
_symmetry_group_IT_number 7
_symmetry_cell_setting 'monoclinic'
loop_
_space_group_symop_operation_xyz
x,y,z
x,-y,1/2+z
loop_
_atom_site_type_symbol
_atom_site_label
_atom_site_fract_x
_atom_site_fract_y
_atom_site_fract_z
Si Si1 0.462690 0.332450 0.056180
Si Si2 0.239121 0.174335 0.148664
Si Si3 0.605975 0.946973 0.776360
Si Si4 0.105976 0.446973 0.776362
Si Si5 0.962690 0.832450 0.056179
Si Si6 0.739121 0.674335 0.148665
O O1 0.318694 0.257529 0.062803
O O2 0.579678 0.361552 0.370499
O O3 0.326376 0.405573 0.901352
O O4 0.627289 0.307792 0.889742
O O5 0.422913 0.113643 0.274549
O O6 0.127287 0.192208 0.389739
O O7 0.079680 0.138447 0.870497
O O8 0.587932 0.975947 0.461150
O O9 0.826375 0.905573 0.901349
O O10 0.087933 0.475947 0.461150
O O11 0.922912 0.386357 0.774550
O O12 0.818696 0.757528 0.062807
#
# Coordination Sequence:
#
# PCOD8052687 Si02
#       6
#     2   2   2   2   2   2
#     4  12  26  45  76 104 138 186 238 283 345 419
#     4  12  26  45  76 104 138 186 238 283 345 419
#     4  12  28  46  70 106 146 178 230 296 350 404
#     4  12  28  46  70 106 146 178 230 296 350 404
#     4  12  26  45  76 104 138 186 238 283 345 419
#     4  12  26  45  76 104 138 186 238 283 345 419
#
# _framework density 22.430073
#
# number of rings (size 3 to 8) (size 9 to 14) (size 15 to 20)
#    0.000    0.000    3.333    6.000    4.667    8.000 
#    0.000    0.000    0.000    0.000    0.000    0.000 
#    0.000    0.000    0.000    0.000    0.000    0.000 
#
# Total GULP energy -148937.372463 kJ/mol
# GULP energy per Si atom -12411.447705 kJ/mol
# Density = 2.237902 g / cm^3
# Si number density = 22.430073 Si / 1000 Ang^3
#
#
#
# Elastic Constant Matrix: (Units=GPa)
#
#
# Indices 1 2 3 4 5 6 
#
# 1 95.5499 25.4744 12.3269 0.0000 -8.8324 0.0000
# 2 25.4744 80.5741 6.4371 0.0000 -0.8529 0.0000
# 3 12.3269 6.4371 104.2991 0.0000 8.0272 0.0000
# 4 0.0000 0.0000 0.0000 49.6785 0.0000 6.1514
# 5 -8.8324 -0.8529 8.0272 0.0000 47.9285 0.0000
# 6 0.0000 0.0000 0.0000 6.1514 0.0000 23.9463
#
#
#
# Elastic Compliance Matrix: (Units=1/GPa)
#
#
# Indices 1 2 3 4 5 6 
#
# 1 0.011817 -0.003603 -0.001354 0.000000 0.002340 0.000000
# 2 -0.003603 0.013577 -0.000385 0.000000 -0.000358 0.000000
# 3 -0.001354 -0.000385 0.009919 0.000000 -0.001918 0.000000
# 4 0.000000 0.000000 0.000000 0.020791 0.000000 -0.005341
# 5 0.002340 -0.000358 -0.001918 0.000000 0.021611 0.000000
# 6 0.000000 0.000000 0.000000 -0.005341 0.000000 0.043132
#
#
# Mechanical properties :
#
#
# Convention : Reuss Voigt Hill
#
# Bulk Modulus (GPa) = 40.60197 40.98888 40.79542
# Shear Modulus (GPa) = 35.78037 40.05630 37.91833
#
# Velocity S-wave (km/s) = 3.99832 4.23049 4.11605
# Velocity P-wave (km/s) = 6.28143 6.49434 6.38877
#
# Compressibility (1/GPa) = 0.02462935
#
# Stress axis : x y z
#
# Youngs Moduli (GPa) = 84.62040 73.65358 100.81441
#
# Poissons Ratio (x) = 0.26539 0.13655
# Poissons Ratio (y) = 0.30491 0.03877
# Poissons Ratio (z) = 0.11461 0.02832
#
# Static dielectric constant tensor:
#      x y z
#    x 4.209960 0.000000 0.099910 
#    y 0.000000 3.890750 0.000000 
#    z 0.099910 0.000000 4.303100 
# 
# 
# High freq. dielectric constant tensor:
#      x y z
#    x 1.901170 0.000000 0.003370 
#    y 0.000000 1.881020 0.000000 
#    z 0.003370 0.000000 1.905900 
# 
# From -- ./inp_files/150.got.cif
#   From: 2010.03.12/outbox.cif.g09.slc.cpg/sg7_cif.got.tgz:150.got - 2010.03.30 08:40:41.
