data_PCOD8052037
_publ_section_title
;
Structure prediction by ZEFSAII (Michael W. Deem and Ramdas Pophale) SiO2 
 PCOD8052037
Probable space group: C 2
;
_chemical_formula_sum "Si O2"
_cell_formula_units_Z 28
_cell_length_a 30.051300
_cell_length_b 5.572453
_cell_length_c 8.032488
_cell_angle_alpha 90.000000
_cell_angle_beta 116.938741
_cell_angle_gamma 90.000000
_cell_volume 1199.159426
_symmetry_space_group_name_H-M "C 2"
_symmetry_group_IT_number 5
_symmetry_cell_setting 'monoclinic'
loop_
_space_group_symop_operation_xyz
x,y,z
-x,y,-z
1/2+x,1/2+y,z
1/2-x,1/2+y,-z
loop_
_atom_site_type_symbol
_atom_site_label
_atom_site_fract_x
_atom_site_fract_y
_atom_site_fract_z
Si Si1 0.305528 0.667700 0.432211
Si Si2 0.946623 0.200332 0.981244
Si Si3 0.885287 0.520587 0.442513
Si Si4 0.343001 0.403594 0.186752
Si Si5 0.553579 0.670977 0.640988
Si Si6 0.196209 0.872950 0.237944
Si Si7 0.102201 0.697672 0.204402
O O1 0.307793 0.486281 0.279539
O O2 0.252660 0.794065 0.327663
O O3 0.310694 0.563751 0.626006
O O4 0.351910 0.843654 0.495952
O O5 0.950084 0.263574 0.179189
O O6 0.927231 0.449175 0.870432
O O7 0.000000 0.139159 0.000000
O O8 0.916626 0.950216 0.904540
O O9 0.851587 0.617934 0.230258
O O10 0.935714 0.399318 0.460081
O O11 0.897945 0.735272 0.594693
O O12 0.399749 0.495561 0.299153
O O13 0.317975 0.475165 0.969548
O O14 0.500000 0.554186 0.500000
O O15 0.157561 0.659007 0.218374
#
# Coordination Sequence:
#
# PCOD8052037 Si02
#       7
#     4   4   4   4   4   4   4
#     4  11  27  46  73 111 149 205 258 325 392 469
#     4  12  27  48  75 115 145 211 260 329 394 476
#     4  11  25  48  72 107 152 200 255 325 394 468
#     4  11  26  48  72 110 151 199 259 322 387 479
#     4  11  26  46  75 107 152 200 261 325 397 462
#     4  12  25  48  77 109 155 201 263 320 397 467
#     4  12  25  48  78 107 158 199 262 325 395 465
#
# _framework density 23.349691
#
# number of rings (size 3 to 8) (size 9 to 14) (size 15 to 20)
#    0.000    0.571    2.857    3.857    6.000    0.571 
#    2.571    0.000    0.000    0.000    0.000    0.000 
#    0.000    0.000    0.000    0.000    0.000    0.000 
#
# Total GULP energy -173451.708556 kJ/mol
# GULP energy per Si atom -12389.407754 kJ/mol
# Density = 2.329655 g / cm^3
# Si number density = 23.349691 Si / 1000 Ang^3
#
#
#
# Elastic Constant Matrix: (Units=GPa)
#
#
# Indices 1 2 3 4 5 6 
#
# 1 141.3852 29.3783 57.7971 0.0000 -12.7538 0.0000
# 2 29.3783 90.7903 44.7318 0.0000 -9.2618 0.0000
# 3 57.7971 44.7318 166.5851 0.0000 -24.3397 0.0000
# 4 0.0000 0.0000 0.0000 -111.8435 0.0000 -98.5778
# 5 -12.7538 -9.2618 -24.3397 0.0000 38.3549 0.0000
# 6 0.0000 0.0000 0.0000 -98.5778 0.0000 -34.5519
#
#
#
# Elastic Compliance Matrix: (Units=1/GPa)
#
#
# Indices 1 2 3 4 5 6 
#
# 1 0.008441 -0.001453 -0.002402 0.000000 0.000931 0.000000
# 2 -0.001453 0.012978 -0.002859 0.000000 0.000837 0.000000
# 3 -0.002402 -0.002859 0.008141 0.000000 0.003677 0.000000
# 4 0.000000 0.000000 0.000000 0.005903 0.000000 -0.016842
# 5 0.000931 0.000837 0.003677 0.000000 0.028918 0.000000
# 6 0.000000 0.000000 0.000000 -0.016842 0.000000 0.019108
#
#
# Mechanical properties :
#
#
# Convention : Reuss Voigt Hill
#
# Bulk Modulus (GPa) = 61.98483 73.61944 67.80213
# Shear Modulus (GPa) = 48.87847 -3.81788 22.53030
#
# Velocity S-wave (km/s) = 4.58025 -1.28009 3.10967
# Velocity P-wave (km/s) = 7.38753 5.42335 6.48029
#
# Compressibility (1/GPa) = 0.01613298
#
# Stress axis : x y z
#
# Youngs Moduli (GPa) = 118.47179 77.05187 122.82957
#
# Poissons Ratio (x) = 0.11193 0.29509
# Poissons Ratio (y) = 0.17210 0.35113
# Poissons Ratio (z) = 0.28462 0.22027
#
# Static dielectric constant tensor:
#      x y z
#    x 4.887170 0.000000 0.018390 
#    y 0.000000 4.104520 0.000000 
#    z 0.018390 0.000000 4.584630 
# 
# 
# High freq. dielectric constant tensor:
#      x y z
#    x 1.947070 0.000000 -0.014400 
#    y 0.000000 1.910190 0.000000 
#    z -0.014400 0.000000 1.938120 
# 
# From -- ./inp_files/32328.got.cif
#   From: 2010.03.12/outbox.cif.g09.slc.cpg/sg5_17_cif.got.tgz:32328.got - 2010.03.31 09:47:26.
