data_PCOD8052465
_publ_section_title
;
Structure prediction by ZEFSAII (Michael W. Deem and Ramdas Pophale) SiO2 
 PCOD8052465
Probable space group: P M
;
_chemical_formula_sum "Si O2"
_cell_formula_units_Z 16
_cell_length_a 9.277545
_cell_length_b 8.771846
_cell_length_c 11.168628
_cell_angle_alpha 90.000000
_cell_angle_beta 64.996067
_cell_angle_gamma 90.000000
_cell_volume 823.731555
_symmetry_space_group_name_H-M "P M"
_symmetry_group_IT_number 6
_symmetry_cell_setting 'monoclinic'
loop_
_space_group_symop_operation_xyz
x,y,z
x,-y,z
loop_
_atom_site_type_symbol
_atom_site_label
_atom_site_fract_x
_atom_site_fract_y
_atom_site_fract_z
Si Si1 0.214300 0.819316 0.619340
Si Si2 0.448337 0.825389 0.152047
Si Si3 0.789388 0.824796 0.125372
Si Si4 0.616868 0.177814 0.850926
Si Si5 0.539803 0.819651 0.614355
Si Si6 0.856789 0.178801 0.374325
Si Si7 0.921241 0.321710 0.850934
Si Si8 0.163591 0.677777 0.380334
O O1 0.383281 0.752544 0.605536
O O2 0.184095 0.767063 0.495815
O O3 0.081492 0.760352 0.755897
O O4 0.213834 0.000000 0.622356
O O5 0.601129 0.792427 0.181546
O O6 0.307334 0.715023 0.240244
O O7 0.392003 0.000000 0.186547
O O8 0.489361 0.788563 0.999633
O O9 0.847482 0.786899 0.237124
O O10 0.821667 0.000000 0.078416
O O11 0.887148 0.719322 0.000656
O O12 0.541868 0.232222 0.752177
O O13 0.778262 0.269731 0.815540
O O14 0.662968 0.000000 0.833142
O O15 0.696456 0.759027 0.492302
O O16 0.536009 0.000000 0.605970
O O17 0.000422 0.274207 0.376489
O O18 0.882735 0.000000 0.390685
O O19 0.944992 0.500000 0.828714
O O20 0.160431 0.500000 0.409269
#
# Coordination Sequence:
#
# PCOD8052465 Si02
#       8
#     2   2   2   2   2   2   2   2
#     4  11  22  39  61  83 110 146 190 237 282 332
#     4   9  18  35  59  85 112 146 188 231 275 331
#     4   9  19  37  61  86 111 147 195 237 276 328
#     4   9  18  36  61  86 112 146 189 233 279 332
#     4   9  19  36  61  87 106 135 186 242 284 322
#     4  10  20  37  61  85 110 144 189 238 284 332
#     4  11  22  36  56  86 120 151 184 225 281 341
#     4  12  25  38  54  82 117 151 187 229 285 344
#
# _framework density 19.423801999999998
#
# number of rings (size 3 to 8) (size 9 to 14) (size 15 to 20)
#    0.000    2.000    0.000    4.875    0.000    6.500 
#    0.000    6.250    0.000    0.000    0.000    0.000 
#    0.000    0.000    0.000    0.000    0.000    0.000 
#
# Total GULP energy -198456.832249 kJ/mol
# GULP energy per Si atom -12403.552016 kJ/mol
# Density = 1.937959 g / cm^3
# Si number density = 19.423802 Si / 1000 Ang^3
#
#
#
# Elastic Constant Matrix: (Units=GPa)
#
#
# Indices 1 2 3 4 5 6 
#
# 1 139.7984 43.4111 71.5338 0.0000 -1.9839 0.0000
# 2 43.4111 78.2669 37.5340 0.0000 -5.5525 0.0000
# 3 71.5338 37.5340 101.9923 0.0000 -6.6711 0.0000
# 4 0.0000 0.0000 0.0000 11.5013 0.0000 2.3177
# 5 -1.9839 -5.5525 -6.6711 0.0000 36.7899 0.0000
# 6 0.0000 0.0000 0.0000 2.3177 0.0000 8.0702
#
#
#
# Elastic Compliance Matrix: (Units=1/GPa)
#
#
# Indices 1 2 3 4 5 6 
#
# 1 0.011799 -0.003183 -0.007179 0.000000 -0.001146 0.000000
# 2 -0.003183 0.016437 -0.003710 0.000000 0.001636 0.000000
# 3 -0.007179 -0.003710 0.016337 0.000000 0.002015 0.000000
# 4 0.000000 0.000000 0.000000 0.092288 0.000000 -0.026505
# 5 -0.001146 0.001636 0.002015 0.000000 0.027732 0.000000
# 6 0.000000 0.000000 0.000000 -0.026505 0.000000 0.131525
#
#
# Mechanical properties :
#
#
# Convention : Reuss Voigt Hill
#
# Bulk Modulus (GPa) = 60.86443 69.44615 65.15529
# Shear Modulus (GPa) = 15.16363 22.44419 18.80391
#
# Velocity S-wave (km/s) = 2.79708 3.40295 3.11478
# Velocity P-wave (km/s) = 6.46796 7.16037 6.82295
#
# Compressibility (1/GPa) = 0.01642996
#
# Stress axis : x y z
#
# Youngs Moduli (GPa) = 84.75621 60.83734 61.21211
#
# Poissons Ratio (x) = 0.19363 0.43943
# Poissons Ratio (y) = 0.26976 0.22708
# Poissons Ratio (z) = 0.60844 0.22569
#
# Static dielectric constant tensor:
#      x y z
#    x 3.683180 0.000000 0.029020 
#    y 0.000000 3.312300 0.000000 
#    z 0.029020 0.000000 3.696310 
# 
# 
# High freq. dielectric constant tensor:
#      x y z
#    x 1.761380 0.000000 0.002030 
#    y 0.000000 1.734540 0.000000 
#    z 0.002030 0.000000 1.770610 
# 
# From -- ./inp_files/3759.got.cif
#   From: 2010.03.12/outbox.cif.g09.slc.cpg/sg6_2_cif.got.tgz:3759.got - 2010.03.30 10:24:59.
