data_PCOD8052691
_publ_section_title
;
Structure prediction by ZEFSAII (Michael W. Deem and Ramdas Pophale) SiO2 
 PCOD8052691
Probable space group: C M
;
_chemical_formula_sum "Si O2"
_cell_formula_units_Z 28
_cell_length_a 10.011388
_cell_length_b 31.646235
_cell_length_c 5.326920
_cell_angle_alpha 90.000000
_cell_angle_beta 122.139015
_cell_angle_gamma 90.000000
_cell_volume 1429.067644
_symmetry_space_group_name_H-M "C M"
_symmetry_group_IT_number 8
_symmetry_cell_setting 'monoclinic'
loop_
_space_group_symop_operation_xyz
x,y,z
x,-y,z
1/2+x,1/2+y,z
1/2+x,1/2-y,z
loop_
_atom_site_type_symbol
_atom_site_label
_atom_site_fract_x
_atom_site_fract_y
_atom_site_fract_z
Si Si1 0.509380 0.720625 0.365570
Si Si2 0.222480 0.591519 0.078704
Si Si3 0.991101 0.000000 0.847302
Si Si4 0.242212 0.369470 0.598437
Si Si5 0.820679 0.772546 0.676922
Si Si6 0.091758 0.091699 0.947851
Si Si7 0.070519 0.877434 0.426611
Si Si8 0.285137 0.500000 0.141391
O O1 0.684418 0.738165 0.540264
O O2 0.422549 0.736086 0.529947
O O3 0.513836 0.670319 0.369828
O O4 0.422138 0.736117 0.027578
O O5 0.152644 0.614533 0.257357
O O6 0.413839 0.593323 0.270054
O O7 0.175751 0.541937 0.031926
O O8 0.152645 0.614541 0.760438
O O9 0.102079 0.041168 0.958107
O O10 0.886824 0.000000 0.495031
O O11 0.887096 0.000000 0.991631
O O12 0.246871 0.319085 0.603057
O O13 0.414486 0.390023 0.770712
O O14 0.173032 0.110693 0.777122
O O15 0.173047 0.110674 0.281145
#
# Coordination Sequence:
#
# PCOD8052691 Si02
#       8
#     4   4   2   4   4   4   4   2
#     4  12  23  38  57  80 105 141 187 227 269 319
#     4  10  16  25  41  60  96 128 168 190 255 315
#     4  12  16  20  34  62  86 130 158 200 230 312
#     4  10  16  29  44  61  91 132 167 192 254 316
#     4  12  23  38  57  80 105 141 187 227 269 319
#     4  10  16  25  41  60  96 128 168 190 255 315
#     4  10  16  29  44  61  91 132 167 192 254 316
#     4  12  16  20  34  62  86 130 158 200 230 312
#
# _framework density 19.593194
#
# number of rings (size 3 to 8) (size 9 to 14) (size 15 to 20)
#    0.000    1.143   11.429    0.857    0.000    0.000 
#    0.000    0.000    0.000    0.000    0.000    0.000 
#    0.000    0.000    0.000   43.714    0.000    0.571 
#
# Total GULP energy -173512.323247 kJ/mol
# GULP energy per Si atom -12393.737375 kJ/mol
# Density = 1.954860 g / cm^3
# Si number density = 19.593194 Si / 1000 Ang^3
#
#
#
# Elastic Constant Matrix: (Units=GPa)
#
#
# Indices 1 2 3 4 5 6 
#
# 1 55.6336 16.5540 60.6772 0.0000 -35.1951 0.0000
# 2 16.5540 52.2433 16.7057 0.0000 -0.2661 0.0000
# 3 60.6772 16.7057 127.6439 0.0000 -62.3464 0.0000
# 4 0.0000 0.0000 0.0000 15.8013 0.0000 -8.7112
# 5 -35.1951 -0.2661 -62.3464 0.0000 47.4628 0.0000
# 6 0.0000 0.0000 0.0000 -8.7112 0.0000 9.3780
#
#
#
# Elastic Compliance Matrix: (Units=1/GPa)
#
#
# Indices 1 2 3 4 5 6 
#
# 1 0.044896 -0.010830 -0.010304 0.000000 0.019695 0.000000
# 2 -0.010830 0.024167 -0.005221 0.000000 -0.014754 0.000000
# 3 -0.010304 -0.005221 0.026980 0.000000 0.027770 0.000000
# 4 0.000000 0.000000 0.000000 0.129710 0.000000 0.120487
# 5 0.019695 -0.014754 0.027770 0.000000 0.072069 0.000000
# 6 0.000000 0.000000 0.000000 0.120487 0.000000 0.218553
#
#
# Mechanical properties :
#
#
# Convention : Reuss Voigt Hill
#
# Bulk Modulus (GPa) = 23.07792 47.04386 35.06089
# Shear Modulus (GPa) = 8.56854 23.96735 16.26794
#
# Velocity S-wave (km/s) = 2.09349 3.50129 2.88459
# Velocity P-wave (km/s) = 4.20092 6.35671 5.38774
#
# Compressibility (1/GPa) = 0.04333146
#
# Stress axis : x y z
#
# Youngs Moduli (GPa) = 22.27394 41.37823 37.06443
#
# Poissons Ratio (x) = 0.44815 0.38193
# Poissons Ratio (y) = 0.24124 0.19351
# Poissons Ratio (z) = 0.22952 0.21603
#
# Static dielectric constant tensor:
#      x y z
#    x 3.580410 0.000000 -1.409480 
#    y 0.000000 3.731360 0.000000 
#    z -1.409480 0.000000 4.614480 
# 
# 
# High freq. dielectric constant tensor:
#      x y z
#    x 1.703190 0.000000 -0.076540 
#    y 0.000000 1.778560 0.000000 
#    z -0.076540 0.000000 1.759280 
# 
# From -- ./inp_files/1930.got.cif
#   From: 2010.03.12/outbox.cif.g09.slc.cpg/sg8_1_cif.got.tgz:1930.got - 2010.03.31 10:45:26.
