data_PCOD8052751
_publ_section_title
;
Structure prediction by ZEFSAII (Michael W. Deem and Ramdas Pophale) SiO2 
 PCOD8052751
Probable space group: C M
;
_chemical_formula_sum "Si O2"
_cell_formula_units_Z 24
_cell_length_a 9.303134
_cell_length_b 19.111054
_cell_length_c 10.845354
_cell_angle_alpha 90.000000
_cell_angle_beta 43.008109
_cell_angle_gamma 90.000000
_cell_volume 1315.245676
_symmetry_space_group_name_H-M "C M"
_symmetry_group_IT_number 8
_symmetry_cell_setting 'monoclinic'
loop_
_space_group_symop_operation_xyz
x,y,z
x,-y,z
1/2+x,1/2+y,z
1/2+x,1/2-y,z
loop_
_atom_site_type_symbol
_atom_site_label
_atom_site_fract_x
_atom_site_fract_y
_atom_site_fract_z
Si Si1 0.036340 0.420074 0.385350
Si Si2 0.808408 0.335068 0.742600
Si Si3 0.096497 0.818127 0.263756
Si Si4 0.387102 0.189318 0.302647
Si Si5 0.687947 0.772220 0.626616
Si Si6 0.533905 0.420390 0.091245
O O1 0.957884 0.500000 0.437836
O O2 0.284802 0.414352 0.241751
O O3 0.938164 0.376521 0.558162
O O4 0.968220 0.386192 0.297783
O O5 0.699871 0.266560 0.750878
O O6 0.968789 0.313888 0.752132
O O7 0.628103 0.383690 0.911399
O O8 0.308232 0.815424 0.212162
O O9 0.116206 0.885110 0.164526
O O10 0.076042 0.746937 0.194401
O O11 0.889814 0.824060 0.482244
O O12 0.194969 0.215051 0.510988
O O13 0.611686 0.500000 0.044255
#
# Coordination Sequence:
#
# PCOD8052751 Si02
#       6
#     4   4   4   4   4   4
#     4  10  20  37  58  80 116 156 189 233 280 337
#     4  11  20  37  57  85 115 146 192 234 284 335
#     4  10  17  35  58  82 115 140 188 240 276 338
#     4   9  17  32  61  84 108 146 190 229 290 330
#     4   9  17  34  58  83 110 143 182 238 282 324
#     4  11  24  37  56  84 115 157 193 226 285 344
#
# _framework density 18.247541999999999
#
# number of rings (size 3 to 8) (size 9 to 14) (size 15 to 20)
#    1.000    1.000    3.333    1.500    0.000    3.333 
#    0.000    0.000    0.000    0.000    0.000    0.000 
#    0.000    0.000    0.000    0.000    0.000    0.000 
#
# Total GULP energy -148750.986192 kJ/mol
# GULP energy per Si atom -12395.915516 kJ/mol
# Density = 1.820601 g / cm^3
# Si number density = 18.247542 Si / 1000 Ang^3
#
#
#
# Elastic Constant Matrix: (Units=GPa)
#
#
# Indices 1 2 3 4 5 6 
#
# 1 132.2953 51.8216 20.2345 0.0001 4.2260 -0.0001
# 2 51.8216 101.2813 31.0336 0.0000 5.3395 0.0000
# 3 20.2345 31.0336 55.2375 0.0001 10.3442 -0.0002
# 4 0.0001 0.0000 0.0001 27.3193 -0.0001 -1.2747
# 5 4.2260 5.3395 10.3442 -0.0001 12.5682 0.0002
# 6 -0.0001 0.0000 -0.0002 -1.2747 0.0002 23.3115
#
#
#
# Elastic Compliance Matrix: (Units=1/GPa)
#
#
# Indices 1 2 3 4 5 6 
#
# 1 0.009495 -0.004584 -0.000791 0.000000 -0.000594 0.000000
# 2 -0.004584 0.014143 -0.006419 0.000000 0.000816 0.000000
# 3 -0.000791 -0.006419 0.025346 0.000000 -0.017868 0.000000
# 4 0.000000 0.000000 0.000000 0.036698 0.000000 0.002007
# 5 -0.000594 0.000816 -0.017868 0.000000 0.094125 -0.000001
# 6 0.000000 0.000000 0.000000 0.002007 -0.000001 0.043007
#
#
# Mechanical properties :
#
#
# Convention : Reuss Voigt Hill
#
# Bulk Modulus (GPa) = 39.37986 54.99928 47.18957
# Shear Modulus (GPa) = 19.61803 25.02142 22.31972
#
# Velocity S-wave (km/s) = 3.28244 3.70702 3.50117
# Velocity P-wave (km/s) = 5.99947 6.96626 6.50086
#
# Compressibility (1/GPa) = 0.02539369
#
# Stress axis : x y z
#
# Youngs Moduli (GPa) = 105.32376 70.70633 39.45369
#
# Poissons Ratio (x) = 0.32413 0.03122
# Poissons Ratio (y) = 0.48283 0.25327
# Poissons Ratio (z) = 0.08335 0.45390
#
# Static dielectric constant tensor:
#      x y z
#    x 3.210150 0.000000 -0.031190 
#    y 0.000000 3.417910 0.000000 
#    z -0.031190 0.000000 3.081830 
# 
# 
# High freq. dielectric constant tensor:
#      x y z
#    x 1.705220 0.000000 -0.003120 
#    y 0.000000 1.694770 0.000000 
#    z -0.003120 0.000000 1.688450 
# 
# From -- ./inp_files/19158.got.cif
#   From: 2010.03.12/outbox.cif.g09.slc.cpg/sg8_10_cif.got.tgz:19158.got - 2010.03.31 10:45:26.
