data_PCOD8052005
_publ_section_title
;
Structure prediction by ZEFSAII (Michael W. Deem and Ramdas Pophale) SiO2 
 PCOD8052005
Probable space group: C 2
;
_chemical_formula_sum "Si O2"
_cell_formula_units_Z 20
_cell_length_a 13.890135
_cell_length_b 4.941055
_cell_length_c 12.821046
_cell_angle_alpha 90.000000
_cell_angle_beta 71.009813
_cell_angle_gamma 90.000000
_cell_volume 832.042065
_symmetry_space_group_name_H-M "C 2"
_symmetry_group_IT_number 5
_symmetry_cell_setting 'monoclinic'
loop_
_space_group_symop_operation_xyz
x,y,z
-x,y,-z
1/2+x,1/2+y,z
1/2-x,1/2+y,-z
loop_
_atom_site_type_symbol
_atom_site_label
_atom_site_fract_x
_atom_site_fract_y
_atom_site_fract_z
Si Si1 0.811069 0.276270 0.134043
Si Si2 0.003750 0.088565 0.185206
Si Si3 0.873187 0.585055 0.918888
Si Si4 0.247635 0.909310 0.368556
Si Si5 0.866239 0.911378 0.399342
O O1 0.739807 0.079934 0.090703
O O2 0.739150 0.430305 0.245583
O O3 0.898717 0.099896 0.157484
O O4 0.865658 0.498372 0.042040
O O5 0.055836 0.381380 0.171797
O O6 0.080085 0.884494 0.101033
O O7 0.976925 0.989039 0.312855
O O8 0.141725 0.952333 0.470906
O O9 0.280344 0.603177 0.380654
O O10 0.337638 0.107033 0.375818
#
# Coordination Sequence:
#
# PCOD8052005 Si02
#       5
#     4   4   4   4   4
#     4  11  26  45  66  94 134 172 211 267 318 376
#     4  11  25  44  68  95 130 170 212 268 322 373
#     4  12  27  42  66  99 129 171 220 257 315 391
#     4   9  19  36  65  92 124 169 209 258 322 371
#     4   9  18  37  64  96 122 162 217 258 313 387
#
# _framework density 24.037248000000002
#
# number of rings (size 3 to 8) (size 9 to 14) (size 15 to 20)
#    0.000    1.600    0.000    4.200    0.000   19.200 
#    0.000    1.000    0.000   12.000    0.000    0.000 
#    0.000    0.000    0.000    0.000    0.000    0.000 
#
# Total GULP energy -123958.804370 kJ/mol
# GULP energy per Si atom -12395.880437 kJ/mol
# Density = 2.398254 g / cm^3
# Si number density = 24.037248 Si / 1000 Ang^3
#
#
#
# Elastic Constant Matrix: (Units=GPa)
#
#
# Indices 1 2 3 4 5 6 
#
# 1 83.8193 18.2231 23.1214 0.0000 -12.5503 0.0000
# 2 18.2231 70.2309 6.4996 0.0000 3.5186 -0.0002
# 3 23.1214 6.4996 167.5984 0.0000 -42.1652 0.0001
# 4 0.0000 0.0000 0.0000 29.0575 0.0000 -4.1942
# 5 -12.5503 3.5186 -42.1652 0.0000 29.2969 -0.0001
# 6 0.0000 -0.0002 0.0001 -4.1942 -0.0001 33.9013
#
#
#
# Elastic Compliance Matrix: (Units=1/GPa)
#
#
# Indices 1 2 3 4 5 6 
#
# 1 0.013729 -0.003842 -0.000234 0.000000 0.006006 0.000000
# 2 -0.003842 0.015661 -0.001512 0.000000 -0.005703 0.000000
# 3 -0.000234 -0.001512 0.009528 0.000000 0.013794 0.000000
# 4 0.000000 0.000000 0.000000 0.035040 0.000000 0.004335
# 5 0.006006 -0.005703 0.013794 0.000000 0.057245 0.000000
# 6 0.000000 0.000000 0.000000 0.004335 0.000000 0.030034
#
#
# Mechanical properties :
#
#
# Convention : Reuss Voigt Hill
#
# Bulk Modulus (GPa) = 36.04525 46.37075 41.20800
# Shear Modulus (GPa) = 27.52381 36.70476 32.11428
#
# Velocity S-wave (km/s) = 3.38753 3.91192 3.65913
# Velocity P-wave (km/s) = 5.50714 6.30375 5.91886
#
# Compressibility (1/GPa) = 0.02774291
#
# Stress axis : x y z
#
# Youngs Moduli (GPa) = 72.83590 63.85190 104.95322
#
# Poissons Ratio (x) = 0.24530 0.02457
# Poissons Ratio (y) = 0.27981 0.15871
# Poissons Ratio (z) = 0.01705 0.09655
#
# Static dielectric constant tensor:
#      x y z
#    x 3.967480 0.000000 -0.571540 
#    y 0.000000 4.154360 0.000000 
#    z -0.571540 0.000000 5.105380 
# 
# 
# High freq. dielectric constant tensor:
#      x y z
#    x 1.913830 0.000000 -0.041350 
#    y 0.000000 1.957760 0.000000 
#    z -0.041350 0.000000 1.972480 
# 
# From -- ./inp_files/41106.got.cif
#   From: 2010.03.12/outbox.cif.g09.slc.cpg/sg5_21_cif.got.tgz:41106.got - 2010.03.31 09:47:26.
