data_PCOD8052206
_publ_section_title
;
Structure prediction by ZEFSAII (Michael W. Deem and Ramdas Pophale) SiO2 
 PCOD8052206
Probable space group: C 2
;
_chemical_formula_sum "Si O2"
_cell_formula_units_Z 10
_cell_length_a 13.345792
_cell_length_b 5.846950
_cell_length_c 13.880214
_cell_angle_alpha 90.000000
_cell_angle_beta 20.617336
_cell_angle_gamma 90.000000
_cell_volume 381.387607
_symmetry_space_group_name_H-M "C 2"
_symmetry_group_IT_number 5
_symmetry_cell_setting 'monoclinic'
loop_
_space_group_symop_operation_xyz
x,y,z
-x,y,-z
1/2+x,1/2+y,z
1/2-x,1/2+y,-z
loop_
_atom_site_type_symbol
_atom_site_label
_atom_site_fract_x
_atom_site_fract_y
_atom_site_fract_z
Si Si1 0.055317 0.316600 0.306736
Si Si2 0.940735 0.512273 0.208409
Si Si3 0.000000 0.140664 0.000000
O O1 0.229609 0.489162 0.215836
O O2 0.917652 0.450639 0.341144
O O3 0.798244 0.204250 0.599760
O O4 0.249939 0.111197 0.092814
O O5 0.889521 0.291654 0.188569
#
# Coordination Sequence:
#
# PCOD8052206 Si02
#       3
#     4   4   2
#     4  12  28  54  83 118 162 209 266 328 399 470
#     4  12  28  54  83 118 162 209 266 328 399 470
#     4  12  30  54  84 118 160 214 262 338 384 482
#
# _framework density 26.220046
#
# number of rings (size 3 to 8) (size 9 to 14) (size 15 to 20)
#    0.000    0.000    4.000    3.600    0.000    9.600 
#    0.000    0.000    0.000    0.000    0.000    0.000 
#    0.000    0.000    0.000    0.000    0.000    0.000 
#
# Total GULP energy -62066.082275 kJ/mol
# GULP energy per Si atom -12413.216455 kJ/mol
# Density = 2.616037 g / cm^3
# Si number density = 26.220046 Si / 1000 Ang^3
#
#
#
# Elastic Constant Matrix: (Units=GPa)
#
#
# Indices 1 2 3 4 5 6 
#
# 1 158.0371 74.3731 33.1726 -0.0004 -27.1330 0.0002
# 2 74.3731 131.6796 30.2040 -0.0084 -20.1203 0.0008
# 3 33.1726 30.2040 110.8097 -0.0068 -16.8745 0.0009
# 4 -0.0004 -0.0084 -0.0068 67.1280 0.0015 4.1544
# 5 -27.1330 -20.1203 -16.8745 0.0015 28.2221 -0.0001
# 6 0.0002 0.0008 0.0009 4.1544 -0.0001 57.9618
#
#
#
# Elastic Compliance Matrix: (Units=1/GPa)
#
#
# Indices 1 2 3 4 5 6 
#
# 1 0.009486 -0.004322 -0.000816 -0.000001 0.005550 0.000000
# 2 -0.004322 0.010737 -0.001210 0.000001 0.002776 0.000000
# 3 -0.000816 -0.001210 0.010284 0.000001 0.004502 0.000000
# 4 -0.000001 0.000001 0.000001 0.014963 0.000000 -0.001072
# 5 0.005550 0.002776 0.004502 0.000000 0.045440 0.000000
# 6 0.000000 0.000000 0.000000 -0.001072 0.000000 0.017330
#
#
# Mechanical properties :
#
#
# Convention : Reuss Voigt Hill
#
# Bulk Modulus (GPa) = 56.14887 75.11398 65.63143
# Shear Modulus (GPa) = 39.40905 48.18081 43.79493
#
# Velocity S-wave (km/s) = 3.88108 4.29132 4.09134
# Velocity P-wave (km/s) = 6.44551 7.29820 6.88507
#
# Compressibility (1/GPa) = 0.01780980
#
# Stress axis : x y z
#
# Youngs Moduli (GPa) = 105.41777 93.13428 97.23631
#
# Poissons Ratio (x) = 0.40257 0.07938
# Poissons Ratio (y) = 0.45566 0.11766
# Poissons Ratio (z) = 0.08606 0.11269
#
# Static dielectric constant tensor:
#      x y z
#    x 4.898560 0.000000 -0.103900 
#    y 0.000000 4.932070 0.000000 
#    z -0.103900 0.000000 4.560210 
# 
# 
# High freq. dielectric constant tensor:
#      x y z
#    x 2.069990 0.000000 -0.003030 
#    y 0.000000 2.067570 0.000000 
#    z -0.003030 0.000000 2.055360 
# 
# From -- ./inp_files/102.got.cif
#   From: 2010.03.12/outbox.cif.g09.slc.cpg/sg5_1_cif.got.tgz:102.got - 2010.03.31 09:47:26.
