data_PCOD8052607
_publ_section_title
;
Structure prediction by ZEFSAII (Michael W. Deem and Ramdas Pophale) SiO2 
 PCOD8052607
Probable space group: P C
;
_chemical_formula_sum "Si O2"
_cell_formula_units_Z 16
_cell_length_a 21.627021
_cell_length_b 8.173075
_cell_length_c 5.262458
_cell_angle_alpha 90.000000
_cell_angle_beta 133.319845
_cell_angle_gamma 90.000000
_cell_volume 676.744638
_symmetry_space_group_name_H-M "P C"
_symmetry_group_IT_number 7
_symmetry_cell_setting 'monoclinic'
loop_
_space_group_symop_operation_xyz
x,y,z
x,-y,1/2+z
loop_
_atom_site_type_symbol
_atom_site_label
_atom_site_fract_x
_atom_site_fract_y
_atom_site_fract_z
Si Si1 0.977120 0.575803 0.341110
Si Si2 0.384221 0.889974 0.015835
Si Si3 0.951381 0.948027 0.295470
Si Si4 0.790418 0.557630 0.257316
Si Si5 0.132610 0.088934 0.825446
Si Si6 0.243764 0.611503 0.636738
Si Si7 0.567895 0.096365 0.115194
Si Si8 0.751901 0.100020 0.538778
O O1 0.021659 0.496572 0.714635
O O2 0.990379 0.769732 0.388086
O O3 0.877520 0.538473 0.068596
O O4 0.479698 0.810772 0.301825
O O5 0.370399 0.015608 0.210632
O O6 0.321847 0.737222 0.857683
O O7 0.896158 0.008470 0.894165
O O8 0.029942 0.075646 0.537320
O O9 0.740212 0.530353 0.382393
O O10 0.813536 0.746186 0.265567
O O11 0.157761 0.279589 0.894884
O O12 0.170914 0.000653 0.184033
O O13 0.246446 0.499469 0.394942
O O14 0.657650 0.184438 0.305887
O O15 0.568343 0.056240 0.416963
O O16 0.765194 0.042741 0.284955
#
# Coordination Sequence:
#
# PCOD8052607 Si02
#       8
#     2   2   2   2   2   2   2   2
#     4  10  21  40  60  84 116 145 179 233 291 342
#     4  10  19  36  60  82 112 156 196 232 274 334
#     4  10  21  40  63  86 110 145 191 233 275 342
#     4  10  21  38  55  81 116 150 184 229 291 342
#     4  10  21  41  62  84 110 148 194 229 275 342
#     4  12  24  38  57  87 121 149 184 238 290 336
#     4   8  16  30  53  82 109 144 194 238 272 316
#     4  10  19  35  58  84 112 149 196 238 274 332
#
# _framework density 23.642593999999999
#
# number of rings (size 3 to 8) (size 9 to 14) (size 15 to 20)
#    0.000    2.000    0.000    3.750    0.000    0.000 
#    0.000   31.250    0.000    0.000    0.000    0.000 
#    0.000    0.000    0.000    0.000    0.000    0.000 
#
# Total GULP energy -198242.205327 kJ/mol
# GULP energy per Si atom -12390.137833 kJ/mol
# Density = 2.358878 g / cm^3
# Si number density = 23.642594 Si / 1000 Ang^3
#
#
#
# Elastic Constant Matrix: (Units=GPa)
#
#
# Indices 1 2 3 4 5 6 
#
# 1 86.8064 50.9460 73.0257 0.0000 -32.5244 0.0000
# 2 50.9460 120.6701 48.0859 0.0000 -19.8902 0.0000
# 3 73.0257 48.0859 113.3380 0.0000 -46.7801 0.0000
# 4 0.0000 0.0000 0.0000 35.2314 0.0000 -17.3801
# 5 -32.5244 -19.8902 -46.7801 0.0000 69.0536 0.0000
# 6 0.0000 0.0000 0.0000 -17.3801 0.0000 27.0891
#
#
#
# Elastic Compliance Matrix: (Units=1/GPa)
#
#
# Indices 1 2 3 4 5 6 
#
# 1 0.028037 -0.005582 -0.015145 0.000000 0.001338 0.000000
# 2 -0.005582 0.011084 -0.001213 0.000000 -0.000258 0.000000
# 3 -0.015145 -0.001213 0.022220 0.000000 0.007571 0.000000
# 4 0.000000 0.000000 0.000000 0.041527 0.000000 0.026643
# 5 0.001338 -0.000258 0.007571 0.000000 0.020166 0.000000
# 6 0.000000 0.000000 0.000000 0.026643 0.000000 0.054009
#
#
# Mechanical properties :
#
#
# Convention : Reuss Voigt Hill
#
# Bulk Modulus (GPa) = 57.25981 73.88109 65.57045
# Shear Modulus (GPa) = 22.05124 36.19196 29.12160
#
# Velocity S-wave (km/s) = 3.05731 3.91678 3.51343
# Velocity P-wave (km/s) = 6.06089 7.19527 6.65230
#
# Compressibility (1/GPa) = 0.01746426
#
# Stress axis : x y z
#
# Youngs Moduli (GPa) = 35.66656 90.21696 45.00365
#
# Poissons Ratio (x) = 0.50356 0.68156
# Poissons Ratio (y) = 0.19908 0.05458
# Poissons Ratio (z) = 0.54015 0.10942
#
# Static dielectric constant tensor:
#      x y z
#    x 5.165450 0.000000 -0.710500 
#    y 0.000000 3.893890 0.000000 
#    z -0.710500 0.000000 5.221400 
# 
# 
# High freq. dielectric constant tensor:
#      x y z
#    x 1.951620 0.000000 -0.028430 
#    y 0.000000 1.907090 0.000000 
#    z -0.028430 0.000000 1.958180 
# 
# From -- ./inp_files/1444.got.cif
#   From: 2010.03.12/outbox.cif.g09.slc.cpg/sg7_cif.got.tgz:1444.got - 2010.03.30 08:40:41.
