data_PCOD8052481
_publ_section_title
;
Structure prediction by ZEFSAII (Michael W. Deem and Ramdas Pophale) SiO2 
 PCOD8052481
Probable space group: P M
;
_chemical_formula_sum "Si O2"
_cell_formula_units_Z 16
_cell_length_a 5.221874
_cell_length_b 12.136444
_cell_length_c 11.391937
_cell_angle_alpha 90.000000
_cell_angle_beta 92.402618
_cell_angle_gamma 90.000000
_cell_volume 721.329128
_symmetry_space_group_name_H-M "P M"
_symmetry_group_IT_number 6
_symmetry_cell_setting 'monoclinic'
loop_
_space_group_symop_operation_xyz
x,y,z
x,-y,z
loop_
_atom_site_type_symbol
_atom_site_label
_atom_site_fract_x
_atom_site_fract_y
_atom_site_fract_z
Si Si1 0.545410 0.876751 0.360930
Si Si2 0.751292 0.738498 0.843168
Si Si3 0.778256 0.373633 0.603817
Si Si4 0.920114 0.712801 0.275158
Si Si5 0.259028 0.706507 0.481113
Si Si6 0.251191 0.878249 0.869768
Si Si7 0.611735 0.375946 0.072751
Si Si8 0.275653 0.177236 0.124819
O O1 0.762608 0.782049 0.370413
O O2 0.329820 0.834658 0.450240
O O3 0.456730 0.880961 0.223463
O O4 0.634429 0.000000 0.399016
O O5 0.721651 0.651475 0.738063
O O6 0.507296 0.818445 0.832010
O O7 0.005039 0.809394 0.826386
O O8 0.773450 0.672230 0.965839
O O9 0.859153 0.500000 0.589604
O O10 0.514928 0.355741 0.526754
O O11 0.025360 0.301415 0.568954
O O12 0.769414 0.620832 0.198525
O O13 0.154231 0.657050 0.353178
O O14 0.002330 0.804287 0.180496
O O15 0.240252 0.000000 0.812416
O O16 0.251087 0.897468 0.010222
O O17 0.522589 0.500000 0.042158
O O18 0.366780 0.299199 0.086950
#
# Coordination Sequence:
#
# PCOD8052481 Si02
#       8
#     2   2   2   2   2   2   2   2
#     4  10  21  40  68  97 136 178 217 269 336 393
#     4  11  24  45  67  98 134 165 231 270 314 405
#     4  12  26  48  73  93 127 182 226 274 327 385
#     4  10  20  41  63  98 139 170 217 275 321 398
#     4  11  24  46  67 100 133 163 233 277 318 396
#     4  11  22  41  68  98 137 174 210 269 333 383
#     4  10  21  38  62  96 136 174 210 272 340 381
#     4   9  20  37  58  98 136 176 220 260 309 413
#
# _framework density 22.181276
#
# number of rings (size 3 to 8) (size 9 to 14) (size 15 to 20)
#    0.000    1.500    2.500    2.250    0.000    4.000 
#    0.000    6.875    0.000    0.000    0.000    0.000 
#    0.000    0.000    0.000    0.000    0.000    0.000 
#
# Total GULP energy -198256.094341 kJ/mol
# GULP energy per Si atom -12391.005896 kJ/mol
# Density = 2.213079 g / cm^3
# Si number density = 22.181276 Si / 1000 Ang^3
#
#
#
# Elastic Constant Matrix: (Units=GPa)
#
#
# Indices 1 2 3 4 5 6 
#
# 1 115.5787 33.6504 36.2191 0.0000 7.8051 0.0000
# 2 33.6504 124.4271 40.2904 0.0000 5.7778 0.0000
# 3 36.2191 40.2904 97.1785 0.0000 -6.0203 0.0000
# 4 0.0000 0.0000 0.0000 12.2169 0.0000 -7.8180
# 5 7.8051 5.7778 -6.0203 0.0000 24.1559 0.0000
# 6 0.0000 0.0000 0.0000 -7.8180 0.0000 16.3470
#
#
#
# Elastic Compliance Matrix: (Units=1/GPa)
#
#
# Indices 1 2 3 4 5 6 
#
# 1 0.010455 -0.001510 -0.003512 0.000000 -0.003892 0.000000
# 2 -0.001510 0.009756 -0.003653 0.000000 -0.002756 0.000000
# 3 -0.003512 -0.003653 0.013446 0.000000 0.005360 0.000000
# 4 0.000000 0.000000 0.000000 0.117954 0.000000 0.056412
# 5 -0.003892 -0.002756 0.005360 0.000000 0.044650 0.000000
# 6 0.000000 0.000000 0.000000 0.056412 0.000000 0.088152
#
#
# Mechanical properties :
#
#
# Convention : Reuss Voigt Hill
#
# Bulk Modulus (GPa) = 61.32005 61.94491 61.63248
# Shear Modulus (GPa) = 16.27613 25.67893 20.97753
#
# Velocity S-wave (km/s) = 2.71177 3.40617 3.07861
# Velocity P-wave (km/s) = 6.12453 6.59216 6.36265
#
# Compressibility (1/GPa) = 0.01630788
#
# Stress axis : x y z
#
# Youngs Moduli (GPa) = 95.64794 102.50193 74.37260
#
# Poissons Ratio (x) = 0.15473 0.26119
# Poissons Ratio (y) = 0.14438 0.27168
# Poissons Ratio (z) = 0.33591 0.37443
#
# Static dielectric constant tensor:
#      x y z
#    x 4.101490 0.000000 -0.043760 
#    y 0.000000 3.633820 0.000000 
#    z -0.043760 0.000000 4.056930 
# 
# 
# High freq. dielectric constant tensor:
#      x y z
#    x 1.878650 0.000000 -0.003730 
#    y 0.000000 1.849830 0.000000 
#    z -0.003730 0.000000 1.871200 
# 
# From -- ./inp_files/1673.got.cif
#   From: 2010.03.12/outbox.cif.g09.slc.cpg/sg6_1_cif.got.tgz:1673.got - 2010.03.30 10:24:59.
