data_PCOD8052651
_publ_section_title
;
Structure prediction by ZEFSAII (Michael W. Deem and Ramdas Pophale) SiO2 
 PCOD8052651
Probable space group: P C
;
_chemical_formula_sum "Si O2"
_cell_formula_units_Z 16
_cell_length_a 7.728666
_cell_length_b 17.571850
_cell_length_c 5.573650
_cell_angle_alpha 90.000000
_cell_angle_beta 64.451917
_cell_angle_gamma 90.000000
_cell_volume 682.929607
_symmetry_space_group_name_H-M "P C"
_symmetry_group_IT_number 7
_symmetry_cell_setting 'monoclinic'
loop_
_space_group_symop_operation_xyz
x,y,z
x,-y,1/2+z
loop_
_atom_site_type_symbol
_atom_site_label
_atom_site_fract_x
_atom_site_fract_y
_atom_site_fract_z
Si Si1 0.055730 0.521621 0.373050
Si Si2 0.564637 0.154979 0.501801
Si Si3 0.258343 0.780324 0.826172
Si Si4 0.988160 0.837378 0.616612
Si Si5 0.639399 0.464637 0.697339
Si Si6 0.082507 0.308886 0.810943
Si Si7 0.475408 0.302647 0.809823
Si Si8 0.255567 0.955205 0.280536
O O1 0.168642 0.511190 0.565423
O O2 0.986893 0.608431 0.373255
O O3 0.867470 0.473580 0.548242
O O4 0.413717 0.173072 0.382824
O O5 0.591430 0.227459 0.659612
O O6 0.467416 0.082395 0.687310
O O7 0.776136 0.130813 0.290589
O O8 0.144112 0.842408 0.737580
O O9 0.378369 0.715248 0.619979
O O10 0.085008 0.734400 0.057303
O O11 0.973633 0.747738 0.557303
O O12 0.088492 0.890315 0.356656
O O13 0.553185 0.494878 0.492542
O O14 0.613145 0.374614 0.743684
O O15 0.307851 0.321858 0.724254
O O16 0.228983 0.001981 0.542919
#
# Coordination Sequence:
#
# PCOD8052651 Si02
#       8
#     2   2   2   2   2   2   2   2
#     4  10  24  40  60  93 140 183 242 302 375 417
#     4  11  25  45  77 112 144 200 252 296 375 452
#     4  10  21  46  70 105 150 186 258 312 359 432
#     4  11  25  45  77 112 144 200 252 296 375 452
#     4  10  24  40  60  93 140 183 242 302 375 417
#     4  10  23  42  70  97 140 194 249 311 362 445
#     4  10  23  42  70  97 140 194 249 311 362 445
#     4  12  27  52  78 111 164 188 238 318 375 450
#
# _framework density 23.428474999999999
#
# number of rings (size 3 to 8) (size 9 to 14) (size 15 to 20)
#    0.000    1.500    3.750    0.750   10.500    5.000 
#    0.000    0.000    0.000    0.000    0.000    0.000 
#    0.000    0.000    0.000    0.000    0.000    0.000 
#
# Total GULP energy -198217.202245 kJ/mol
# GULP energy per Si atom -12388.575140 kJ/mol
# Density = 2.337515 g / cm^3
# Si number density = 23.428475 Si / 1000 Ang^3
#
#
#
# Elastic Constant Matrix: (Units=GPa)
#
#
# Indices 1 2 3 4 5 6 
#
# 1 63.2421 19.1334 39.4559 0.0000 -7.4273 0.0000
# 2 19.1334 101.6383 33.3985 0.0000 6.2453 0.0000
# 3 39.4559 33.3985 135.3792 0.0000 23.0455 0.0000
# 4 0.0000 0.0000 0.0000 35.6572 0.0000 -5.0069
# 5 -7.4273 6.2453 23.0455 0.0000 43.3721 0.0000
# 6 0.0000 0.0000 0.0000 -5.0069 0.0000 26.7303
#
#
#
# Elastic Compliance Matrix: (Units=1/GPa)
#
#
# Indices 1 2 3 4 5 6 
#
# 1 0.021889 -0.002250 -0.007166 0.000000 0.007880 0.000000
# 2 -0.002250 0.010939 -0.001879 0.000000 -0.000962 0.000000
# 3 -0.007166 -0.001879 0.011106 0.000000 -0.006858 0.000000
# 4 0.000000 0.000000 0.000000 0.028802 0.000000 0.005395
# 5 0.007880 -0.000962 -0.006858 0.000000 0.028188 0.000000
# 6 0.000000 0.000000 0.000000 0.005395 0.000000 0.038421
#
#
# Mechanical properties :
#
#
# Convention : Reuss Voigt Hill
#
# Bulk Modulus (GPa) = 46.85143 53.80391 50.32767
# Shear Modulus (GPa) = 29.57695 35.03671 32.30683
#
# Velocity S-wave (km/s) = 3.55693 3.87133 3.71746
# Velocity P-wave (km/s) = 6.07537 6.55729 6.32092
#
# Compressibility (1/GPa) = 0.02134406
#
# Stress axis : x y z
#
# Youngs Moduli (GPa) = 45.68487 91.41606 90.04078
#
# Poissons Ratio (x) = 0.20570 0.64521
# Poissons Ratio (y) = 0.10280 0.16920
# Poissons Ratio (z) = 0.32737 0.17178
#
# Static dielectric constant tensor:
#      x y z
#    x 3.954350 0.000000 0.368710 
#    y 0.000000 4.237510 0.000000 
#    z 0.368710 0.000000 4.718640 
# 
# 
# High freq. dielectric constant tensor:
#      x y z
#    x 1.903850 0.000000 0.009290 
#    y 0.000000 1.928740 0.000000 
#    z 0.009290 0.000000 1.941200 
# 
# From -- ./inp_files/787.got.cif
#   From: 2010.03.12/outbox.cif.g09.slc.cpg/sg7_cif.got.tgz:787.got - 2010.03.30 08:40:41.
