data_PCOD8052196
_publ_section_title
;
Structure prediction by ZEFSAII (Michael W. Deem and Ramdas Pophale) SiO2 
 PCOD8052196
Probable space group: C 2
;
_chemical_formula_sum "Si O2"
_cell_formula_units_Z 20
_cell_length_a 8.587780
_cell_length_b 4.823115
_cell_length_c 22.202452
_cell_angle_alpha 90.000000
_cell_angle_beta 126.049640
_cell_angle_gamma 90.000000
_cell_volume 743.521430
_symmetry_space_group_name_H-M "C 2"
_symmetry_group_IT_number 5
_symmetry_cell_setting 'monoclinic'
loop_
_space_group_symop_operation_xyz
x,y,z
-x,y,-z
1/2+x,1/2+y,z
1/2-x,1/2+y,-z
loop_
_atom_site_type_symbol
_atom_site_label
_atom_site_fract_x
_atom_site_fract_y
_atom_site_fract_z
Si Si1 0.240788 0.481340 0.151997
Si Si2 0.672782 0.237453 0.948327
Si Si3 0.357212 0.523165 0.547225
Si Si4 0.765252 0.755100 0.647695
Si Si5 0.861141 0.251940 0.746648
O O1 0.253628 0.244600 0.103803
O O2 0.256618 0.345391 0.221320
O O3 0.422523 0.682497 0.184338
O O4 0.049863 0.658851 0.099550
O O5 0.690289 0.539887 0.981791
O O6 0.297563 0.275288 0.488135
O O7 0.439820 0.657093 0.425588
O O8 0.382008 0.391912 0.619186
O O9 0.875797 0.492616 0.700133
O O10 0.745451 0.987038 0.694875
#
# Coordination Sequence:
#
# PCOD8052196 Si02
#       5
#     4   4   4   4   4
#     4  12  30  52  80 115 156 204 256 318 384 456
#     4  12  30  52  80 115 156 203 257 318 383 457
#     4  12  27  50  78 113 154 202 255 316 381 454
#     4  12  28  50  78 114 154 202 255 316 381 454
#     4  12  29  52  79 115 156 203 257 318 383 457
#
# _framework density 26.899021000000001
#
# number of rings (size 3 to 8) (size 9 to 14) (size 15 to 20)
#    0.000    0.000    0.000    7.200    0.000   27.200 
#    0.000    0.000    0.000    0.000    0.000    0.000 
#    0.000    0.000    0.000    0.000    0.000    0.000 
#
# Total GULP energy -124100.378702 kJ/mol
# GULP energy per Si atom -12410.037870 kJ/mol
# Density = 2.683780 g / cm^3
# Si number density = 26.899021 Si / 1000 Ang^3
#
#
#
# Elastic Constant Matrix: (Units=GPa)
#
#
# Indices 1 2 3 4 5 6 
#
# 1 70.7197 19.4421 13.4021 0.0000 -6.0091 0.0000
# 2 19.4421 140.5739 36.1125 0.0000 6.2822 0.0000
# 3 13.4021 36.1125 117.0063 0.0000 2.8194 0.0000
# 4 0.0000 0.0000 0.0000 -14.7598 0.0000 -7.6636
# 5 -6.0091 6.2822 2.8194 0.0000 8.6937 0.0000
# 6 0.0000 0.0000 0.0000 -7.6636 0.0000 41.8559
#
#
#
# Elastic Compliance Matrix: (Units=1/GPa)
#
#
# Indices 1 2 3 4 5 6 
#
# 1 0.016237 -0.002484 -0.001418 0.000000 0.013478 0.000000
# 2 -0.002484 0.008314 -0.002112 0.000000 -0.007040 0.000000
# 3 -0.001418 -0.002112 0.009421 0.000000 -0.002509 0.000000
# 4 0.000000 0.000000 0.000000 -0.061870 0.000000 -0.011328
# 5 0.013478 -0.007040 -0.002509 0.000000 0.130242 0.000000
# 6 0.000000 0.000000 0.000000 -0.011328 0.000000 0.021817
#
#
# Mechanical properties :
#
#
# Convention : Reuss Voigt Hill
#
# Bulk Modulus (GPa) = 45.56789 51.80148 48.68469
# Shear Modulus (GPa) = 34.84199 24.44753 29.64476
#
# Velocity S-wave (km/s) = 3.60292 3.01801 3.32335
# Velocity P-wave (km/s) = 5.85535 5.60750 5.73276
#
# Compressibility (1/GPa) = 0.02194528
#
# Stress axis : x y z
#
# Youngs Moduli (GPa) = 61.58740 120.27364 106.14267
#
# Poissons Ratio (x) = 0.29872 0.15051
# Poissons Ratio (y) = 0.15296 0.22417
# Poissons Ratio (z) = 0.08733 0.25402
#
# Static dielectric constant tensor:
#      x y z
#    x 4.540390 0.000000 -0.082180 
#    y 0.000000 5.127040 0.000000 
#    z -0.082180 0.000000 5.196100 
# 
# 
# High freq. dielectric constant tensor:
#      x y z
#    x 2.075740 0.000000 0.002570 
#    y 0.000000 2.097850 0.000000 
#    z 0.002570 0.000000 2.106570 
# 
# From -- ./inp_files/64209.got.cif
#   From: 2010.03.12/outbox.cif.g09.slc.cpg/sg5_33_cif.got.tgz:64209.got - 2010.03.31 09:47:26.
