data_PCOD8052527
_publ_section_title
;
Structure prediction by ZEFSAII (Michael W. Deem and Ramdas Pophale) SiO2 
 PCOD8052527
Probable space group: P M
;
_chemical_formula_sum "Si O2"
_cell_formula_units_Z 16
_cell_length_a 17.340522
_cell_length_b 8.943904
_cell_length_c 7.130714
_cell_angle_alpha 90.000000
_cell_angle_beta 128.441341
_cell_angle_gamma 90.000000
_cell_volume 866.203602
_symmetry_space_group_name_H-M "P M"
_symmetry_group_IT_number 6
_symmetry_cell_setting 'monoclinic'
loop_
_space_group_symop_operation_xyz
x,y,z
x,-y,z
loop_
_atom_site_type_symbol
_atom_site_label
_atom_site_fract_x
_atom_site_fract_y
_atom_site_fract_z
Si Si1 0.158160 0.672939 0.033460
Si Si2 0.711540 0.828816 0.495600
Si Si3 0.305056 0.323944 0.931460
Si Si4 0.010088 0.674646 0.485346
Si Si5 0.684665 0.331453 0.806001
Si Si6 0.810039 0.170661 0.265098
Si Si7 0.527614 0.670491 0.287848
Si Si8 0.157737 0.177372 0.433280
O O1 0.159640 0.500000 0.096982
O O2 0.253359 0.713206 0.051173
O O3 0.157318 0.774397 0.215955
O O4 0.062611 0.710090 0.762649
O O5 0.750197 0.730784 0.729820
O O6 0.793336 0.811042 0.460399
O O7 0.602029 0.767612 0.269890
O O8 0.699566 0.000000 0.538367
O O9 0.297153 0.500000 0.878787
O O10 0.417253 0.266720 0.114822
O O11 0.255072 0.239130 0.682671
O O12 0.016268 0.500000 0.448473
O O13 0.061234 0.760716 0.391418
O O14 0.897939 0.725632 0.328791
O O15 0.716213 0.500000 0.900793
O O16 0.569673 0.321334 0.567307
O O17 0.708153 0.226218 0.017305
O O18 0.832155 0.000000 0.244382
O O19 0.530193 0.500000 0.219132
O O20 0.157292 0.000000 0.443074
#
# Coordination Sequence:
#
# PCOD8052527 Si02
#       8
#     2   2   2   2   2   2   2   2
#     4   9  19  37  59  81 107 141 181 224 272 323
#     4   9  19  35  53  76 111 146 179 223 272 321
#     4   9  18  37  60  81 109 144 186 229 268 315
#     4  10  22  39  60  81 106 142 184 229 270 317
#     4   9  19  35  55  78 107 143 186 227 264 314
#     4  11  22  36  56  82 111 146 181 222 277 327
#     4   8  17  35  57  81 108 145 186 228 271 311
#     4  11  22  36  56  84 115 143 175 220 276 334
#
# _framework density 18.471406999999999
#
# number of rings (size 3 to 8) (size 9 to 14) (size 15 to 20)
#    0.750    1.750    0.000    3.000    0.000    6.000 
#    2.250    2.500    0.000    0.000    0.000    0.000 
#    0.000    0.000    0.000    0.000    0.000    0.000 
#
# Total GULP energy -198288.217061 kJ/mol
# GULP energy per Si atom -12393.013566 kJ/mol
# Density = 1.842937 g / cm^3
# Si number density = 18.471407 Si / 1000 Ang^3
#
#
#
# Elastic Constant Matrix: (Units=GPa)
#
#
# Indices 1 2 3 4 5 6 
#
# 1 68.8140 29.1134 23.5717 0.0000 5.6229 0.0000
# 2 29.1134 87.3878 35.4837 0.0000 -7.9583 0.0000
# 3 23.5717 35.4837 69.8700 0.0000 -7.1753 0.0000
# 4 0.0000 0.0000 0.0000 28.1999 0.0000 -4.0409
# 5 5.6229 -7.9583 -7.1753 0.0000 27.4970 0.0000
# 6 0.0000 0.0000 0.0000 -4.0409 0.0000 24.7220
#
#
#
# Elastic Compliance Matrix: (Units=1/GPa)
#
#
# Indices 1 2 3 4 5 6 
#
# 1 0.018694 -0.005020 -0.004418 0.000000 -0.006428 0.000000
# 2 -0.005020 0.015910 -0.005968 0.000000 0.004074 0.000000
# 3 -0.004418 -0.005968 0.019265 0.000000 0.004203 0.000000
# 4 0.000000 0.000000 0.000000 0.036312 0.000000 0.005935
# 5 -0.006428 0.004074 0.004203 0.000000 0.039958 0.000000
# 6 0.000000 0.000000 0.000000 0.005935 0.000000 0.041420
#
#
# Mechanical properties :
#
#
# Convention : Reuss Voigt Hill
#
# Bulk Modulus (GPa) = 43.36799 44.71215 44.04007
# Shear Modulus (GPa) = 23.80320 25.27731 24.54025
#
# Velocity S-wave (km/s) = 3.59367 3.70328 3.64889
# Velocity P-wave (km/s) = 6.38347 6.52261 6.45341
#
# Compressibility (1/GPa) = 0.02305848
#
# Stress axis : x y z
#
# Youngs Moduli (GPa) = 53.49270 62.85406 51.90697
#
# Poissons Ratio (x) = 0.31550 0.22931
# Poissons Ratio (y) = 0.26851 0.30978
# Poissons Ratio (z) = 0.23631 0.37512
#
# Static dielectric constant tensor:
#      x y z
#    x 3.240140 0.000000 0.092510 
#    y 0.000000 3.381410 0.000000 
#    z 0.092510 0.000000 3.290980 
# 
# 
# High freq. dielectric constant tensor:
#      x y z
#    x 1.701090 0.000000 0.003420 
#    y 0.000000 1.722080 0.000000 
#    z 0.003420 0.000000 1.709610 
# 
# From -- ./inp_files/1979.got.cif
#   From: 2010.03.12/outbox.cif.g09.slc.cpg/sg6_1_cif.got.tgz:1979.got - 2010.03.30 10:24:59.
