data_PCOD8052901
_publ_section_title
;
Structure prediction by ZEFSAII (Michael W. Deem and Ramdas Pophale) SiO2 
 PCOD8052901
Probable space group: C M
;
_chemical_formula_sum "Si O2"
_cell_formula_units_Z 32
_cell_length_a 15.070440
_cell_length_b 19.412805
_cell_length_c 11.656665
_cell_angle_alpha 90.000000
_cell_angle_beta 28.440525
_cell_angle_gamma 90.000000
_cell_volume 1624.127495
_symmetry_space_group_name_H-M "C M"
_symmetry_group_IT_number 8
_symmetry_cell_setting 'monoclinic'
loop_
_space_group_symop_operation_xyz
x,y,z
x,-y,z
1/2+x,1/2+y,z
1/2+x,1/2-y,z
loop_
_atom_site_type_symbol
_atom_site_label
_atom_site_fract_x
_atom_site_fract_y
_atom_site_fract_z
Si Si1 0.179280 0.580571 0.357910
Si Si2 0.143119 0.198829 0.697291
Si Si3 0.601141 0.663154 0.236965
Si Si4 0.511792 0.336053 0.080082
Si Si5 0.720287 0.186776 0.113646
Si Si6 0.943798 0.576711 0.835652
Si Si7 0.983563 0.682421 0.166924
Si Si8 0.693609 0.146599 0.715150
O O1 0.216288 0.500000 0.285552
O O2 0.348689 0.609705 0.241600
O O3 0.151426 0.625334 0.274489
O O4 0.991663 0.588378 0.646874
O O5 0.293371 0.158952 0.446338
O O6 0.197811 0.278610 0.649403
O O7 0.151079 0.161169 0.812303
O O8 0.942628 0.193011 0.865397
O O9 0.610722 0.650318 0.088444
O O10 0.620366 0.741318 0.260593
O O11 0.408657 0.632463 0.506694
O O12 0.783055 0.623775 0.073311
O O13 0.436202 0.258051 0.171854
O O14 0.658399 0.174039 0.053813
O O15 0.875026 0.500000 0.934054
O O16 0.133153 0.590741 0.690648
O O17 0.049116 0.637631 0.984215
#
# Coordination Sequence:
#
# PCOD8052901 Si02
#       8
#     4   4   4   4   4   4   4   4
#     4  10  21  39  62  89 127 163 197 253 315 365
#     4  10  18  35  56  89 118 150 190 250 303 352
#     4  11  21  36  59  92 119 159 203 250 306 356
#     4   9  19  34  57  86 120 152 192 248 298 360
#     4  10  21  35  59  92 118 156 201 253 301 360
#     4  11  24  39  60  89 122 163 206 251 310 370
#     4  10  21  35  59  89 116 155 201 247 305 352
#     4  11  21  39  56  86 122 158 198 250 302 359
#
# _framework density 19.702885999999999
#
# number of rings (size 3 to 8) (size 9 to 14) (size 15 to 20)
#    0.000    1.750    5.000    0.000    1.750    3.000 
#    0.000    0.625    0.000    6.000    0.000    0.000 
#    0.000    0.000    0.000    0.000    0.000    0.000 
#
# Total GULP energy -198259.677516 kJ/mol
# GULP energy per Si atom -12391.229845 kJ/mol
# Density = 1.965804 g / cm^3
# Si number density = 19.702886 Si / 1000 Ang^3
#
#
#
# Elastic Constant Matrix: (Units=GPa)
#
#
# Indices 1 2 3 4 5 6 
#
# 1 69.2278 30.5453 36.6709 0.0021 1.4946 -0.0037
# 2 30.5453 87.5278 25.1654 -0.0159 5.6019 0.0163
# 3 36.6709 25.1654 134.4447 0.0002 10.0755 0.0010
# 4 0.0021 -0.0159 0.0002 14.3381 -0.0036 7.4680
# 5 1.4946 5.6019 10.0755 -0.0036 33.3161 0.0056
# 6 -0.0037 0.0163 0.0010 7.4680 0.0056 19.0266
#
#
#
# Elastic Compliance Matrix: (Units=1/GPa)
#
#
# Indices 1 2 3 4 5 6 
#
# 1 0.019125 -0.005530 -0.004284 -0.000016 0.001367 0.000015
# 2 -0.005530 0.013736 -0.000929 0.000028 -0.001780 -0.000023
# 3 -0.004284 -0.000929 0.008957 -0.000001 -0.002360 0.000001
# 4 -0.000016 0.000028 -0.000001 0.087667 0.000012 -0.034410
# 5 0.001367 -0.001780 -0.002360 0.000012 0.030967 -0.000012
# 6 0.000015 -0.000023 0.000001 -0.034410 -0.000012 0.066064
#
#
# Mechanical properties :
#
#
# Convention : Reuss Voigt Hill
#
# Bulk Modulus (GPa) = 49.18415 52.88483 51.03449
# Shear Modulus (GPa) = 19.62481 26.59072 23.10777
#
# Velocity S-wave (km/s) = 3.15943 3.67766 3.42835
# Velocity P-wave (km/s) = 6.19083 6.70321 6.45211
#
# Compressibility (1/GPa) = 0.02033175
#
# Stress axis : x y z
#
# Youngs Moduli (GPa) = 52.28838 72.80166 111.64094
#
# Poissons Ratio (x) = 0.40259 0.47825
# Poissons Ratio (y) = 0.28915 0.10375
# Poissons Ratio (z) = 0.22399 0.06766
#
# Static dielectric constant tensor:
#      x y z
#    x 3.602120 -0.000020 0.078690 
#    y -0.000020 3.263630 0.000040 
#    z 0.078690 0.000040 3.672410 
# 
# 
# High freq. dielectric constant tensor:
#      x y z
#    x 1.765760 0.000000 -0.000240 
#    y 0.000000 1.726620 0.000010 
#    z -0.000240 0.000010 1.775300 
# 
# From -- ./inp_files/22383.got.cif
#   From: 2010.03.12/outbox.cif.g09.slc.cpg/sg8_12_cif.got.tgz:22383.got - 2010.03.31 10:45:26.
