data_PCOD8052021
_publ_section_title
;
Structure prediction by ZEFSAII (Michael W. Deem and Ramdas Pophale) SiO2 
 PCOD8052021
Probable space group: C 2
;
_chemical_formula_sum "Si O2"
_cell_formula_units_Z 20
_cell_length_a 18.269620
_cell_length_b 5.270762
_cell_length_c 14.855465
_cell_angle_alpha 90.000000
_cell_angle_beta 32.309559
_cell_angle_gamma 90.000000
_cell_volume 764.595059
_symmetry_space_group_name_H-M "C 2"
_symmetry_group_IT_number 5
_symmetry_cell_setting 'monoclinic'
loop_
_space_group_symop_operation_xyz
x,y,z
-x,y,-z
1/2+x,1/2+y,z
1/2-x,1/2+y,-z
loop_
_atom_site_type_symbol
_atom_site_label
_atom_site_fract_x
_atom_site_fract_y
_atom_site_fract_z
Si Si1 0.137895 0.515240 0.886461
Si Si2 0.329110 0.955970 0.942519
Si Si3 0.073793 0.133035 0.642095
Si Si4 0.395619 0.251573 0.535401
Si Si5 0.685865 0.373602 0.683762
O O1 0.276580 0.385234 0.715115
O O2 0.123823 0.775640 0.842129
O O3 0.139037 0.562767 0.991382
O O4 0.000000 0.358584 0.000000
O O5 0.473363 0.878972 0.745441
O O6 0.237945 0.695837 0.039719
O O7 0.239298 0.157846 0.454706
O O8 0.022653 0.941831 0.616817
O O9 0.066082 0.009982 0.750717
O O10 0.500000 0.138549 0.500000
O O11 0.325548 0.029008 0.554041
#
# Coordination Sequence:
#
# PCOD8052021 Si02
#       5
#     4   4   4   4   4
#     4  11  28  49  75 117 158 212 264 339 399 482
#     4  12  31  51  81 118 164 210 264 335 410 475
#     4  11  25  47  78 113 155 216 267 325 399 489
#     4  11  25  46  76 112 157 204 270 332 400 473
#     4  11  25  45  81 111 155 210 273 329 396 480
#
# _framework density 26.157634999999999
#
# number of rings (size 3 to 8) (size 9 to 14) (size 15 to 20)
#    0.000    0.800    2.000    2.400   14.000    4.000 
#    0.000    0.000    0.000    0.000    0.000    0.000 
#    0.000    0.000    0.000    0.000    0.000    0.000 
#
# Total GULP energy -123916.383516 kJ/mol
# GULP energy per Si atom -12391.638352 kJ/mol
# Density = 2.609810 g / cm^3
# Si number density = 26.157635 Si / 1000 Ang^3
#
#
#
# Elastic Constant Matrix: (Units=GPa)
#
#
# Indices 1 2 3 4 5 6 
#
# 1 153.5540 17.5189 27.3377 -0.1002 10.2626 0.0289
# 2 17.5189 67.3307 9.1519 -0.3671 9.9155 0.0944
# 3 27.3377 9.1519 94.6357 -0.1288 13.4952 0.0467
# 4 -0.1002 -0.3671 -0.1288 142.6870 0.0489 -25.4519
# 5 10.2626 9.9155 13.4952 0.0489 40.1321 -0.0186
# 6 0.0289 0.0944 0.0467 -25.4519 -0.0186 50.9874
#
#
#
# Elastic Compliance Matrix: (Units=1/GPa)
#
#
# Indices 1 2 3 4 5 6 
#
# 1 0.007052 -0.001470 -0.001775 0.000000 -0.000844 0.000000
# 2 -0.001470 0.015809 -0.000631 0.000038 -0.003318 -0.000010
# 3 -0.001775 -0.000631 0.011610 0.000008 -0.003294 -0.000006
# 4 0.000000 0.000038 0.000008 0.007693 -0.000020 0.003840
# 5 -0.000844 -0.003318 -0.003294 -0.000020 0.027061 0.000010
# 6 0.000000 -0.000010 -0.000006 0.003840 0.000010 0.021530
#
#
# Mechanical properties :
#
#
# Convention : Reuss Voigt Hill
#
# Bulk Modulus (GPa) = 37.42397 47.05973 42.24185
# Shear Modulus (GPa) = 46.54887 64.19542 55.37214
#
# Velocity S-wave (km/s) = 4.22305 4.95934 4.60593
# Velocity P-wave (km/s) = 6.17390 7.12904 6.66859
#
# Compressibility (1/GPa) = 0.02672085
#
# Stress axis : x y z
#
# Youngs Moduli (GPa) = 141.79605 63.25485 86.12986
#
# Poissons Ratio (x) = 0.09295 0.15287
# Poissons Ratio (y) = 0.20837 0.05436
# Poissons Ratio (z) = 0.25167 0.03992
#
# Static dielectric constant tensor:
#      x y z
#    x 4.460920 -0.000260 -0.033100 
#    y -0.000260 4.744940 0.000210 
#    z -0.033100 0.000210 4.746770 
# 
# 
# High freq. dielectric constant tensor:
#      x y z
#    x 2.055320 -0.000010 -0.000750 
#    y -0.000010 2.029150 0.000010 
#    z -0.000750 0.000010 2.066690 
# 
# From -- ./inp_files/56456.got.cif
#   From: 2010.03.12/outbox.cif.g09.slc.cpg/sg5_29_cif.got.tgz:56456.got - 2010.03.31 09:47:26.
