data_PCOD8052590
_publ_section_title
;
Structure prediction by ZEFSAII (Michael W. Deem and Ramdas Pophale) SiO2 
 PCOD8052590
Probable space group: P C
;
_chemical_formula_sum "Si O2"
_cell_formula_units_Z 16
_cell_length_a 11.987124
_cell_length_b 13.767432
_cell_length_c 5.254500
_cell_angle_alpha 90.000000
_cell_angle_beta 73.420865
_cell_angle_gamma 90.000000
_cell_volume 831.109352
_symmetry_space_group_name_H-M "P C"
_symmetry_group_IT_number 7
_symmetry_cell_setting 'monoclinic'
loop_
_space_group_symop_operation_xyz
x,y,z
x,-y,1/2+z
loop_
_atom_site_type_symbol
_atom_site_label
_atom_site_fract_x
_atom_site_fract_y
_atom_site_fract_z
Si Si1 0.954920 0.721522 0.016030
Si Si2 0.401809 0.559501 0.648958
Si Si3 0.134959 0.562907 0.809860
Si Si4 0.625080 0.328286 0.994850
Si Si5 0.696657 0.026270 0.331523
Si Si6 0.843420 0.558019 0.341123
Si Si7 0.948846 0.946802 0.110700
Si Si8 0.721726 0.757403 0.937360
O O1 0.907176 0.663406 0.296456
O O2 0.851375 0.712971 0.873216
O O3 0.067344 0.665453 0.834713
O O4 0.983037 0.832795 0.073119
O O5 0.427868 0.482877 0.409992
O O6 0.269427 0.595256 0.713888
O O7 0.488795 0.649535 0.554851
O O8 0.104287 0.493049 0.592503
O O9 0.703956 0.425635 0.914196
O O10 0.656431 0.251380 0.752125
O O11 0.647394 0.291811 0.265496
O O12 0.741078 0.133071 0.345173
O O13 0.622336 0.984457 0.618903
O O14 0.808593 0.956611 0.204698
O O15 0.884320 0.499418 0.561164
O O16 0.001199 0.004957 0.833299
#
# Coordination Sequence:
#
# PCOD8052590 Si02
#       8
#     2   2   2   2   2   2   2   2
#     4  11  22  36  56  82 118 146 185 228 280 344
#     4  10  20  39  61  76 107 147 197 239 264 318
#     4  10  23  40  58  83 111 153 191 231 279 324
#     4  11  22  34  54  80 109 147 187 221 277 322
#     4  10  18  33  50  72 114 140 183 216 271 330
#     4  11  22  33  47  74 112 146 169 210 271 332
#     4  10  21  33  53  76 109 145 188 223 270 326
#     4  11  22  32  53  85 114 142 176 232 280 338
#
# _framework density 19.251377999999999
#
# number of rings (size 3 to 8) (size 9 to 14) (size 15 to 20)
#    0.000    1.500    2.500    4.500    5.250    4.000 
#    0.000    0.000    0.000    0.000    0.000    5.250 
#    0.000    0.000    0.000    0.000    0.000    0.000 
#
# Total GULP energy -198290.742244 kJ/mol
# GULP energy per Si atom -12393.171390 kJ/mol
# Density = 1.920756 g / cm^3
# Si number density = 19.251378 Si / 1000 Ang^3
#
#
#
# Elastic Constant Matrix: (Units=GPa)
#
#
# Indices 1 2 3 4 5 6 
#
# 1 78.8151 45.0683 39.1390 0.0000 0.1531 0.0000
# 2 45.0683 121.9917 49.2176 0.0000 -1.3642 0.0000
# 3 39.1390 49.2176 138.1835 0.0000 20.3362 0.0000
# 4 0.0000 0.0000 0.0000 28.0682 0.0000 2.2631
# 5 0.1531 -1.3642 20.3362 0.0000 25.3201 0.0000
# 6 0.0000 0.0000 0.0000 2.2631 0.0000 12.3874
#
#
#
# Elastic Compliance Matrix: (Units=1/GPa)
#
#
# Indices 1 2 3 4 5 6 
#
# 1 0.017234 -0.004936 -0.003480 0.000000 0.002425 0.000000
# 2 -0.004936 0.011300 -0.003086 0.000000 0.003117 0.000000
# 3 -0.003480 -0.003086 0.010595 0.000000 -0.008655 0.000000
# 4 0.000000 0.000000 0.000000 0.036160 0.000000 -0.006606
# 5 0.002425 0.003117 -0.008655 0.000000 0.046599 0.000000
# 6 0.000000 0.000000 0.000000 -0.006606 0.000000 0.081934
#
#
# Mechanical properties :
#
#
# Convention : Reuss Voigt Hill
#
# Bulk Modulus (GPa) = 62.01004 67.31557 64.66280
# Shear Modulus (GPa) = 21.53302 26.85949 24.19626
#
# Velocity S-wave (km/s) = 3.34805 3.73929 3.54907
# Velocity P-wave (km/s) = 6.87216 7.32704 7.10324
#
# Compressibility (1/GPa) = 0.01612642
#
# Stress axis : x y z
#
# Youngs Moduli (GPa) = 58.02570 88.49200 94.38143
#
# Poissons Ratio (x) = 0.43676 0.32847
# Poissons Ratio (y) = 0.28639 0.29124
# Poissons Ratio (z) = 0.20194 0.27306
#
# Static dielectric constant tensor:
#      x y z
#    x 3.350640 0.000000 0.288830 
#    y 0.000000 3.509730 0.000000 
#    z 0.288830 0.000000 4.137210 
# 
# 
# High freq. dielectric constant tensor:
#      x y z
#    x 1.704890 0.000000 0.024960 
#    y 0.000000 1.742310 0.000000 
#    z 0.024960 0.000000 1.772100 
# 
# From -- ./inp_files/1096.got.cif
#   From: 2010.03.12/outbox.cif.g09.slc.cpg/sg7_cif.got.tgz:1096.got - 2010.03.30 08:40:41.
