data_PCOD8052052
_publ_section_title
;
Structure prediction by ZEFSAII (Michael W. Deem and Ramdas Pophale) SiO2 
 PCOD8052052
Probable space group: C 2
;
_chemical_formula_sum "Si O2"
_cell_formula_units_Z 26
_cell_length_a 14.369729
_cell_length_b 7.860201
_cell_length_c 14.319515
_cell_angle_alpha 90.000000
_cell_angle_beta 42.081353
_cell_angle_gamma 90.000000
_cell_volume 1083.940168
_symmetry_space_group_name_H-M "C 2"
_symmetry_group_IT_number 5
_symmetry_cell_setting 'monoclinic'
loop_
_space_group_symop_operation_xyz
x,y,z
-x,y,-z
1/2+x,1/2+y,z
1/2-x,1/2+y,-z
loop_
_atom_site_type_symbol
_atom_site_label
_atom_site_fract_x
_atom_site_fract_y
_atom_site_fract_z
Si Si1 0.000000 0.833030 0.500000
Si Si2 0.681466 0.381733 0.678176
Si Si3 0.880801 0.087068 0.456450
Si Si4 0.683945 0.086024 0.250019
Si Si5 0.887043 0.278453 0.799152
Si Si6 0.929067 0.705328 0.957147
Si Si7 0.597353 0.804461 0.011157
O O1 0.081704 0.718233 0.369444
O O2 0.115831 0.941545 0.468503
O O3 0.792712 0.241052 0.564161
O O4 0.678308 0.519610 0.597593
O O5 0.727157 0.478783 0.739459
O O6 0.533263 0.282315 0.801059
O O7 0.043185 0.142303 0.321767
O O8 0.764194 0.201737 0.114759
O O9 0.582390 0.963695 0.266265
O O10 0.721177 0.289824 0.935617
O O11 0.958925 0.242999 0.846202
O O12 0.893342 0.506151 0.983453
O O13 0.000000 0.758597 0.000000
O O14 0.500000 0.748489 0.000000
#
# Coordination Sequence:
#
# PCOD8052052 Si02
#       7
#     2   4   4   4   4   4   4
#     4  12  28  46  74 108 150 200 258 308 378 456
#     4  12  28  50  76 110 154 204 253 316 380 450
#     4  12  29  48  77 108 155 202 257 313 379 454
#     4  12  26  47  76 108 151 197 253 310 381 450
#     4  12  26  47  78 111 150 197 257 309 383 458
#     4  11  26  47  73 108 152 194 250 318 381 444
#     4  11  27  43  76 107 151 190 250 309 383 445
#
# _framework density 23.986564999999999
#
# number of rings (size 3 to 8) (size 9 to 14) (size 15 to 20)
#    0.000    0.308    1.538    5.538   17.231    0.000 
#    0.000    0.000    0.000    0.000    0.000    0.000 
#    0.000    0.000    0.000    0.000    0.000    0.000 
#
# Total GULP energy -161099.215309 kJ/mol
# GULP energy per Si atom -12392.247331 kJ/mol
# Density = 2.393197 g / cm^3
# Si number density = 23.986565 Si / 1000 Ang^3
#
#
#
# Elastic Constant Matrix: (Units=GPa)
#
#
# Indices 1 2 3 4 5 6 
#
# 1 70.4069 19.0191 24.5973 0.0000 12.2174 0.0000
# 2 19.0191 92.2942 60.9849 0.0000 -5.5187 0.0000
# 3 24.5973 60.9849 117.8902 0.0000 4.9549 0.0000
# 4 0.0000 0.0000 0.0000 57.2598 0.0000 3.0498
# 5 12.2174 -5.5187 4.9549 0.0000 34.4449 0.0000
# 6 0.0000 0.0000 0.0000 3.0498 0.0000 44.5957
#
#
#
# Elastic Compliance Matrix: (Units=1/GPa)
#
#
# Indices 1 2 3 4 5 6 
#
# 1 0.016593 -0.002520 -0.001906 0.000000 -0.006015 0.000000
# 2 -0.002520 0.017378 -0.008671 0.000000 0.004925 0.000000
# 3 -0.001906 -0.008671 0.013477 0.000000 -0.002652 0.000000
# 4 0.000000 0.000000 0.000000 0.017528 0.000000 -0.001199
# 5 -0.006015 0.004925 -0.002652 0.000000 0.032336 0.000000
# 6 0.000000 0.000000 0.000000 -0.001199 0.000000 0.022506
#
#
# Mechanical properties :
#
#
# Convention : Reuss Voigt Hill
#
# Bulk Modulus (GPa) = 47.04682 54.42155 50.73419
# Shear Modulus (GPa) = 32.65902 38.99275 35.82589
#
# Velocity S-wave (km/s) = 3.69393 4.03626 3.86888
# Velocity P-wave (km/s) = 6.15223 6.66779 6.41519
#
# Compressibility (1/GPa) = 0.02125542
#
# Stress axis : x y z
#
# Youngs Moduli (GPa) = 60.26483 57.54331 74.19972
#
# Poissons Ratio (x) = 0.14499 0.14141
# Poissons Ratio (y) = 0.15185 0.64339
# Poissons Ratio (z) = 0.11486 0.49896
#
# Static dielectric constant tensor:
#      x y z
#    x 4.514800 0.000000 0.356870 
#    y 0.000000 4.502000 0.000000 
#    z 0.356870 0.000000 4.476260 
# 
# 
# High freq. dielectric constant tensor:
#      x y z
#    x 1.952690 0.000000 0.017500 
#    y 0.000000 1.971790 0.000000 
#    z 0.017500 0.000000 1.963110 
# 
# From -- ./inp_files/54296.got.cif
#   From: 2010.03.12/outbox.cif.g09.slc.cpg/sg5_28_cif.got.tgz:54296.got - 2010.03.31 09:47:26.
