data_PCOD8052501
_publ_section_title
;
Structure prediction by ZEFSAII (Michael W. Deem and Ramdas Pophale) SiO2 
 PCOD8052501
Probable space group: P M
;
_chemical_formula_sum "Si O2"
_cell_formula_units_Z 16
_cell_length_a 9.623638
_cell_length_b 8.935798
_cell_length_c 11.984416
_cell_angle_alpha 90.000000
_cell_angle_beta 52.218817
_cell_angle_gamma 90.000000
_cell_volume 814.539958
_symmetry_space_group_name_H-M "P M"
_symmetry_group_IT_number 6
_symmetry_cell_setting 'monoclinic'
loop_
_space_group_symop_operation_xyz
x,y,z
x,-y,z
loop_
_atom_site_type_symbol
_atom_site_label
_atom_site_fract_x
_atom_site_fract_y
_atom_site_fract_z
Si Si1 0.263910 0.177290 0.654960
Si Si2 0.527379 0.672527 0.367431
Si Si3 0.924744 0.673844 0.209619
Si Si4 0.572527 0.176230 0.907282
Si Si5 0.404632 0.676489 0.185828
Si Si6 0.239489 0.823443 0.921825
Si Si7 0.046076 0.177464 0.358549
Si Si8 0.956332 0.177200 0.647042
O O1 0.442710 0.235245 0.510235
O O2 0.255011 0.233400 0.786719
O O3 0.093319 0.239738 0.671772
O O4 0.269973 0.000000 0.648135
O O5 0.488009 0.500000 0.411030
O O6 0.734136 0.701363 0.250497
O O7 0.442161 0.725466 0.293548
O O8 0.968804 0.500000 0.202571
O O9 0.911225 0.751964 0.337142
O O10 0.071372 0.745676 0.058731
O O11 0.419250 0.221570 0.896160
O O12 0.758704 0.229728 0.767150
O O13 0.570570 0.000000 0.933386
O O14 0.558929 0.267776 0.029031
O O15 0.377254 0.500000 0.187828
O O16 0.235935 0.766424 0.225516
O O17 0.207982 0.000000 0.943258
O O18 0.006764 0.240988 0.500839
O O19 0.035094 0.000000 0.357678
O O20 0.968796 0.000000 0.638776
#
# Coordination Sequence:
#
# PCOD8052501 Si02
#       8
#     2   2   2   2   2   2   2   2
#     4  10  21  39  61  87 118 154 197 243 292 349
#     4  10  24  42  59  85 121 159 199 243 293 348
#     4  11  24  41  60  85 121 160 198 242 292 350
#     4  10  21  38  59  86 119 153 193 243 294 347
#     4  11  22  39  61  86 118 156 199 245 292 349
#     4  10  22  38  59  87 119 153 196 243 291 347
#     4  11  21  38  64  90 116 150 196 248 299 349
#     4   9  20  37  59  88 118 149 190 243 297 345
#
# _framework density 19.642989
#
# number of rings (size 3 to 8) (size 9 to 14) (size 15 to 20)
#    0.000    1.750    2.500    1.125    3.500    2.000 
#    0.000    1.875    0.000    0.000    0.000    0.000 
#    0.000    0.000    0.000    0.000    0.000    0.000 
#
# Total GULP energy -198437.252399 kJ/mol
# GULP energy per Si atom -12402.328275 kJ/mol
# Density = 1.959828 g / cm^3
# Si number density = 19.642989 Si / 1000 Ang^3
#
#
#
# Elastic Constant Matrix: (Units=GPa)
#
#
# Indices 1 2 3 4 5 6 
#
# 1 88.3834 32.5394 51.6121 0.0000 4.1041 0.0000
# 2 32.5394 49.1033 35.0563 0.0000 3.2363 0.0000
# 3 51.6121 35.0563 137.8619 0.0000 5.6108 0.0000
# 4 0.0000 0.0000 0.0000 20.7641 0.0000 -0.2885
# 5 4.1041 3.2363 5.6108 0.0000 39.3088 0.0000
# 6 0.0000 0.0000 0.0000 -0.2885 0.0000 25.6602
#
#
#
# Elastic Compliance Matrix: (Units=1/GPa)
#
#
# Indices 1 2 3 4 5 6 
#
# 1 0.016765 -0.008077 -0.004203 0.000000 -0.000486 0.000000
# 2 -0.008077 0.028826 -0.004269 0.000000 -0.000921 0.000000
# 3 -0.004203 -0.004269 0.009938 0.000000 -0.000628 0.000000
# 4 0.000000 0.000000 0.000000 0.048167 0.000000 0.000542
# 5 -0.000486 -0.000921 -0.000628 0.000000 0.025656 0.000000
# 6 0.000000 0.000000 0.000000 0.000542 0.000000 0.038977
#
#
# Mechanical properties :
#
#
# Convention : Reuss Voigt Hill
#
# Bulk Modulus (GPa) = 44.57957 57.08492 50.83225
# Shear Modulus (GPa) = 23.93452 27.55600 25.74526
#
# Velocity S-wave (km/s) = 3.49446 3.74952 3.62423
# Velocity P-wave (km/s) = 6.24706 6.91878 6.59148
#
# Compressibility (1/GPa) = 0.02243180
#
# Stress axis : x y z
#
# Youngs Moduli (GPa) = 59.64893 34.69093 100.62345
#
# Poissons Ratio (x) = 0.28020 0.42289
# Poissons Ratio (y) = 0.48179 0.42953
# Poissons Ratio (z) = 0.25068 0.14808
#
# Static dielectric constant tensor:
#      x y z
#    x 3.761100 0.000000 0.102260 
#    y 0.000000 3.362980 0.000000 
#    z 0.102260 0.000000 3.649020 
# 
# 
# High freq. dielectric constant tensor:
#      x y z
#    x 1.775090 0.000000 0.003920 
#    y 0.000000 1.747710 0.000000 
#    z 0.003920 0.000000 1.775810 
# 
# From -- ./inp_files/3722.got.cif
#   From: 2010.03.12/outbox.cif.g09.slc.cpg/sg6_2_cif.got.tgz:3722.got - 2010.03.30 10:24:59.
