data_PCOD8052112
_publ_section_title
;
Structure prediction by ZEFSAII (Michael W. Deem and Ramdas Pophale) SiO2 
 PCOD8052112
Probable space group: C 2
;
_chemical_formula_sum "Si O2"
_cell_formula_units_Z 24
_cell_length_a 13.693555
_cell_length_b 14.524679
_cell_length_c 10.669612
_cell_angle_alpha 90.000000
_cell_angle_beta 148.286432
_cell_angle_gamma 90.000000
_cell_volume 1115.545132
_symmetry_space_group_name_H-M "C 2"
_symmetry_group_IT_number 5
_symmetry_cell_setting 'monoclinic'
loop_
_space_group_symop_operation_xyz
x,y,z
-x,y,-z
1/2+x,1/2+y,z
1/2-x,1/2+y,-z
loop_
_atom_site_type_symbol
_atom_site_label
_atom_site_fract_x
_atom_site_fract_y
_atom_site_fract_z
Si Si1 0.664414 0.495800 0.773721
Si Si2 0.290021 0.815741 0.547526
Si Si3 0.000000 0.084893 0.000000
Si Si4 0.500000 0.910711 0.000000
Si Si5 0.918414 0.178697 0.169103
Si Si6 0.704362 0.931720 0.677109
Si Si7 0.368531 0.330067 0.080831
O O1 0.500000 0.471060 0.500000
O O2 0.861844 0.479802 0.922470
O O3 0.639402 0.599967 0.796073
O O4 0.649781 0.429560 0.876082
O O5 0.383636 0.842971 0.782099
O O6 0.391634 0.731279 0.585876
O O7 0.310339 0.903899 0.482625
O O8 0.074153 0.789754 0.322691
O O9 0.034270 0.146868 0.917756
O O10 0.815807 0.025304 0.790830
O O11 0.758124 0.255220 0.989476
O O12 0.500000 0.955125 0.500000
O O13 0.806945 0.851269 0.870263
#
# Coordination Sequence:
#
# PCOD8052112 Si02
#       7
#     4   4   2   2   4   4   4
#     4  12  26  47  75 108 152 193 244 305 366 440
#     4  12  25  46  77 105 147 196 247 296 367 440
#     4  12  27  48  73 116 146 188 253 306 363 440
#     4  12  25  48  79 102 144 208 239 292 377 438
#     4  12  28  46  74 115 146 187 254 309 357 440
#     4  12  23  47  78 103 148 198 241 298 373 433
#     4  12  25  50  76 105 149 200 239 304 375 435
#
# _framework density 21.514144000000002
#
# number of rings (size 3 to 8) (size 9 to 14) (size 15 to 20)
#    0.000    0.000    8.333    0.500    2.333    2.667 
#    0.000    0.000    0.000    0.000    0.000    0.000 
#    0.000    0.000    0.000    0.000    0.000    0.000 
#
# Total GULP energy -148795.042404 kJ/mol
# GULP energy per Si atom -12399.586867 kJ/mol
# Density = 2.146518 g / cm^3
# Si number density = 21.514144 Si / 1000 Ang^3
#
#
#
# Elastic Constant Matrix: (Units=GPa)
#
#
# Indices 1 2 3 4 5 6 
#
# 1 106.0911 36.3962 52.9882 0.0000 21.4791 0.0000
# 2 36.3962 118.3350 38.9976 0.0000 14.5957 0.0000
# 3 52.9882 38.9976 145.5814 0.0000 27.5933 0.0000
# 4 0.0000 0.0000 0.0000 29.9001 0.0000 4.9130
# 5 21.4791 14.5957 27.5933 0.0000 56.0192 0.0000
# 6 0.0000 0.0000 0.0000 4.9130 0.0000 43.7582
#
#
#
# Elastic Compliance Matrix: (Units=1/GPa)
#
#
# Indices 1 2 3 4 5 6 
#
# 1 0.012458 -0.002399 -0.003425 0.000000 -0.002465 0.000000
# 2 -0.002399 0.009819 -0.001596 0.000000 -0.000853 0.000000
# 3 -0.003425 -0.001596 0.009061 0.000000 -0.002734 0.000000
# 4 0.000000 0.000000 0.000000 0.034073 0.000000 -0.003826
# 5 -0.002465 -0.000853 -0.002734 0.000000 0.020365 0.000000
# 6 0.000000 0.000000 0.000000 -0.003826 0.000000 0.023282
#
#
# Mechanical properties :
#
#
# Convention : Reuss Voigt Hill
#
# Bulk Modulus (GPa) = 60.60509 69.64127 65.12318
# Shear Modulus (GPa) = 38.64015 42.04387 40.34201
#
# Velocity S-wave (km/s) = 4.24256 4.42548 4.33499
# Velocity P-wave (km/s) = 7.22704 7.65202 7.44257
#
# Compressibility (1/GPa) = 0.01650026
#
# Stress axis : x y z
#
# Youngs Moduli (GPa) = 80.26656 101.83836 110.36049
#
# Poissons Ratio (x) = 0.24433 0.37795
# Poissons Ratio (y) = 0.19258 0.17608
# Poissons Ratio (z) = 0.27489 0.16249
#
# Static dielectric constant tensor:
#      x y z
#    x 4.194810 0.000000 0.073150 
#    y 0.000000 3.809100 0.000000 
#    z 0.073150 0.000000 4.027080 
# 
# 
# High freq. dielectric constant tensor:
#      x y z
#    x 1.866180 0.000000 0.007340 
#    y 0.000000 1.839740 0.000000 
#    z 0.007340 0.000000 1.855820 
# 
# From -- ./inp_files/43130.got.cif
#   From: 2010.03.12/outbox.cif.g09.slc.cpg/sg5_22_cif.got.tgz:43130.got - 2010.03.31 09:47:26.
