data_PCOD8052583
_publ_section_title
;
Structure prediction by ZEFSAII (Michael W. Deem and Ramdas Pophale) SiO2 
 PCOD8052583
Probable space group: P C
;
_chemical_formula_sum "Si O2"
_cell_formula_units_Z 16
_cell_length_a 23.568846
_cell_length_b 7.323154
_cell_length_c 5.194004
_cell_angle_alpha 90.000000
_cell_angle_beta 122.766522
_cell_angle_gamma 90.000000
_cell_volume 753.831582
_symmetry_space_group_name_H-M "P C"
_symmetry_group_IT_number 7
_symmetry_cell_setting 'monoclinic'
loop_
_space_group_symop_operation_xyz
x,y,z
x,-y,1/2+z
loop_
_atom_site_type_symbol
_atom_site_label
_atom_site_fract_x
_atom_site_fract_y
_atom_site_fract_z
Si Si1 0.393810 0.114492 0.236740
Si Si2 0.128030 0.390655 0.460707
Si Si3 0.976843 0.379834 0.141629
Si Si4 0.856330 0.880270 0.309936
Si Si5 0.538818 0.213957 0.512868
Si Si6 0.732791 0.621481 0.047872
Si Si7 0.597077 0.800449 0.656386
Si Si8 0.246348 0.116377 0.858578
O O1 0.458292 0.240729 0.342256
O O2 0.399127 0.050039 0.544742
O O3 0.320795 0.211838 0.015350
O O4 0.136103 0.556808 0.681650
O O5 0.186529 0.253837 0.672470
O O6 0.053745 0.305801 0.320276
O O7 0.961848 0.519971 0.873807
O O8 0.931538 0.200058 0.009000
O O9 0.805946 0.710961 0.209883
O O10 0.844390 0.023429 0.508174
O O11 0.561512 0.691734 0.803958
O O12 0.567721 0.005396 0.560985
O O13 0.575234 0.307761 0.844590
O O14 0.724111 0.526955 0.302687
O O15 0.677831 0.785156 0.885877
O O16 0.239544 0.959811 0.629184
#
# Coordination Sequence:
#
# PCOD8052583 Si02
#       8
#     2   2   2   2   2   2   2   2
#     4  10  16  30  49  83 111 144 187 237 301 341
#     4  10  21  38  61  86 120 164 200 232 289 362
#     4  10  21  41  65  87 120 164 198 232 295 359
#     4  12  26  41  65  95 121 152 200 251 287 341
#     4  10  17  32  55  89 103 140 186 260 276 346
#     4  12  26  44  61  84 125 164 191 237 302 367
#     4  10  20  31  58  79 109 142 192 239 289 331
#     4  10  21  33  56  87 119 150 198 252 289 343
#
# _framework density 21.224899000000001
#
# number of rings (size 3 to 8) (size 9 to 14) (size 15 to 20)
#    0.000    1.500    2.500    3.750    3.500    1.000 
#    0.000    0.000    0.000    4.500    0.000    0.000 
#    0.000    0.000    0.000    0.000    0.000    0.000 
#
# Total GULP energy -198298.508367 kJ/mol
# GULP energy per Si atom -12393.656773 kJ/mol
# Density = 2.117659 g / cm^3
# Si number density = 21.224899 Si / 1000 Ang^3
#
#
#
# Elastic Constant Matrix: (Units=GPa)
#
#
# Indices 1 2 3 4 5 6 
#
# 1 91.3561 13.4219 32.4880 0.0000 9.3372 0.0000
# 2 13.4219 30.5028 6.9687 0.0000 16.4578 0.0000
# 3 32.4880 6.9687 105.2794 0.0000 0.7461 0.0000
# 4 0.0000 0.0000 0.0000 23.0718 0.0000 3.7645
# 5 9.3372 16.4578 0.7461 0.0000 58.3566 0.0000
# 6 0.0000 0.0000 0.0000 3.7645 0.0000 17.0694
#
#
#
# Elastic Compliance Matrix: (Units=1/GPa)
#
#
# Indices 1 2 3 4 5 6 
#
# 1 0.013000 -0.004453 -0.003711 0.000000 -0.000777 0.000000
# 2 -0.004453 0.040853 -0.001253 0.000000 -0.010793 0.000000
# 3 -0.003711 -0.001253 0.010721 0.000000 0.000810 0.000000
# 4 0.000000 0.000000 0.000000 0.044961 0.000000 -0.009916
# 5 -0.000777 -0.010793 0.000810 0.000000 0.020294 0.000000
# 6 0.000000 0.000000 0.000000 -0.009916 0.000000 0.060771
#
#
# Mechanical properties :
#
#
# Convention : Reuss Voigt Hill
#
# Bulk Modulus (GPa) = 21.86375 36.98840 29.42607
# Shear Modulus (GPa) = 22.25376 31.31690 26.78533
#
# Velocity S-wave (km/s) = 3.24153 3.84536 3.55629
# Velocity P-wave (km/s) = 4.93289 6.09758 5.54589
#
# Compressibility (1/GPa) = 0.04573780
#
# Stress axis : x y z
#
# Youngs Moduli (GPa) = 76.92544 24.47796 93.27478
#
# Poissons Ratio (x) = 0.10901 0.34617
# Poissons Ratio (y) = 0.34257 0.11692
# Poissons Ratio (z) = 0.28549 0.03068
#
# Static dielectric constant tensor:
#      x y z
#    x 4.594900 0.000000 -0.458850 
#    y 0.000000 3.247800 0.000000 
#    z -0.458850 0.000000 4.779240 
# 
# 
# High freq. dielectric constant tensor:
#      x y z
#    x 1.857940 0.000000 -0.007000 
#    y 0.000000 1.775190 0.000000 
#    z -0.007000 0.000000 1.866030 
# 
# From -- ./inp_files/1466.got.cif
#   From: 2010.03.12/outbox.cif.g09.slc.cpg/sg7_cif.got.tgz:1466.got - 2010.03.30 08:40:41.
