data_PCOD8052740
_publ_section_title
;
Structure prediction by ZEFSAII (Michael W. Deem and Ramdas Pophale) SiO2 
 PCOD8052740
Probable space group: C M
;
_chemical_formula_sum "Si O2"
_cell_formula_units_Z 32
_cell_length_a 20.864912
_cell_length_b 8.876840
_cell_length_c 20.466240
_cell_angle_alpha 90.000000
_cell_angle_beta 28.571904
_cell_angle_gamma 90.000000
_cell_volume 1812.918251
_symmetry_space_group_name_H-M "C M"
_symmetry_group_IT_number 8
_symmetry_cell_setting 'monoclinic'
loop_
_space_group_symop_operation_xyz
x,y,z
x,-y,z
1/2+x,1/2+y,z
1/2+x,1/2-y,z
loop_
_atom_site_type_symbol
_atom_site_label
_atom_site_fract_x
_atom_site_fract_y
_atom_site_fract_z
Si Si1 0.853820 0.677917 0.456220
Si Si2 0.148974 0.322104 0.178624
Si Si3 0.911824 0.822649 0.876807
Si Si4 0.540735 0.678430 0.897400
Si Si5 0.086057 0.679545 0.476565
Si Si6 0.278305 0.679640 0.194523
Si Si7 0.605228 0.821614 0.606519
Si Si8 0.333267 0.179102 0.624023
O O1 0.828413 0.500000 0.473639
O O2 0.738934 0.761455 0.519982
O O3 0.854009 0.731642 0.531048
O O4 0.997529 0.727291 0.296622
O O5 0.154838 0.500000 0.180493
O O6 0.192063 0.256596 0.210723
O O7 0.256068 0.273188 0.027011
O O8 0.996209 0.772816 0.864719
O O9 0.970823 0.735210 0.762177
O O10 0.925003 0.000000 0.852225
O O11 0.543861 0.500000 0.896751
O O12 0.689537 0.741988 0.778561
O O13 0.432463 0.737234 0.047963
O O14 0.081455 0.500000 0.480203
O O15 0.213229 0.738536 0.320216
O O16 0.100520 0.741190 0.536791
O O17 0.949934 0.744623 0.565811
O O18 0.275153 0.500000 0.196125
O O19 0.607438 0.000000 0.605981
O O20 0.336442 0.000000 0.623509
#
# Coordination Sequence:
#
# PCOD8052740 Si02
#       8
#     4   4   4   4   4   4   4   4
#     4  10  17  30  53  76  94 119 161 209 243 272
#     4   8  14  25  49  79  95 109 153 214 252 270
#     4   9  16  30  50  73  96 121 159 203 241 279
#     4   8  13  21  42  73  92 105 144 204 247 269
#     4   9  17  28  41  62  97 129 152 187 238 287
#     4   8  12  22  40  66  95 115 140 193 249 277
#     4  11  22  32  43  68 106 140 159 181 233 299
#     4   9  14  24  45  71  91 112 152 203 239 267
#
# _framework density 17.651098999999999
#
# number of rings (size 3 to 8) (size 9 to 14) (size 15 to 20)
#    0.000    3.000    2.500    1.875    0.000    0.000 
#    0.000    1.875    0.000    4.500    0.000    1.750 
#    0.000    0.000    0.000    0.000    0.000    0.000 
#
# Total GULP energy -198246.636745 kJ/mol
# GULP energy per Si atom -12390.414797 kJ/mol
# Density = 1.761092 g / cm^3
# Si number density = 17.651099 Si / 1000 Ang^3
#
#
#
# Elastic Constant Matrix: (Units=GPa)
#
#
# Indices 1 2 3 4 5 6 
#
# 1 110.1372 20.9537 80.5540 -0.0001 6.6058 0.0000
# 2 20.9537 19.6336 22.8952 -0.0007 2.1943 0.0005
# 3 80.5540 22.8952 191.8983 0.0000 3.0693 0.0000
# 4 -0.0001 -0.0007 0.0000 14.7343 0.0000 2.7599
# 5 6.6058 2.1943 3.0693 0.0000 27.6470 0.0000
# 6 0.0000 0.0005 0.0000 2.7599 0.0000 14.9908
#
#
#
# Elastic Compliance Matrix: (Units=1/GPa)
#
#
# Indices 1 2 3 4 5 6 
#
# 1 0.014684 -0.009618 -0.004982 0.000000 -0.002192 0.000000
# 2 -0.009618 0.065891 -0.003784 0.000004 -0.002512 -0.000003
# 3 -0.004982 -0.003784 0.007744 0.000000 0.000631 0.000000
# 4 0.000000 0.000004 0.000000 0.070293 0.000000 -0.012941
# 5 -0.002192 -0.002512 0.000631 0.000000 0.036823 0.000000
# 6 0.000000 -0.000003 0.000000 -0.012941 0.000000 0.069090
#
#
# Mechanical properties :
#
#
# Convention : Reuss Voigt Hill
#
# Bulk Modulus (GPa) = 19.39774 63.38611 41.39192
# Shear Modulus (GPa) = 15.69981 24.62551 20.16266
#
# Velocity S-wave (km/s) = 2.98560 3.73919 3.38344
# Velocity P-wave (km/s) = 4.78524 7.39125 6.22612
#
# Compressibility (1/GPa) = 0.05155240
#
# Stress axis : x y z
#
# Youngs Moduli (GPa) = 68.09981 15.17665 129.13879
#
# Poissons Ratio (x) = 0.14596 0.64332
# Poissons Ratio (y) = 0.65495 0.48866
# Poissons Ratio (z) = 0.33924 0.05743
#
# Static dielectric constant tensor:
#      x y z
#    x 3.214560 0.000000 -0.108160 
#    y 0.000000 2.641330 0.000000 
#    z -0.108160 0.000000 3.973250 
# 
# 
# High freq. dielectric constant tensor:
#      x y z
#    x 1.655300 0.000000 -0.006840 
#    y 0.000000 1.615290 0.000000 
#    z -0.006840 0.000000 1.709480 
# 
# From -- ./inp_files/29817.got.cif
#   From: 2010.03.12/outbox.cif.g09.slc.cpg/sg8_15_cif.got.tgz:29817.got - 2010.03.31 10:45:26.
