data_PCOD8052413
_publ_section_title
;
Structure prediction by ZEFSAII (Michael W. Deem and Ramdas Pophale) SiO2 
 PCOD8052413
Probable space group: P M
;
_chemical_formula_sum "Si O2"
_cell_formula_units_Z 12
_cell_length_a 9.525936
_cell_length_b 8.707800
_cell_length_c 12.193306
_cell_angle_alpha 90.000000
_cell_angle_beta 141.019282
_cell_angle_gamma 90.000000
_cell_volume 636.251521
_symmetry_space_group_name_H-M "P M"
_symmetry_group_IT_number 6
_symmetry_cell_setting 'monoclinic'
loop_
_space_group_symop_operation_xyz
x,y,z
x,-y,z
loop_
_atom_site_type_symbol
_atom_site_label
_atom_site_fract_x
_atom_site_fract_y
_atom_site_fract_z
Si Si1 0.457810 0.317915 0.008650
Si Si2 0.116055 0.317143 0.985145
Si Si3 0.221282 0.317440 0.290539
Si Si4 0.306469 0.319475 0.676768
Si Si5 0.938145 0.819058 0.307035
Si Si6 0.622890 0.319044 0.676577
O O1 0.494321 0.500000 0.035129
O O2 0.687757 0.235584 0.175563
O O3 0.281846 0.258846 0.992054
O O4 0.361336 0.266081 0.832742
O O5 0.107538 0.500000 0.980664
O O6 0.869200 0.246997 0.813341
O O7 0.199572 0.256614 0.153741
O O8 0.201546 0.500000 0.285642
O O9 0.460453 0.259135 0.481352
O O10 0.023221 0.251569 0.244537
O O11 0.258178 0.500000 0.640373
O O12 0.518180 0.273356 0.730349
O O13 0.085799 0.234660 0.500027
O O14 0.947351 0.000000 0.303752
O O15 0.644796 0.500000 0.681337
#
# Coordination Sequence:
#
# PCOD8052413 Si02
#       6
#     2   2   2   2   2   2
#     4  10  20  34  55  82 109 138 174 217 264 314
#     4   9  17  29  50  80 106 129 164 214 267 312
#     4   9  17  32  54  77 102 132 171 218 262 308
#     4   9  18  34  56  78 103 137 178 223 264 306
#     4  11  22  35  53  77 108 144 180 217 258 310
#     4   8  14  26  46  72  98 126 163 209 257 298
#
# _framework density 18.860465999999999
#
# number of rings (size 3 to 8) (size 9 to 14) (size 15 to 20)
#    0.000    2.667    0.000    3.500    0.000    4.667 
#    0.000    5.833    0.000    4.000    0.000    0.000 
#    0.000    0.000    0.000    0.000    0.000    0.000 
#
# Total GULP energy -148784.263074 kJ/mol
# GULP energy per Si atom -12398.688589 kJ/mol
# Density = 1.881754 g / cm^3
# Si number density = 18.860466 Si / 1000 Ang^3
#
#
#
# Elastic Constant Matrix: (Units=GPa)
#
#
# Indices 1 2 3 4 5 6 
#
# 1 146.8849 16.5394 94.9626 0.0000 13.2522 0.0000
# 2 16.5394 32.6005 17.8204 0.0000 5.1729 0.0000
# 3 94.9626 17.8204 134.6049 0.0000 12.3212 0.0000
# 4 0.0000 0.0000 0.0000 6.0207 0.0000 -0.5277
# 5 13.2522 5.1729 12.3212 0.0000 23.1138 0.0000
# 6 0.0000 0.0000 0.0000 -0.5277 0.0000 5.2113
#
#
#
# Elastic Compliance Matrix: (Units=1/GPa)
#
#
# Indices 1 2 3 4 5 6 
#
# 1 0.012724 -0.001386 -0.008572 0.000000 -0.002415 0.000000
# 2 -0.001386 0.033854 -0.003031 0.000000 -0.005166 0.000000
# 3 -0.008572 -0.003031 0.014052 0.000000 -0.001897 0.000000
# 4 0.000000 0.000000 0.000000 0.167581 0.000000 0.016969
# 5 -0.002415 -0.005166 -0.001897 0.000000 0.046817 0.000000
# 6 0.000000 0.000000 0.000000 0.016969 0.000000 0.193609
#
#
# Mechanical properties :
#
#
# Convention : Reuss Voigt Hill
#
# Bulk Modulus (GPa) = 28.85912 63.63722 46.24817
# Shear Modulus (GPa) = 9.87818 19.18702 14.53260
#
# Velocity S-wave (km/s) = 2.29104 3.19300 2.77886
# Velocity P-wave (km/s) = 4.72579 6.88534 5.90513
#
# Compressibility (1/GPa) = 0.03465109
#
# Stress axis : x y z
#
# Youngs Moduli (GPa) = 78.59184 29.53834 71.16636
#
# Poissons Ratio (x) = 0.04095 0.61004
# Poissons Ratio (y) = 0.10895 0.21571
# Poissons Ratio (z) = 0.67369 0.08953
#
# Static dielectric constant tensor:
#      x y z
#    x 3.626920 0.000000 -0.005280 
#    y 0.000000 2.967880 0.000000 
#    z -0.005280 0.000000 3.793900 
# 
# 
# High freq. dielectric constant tensor:
#      x y z
#    x 1.731230 0.000000 0.001390 
#    y 0.000000 1.684500 0.000000 
#    z 0.001390 0.000000 1.749010 
# 
# From -- ./inp_files/2487.got.cif
#   From: 2010.03.12/outbox.cif.g09.slc.cpg/sg6_2_cif.got.tgz:2487.got - 2010.03.30 10:24:59.
