data_PCOD8052403
_publ_section_title
;
Structure prediction by ZEFSAII (Michael W. Deem and Ramdas Pophale) SiO2 
 PCOD8052403
Probable space group: P M
;
_chemical_formula_sum "Si O2"
_cell_formula_units_Z 16
_cell_length_a 12.584637
_cell_length_b 9.009346
_cell_length_c 12.525326
_cell_angle_alpha 90.000000
_cell_angle_beta 35.720784
_cell_angle_gamma 90.000000
_cell_volume 829.112926
_symmetry_space_group_name_H-M "P M"
_symmetry_group_IT_number 6
_symmetry_cell_setting 'monoclinic'
loop_
_space_group_symop_operation_xyz
x,y,z
x,-y,z
loop_
_atom_site_type_symbol
_atom_site_label
_atom_site_fract_x
_atom_site_fract_y
_atom_site_fract_z
Si Si1 0.354890 0.174153 0.964580
Si Si2 0.219324 0.669390 0.870089
Si Si3 0.722815 0.676837 0.610749
Si Si4 0.619842 0.169433 0.249927
Si Si5 0.006332 0.170535 0.868128
Si Si6 0.240278 0.823718 0.479479
Si Si7 0.617779 0.667202 0.464426
Si Si8 0.093755 0.825863 0.373769
O O1 0.235105 0.237638 0.965538
O O2 0.551197 0.252911 0.813037
O O3 0.385725 0.000000 0.922278
O O4 0.244176 0.208668 0.162158
O O5 0.173951 0.500000 0.937910
O O6 0.401839 0.680173 0.652511
O O7 0.060274 0.735173 0.927455
O O8 0.707905 0.500000 0.633785
O O9 0.714133 0.725752 0.493572
O O10 0.909377 0.735866 0.506243
O O11 0.440414 0.242916 0.343516
O O12 0.679513 0.237695 0.313812
O O13 0.574212 0.000000 0.312032
O O14 0.788685 0.186230 0.030821
O O15 0.100057 0.231844 0.684471
O O16 0.063446 0.000000 0.841575
O O17 0.175147 0.764308 0.418362
O O18 0.247726 0.000000 0.467845
O O19 0.679240 0.500000 0.391860
O O20 0.046198 0.000000 0.416586
#
# Coordination Sequence:
#
# PCOD8052403 Si02
#       8
#     2   2   2   2   2   2   2   2
#     4  10  21  37  59  88 118 151 196 244 289 343
#     4  10  20  35  56  82 117 155 189 231 289 349
#     4  10  22  39  58  85 120 157 194 236 294 351
#     4  10  20  33  55  84 110 143 185 231 284 340
#     4  10  20  34  56  85 112 146 189 235 288 345
#     4   9  19  38  58  81 115 149 188 241 290 332
#     4   9  19  35  54  79 112 149 185 226 280 341
#     4  10  22  39  62  88 114 154 202 244 288 343
#
# _framework density 19.297733000000001
#
# number of rings (size 3 to 8) (size 9 to 14) (size 15 to 20)
#    0.000    2.250    1.250    1.875    1.750    5.000 
#    0.000    5.000    0.000    1.500    0.000    0.000 
#    0.000    0.000    0.000    0.000    0.000    0.000 
#
# Total GULP energy -198407.422485 kJ/mol
# GULP energy per Si atom -12400.463905 kJ/mol
# Density = 1.925381 g / cm^3
# Si number density = 19.297733 Si / 1000 Ang^3
#
#
#
# Elastic Constant Matrix: (Units=GPa)
#
#
# Indices 1 2 3 4 5 6 
#
# 1 143.1616 43.1104 82.3474 0.0000 1.0545 0.0000
# 2 43.1104 69.5651 48.4302 0.0000 1.1413 0.0000
# 3 82.3474 48.4302 127.5871 0.0000 -1.5484 0.0000
# 4 0.0000 0.0000 0.0000 13.0206 0.0000 -5.2452
# 5 1.0545 1.1413 -1.5484 0.0000 27.0314 0.0000
# 6 0.0000 0.0000 0.0000 -5.2452 0.0000 14.7610
#
#
#
# Elastic Compliance Matrix: (Units=1/GPa)
#
#
# Indices 1 2 3 4 5 6 
#
# 1 0.011472 -0.002633 -0.006414 0.000000 -0.000704 0.000000
# 2 -0.002633 0.020185 -0.005976 0.000000 -0.001092 0.000000
# 3 -0.006414 -0.005976 0.014262 0.000000 0.001319 0.000000
# 4 0.000000 0.000000 0.000000 0.089632 0.000000 0.031850
# 5 -0.000704 -0.001092 0.001319 0.000000 0.037143 0.000000
# 6 0.000000 0.000000 0.000000 0.031850 0.000000 0.079064
#
#
# Mechanical properties :
#
#
# Convention : Reuss Voigt Hill
#
# Bulk Modulus (GPa) = 62.99559 76.45443 69.72501
# Shear Modulus (GPa) = 17.41593 22.05766 19.73679
#
# Velocity S-wave (km/s) = 3.00740 3.38452 3.20152
# Velocity P-wave (km/s) = 6.69135 7.41469 7.06229
#
# Compressibility (1/GPa) = 0.01587413
#
# Stress axis : x y z
#
# Youngs Moduli (GPa) = 87.16671 49.54214 70.11864
#
# Poissons Ratio (x) = 0.13044 0.44971
# Poissons Ratio (y) = 0.22951 0.41901
# Poissons Ratio (z) = 0.55905 0.29605
#
# Static dielectric constant tensor:
#      x y z
#    x 3.563420 0.000000 -0.026800 
#    y 0.000000 3.380690 0.000000 
#    z -0.026800 0.000000 3.540060 
# 
# 
# High freq. dielectric constant tensor:
#      x y z
#    x 1.748080 0.000000 -0.006530 
#    y 0.000000 1.734790 0.000000 
#    z -0.006530 0.000000 1.757460 
# 
# From -- ./inp_files/5019.got.cif
#   From: 2010.03.12/outbox.cif.g09.slc.cpg/sg6_3_cif.got.tgz:5019.got - 2010.03.30 10:24:59.
