data_PCOD8052861
_publ_section_title
;
Structure prediction by ZEFSAII (Michael W. Deem and Ramdas Pophale) SiO2 
 PCOD8052861
Probable space group: C M
;
_chemical_formula_sum "Si O2"
_cell_formula_units_Z 32
_cell_length_a 20.624932
_cell_length_b 8.807197
_cell_length_c 20.349400
_cell_angle_alpha 90.000000
_cell_angle_beta 151.329743
_cell_angle_gamma 90.000000
_cell_volume 1773.426558
_symmetry_space_group_name_H-M "C M"
_symmetry_group_IT_number 8
_symmetry_cell_setting 'monoclinic'
loop_
_space_group_symop_operation_xyz
x,y,z
x,-y,z
1/2+x,1/2+y,z
1/2+x,1/2-y,z
loop_
_atom_site_type_symbol
_atom_site_label
_atom_site_fract_x
_atom_site_fract_y
_atom_site_fract_z
Si Si1 0.609830 0.679301 0.218960
Si Si2 0.420743 0.178448 0.805860
Si Si3 0.652492 0.321056 0.784772
Si Si4 0.401353 0.679189 0.929682
Si Si5 0.177071 0.321933 0.948074
Si Si6 0.879337 0.320838 0.519860
Si Si7 0.474426 0.680175 0.229204
Si Si8 0.236505 0.179653 0.526753
O O1 0.606143 0.500000 0.222737
O O2 0.766672 0.729970 0.365407
O O3 0.520628 0.746444 0.199669
O O4 0.541608 0.731142 0.089909
O O5 0.406906 0.268833 0.860256
O O6 0.565154 0.217139 0.902456
O O7 0.303017 0.241793 0.652857
O O8 0.405875 0.000000 0.806441
O O9 0.663905 0.500000 0.792960
O O10 0.777768 0.252774 0.857652
O O11 0.647006 0.265510 0.854583
O O12 0.516562 0.268489 0.626485
O O13 0.383071 0.500000 0.916902
O O14 0.177506 0.500000 0.931152
O O15 0.320952 0.267704 0.106608
O O16 0.908217 0.500000 0.542880
O O17 0.825547 0.270119 0.543585
O O18 0.482547 0.500000 0.234934
O O19 0.581251 0.738633 0.379763
O O20 0.240480 0.000000 0.533761
#
# Coordination Sequence:
#
# PCOD8052861 Si02
#       8
#     4   4   4   4   4   4   4   4
#     4   8  15  29  55  82 102 132 182 226 261 315
#     4  10  20  34  52  78 111 145 178 217 265 319
#     4  12  23  34  52  82 114 141 178 227 270 315
#     4  11  22  38  57  77 107 149 185 219 267 324
#     4  10  18  33  57  80 106 140 181 221 264 318
#     4   9  16  32  57  82 104 136 179 224 270 318
#     4   8  13  25  51  82 102 127 175 222 259 308
#     4   8  14  27  51  79 106 136 172 216 262 311
#
# _framework density 18.044163999999999
#
# number of rings (size 3 to 8) (size 9 to 14) (size 15 to 20)
#    0.000    2.500    2.500    3.000    0.000    0.500 
#    0.000    2.500    0.000    2.250    0.000    0.000 
#    0.000    0.000    0.000    0.000    0.000    0.000 
#
# Total GULP energy -198287.992005 kJ/mol
# GULP energy per Si atom -12392.999500 kJ/mol
# Density = 1.800309 g / cm^3
# Si number density = 18.044164 Si / 1000 Ang^3
#
#
#
# Elastic Constant Matrix: (Units=GPa)
#
#
# Indices 1 2 3 4 5 6 
#
# 1 63.8852 35.7608 47.5822 0.0000 -6.7068 0.0000
# 2 35.7608 56.8387 38.8949 0.0000 1.0643 0.0000
# 3 47.5822 38.8949 167.1083 0.0000 -3.3883 0.0000
# 4 0.0000 0.0000 0.0000 7.9918 0.0000 -7.0186
# 5 -6.7068 1.0643 -3.3883 0.0000 25.8596 0.0000
# 6 0.0000 0.0000 0.0000 -7.0186 0.0000 22.6391
#
#
#
# Elastic Compliance Matrix: (Units=1/GPa)
#
#
# Indices 1 2 3 4 5 6 
#
# 1 0.027902 -0.014696 -0.004377 0.000000 0.007268 0.000000
# 2 -0.014696 0.028726 -0.002610 0.000000 -0.005336 0.000000
# 3 -0.004377 -0.002610 0.007838 0.000000 -0.000001 0.000000
# 4 0.000000 0.000000 0.000000 0.171942 0.000000 0.053306
# 5 0.007268 -0.005336 -0.000001 0.000000 0.040775 0.000000
# 6 0.000000 0.000000 0.000000 0.053306 0.000000 0.060697
#
#
# Mechanical properties :
#
#
# Convention : Reuss Voigt Hill
#
# Bulk Modulus (GPa) = 47.39229 59.14534 53.26882
# Shear Modulus (GPa) = 12.87733 22.33774 17.60754
#
# Velocity S-wave (km/s) = 2.67433 3.52227 3.12717
# Velocity P-wave (km/s) = 5.98813 7.02788 6.52874
#
# Compressibility (1/GPa) = 0.02110048
#
# Stress axis : x y z
#
# Youngs Moduli (GPa) = 35.83910 34.81219 127.58661
#
# Poissons Ratio (x) = 0.51160 0.55844
# Poissons Ratio (y) = 0.52670 0.33295
# Poissons Ratio (z) = 0.15687 0.09085
#
# Static dielectric constant tensor:
#      x y z
#    x 3.181950 0.000000 0.066650 
#    y 0.000000 2.944490 0.000000 
#    z 0.066650 0.000000 4.135310 
# 
# 
# High freq. dielectric constant tensor:
#      x y z
#    x 1.667910 0.000000 0.005910 
#    y 0.000000 1.658600 0.000000 
#    z 0.005910 0.000000 1.726260 
# 
# From -- ./inp_files/31360.got.cif
#   From: 2010.03.12/outbox.cif.g09.slc.cpg/sg8_16_cif.got.tgz:31360.got - 2010.03.31 10:45:26.
