data_PCOD8052709
_publ_section_title
;
Structure prediction by ZEFSAII (Michael W. Deem and Ramdas Pophale) SiO2 
 PCOD8052709
Probable space group: C M
;
_chemical_formula_sum "Si O2"
_cell_formula_units_Z 32
_cell_length_a 23.234727
_cell_length_b 8.906999
_cell_length_c 11.486995
_cell_angle_alpha 90.000000
_cell_angle_beta 49.318843
_cell_angle_gamma 90.000000
_cell_volume 1802.786869
_symmetry_space_group_name_H-M "C M"
_symmetry_group_IT_number 8
_symmetry_cell_setting 'monoclinic'
loop_
_space_group_symop_operation_xyz
x,y,z
x,-y,z
1/2+x,1/2+y,z
1/2+x,1/2-y,z
loop_
_atom_site_type_symbol
_atom_site_label
_atom_site_fract_x
_atom_site_fract_y
_atom_site_fract_z
Si Si1 0.772870 0.177743 0.472580
Si Si2 0.742648 0.833678 0.065619
Si Si3 0.834285 0.676107 0.606917
Si Si4 0.962855 0.677259 0.858342
Si Si5 0.690982 0.826130 0.898716
Si Si6 0.401831 0.669083 0.723950
Si Si7 0.112319 0.673895 0.780280
Si Si8 0.806599 0.325626 0.186436
O O1 0.835068 0.251705 0.476785
O O2 0.688477 0.236063 0.618079
O O3 0.790315 0.226876 0.319610
O O4 0.779021 0.000000 0.476402
O O5 0.744542 0.715129 0.168348
O O6 0.731152 0.000000 0.134179
O O7 0.676362 0.797501 0.056645
O O8 0.819025 0.826551 0.889829
O O9 0.848061 0.500000 0.578560
O O10 0.753669 0.710835 0.771209
O O11 0.900347 0.746200 0.601401
O O12 0.966531 0.500000 0.836618
O O13 0.960398 0.749920 0.733704
O O14 0.036077 0.747399 0.828263
O O15 0.889480 0.720366 0.031239
O O16 0.616882 0.798940 0.914966
O O17 0.718989 0.000000 0.843882
O O18 0.429947 0.500000 0.666293
O O19 0.105865 0.500000 0.760118
O O20 0.799580 0.500000 0.226193
#
# Coordination Sequence:
#
# PCOD8052709 Si02
#       8
#     4   4   4   4   4   4   4   4
#     4  10  19  32  49  67  91 123 157 189 224 272
#     4   8  14  25  42  63  87 116 151 187 222 265
#     4  10  17  26  43  67  92 116 149 192 233 268
#     4   9  17  30  48  70  95 121 152 190 230 270
#     4   8  14  26  44  66  91 119 152 188 226 269
#     4   9  16  27  43  65  92 120 152 187 226 271
#     4   8  15  29  49  70  91 119 154 190 226 268
#     4  10  19  29  44  68  95 120 149 189 235 275
#
# _framework density 17.750295999999999
#
# number of rings (size 3 to 8) (size 9 to 14) (size 15 to 20)
#    0.000    3.000    0.000    3.750    0.000    3.500 
#    0.000    3.125    0.000    1.500    0.000    8.750 
#    0.000    0.000    0.000    0.000    0.000    0.000 
#
# Total GULP energy -198250.404485 kJ/mol
# GULP energy per Si atom -12390.650280 kJ/mol
# Density = 1.770990 g / cm^3
# Si number density = 17.750296 Si / 1000 Ang^3
#
#
#
# Elastic Constant Matrix: (Units=GPa)
#
#
# Indices 1 2 3 4 5 6 
#
# 1 165.8597 42.9494 49.6054 0.0000 31.6077 0.0000
# 2 42.9494 75.5008 30.0128 0.0000 14.6765 0.0000
# 3 49.6054 30.0128 49.5326 0.0000 22.6222 0.0000
# 4 0.0000 0.0000 0.0000 19.9482 0.0000 10.8524
# 5 31.6077 14.6765 22.6222 0.0000 27.3579 0.0000
# 6 0.0000 0.0000 0.0000 10.8524 0.0000 26.5357
#
#
#
# Elastic Compliance Matrix: (Units=1/GPa)
#
#
# Indices 1 2 3 4 5 6 
#
# 1 0.009191 -0.001988 -0.005845 0.000000 -0.004720 0.000000
# 2 -0.001988 0.017894 -0.008864 0.000000 0.000026 0.000000
# 3 -0.005845 -0.008864 0.042030 0.000000 -0.023246 0.000000
# 4 0.000000 0.000000 0.000000 0.064475 0.000000 -0.026368
# 5 -0.004720 0.000026 -0.023246 0.000000 0.061214 0.000000
# 6 0.000000 0.000000 0.000000 -0.026368 0.000000 0.048469
#
#
# Mechanical properties :
#
#
# Convention : Reuss Voigt Hill
#
# Bulk Modulus (GPa) = 27.99362 59.55870 43.77616
# Shear Modulus (GPa) = 17.32661 25.99008 21.65834
#
# Velocity S-wave (km/s) = 3.12770 3.83064 3.49688
# Velocity P-wave (km/s) = 5.37107 7.29326 6.40468
#
# Compressibility (1/GPa) = 0.03572243
#
# Stress axis : x y z
#
# Youngs Moduli (GPa) = 108.79648 55.88476 23.79252
#
# Poissons Ratio (x) = 0.11108 0.13907
# Poissons Ratio (y) = 0.21626 0.21089
# Poissons Ratio (z) = 0.63592 0.49535
#
# Static dielectric constant tensor:
#      x y z
#    x 3.821990 0.000000 0.322660 
#    y 0.000000 3.169780 0.000000 
#    z 0.322660 0.000000 2.877740 
# 
# 
# High freq. dielectric constant tensor:
#      x y z
#    x 1.699180 0.000000 0.039940 
#    y 0.000000 1.678620 0.000000 
#    z 0.039940 0.000000 1.628710 
# 
# From -- ./inp_files/23757.got.cif
#   From: 2010.03.12/outbox.cif.g09.slc.cpg/sg8_12_cif.got.tgz:23757.got - 2010.03.31 10:45:26.
