data_PCOD8052084
_publ_section_title
;
Structure prediction by ZEFSAII (Michael W. Deem and Ramdas Pophale) SiO2 
 PCOD8052084
Probable space group: C 2
;
_chemical_formula_sum "Si O2"
_cell_formula_units_Z 28
_cell_length_a 18.833465
_cell_length_b 6.417279
_cell_length_c 13.199724
_cell_angle_alpha 90.000000
_cell_angle_beta 118.577499
_cell_angle_gamma 90.000000
_cell_volume 1400.957762
_symmetry_space_group_name_H-M "C 2"
_symmetry_group_IT_number 5
_symmetry_cell_setting 'monoclinic'
loop_
_space_group_symop_operation_xyz
x,y,z
-x,y,-z
1/2+x,1/2+y,z
1/2-x,1/2+y,-z
loop_
_atom_site_type_symbol
_atom_site_label
_atom_site_fract_x
_atom_site_fract_y
_atom_site_fract_z
Si Si1 0.960411 0.913300 0.603359
Si Si2 0.749320 0.774744 0.155252
Si Si3 0.500000 0.791297 0.500000
Si Si4 0.894532 0.668203 0.382231
Si Si5 0.000000 0.277721 0.000000
Si Si6 0.627178 0.089450 0.093015
Si Si7 0.158083 0.923816 0.968908
Si Si8 0.535392 0.425196 0.165766
O O1 0.893404 0.801054 0.486410
O O2 0.929138 0.926914 0.696900
O O3 0.042736 0.778919 0.651875
O O4 0.977015 0.149086 0.579970
O O5 0.805980 0.652461 0.273022
O O6 0.695789 0.935630 0.186055
O O7 0.805435 0.907624 0.117442
O O8 0.691925 0.623184 0.051331
O O9 0.422529 0.932114 0.420390
O O10 0.064385 0.434959 0.991917
O O11 0.051798 0.139334 0.115755
O O12 0.579402 0.231857 0.141086
O O13 0.679046 0.219165 0.047572
O O14 0.061067 0.917069 0.899669
#
# Coordination Sequence:
#
# PCOD8052084 Si02
#       8
#     4   4   2   4   2   4   4   4
#     4   9  20  37  64  94 121 171 219 268 318 386
#     4  12  24  38  64  97 133 167 211 273 333 384
#     4   8  18  36  58  94 124 160 214 278 326 362
#     4   9  20  38  60  95 130 160 220 268 330 377
#     4  12  22  38  62  86 124 170 214 260 322 394
#     4  12  24  41  60  90 133 166 211 268 318 393
#     4  12  23  37  60 100 127 166 208 261 337 383
#     4  12  22  40  64  93 127 167 228 256 321 406
#
# _framework density 19.986325999999998
#
# number of rings (size 3 to 8) (size 9 to 14) (size 15 to 20)
#    0.000    1.429    7.143    0.000    0.000    6.857 
#    0.000    0.000    6.286    0.000    0.000    0.000 
#    0.000    0.000    0.000    0.000    0.000    0.000 
#
# Total GULP energy -173433.385252 kJ/mol
# GULP energy per Si atom -12388.098947 kJ/mol
# Density = 1.994084 g / cm^3
# Si number density = 19.986326 Si / 1000 Ang^3
#
#
#
# Elastic Constant Matrix: (Units=GPa)
#
#
# Indices 1 2 3 4 5 6 
#
# 1 83.8186 45.1714 38.1681 0.0000 1.2816 0.0000
# 2 45.1714 117.4782 34.8942 0.0000 -4.5584 0.0000
# 3 38.1681 34.8942 102.3685 0.0000 -12.7530 0.0000
# 4 0.0000 0.0000 0.0000 14.5279 0.0000 -0.3546
# 5 1.2816 -4.5584 -12.7530 0.0000 35.5779 0.0000
# 6 0.0000 0.0000 0.0000 -0.3546 0.0000 19.9495
#
#
#
# Elastic Compliance Matrix: (Units=1/GPa)
#
#
# Indices 1 2 3 4 5 6 
#
# 1 0.017037 -0.005196 -0.004962 0.000000 -0.003058 0.000000
# 2 -0.005196 0.011056 -0.001708 0.000000 0.000991 0.000000
# 3 -0.004962 -0.001708 0.012766 0.000000 0.004536 0.000000
# 4 0.000000 0.000000 0.000000 0.068863 0.000000 0.001224
# 5 -0.003058 0.000991 0.004536 0.000000 0.029970 0.000000
# 6 0.000000 0.000000 0.000000 0.001224 0.000000 0.050148
#
#
# Mechanical properties :
#
#
# Convention : Reuss Voigt Hill
#
# Bulk Modulus (GPa) = 58.38602 60.01477 59.20040
# Shear Modulus (GPa) = 22.80184 26.37317 24.58751
#
# Velocity S-wave (km/s) = 3.38134 3.63652 3.51125
# Velocity P-wave (km/s) = 6.67241 6.90836 6.79141
#
# Compressibility (1/GPa) = 0.01712739
#
# Stress axis : x y z
#
# Youngs Moduli (GPa) = 58.69618 90.45082 78.33306
#
# Poissons Ratio (x) = 0.46995 0.38870
# Poissons Ratio (y) = 0.30496 0.13378
# Poissons Ratio (z) = 0.29126 0.15448
#
# Static dielectric constant tensor:
#      x y z
#    x 3.623520 0.000000 -0.015430 
#    y 0.000000 3.869340 0.000000 
#    z -0.015430 0.000000 3.491800 
# 
# 
# High freq. dielectric constant tensor:
#      x y z
#    x 1.768570 0.000000 0.005150 
#    y 0.000000 1.799190 0.000000 
#    z 0.005150 0.000000 1.753820 
# 
# From -- ./inp_files/55382.got.cif
#   From: 2010.03.12/outbox.cif.g09.slc.cpg/sg5_28_cif.got.tgz:55382.got - 2010.03.31 09:47:26.
