data_PCOD8052187
_publ_section_title
;
Structure prediction by ZEFSAII (Michael W. Deem and Ramdas Pophale) SiO2 
 PCOD8052187
Probable space group: C 2
;
_chemical_formula_sum "Si O2"
_cell_formula_units_Z 20
_cell_length_a 14.568902
_cell_length_b 4.988010
_cell_length_c 10.682201
_cell_angle_alpha 90.000000
_cell_angle_beta 94.929856
_cell_angle_gamma 90.000000
_cell_volume 773.402011
_symmetry_space_group_name_H-M "C 2"
_symmetry_group_IT_number 5
_symmetry_cell_setting 'monoclinic'
loop_
_space_group_symop_operation_xyz
x,y,z
-x,y,-z
1/2+x,1/2+y,z
1/2-x,1/2+y,-z
loop_
_atom_site_type_symbol
_atom_site_label
_atom_site_fract_x
_atom_site_fract_y
_atom_site_fract_z
Si Si1 0.314669 0.225020 0.769798
Si Si2 0.459833 0.908230 0.616530
Si Si3 0.097969 0.644423 0.961878
Si Si4 0.702480 0.575309 0.442561
Si Si5 0.381584 0.653543 0.197528
O O1 0.339159 0.250100 0.917703
O O2 0.299395 0.521016 0.708462
O O3 0.214118 0.081541 0.741589
O O4 0.394816 0.078642 0.700433
O O5 0.500000 0.072402 0.500000
O O6 0.398676 0.683889 0.537074
O O7 0.539569 0.768038 0.704834
O O8 0.145190 0.385098 0.905674
O O9 0.000000 0.545053 0.000000
O O10 0.081070 0.884465 0.862206
O O11 0.718714 0.289106 0.512476
#
# Coordination Sequence:
#
# PCOD8052187 Si02
#       5
#     4   4   4   4   4
#     4  12  28  51  85 118 167 214 279 335 412 490
#     4  12  29  52  82 122 167 219 275 335 414 490
#     4  12  26  51  82 120 162 212 276 337 410 488
#     4  12  27  50  79 112 161 216 267 333 402 481
#     4  12  29  49  82 121 164 216 271 342 410 484
#
# _framework density 25.859774999999999
#
# number of rings (size 3 to 8) (size 9 to 14) (size 15 to 20)
#    0.000    0.000    4.000    4.200    5.600    0.800 
#    0.000    0.000    0.000    0.000    0.000    0.000 
#    0.000    0.000    0.000    0.000    0.000    0.000 
#
# Total GULP energy -123951.993034 kJ/mol
# GULP energy per Si atom -12395.199303 kJ/mol
# Density = 2.580092 g / cm^3
# Si number density = 25.859775 Si / 1000 Ang^3
#
#
#
# Elastic Constant Matrix: (Units=GPa)
#
#
# Indices 1 2 3 4 5 6 
#
# 1 147.6083 7.0929 39.2995 0.0000 -0.3635 0.0000
# 2 7.0929 105.2820 26.0923 0.0000 -11.1878 0.0000
# 3 39.2995 26.0923 86.4841 0.0000 -8.4777 0.0000
# 4 0.0000 0.0000 0.0000 33.2057 0.0000 -1.5662
# 5 -0.3635 -11.1878 -8.4777 0.0000 48.9483 0.0000
# 6 0.0000 0.0000 0.0000 -1.5662 0.0000 32.9389
#
#
#
# Elastic Compliance Matrix: (Units=1/GPa)
#
#
# Indices 1 2 3 4 5 6 
#
# 1 0.007733 0.000334 -0.003664 0.000000 -0.000501 0.000000
# 2 0.000334 0.010446 -0.003122 0.000000 0.001849 0.000000
# 3 -0.003664 -0.003122 0.014340 0.000000 0.001743 0.000000
# 4 0.000000 0.000000 0.000000 0.030183 0.000000 0.001435
# 5 -0.000501 0.001849 0.001743 0.000000 0.021151 0.000000
# 6 0.000000 0.000000 0.000000 0.001435 0.000000 0.030427
#
#
# Mechanical properties :
#
#
# Convention : Reuss Voigt Hill
#
# Bulk Modulus (GPa) = 50.97995 53.81596 52.39796
# Shear Modulus (GPa) = 37.39083 40.81123 39.10103
#
# Velocity S-wave (km/s) = 3.80663 3.97693 3.89272
# Velocity P-wave (km/s) = 6.25119 6.47641 6.36480
#
# Compressibility (1/GPa) = 0.01961555
#
# Stress axis : x y z
#
# Youngs Moduli (GPa) = 129.31853 95.72983 69.73306
#
# Poissons Ratio (x) = -0.03195 0.25548
# Poissons Ratio (y) = -0.04317 0.21770
# Poissons Ratio (z) = 0.47378 0.29887
#
# Static dielectric constant tensor:
#      x y z
#    x 4.924210 0.000000 0.101010 
#    y 0.000000 4.530780 0.000000 
#    z 0.101010 0.000000 5.139170 
# 
# 
# High freq. dielectric constant tensor:
#      x y z
#    x 2.055000 0.000000 0.007790 
#    y 0.000000 2.019320 0.000000 
#    z 0.007790 0.000000 2.053870 
# 
# From -- ./inp_files/41005.got.cif
#   From: 2010.03.12/outbox.cif.g09.slc.cpg/sg5_21_cif.got.tgz:41005.got - 2010.03.31 09:47:26.
