data_PCOD8052010
_publ_section_title
;
Structure prediction by ZEFSAII (Michael W. Deem and Ramdas Pophale) SiO2 
 PCOD8052010
Probable space group: C 2
;
_chemical_formula_sum "Si O2"
_cell_formula_units_Z 22
_cell_length_a 25.943145
_cell_length_b 7.301819
_cell_length_c 16.241340
_cell_angle_alpha 90.000000
_cell_angle_beta 19.076105
_cell_angle_gamma 90.000000
_cell_volume 1005.516489
_symmetry_space_group_name_H-M "C 2"
_symmetry_group_IT_number 5
_symmetry_cell_setting 'monoclinic'
loop_
_space_group_symop_operation_xyz
x,y,z
-x,y,-z
1/2+x,1/2+y,z
1/2-x,1/2+y,-z
loop_
_atom_site_type_symbol
_atom_site_label
_atom_site_fract_x
_atom_site_fract_y
_atom_site_fract_z
Si Si1 0.000000 0.198560 0.000000
Si Si2 0.642942 0.898111 0.340015
Si Si3 0.042254 0.292706 0.113256
Si Si4 0.120826 0.976430 0.389098
Si Si5 0.165402 0.560832 0.482701
Si Si6 0.023743 0.906009 0.219412
O O1 0.846223 0.071479 0.237619
O O2 0.017222 0.328929 0.053888
O O3 0.500000 0.969214 0.500000
O O4 0.624789 0.692810 0.399371
O O5 0.661384 0.042205 0.388158
O O6 0.789203 0.882095 0.056488
O O7 0.904816 0.377881 0.374546
O O8 0.009446 0.078343 0.180118
O O9 0.212102 0.377044 0.883002
O O10 0.000000 0.922987 0.500000
O O11 0.050596 0.908151 0.579251
O O12 0.066106 0.724436 0.677077
#
# Coordination Sequence:
#
# PCOD8052010 Si02
#       6
#     2   4   4   4   4   4
#     4  12  28  48  72 106 132 194 244 286 364 404
#     4  11  25  44  75 110 144 189 232 287 363 428
#     4  12  27  48  71 106 144 185 241 296 351 425
#     4  11  25  44  75 110 144 189 232 287 363 428
#     4  12  27  48  71 106 144 185 241 296 351 425
#     4  12  24  46  74 102 148 188 232 290 354 420
#
# _framework density 21.879303
#
# number of rings (size 3 to 8) (size 9 to 14) (size 15 to 20)
#    0.000    0.364    7.273    0.000    5.091    2.909 
#    0.000    1.818    0.000    0.000    0.000    0.000 
#    0.000    0.000    0.000    0.000    0.000    0.000 
#
# Total GULP energy -136308.128890 kJ/mol
# GULP energy per Si atom -12391.648081 kJ/mol
# Density = 2.182950 g / cm^3
# Si number density = 21.879303 Si / 1000 Ang^3
#
#
#
# Elastic Constant Matrix: (Units=GPa)
#
#
# Indices 1 2 3 4 5 6 
#
# 1 78.9723 11.8144 29.7971 0.0000 -21.5113 0.0000
# 2 11.8144 83.4221 21.3252 0.0000 -15.6969 0.0000
# 3 29.7971 21.3252 163.2007 0.0000 -23.2504 0.0000
# 4 0.0000 0.0000 0.0000 38.5303 0.0000 5.4051
# 5 -21.5113 -15.6969 -23.2504 0.0000 43.0482 0.0000
# 6 0.0000 0.0000 0.0000 5.4051 0.0000 34.1667
#
#
#
# Elastic Compliance Matrix: (Units=1/GPa)
#
#
# Indices 1 2 3 4 5 6 
#
# 1 0.015162 -0.000479 -0.001789 0.000000 0.006436 0.000000
# 2 -0.000479 0.013069 -0.001057 0.000000 0.003955 0.000000
# 3 -0.001789 -0.001057 0.006944 0.000000 0.002471 0.000000
# 4 0.000000 0.000000 0.000000 0.026543 0.000000 -0.004199
# 5 0.006436 0.003955 0.002471 0.000000 0.029223 0.000000
# 6 0.000000 0.000000 0.000000 -0.004199 0.000000 0.029933
#
#
# Mechanical properties :
#
#
# Convention : Reuss Voigt Hill
#
# Bulk Modulus (GPa) = 35.05499 50.16316 42.60908
# Shear Modulus (GPa) = 36.48773 40.65958 38.57366
#
# Velocity S-wave (km/s) = 4.08816 4.31554 4.20339
# Velocity P-wave (km/s) = 6.19200 6.91440 6.56314
#
# Compressibility (1/GPa) = 0.02852661
#
# Stress axis : x y z
#
# Youngs Moduli (GPa) = 65.95290 76.51405 144.00499
#
# Poissons Ratio (x) = 0.03665 0.25760
# Poissons Ratio (y) = 0.03160 0.15218
# Poissons Ratio (z) = 0.11798 0.08086
#
# Static dielectric constant tensor:
#      x y z
#    x 3.609640 0.000000 0.064790 
#    y 0.000000 4.242210 0.000000 
#    z 0.064790 0.000000 4.211560 
# 
# 
# High freq. dielectric constant tensor:
#      x y z
#    x 1.845910 0.000000 0.007590 
#    y 0.000000 1.869320 0.000000 
#    z 0.007590 0.000000 1.883500 
# 
# From -- ./inp_files/57580.got.cif
#   From: 2010.03.12/outbox.cif.g09.slc.cpg/sg5_29_cif.got.tgz:57580.got - 2010.03.31 09:47:26.
