data_PCOD8052155
_publ_section_title
;
Structure prediction by ZEFSAII (Michael W. Deem and Ramdas Pophale) SiO2 
 PCOD8052155
Probable space group: C 2
;
_chemical_formula_sum "Si O2"
_cell_formula_units_Z 14
_cell_length_a 4.777540
_cell_length_b 13.656101
_cell_length_c 8.268239
_cell_angle_alpha 90.000000
_cell_angle_beta 113.144726
_cell_angle_gamma 90.000000
_cell_volume 496.024205
_symmetry_space_group_name_H-M "C 2"
_symmetry_group_IT_number 5
_symmetry_cell_setting 'monoclinic'
loop_
_space_group_symop_operation_xyz
x,y,z
-x,y,-z
1/2+x,1/2+y,z
1/2-x,1/2+y,-z
loop_
_atom_site_type_symbol
_atom_site_label
_atom_site_fract_x
_atom_site_fract_y
_atom_site_fract_z
Si Si1 0.733660 0.741770 0.698273
Si Si2 0.000000 0.992572 0.500000
Si Si3 0.955911 0.426982 0.175360
Si Si4 0.270464 0.613072 0.722546
O O1 0.500000 0.756133 0.500000
O O2 0.763686 0.846018 0.794120
O O3 0.609957 0.660700 0.801025
O O4 0.052500 0.706406 0.697807
O O5 0.243520 0.061876 0.460537
O O6 0.207579 0.927259 0.665351
O O7 0.780767 0.530685 0.153465
O O8 0.000000 0.401553 0.000000
#
# Coordination Sequence:
#
# PCOD8052155 Si02
#       4
#     4   2   4   4
#     4  12  25  46  81 113 157 209 261 321 396 472
#     4  12  24  56  86 110 162 214 260 338 396 464
#     4  12  30  50  80 119 162 205 266 326 400 473
#     4  12  26  50  81 116 155 208 264 325 397 464
#
# _framework density 28.224429000000001
#
# number of rings (size 3 to 8) (size 9 to 14) (size 15 to 20)
#    0.000    0.000    4.286    5.143    8.000    3.429 
#    0.000    0.000    0.000    0.000    0.000    0.000 
#    0.000    0.000    0.000    0.000    0.000    0.000 
#
# Total GULP energy -86796.388566 kJ/mol
# GULP energy per Si atom -12399.484081 kJ/mol
# Density = 2.816019 g / cm^3
# Si number density = 28.224429 Si / 1000 Ang^3
#
#
#
# Elastic Constant Matrix: (Units=GPa)
#
#
# Indices 1 2 3 4 5 6 
#
# 1 164.0840 44.1542 50.9368 0.0000 -32.1402 0.0000
# 2 44.1542 158.4656 45.6789 0.0000 -24.0095 0.0000
# 3 50.9368 45.6789 101.5654 0.0000 -9.1675 0.0000
# 4 0.0000 0.0000 0.0000 32.3131 0.0000 -34.0686
# 5 -32.1402 -24.0095 -9.1675 0.0000 36.8343 0.0000
# 6 0.0000 0.0000 0.0000 -34.0686 0.0000 41.8460
#
#
#
# Elastic Compliance Matrix: (Units=1/GPa)
#
#
# Indices 1 2 3 4 5 6 
#
# 1 0.008534 -0.000406 -0.003528 0.000000 0.006304 0.000000
# 2 -0.000406 0.007897 -0.002983 0.000000 0.004051 0.000000
# 3 -0.003528 -0.002983 0.012791 0.000000 -0.001839 0.000000
# 4 0.000000 0.000000 0.000000 0.218509 0.000000 0.177897
# 5 0.006304 0.004051 -0.001839 0.000000 0.034832 0.000000
# 6 0.000000 0.000000 0.000000 0.177897 0.000000 0.168730
#
#
# Mechanical properties :
#
#
# Convention : Reuss Voigt Hill
#
# Bulk Modulus (GPa) = 64.98422 78.40608 71.69515
# Shear Modulus (GPa) = 10.63253 41.08836 25.86044
#
# Velocity S-wave (km/s) = 1.94302 3.81960 3.03023
# Velocity P-wave (km/s) = 5.30168 6.87694 6.14004
#
# Compressibility (1/GPa) = 0.01538835
#
# Stress axis : x y z
#
# Youngs Moduli (GPa) = 117.18341 126.62845 78.18121
#
# Poissons Ratio (x) = 0.05136 0.27585
# Poissons Ratio (y) = 0.04753 0.23318
# Poissons Ratio (z) = 0.41347 0.37768
#
# Static dielectric constant tensor:
#      x y z
#    x 5.440290 0.000000 -0.455650 
#    y 0.000000 5.414630 0.000000 
#    z -0.455650 0.000000 4.727670 
# 
# 
# High freq. dielectric constant tensor:
#      x y z
#    x 2.165590 0.000000 -0.030310 
#    y 0.000000 2.153180 0.000000 
#    z -0.030310 0.000000 2.108940 
# 
# From -- ./inp_files/11632.got.cif
#   From: 2010.03.12/outbox.cif.g09.slc.cpg/sg5_6_cif.got.tgz:11632.got - 2010.03.31 09:47:26.
