data_PCOD8052263
_publ_section_title
;
Structure prediction by ZEFSAII (Michael W. Deem and Ramdas Pophale) SiO2 
 PCOD8052263
Probable space group: P M
;
_chemical_formula_sum "Si O2"
_cell_formula_units_Z 14
_cell_length_a 7.032143
_cell_length_b 14.049215
_cell_length_c 9.958689
_cell_angle_alpha 90.000000
_cell_angle_beta 46.299566
_cell_angle_gamma 90.000000
_cell_volume 711.307422
_symmetry_space_group_name_H-M "P M"
_symmetry_group_IT_number 6
_symmetry_cell_setting 'monoclinic'
loop_
_space_group_symop_operation_xyz
x,y,z
x,-y,z
loop_
_atom_site_type_symbol
_atom_site_label
_atom_site_fract_x
_atom_site_fract_y
_atom_site_fract_z
Si Si1 0.697380 0.895085 0.616740
Si Si2 0.552738 0.612238 0.879787
Si Si3 0.969465 0.296949 0.873279
Si Si4 0.750834 0.106296 0.902461
Si Si5 0.002935 0.705117 0.164090
Si Si6 0.170977 0.105838 0.206390
Si Si7 0.554801 0.299951 0.592767
O O1 0.685934 0.876624 0.779092
O O2 0.532264 0.814447 0.620828
O O3 0.001512 0.886619 0.424398
O O4 0.584632 0.000000 0.634845
O O5 0.554256 0.500000 0.868770
O O6 0.636079 0.654125 0.694931
O O7 0.763153 0.644936 0.886891
O O8 0.266008 0.646194 0.068368
O O9 0.262880 0.333511 0.692211
O O10 0.955689 0.183586 0.854691
O O11 0.909854 0.316017 0.058693
O O12 0.861894 0.000000 0.875333
O O13 0.468834 0.123337 0.111101
O O14 0.068713 0.817203 0.148195
O O15 0.770214 0.670864 0.376860
O O16 0.146299 0.000000 0.152304
#
# Coordination Sequence:
#
# PCOD8052263 Si02
#       7
#     2   2   2   2   2   2   2
#     4   9  17  32  56  84 118 160 198 232 275 336
#     4  11  24  44  64  83 114 152 195 249 305 354
#     4  11  22  37  58  94 120 152 193 242 296 345
#     4  10  18  31  54  85 120 158 198 233 277 339
#     4  10  22  40  63  89 120 155 195 240 291 351
#     4   9  17  32  56  84 118 160 198 232 275 336
#     4  10  22  40  63  89 120 155 195 240 291 351
#
# _framework density 19.682067
#
# number of rings (size 3 to 8) (size 9 to 14) (size 15 to 20)
#    0.000    2.000    2.857    0.857    0.000    6.286 
#    0.000    0.000    0.000    0.000    0.000    0.000 
#    0.000    0.000    0.000    0.000    0.000    0.000 
#
# Total GULP energy -173562.335905 kJ/mol
# GULP energy per Si atom -12397.309707 kJ/mol
# Density = 1.963727 g / cm^3
# Si number density = 19.682067 Si / 1000 Ang^3
#
#
#
# Elastic Constant Matrix: (Units=GPa)
#
#
# Indices 1 2 3 4 5 6 
#
# 1 100.1142 38.2052 43.1491 0.0000 -5.2373 0.0000
# 2 38.2052 104.2693 37.3205 0.0000 -1.6647 0.0000
# 3 43.1491 37.3205 122.9506 0.0000 -8.2830 0.0000
# 4 0.0000 0.0000 0.0000 17.4415 0.0000 -0.9111
# 5 -5.2373 -1.6647 -8.2830 0.0000 15.7998 0.0000
# 6 0.0000 0.0000 0.0000 -0.9111 0.0000 10.1245
#
#
#
# Elastic Compliance Matrix: (Units=1/GPa)
#
#
# Indices 1 2 3 4 5 6 
#
# 1 0.012860 -0.003494 -0.003307 0.000000 0.002161 0.000000
# 2 -0.003494 0.011714 -0.002410 0.000000 -0.001187 0.000000
# 3 -0.003307 -0.002410 0.010298 0.000000 0.004049 0.000000
# 4 0.000000 0.000000 0.000000 0.057605 0.000000 0.005184
# 5 0.002161 -0.001187 0.004049 0.000000 0.066005 0.000000
# 6 0.000000 0.000000 0.000000 0.005184 0.000000 0.099237
#
#
# Mechanical properties :
#
#
# Convention : Reuss Voigt Hill
#
# Bulk Modulus (GPa) = 60.78491 62.74264 61.76378
# Shear Modulus (GPa) = 17.75406 22.58378 20.16892
#
# Velocity S-wave (km/s) = 3.00666 3.39105 3.20462
# Velocity P-wave (km/s) = 6.55773 6.87601 6.71875
#
# Compressibility (1/GPa) = 0.01645145
#
# Stress axis : x y z
#
# Youngs Moduli (GPa) = 77.75821 85.36617 97.10504
#
# Poissons Ratio (x) = 0.29826 0.32114
# Poissons Ratio (y) = 0.27168 0.23398
# Poissons Ratio (z) = 0.25716 0.20569
#
# Static dielectric constant tensor:
#      x y z
#    x 3.301160 0.000000 -0.137600 
#    y 0.000000 3.663590 0.000000 
#    z -0.137600 0.000000 3.780470 
# 
# 
# High freq. dielectric constant tensor:
#      x y z
#    x 1.741410 0.000000 -0.008860 
#    y 0.000000 1.764250 0.000000 
#    z -0.008860 0.000000 1.778830 
# 
# From -- ./inp_files/1174.got.cif
#   From: 2010.03.12/outbox.cif.g09.slc.cpg/sg6_1_cif.got.tgz:1174.got - 2010.03.30 10:24:59.
