data_PCOD8052921
_publ_section_title
;
Structure prediction by ZEFSAII (Michael W. Deem and Ramdas Pophale) SiO2 
 PCOD8052921
Probable space group: C M
;
_chemical_formula_sum "Si O2"
_cell_formula_units_Z 32
_cell_length_a 11.582483
_cell_length_b 15.576721
_cell_length_c 14.410112
_cell_angle_alpha 90.000000
_cell_angle_beta 32.384774
_cell_angle_gamma 90.000000
_cell_volume 1392.475569
_symmetry_space_group_name_H-M "C M"
_symmetry_group_IT_number 8
_symmetry_cell_setting 'monoclinic'
loop_
_space_group_symop_operation_xyz
x,y,z
x,-y,z
1/2+x,1/2+y,z
1/2+x,1/2-y,z
loop_
_atom_site_type_symbol
_atom_site_label
_atom_site_fract_x
_atom_site_fract_y
_atom_site_fract_z
Si Si1 0.926400 0.902053 0.467430
Si Si2 0.082275 0.901544 0.558550
Si Si3 0.522261 0.897475 0.629183
Si Si4 0.048705 0.347081 0.229512
Si Si5 0.162692 0.900447 0.002200
Si Si6 0.694668 0.902754 0.323128
Si Si7 0.175329 0.401561 0.942809
Si Si8 0.289291 0.172076 0.103380
O O1 0.718426 0.861236 0.558726
O O2 0.918533 0.890377 0.583160
O O3 0.140922 0.856570 0.288221
O O4 0.943098 0.000000 0.425147
O O5 0.286868 0.837008 0.408391
O O6 0.929164 0.880373 0.751028
O O7 0.169416 0.000000 0.503487
O O8 0.304036 0.859130 0.822780
O O9 0.547843 0.862867 0.505855
O O10 0.511730 0.000000 0.643104
O O11 0.084414 0.401410 0.298707
O O12 0.198799 0.263689 0.132597
O O13 0.128295 0.396253 0.084289
O O14 0.131067 0.000000 0.002205
O O15 0.280450 0.889717 0.020458
O O16 0.927471 0.854681 0.162970
O O17 0.735248 0.000000 0.327064
O O18 0.126444 0.500000 0.945038
O O19 0.029751 0.334162 0.982784
#
# Coordination Sequence:
#
# PCOD8052921 Si02
#       8
#     4   4   4   4   4   4   4   4
#     4  10  18  36  66  95 123 167 227 282 325 386
#     4  10  22  44  74  99 125 174 237 282 325 394
#     4   9  18  34  61  94 121 154 210 276 329 373
#     4  12  27  43  62  97 139 173 215 276 340 397
#     4  10  20  37  63  93 124 166 218 271 322 392
#     4  10  21  38  61  87 122 168 213 262 324 399
#     4  11  24  47  75  99 128 179 236 280 326 397
#     4  12  24  39  66  98 135 171 216 275 344 394
#
# _framework density 22.980654999999999
#
# number of rings (size 3 to 8) (size 9 to 14) (size 15 to 20)
#    0.000    1.500    2.500    3.000    1.750    3.000 
#    4.500    2.500    0.000    0.000    0.000    0.000 
#    0.000    0.000    0.000    0.000    0.000    0.000 
#
# Total GULP energy -198283.122508 kJ/mol
# GULP energy per Si atom -12392.695157 kJ/mol
# Density = 2.292835 g / cm^3
# Si number density = 22.980655 Si / 1000 Ang^3
#
#
#
# Elastic Constant Matrix: (Units=GPa)
#
#
# Indices 1 2 3 4 5 6 
#
# 1 115.6631 3.6972 49.7896 0.0460 14.5964 -0.0093
# 2 3.6972 44.7166 15.5363 -0.0147 -11.3625 -0.0082
# 3 49.7896 15.5363 178.5846 0.0172 18.5559 -0.0115
# 4 0.0460 -0.0147 0.0172 10.1710 -0.0039 -9.7797
# 5 14.5964 -11.3625 18.5559 -0.0039 29.6855 -0.0014
# 6 -0.0093 -0.0082 -0.0115 -9.7797 -0.0014 20.8609
#
#
#
# Elastic Compliance Matrix: (Units=1/GPa)
#
#
# Indices 1 2 3 4 5 6 
#
# 1 0.010183 -0.001030 -0.002340 -0.000078 -0.003938 -0.000034
# 2 -0.001030 0.026915 -0.003398 0.000115 0.012932 0.000063
# 3 -0.002340 -0.003398 0.007019 -0.000012 -0.004538 -0.000005
# 4 -0.000078 0.000115 -0.000012 0.179012 0.000117 0.083921
# 5 -0.003938 0.012932 -0.004538 0.000117 0.043409 0.000059
# 6 -0.000034 0.000063 -0.000005 0.083921 0.000059 0.087279
#
#
# Mechanical properties :
#
#
# Convention : Reuss Voigt Hill
#
# Bulk Modulus (GPa) = 32.69990 53.00119 42.85055
# Shear Modulus (GPa) = 13.24338 30.13957 21.69147
#
# Velocity S-wave (km/s) = 2.40320 3.62542 3.07563
# Velocity P-wave (km/s) = 4.68622 6.37482 5.59460
#
# Compressibility (1/GPa) = 0.03058113
#
# Stress axis : x y z
#
# Youngs Moduli (GPa) = 98.20129 37.15396 142.46680
#
# Poissons Ratio (x) = 0.03825 0.33341
# Poissons Ratio (y) = 0.10111 0.48414
# Poissons Ratio (z) = 0.22982 0.12626
#
# Static dielectric constant tensor:
#      x y z
#    x 4.039500 0.000020 0.043970 
#    y 0.000020 3.759510 -0.000050 
#    z 0.043970 -0.000050 4.515070 
# 
# 
# High freq. dielectric constant tensor:
#      x y z
#    x 1.903810 0.000000 0.009900 
#    y 0.000000 1.868420 0.000000 
#    z 0.009900 0.000000 1.924510 
# 
# From -- ./inp_files/26257.got.cif
#   From: 2010.03.12/outbox.cif.g09.slc.cpg/sg8_14_cif.got.tgz:26257.got - 2010.03.31 10:45:26.
