data_PCOD8052719
_publ_section_title
;
Structure prediction by ZEFSAII (Michael W. Deem and Ramdas Pophale) SiO2 
 PCOD8052719
Probable space group: C M
;
_chemical_formula_sum "Si O2"
_cell_formula_units_Z 32
_cell_length_a 22.891531
_cell_length_b 8.671019
_cell_length_c 11.451324
_cell_angle_alpha 90.000000
_cell_angle_beta 131.525114
_cell_angle_gamma 90.000000
_cell_volume 1701.720893
_symmetry_space_group_name_H-M "C M"
_symmetry_group_IT_number 8
_symmetry_cell_setting 'monoclinic'
loop_
_space_group_symop_operation_xyz
x,y,z
x,-y,z
1/2+x,1/2+y,z
1/2+x,1/2-y,z
loop_
_atom_site_type_symbol
_atom_site_label
_atom_site_fract_x
_atom_site_fract_y
_atom_site_fract_z
Si Si1 0.117360 0.826543 0.079420
Si Si2 0.838650 0.680693 0.260323
Si Si3 0.783567 0.329086 0.423764
Si Si4 0.755376 0.680376 0.837439
Si Si5 0.052680 0.677408 0.211846
Si Si6 0.409204 0.680734 0.147827
Si Si7 0.185016 0.680249 0.955588
Si Si8 0.718802 0.175295 0.548797
O O1 0.204042 0.824705 0.245273
O O2 0.061084 0.726715 0.087830
O O3 0.084680 0.000000 0.028573
O O4 0.118599 0.753677 0.951035
O O5 0.818920 0.500000 0.215125
O O6 0.850287 0.713068 0.415145
O O7 0.912280 0.731939 0.278639
O O8 0.769830 0.788043 0.121030
O O9 0.797712 0.500000 0.493804
O O10 0.781529 0.211401 0.529080
O O11 0.765510 0.500000 0.871779
O O12 0.685167 0.744114 0.826566
O O13 0.732641 0.711692 0.674262
O O14 0.837039 0.762326 0.973988
O O15 0.026846 0.500000 0.182468
O O16 0.132993 0.706440 0.386160
O O17 0.988605 0.783587 0.186410
O O18 0.402096 0.500000 0.159381
O O19 0.168709 0.500000 0.923268
O O20 0.730818 0.000000 0.604919
#
# Coordination Sequence:
#
# PCOD8052719 Si02
#       8
#     4   4   4   4   4   4   4   4
#     4   9  16  28  46  70  98 127 163 204 246 289
#     4   9  16  28  46  69  97 127 163 205 247 290
#     4   8  15  27  45  69  96 126 160 200 244 289
#     4  11  21  34  52  73 101 134 168 206 251 299
#     4  10  20  34  52  75 103 134 167 204 249 297
#     4  11  21  33  51  75 103 133 168 207 248 296
#     4  10  17  27  45  70  98 126 162 205 249 292
#     4  10  20  33  51  75 102 131 165 205 248 296
#
# _framework density 18.804493999999998
#
# number of rings (size 3 to 8) (size 9 to 14) (size 15 to 20)
#    0.000    2.250    0.000    7.125    0.000    5.000 
#    0.000    0.000    0.000    1.500    0.000    5.250 
#    0.000    0.000    0.000    0.000    0.000    0.000 
#
# Total GULP energy -198329.055475 kJ/mol
# GULP energy per Si atom -12395.565967 kJ/mol
# Density = 1.876169 g / cm^3
# Si number density = 18.804494 Si / 1000 Ang^3
#
#
#
# Elastic Constant Matrix: (Units=GPa)
#
#
# Indices 1 2 3 4 5 6 
#
# 1 116.3662 36.6780 38.0998 0.0000 -34.2745 0.0000
# 2 36.6780 108.6317 30.6124 0.0000 -13.6700 0.0000
# 3 38.0998 30.6124 50.8403 0.0000 -27.8899 0.0000
# 4 0.0000 0.0000 0.0000 23.6314 0.0000 -8.8319
# 5 -34.2745 -13.6700 -27.8899 0.0000 29.5236 0.0000
# 6 0.0000 0.0000 0.0000 -8.8319 0.0000 34.7704
#
#
#
# Elastic Compliance Matrix: (Units=1/GPa)
#
#
# Indices 1 2 3 4 5 6 
#
# 1 0.013863 -0.002582 -0.001373 0.000000 0.013602 0.000000
# 2 -0.002582 0.011653 -0.007817 0.000000 -0.004987 0.000000
# 3 -0.001373 -0.007817 0.046796 0.000000 0.038994 0.000000
# 4 0.000000 0.000000 0.000000 0.046755 0.000000 0.011876
# 5 0.013602 -0.004987 0.038994 0.000000 0.084189 0.000000
# 6 0.000000 0.000000 0.000000 0.011876 0.000000 0.031777
#
#
# Mechanical properties :
#
#
# Convention : Reuss Voigt Hill
#
# Bulk Modulus (GPa) = 20.50511 54.06874 37.28692
# Shear Modulus (GPa) = 18.19296 28.94829 23.57063
#
# Velocity S-wave (km/s) = 3.11381 3.92782 3.54426
# Velocity P-wave (km/s) = 4.88424 7.02751 6.05151
#
# Compressibility (1/GPa) = 0.04876834
#
# Stress axis : x y z
#
# Youngs Moduli (GPa) = 72.13374 85.81825 21.36940
#
# Poissons Ratio (x) = 0.22161 0.02933
# Poissons Ratio (y) = 0.18627 0.16704
# Poissons Ratio (z) = 0.09901 0.67082
#
# Static dielectric constant tensor:
#      x y z
#    x 3.758340 0.000000 -0.529370 
#    y 0.000000 3.489170 0.000000 
#    z -0.529370 0.000000 3.054270 
# 
# 
# High freq. dielectric constant tensor:
#      x y z
#    x 1.733140 0.000000 -0.047170 
#    y 0.000000 1.745030 0.000000 
#    z -0.047170 0.000000 1.677750 
# 
# From -- ./inp_files/23730.got.cif
#   From: 2010.03.12/outbox.cif.g09.slc.cpg/sg8_12_cif.got.tgz:23730.got - 2010.03.31 10:45:26.
