data_PCOD8052461
_publ_section_title
;
Structure prediction by ZEFSAII (Michael W. Deem and Ramdas Pophale) SiO2 
 PCOD8052461
Probable space group: P M
;
_chemical_formula_sum "Si O2"
_cell_formula_units_Z 14
_cell_length_a 17.128895
_cell_length_b 9.749689
_cell_length_c 5.239002
_cell_angle_alpha 90.000000
_cell_angle_beta 126.844294
_cell_angle_gamma 90.000000
_cell_volume 700.171046
_symmetry_space_group_name_H-M "P M"
_symmetry_group_IT_number 6
_symmetry_cell_setting 'monoclinic'
loop_
_space_group_symop_operation_xyz
x,y,z
x,-y,z
loop_
_atom_site_type_symbol
_atom_site_label
_atom_site_fract_x
_atom_site_fract_y
_atom_site_fract_z
Si Si1 0.119270 0.656952 0.744710
Si Si2 0.244453 0.343491 0.491645
Si Si3 0.604945 0.245949 0.261070
Si Si4 0.528779 0.649796 0.620840
Si Si5 0.822470 0.156735 0.679984
Si Si6 0.928591 0.164851 0.387742
Si Si7 0.414607 0.153075 0.692628
O O1 0.080434 0.500000 0.674378
O O2 0.172855 0.688162 0.584535
O O3 0.033283 0.765392 0.600751
O O4 0.191303 0.683770 0.120569
O O5 0.283305 0.500000 0.583793
O O6 0.334435 0.238917 0.690914
O O7 0.595958 0.326339 0.507895
O O8 0.706218 0.166682 0.456552
O O9 0.599847 0.348343 0.008476
O O10 0.512933 0.141474 0.057679
O O11 0.479424 0.500000 0.502883
O O12 0.442408 0.762935 0.486852
O O13 0.868007 0.220729 0.512714
O O14 0.852301 0.000000 0.739877
O O15 0.870889 0.222092 0.027060
O O16 0.939990 0.000000 0.409457
O O17 0.377218 0.000000 0.552922
#
# Coordination Sequence:
#
# PCOD8052461 Si02
#       7
#     2   2   2   2   2   2   2
#     4  10  22  41  61  84 115 153 194 244 302 356
#     4  10  22  39  61  85 115 159 198 235 299 364
#     4  10  22  38  61  87 122 160 204 240 283 357
#     4  10  22  39  59  82 119 163 201 243 290 346
#     4  10  20  37  59  87 120 157 192 235 300 359
#     4  10  21  37  62  88 113 150 196 243 297 354
#     4  10  24  39  61  93 124 158 201 250 295 346
#
# _framework density 19.995114999999998
#
# number of rings (size 3 to 8) (size 9 to 14) (size 15 to 20)
#    0.857    1.143    0.000    3.000    2.000    2.286 
#    0.000    4.286    0.000    0.000    0.000    0.000 
#    0.000    0.000    0.000    0.000    0.000    0.000 
#
# Total GULP energy -173504.963409 kJ/mol
# GULP energy per Si atom -12393.211672 kJ/mol
# Density = 1.994960 g / cm^3
# Si number density = 19.995115 Si / 1000 Ang^3
#
#
#
# Elastic Constant Matrix: (Units=GPa)
#
#
# Indices 1 2 3 4 5 6 
#
# 1 129.0438 53.9226 57.8308 0.0000 -10.9993 0.0000
# 2 53.9226 98.8956 29.5672 0.0000 3.4882 0.0000
# 3 57.8308 29.5672 85.5255 0.0000 -10.6130 0.0000
# 4 0.0000 0.0000 0.0000 12.4847 0.0000 10.2093
# 5 -10.9993 3.4882 -10.6130 0.0000 48.3530 0.0000
# 6 0.0000 0.0000 0.0000 10.2093 0.0000 21.8254
#
#
#
# Elastic Compliance Matrix: (Units=1/GPa)
#
#
# Indices 1 2 3 4 5 6 
#
# 1 0.013153 -0.005183 -0.006871 0.000000 0.001858 0.000000
# 2 -0.005183 0.013460 -0.001455 0.000000 -0.002469 0.000000
# 3 -0.006871 -0.001455 0.017127 0.000000 0.002301 0.000000
# 4 0.000000 0.000000 0.000000 0.129717 0.000000 -0.060678
# 5 0.001858 -0.002469 0.002301 0.000000 0.021787 0.000000
# 6 0.000000 0.000000 0.000000 -0.060678 0.000000 0.074201
#
#
# Mechanical properties :
#
#
# Convention : Reuss Voigt Hill
#
# Bulk Modulus (GPa) = 59.80404 66.23401 63.01903
# Shear Modulus (GPa) = 16.55427 28.00891 22.28159
#
# Velocity S-wave (km/s) = 2.88047 3.74677 3.34181
# Velocity P-wave (km/s) = 6.40602 7.20519 6.81732
#
# Compressibility (1/GPa) = 0.01672128
#
# Stress axis : x y z
#
# Youngs Moduli (GPa) = 76.03023 74.29621 58.38615
#
# Poissons Ratio (x) = 0.38505 0.40119
# Poissons Ratio (y) = 0.39404 0.08496
# Poissons Ratio (z) = 0.52243 0.10812
#
# Static dielectric constant tensor:
#      x y z
#    x 3.656940 0.000000 -0.307610 
#    y 0.000000 3.521060 0.000000 
#    z -0.307610 0.000000 3.658470 
# 
# 
# High freq. dielectric constant tensor:
#      x y z
#    x 1.787480 0.000000 -0.014910 
#    y 0.000000 1.761130 0.000000 
#    z -0.014910 0.000000 1.777800 
# 
# From -- ./inp_files/1967.got.cif
#   From: 2010.03.12/outbox.cif.g09.slc.cpg/sg6_1_cif.got.tgz:1967.got - 2010.03.30 10:24:59.
