data_PCOD8052394
_publ_section_title
;
Structure prediction by ZEFSAII (Michael W. Deem and Ramdas Pophale) SiO2 
 PCOD8052394
Probable space group: P M
;
_chemical_formula_sum "Si O2"
_cell_formula_units_Z 14
_cell_length_a 5.187145
_cell_length_b 12.939938
_cell_length_c 12.094019
_cell_angle_alpha 90.000000
_cell_angle_beta 126.042254
_cell_angle_gamma 90.000000
_cell_volume 656.380994
_symmetry_space_group_name_H-M "P M"
_symmetry_group_IT_number 6
_symmetry_cell_setting 'monoclinic'
loop_
_space_group_symop_operation_xyz
x,y,z
x,-y,z
loop_
_atom_site_type_symbol
_atom_site_label
_atom_site_fract_x
_atom_site_fract_y
_atom_site_fract_z
Si Si1 0.934680 0.197511 0.956590
Si Si2 0.453513 0.121254 0.666349
Si Si3 0.788670 0.742734 0.307656
Si Si4 0.751649 0.800655 0.527656
Si Si5 0.355598 0.616318 0.435852
Si Si6 0.199969 0.384032 0.142244
Si Si7 0.635392 0.883870 0.089975
O O1 0.720179 0.192260 0.792618
O O2 0.772989 0.118511 0.001420
O O3 0.937698 0.310994 0.015750
O O4 0.285076 0.164344 0.009457
O O5 0.519383 0.135233 0.551235
O O6 0.115320 0.161643 0.627080
O O7 0.483781 0.000000 0.702921
O O8 0.639978 0.812073 0.370776
O O9 0.548632 0.657385 0.197727
O O10 0.875035 0.821472 0.231019
O O11 0.095391 0.683656 0.437842
O O12 0.693525 0.676266 0.533461
O O13 0.398977 0.500000 0.491550
O O14 0.192313 0.617187 0.273298
O O15 0.151488 0.500000 0.084506
O O16 0.618184 0.000000 0.127616
#
# Coordination Sequence:
#
# PCOD8052394 Si02
#       7
#     2   2   2   2   2   2   2
#     4  11  23  42  62  91 125 161 216 255 298 378
#     4  12  25  43  65  86 124 179 219 256 307 364
#     4  10  20  38  63  97 129 158 205 257 314 385
#     4  11  24  43  61  94 125 160 222 261 300 374
#     4  10  19  39  68  95 127 164 201 256 327 381
#     4   9  19  36  64  97 126 160 197 254 319 374
#     4  11  22  37  61  92 126 160 200 261 319 362
#
# _framework density 21.329077999999999
#
# number of rings (size 3 to 8) (size 9 to 14) (size 15 to 20)
#    0.000    1.429    2.857    3.000    0.000    1.714 
#    0.000    1.429    0.000    0.000    0.000    0.000 
#    0.000    0.000    0.000    0.000    0.000    0.000 
#
# Total GULP energy -173439.213988 kJ/mol
# GULP energy per Si atom -12388.515285 kJ/mol
# Density = 2.128053 g / cm^3
# Si number density = 21.329078 Si / 1000 Ang^3
#
#
#
# Elastic Constant Matrix: (Units=GPa)
#
#
# Indices 1 2 3 4 5 6 
#
# 1 97.5996 16.4963 26.0399 0.0000 8.0663 0.0000
# 2 16.4963 125.0015 52.4215 0.0000 11.6436 0.0000
# 3 26.0399 52.4215 52.4002 0.0000 4.7639 0.0000
# 4 0.0000 0.0000 0.0000 29.1354 0.0000 -0.8014
# 5 8.0663 11.6436 4.7639 0.0000 31.4307 0.0000
# 6 0.0000 0.0000 0.0000 -0.8014 0.0000 24.5858
#
#
#
# Elastic Compliance Matrix: (Units=1/GPa)
#
#
# Indices 1 2 3 4 5 6 
#
# 1 0.012201 0.001858 -0.007681 0.000000 -0.002655 0.000000
# 2 0.001858 0.014361 -0.014970 0.000000 -0.003528 0.000000
# 3 -0.007681 -0.014970 0.037713 0.000000 0.001801 0.000000
# 4 0.000000 0.000000 0.000000 0.034353 0.000000 0.001120
# 5 -0.002655 -0.003528 0.001801 0.000000 0.033532 0.000000
# 6 0.000000 0.000000 0.000000 0.001120 0.000000 0.040710
#
#
# Mechanical properties :
#
#
# Convention : Reuss Voigt Hill
#
# Bulk Modulus (GPa) = 44.07142 51.65744 47.86443
# Shear Modulus (GPa) = 22.52080 29.03326 25.77703
#
# Velocity S-wave (km/s) = 3.25295 3.69345 3.48018
# Velocity P-wave (km/s) = 5.90054 6.51618 6.21599
#
# Compressibility (1/GPa) = 0.02269044
#
# Stress axis : x y z
#
# Youngs Moduli (GPa) = 81.96371 69.63270 26.51629
#
# Poissons Ratio (x) = -0.12939 0.20366
# Poissons Ratio (y) = -0.15231 0.39694
# Poissons Ratio (z) = 0.62953 1.04237
#
# Static dielectric constant tensor:
#      x y z
#    x 3.973830 0.000000 -0.098440 
#    y 0.000000 3.922220 0.000000 
#    z -0.098440 0.000000 3.624920 
# 
# 
# High freq. dielectric constant tensor:
#      x y z
#    x 1.851010 0.000000 -0.002270 
#    y 0.000000 1.833930 0.000000 
#    z -0.002270 0.000000 1.802590 
# 
# From -- ./inp_files/5423.got.cif
#   From: 2010.03.12/outbox.cif.g09.slc.cpg/sg6_3_cif.got.tgz:5423.got - 2010.03.30 10:24:59.
