data_PCOD8052840
_publ_section_title
;
Structure prediction by ZEFSAII (Michael W. Deem and Ramdas Pophale) SiO2 
 PCOD8052840
Probable space group: C M
;
_chemical_formula_sum "Si O2"
_cell_formula_units_Z 32
_cell_length_a 20.044186
_cell_length_b 8.821696
_cell_length_c 12.282436
_cell_angle_alpha 90.000000
_cell_angle_beta 54.010526
_cell_angle_gamma 90.000000
_cell_volume 1757.278610
_symmetry_space_group_name_H-M "C M"
_symmetry_group_IT_number 8
_symmetry_cell_setting 'monoclinic'
loop_
_space_group_symop_operation_xyz
x,y,z
x,-y,z
1/2+x,1/2+y,z
1/2+x,1/2-y,z
loop_
_atom_site_type_symbol
_atom_site_label
_atom_site_fract_x
_atom_site_fract_y
_atom_site_fract_z
Si Si1 0.869810 0.174811 0.295760
Si Si2 0.529263 0.677382 0.270207
Si Si3 0.638659 0.179142 0.333460
Si Si4 0.164132 0.822666 0.974466
Si Si5 0.618122 0.319844 0.788348
Si Si6 0.277882 0.822762 0.053688
Si Si7 0.696357 0.678947 0.491276
Si Si8 0.432257 0.676752 0.996506
O O1 0.792161 0.281841 0.387047
O O2 0.934469 0.209177 0.330761
O O3 0.841259 0.000000 0.325433
O O4 0.913457 0.213203 0.140092
O O5 0.546112 0.500000 0.271891
O O6 0.554704 0.763225 0.356501
O O7 0.587423 0.741465 0.117892
O O8 0.640255 0.241873 0.454169
O O9 0.639607 0.000000 0.335055
O O10 0.720652 0.235869 0.194228
O O11 0.163817 0.753168 0.852837
O O12 0.248830 0.786574 0.957661
O O13 0.149314 0.000000 0.975922
O O14 0.621426 0.500000 0.785006
O O15 0.664473 0.257178 0.637701
O O16 0.523491 0.265216 0.880708
O O17 0.371167 0.767953 0.976020
O O18 0.269800 0.000000 0.087097
O O19 0.685075 0.500000 0.492105
O O20 0.421879 0.500000 0.981732
#
# Coordination Sequence:
#
# PCOD8052840 Si02
#       8
#     4   4   4   4   4   4   4   4
#     4  10  19  33  56  82 108 139 176 224 273 319
#     4   9  17  32  56  82 105 133 175 225 273 322
#     4  11  21  34  52  76 109 145 181 224 272 316
#     4   8  14  29  52  76 101 131 171 213 260 314
#     4   9  18  34  55  78 105 143 182 216 262 322
#     4  10  19  31  53  82 109 137 174 223 270 319
#     4  11  22  35  54  79 111 147 184 221 262 322
#     4  10  18  32  56  81 106 139 179 220 264 314
#
# _framework density 18.209975
#
# number of rings (size 3 to 8) (size 9 to 14) (size 15 to 20)
#    0.000    2.250    2.500    2.625    0.000    0.500 
#    0.000    2.500    0.000   10.500    0.000    0.000 
#    0.000    0.000    0.000    0.000    0.000    0.000 
#
# Total GULP energy -198372.001705 kJ/mol
# GULP energy per Si atom -12398.250107 kJ/mol
# Density = 1.816853 g / cm^3
# Si number density = 18.209975 Si / 1000 Ang^3
#
#
#
# Elastic Constant Matrix: (Units=GPa)
#
#
# Indices 1 2 3 4 5 6 
#
# 1 136.5958 46.2218 48.1784 0.0000 21.5433 0.0000
# 2 46.2218 70.7822 32.4343 0.0000 8.2374 0.0000
# 3 48.1784 32.4343 88.2176 0.0000 17.2534 0.0000
# 4 0.0000 0.0000 0.0000 14.7483 0.0000 -3.1184
# 5 21.5433 8.2374 17.2534 0.0000 29.5466 0.0000
# 6 0.0000 0.0000 0.0000 -3.1184 0.0000 30.4769
#
#
#
# Elastic Compliance Matrix: (Units=1/GPa)
#
#
# Indices 1 2 3 4 5 6 
#
# 1 0.010909 -0.005133 -0.003155 0.000000 -0.004681 0.000000
# 2 -0.005133 0.019445 -0.004536 0.000000 0.000970 0.000000
# 3 -0.003155 -0.004536 0.015838 0.000000 -0.005683 0.000000
# 4 0.000000 0.000000 0.000000 0.069304 0.000000 0.007091
# 5 -0.004681 0.000970 -0.005683 0.000000 0.040306 0.000000
# 6 0.000000 0.000000 0.000000 0.007091 0.000000 0.033537
#
#
# Mechanical properties :
#
#
# Convention : Reuss Voigt Hill
#
# Bulk Modulus (GPa) = 48.67527 61.02941 54.85234
# Shear Modulus (GPa) = 22.53931 26.20511 24.37221
#
# Velocity S-wave (km/s) = 3.52198 3.79760 3.66238
# Velocity P-wave (km/s) = 6.58234 7.26747 6.93337
#
# Compressibility (1/GPa) = 0.02054431
#
# Stress axis : x y z
#
# Youngs Moduli (GPa) = 91.66869 51.42612 63.14037
#
# Poissons Ratio (x) = 0.26398 0.19920
# Poissons Ratio (y) = 0.47056 0.28638
# Poissons Ratio (z) = 0.28921 0.23325
#
# Static dielectric constant tensor:
#      x y z
#    x 3.647650 0.000000 0.213200 
#    y 0.000000 3.091120 0.000000 
#    z 0.213200 0.000000 3.304900 
# 
# 
# High freq. dielectric constant tensor:
#      x y z
#    x 1.724100 0.000000 0.011550 
#    y 0.000000 1.681880 0.000000 
#    z 0.011550 0.000000 1.676540 
# 
# From -- ./inp_files/23695.got.cif
#   From: 2010.03.12/outbox.cif.g09.slc.cpg/sg8_12_cif.got.tgz:23695.got - 2010.03.31 10:45:26.
