data_PCOD8052576
_publ_section_title
;
Structure prediction by ZEFSAII (Michael W. Deem and Ramdas Pophale) SiO2 
 PCOD8052576
Probable space group: P C
;
_chemical_formula_sum "Si O2"
_cell_formula_units_Z 14
_cell_length_a 18.428519
_cell_length_b 8.512717
_cell_length_c 5.228864
_cell_angle_alpha 90.000000
_cell_angle_beta 115.158306
_cell_angle_gamma 90.000000
_cell_volume 742.472081
_symmetry_space_group_name_H-M "P C"
_symmetry_group_IT_number 7
_symmetry_cell_setting 'monoclinic'
loop_
_space_group_symop_operation_xyz
x,y,z
x,-y,1/2+z
loop_
_atom_site_type_symbol
_atom_site_label
_atom_site_fract_x
_atom_site_fract_y
_atom_site_fract_z
Si Si1 0.888410 0.902086 0.654960
Si Si2 0.711591 0.896974 0.448739
Si Si3 0.415895 0.404141 0.478018
Si Si4 0.313653 0.903928 0.824777
Si Si5 0.126807 0.836193 0.552847
Si Si6 0.602563 0.597324 0.274510
Si Si7 0.058584 0.813690 0.950391
O O1 0.801369 0.822440 0.564824
O O2 0.962664 0.783551 0.812868
O O3 0.895812 0.959010 0.373826
O O4 0.648529 0.759826 0.318750
O O5 0.698463 0.976203 0.704878
O O6 0.393091 0.475984 0.169777
O O7 0.365742 0.248852 0.447758
O O8 0.509138 0.360337 0.629707
O O9 0.220803 0.861929 0.701743
O O10 0.335576 0.975408 0.582912
O O11 0.098442 0.736920 0.757826
O O12 0.079021 0.000484 0.471694
O O13 0.100585 0.737765 0.262428
O O14 0.626752 0.512907 0.573890
#
# Coordination Sequence:
#
# PCOD8052576 Si02
#       7
#     2   2   2   2   2   2   2
#     4  10  16  25  42  69 105 133 161 208 262 305
#     4  10  21  33  53  86 116 129 173 231 280 299
#     4  10  23  41  57  77 107 148 182 212 266 337
#     4  12  21  33  54  86 111 131 180 236 270 301
#     4  10  16  25  42  70 105 130 170 210 260 298
#     4  10  21  40  61  76 103 149 188 207 257 342
#     4  10  14  25  41  64 109 134 166 198 267 302
#
# _framework density 18.855927999999999
#
# number of rings (size 3 to 8) (size 9 to 14) (size 15 to 20)
#    0.000    1.714    5.714    1.714    0.000    1.143 
#    0.000    0.000    0.000    0.000    0.000    6.000 
#    0.000    0.000    0.000    0.000    0.000    0.000 
#
# Total GULP energy -173537.512636 kJ/mol
# GULP energy per Si atom -12395.536617 kJ/mol
# Density = 1.881301 g / cm^3
# Si number density = 18.855928 Si / 1000 Ang^3
#
#
#
# Elastic Constant Matrix: (Units=GPa)
#
#
# Indices 1 2 3 4 5 6 
#
# 1 86.3645 39.7290 43.2611 0.0000 -3.8682 0.0000
# 2 39.7290 43.8054 17.7541 0.0000 15.3812 0.0000
# 3 43.2611 17.7541 105.6704 0.0000 -19.1943 0.0000
# 4 0.0000 0.0000 0.0000 11.1403 0.0000 -11.2819
# 5 -3.8682 15.3812 -19.1943 0.0000 38.5224 0.0000
# 6 0.0000 0.0000 0.0000 -11.2819 0.0000 -9.2470
#
#
#
# Elastic Compliance Matrix: (Units=1/GPa)
#
#
# Indices 1 2 3 4 5 6 
#
# 1 0.026011 -0.025506 -0.004441 0.000000 0.010583 0.000000
# 2 -0.025506 0.057331 -0.004193 0.000000 -0.027541 0.000000
# 3 -0.004441 -0.004193 0.013424 0.000000 0.007917 0.000000
# 4 0.000000 0.000000 0.000000 0.040153 0.000000 -0.048989
# 5 0.010583 -0.027541 0.007917 0.000000 0.041963 0.000000
# 6 0.000000 0.000000 0.000000 -0.048989 0.000000 -0.048374
#
#
# Mechanical properties :
#
#
# Convention : Reuss Voigt Hill
#
# Bulk Modulus (GPa) = 35.10582 48.59211 41.84896
# Shear Modulus (GPa) = 24.00583 17.08956 20.54769
#
# Velocity S-wave (km/s) = 3.57195 3.01379 3.30467
# Velocity P-wave (km/s) = 5.97245 6.15928 6.06658
#
# Compressibility (1/GPa) = 0.02848531
#
# Stress axis : x y z
#
# Youngs Moduli (GPa) = 38.44568 17.44256 74.49368
#
# Poissons Ratio (x) = 0.44490 0.33082
# Poissons Ratio (y) = 0.98061 0.31234
# Poissons Ratio (z) = 0.17073 0.07313
#
# Static dielectric constant tensor:
#      x y z
#    x 4.302890 0.000000 -1.038680 
#    y 0.000000 2.805980 0.000000 
#    z -1.038680 0.000000 5.392150 
# 
# 
# High freq. dielectric constant tensor:
#      x y z
#    x 1.751530 0.000000 -0.011140 
#    y 0.000000 1.660020 0.000000 
#    z -0.011140 0.000000 1.764840 
# 
# From -- ./inp_files/1383.got.cif
#   From: 2010.03.12/outbox.cif.g09.slc.cpg/sg7_cif.got.tgz:1383.got - 2010.03.30 08:40:41.
