data_PCOD8052165
_publ_section_title
;
Structure prediction by ZEFSAII (Michael W. Deem and Ramdas Pophale) SiO2 
 PCOD8052165
Probable space group: C 2
;
_chemical_formula_sum "Si O2"
_cell_formula_units_Z 20
_cell_length_a 25.664959
_cell_length_b 4.926211
_cell_length_c 15.539744
_cell_angle_alpha 90.000000
_cell_angle_beta 25.470276
_cell_angle_gamma 90.000000
_cell_volume 844.907411
_symmetry_space_group_name_H-M "C 2"
_symmetry_group_IT_number 5
_symmetry_cell_setting 'monoclinic'
loop_
_space_group_symop_operation_xyz
x,y,z
-x,y,-z
1/2+x,1/2+y,z
1/2-x,1/2+y,-z
loop_
_atom_site_type_symbol
_atom_site_label
_atom_site_fract_x
_atom_site_fract_y
_atom_site_fract_z
Si Si1 0.099809 0.066720 0.420584
Si Si2 0.259603 0.548145 0.186911
Si Si3 0.509227 0.621770 0.740136
Si Si4 0.367166 0.483905 0.208255
Si Si5 0.628922 0.123435 0.644458
O O1 0.184071 0.304592 0.255621
O O2 0.000000 0.982915 0.500000
O O3 0.038241 0.187434 0.598182
O O4 0.175130 0.802215 0.333471
O O5 0.313645 0.422825 0.194346
O O6 0.364920 0.648307 0.966403
O O7 0.547088 0.318774 0.708216
O O8 0.580944 0.821318 0.697709
O O9 0.384479 0.199645 0.234625
O O10 0.270791 0.664953 0.406110
O O11 0.500000 0.624640 0.000000
#
# Coordination Sequence:
#
# PCOD8052165 Si02
#       5
#     4   4   4   4   4
#     4  12  27  51  79 106 143 190 247 312 367 418
#     4  12  27  47  76 109 147 191 242 299 362 438
#     4  12  25  49  72 105 147 190 241 301 356 432
#     4  12  26  46  71 109 148 197 236 288 359 436
#     4  12  26  46  69 104 150 195 237 288 353 435
#
# _framework density 23.671230000000001
#
# number of rings (size 3 to 8) (size 9 to 14) (size 15 to 20)
#    0.000    0.000    6.000    3.000    0.000    3.200 
#    0.000    0.000    0.000    0.000    0.000    0.000 
#    0.000    0.000    0.000    0.000    0.000    0.000 
#
# Total GULP energy -124049.647865 kJ/mol
# GULP energy per Si atom -12404.964787 kJ/mol
# Density = 2.361735 g / cm^3
# Si number density = 23.671230 Si / 1000 Ang^3
#
#
#
# Elastic Constant Matrix: (Units=GPa)
#
#
# Indices 1 2 3 4 5 6 
#
# 1 97.2838 27.8495 60.3203 -0.0089 -8.7252 -0.0388
# 2 27.8495 84.0871 33.9044 0.0645 -2.2202 -0.0944
# 3 60.3203 33.9044 167.5970 -0.0091 0.2018 0.0023
# 4 -0.0089 0.0645 -0.0091 32.1828 -0.0330 -2.9986
# 5 -8.7252 -2.2202 0.2018 -0.0330 24.6819 0.0578
# 6 -0.0388 -0.0944 0.0023 -2.9986 0.0578 26.5576
#
#
#
# Elastic Compliance Matrix: (Units=1/GPa)
#
#
# Indices 1 2 3 4 5 6 
#
# 1 0.014372 -0.002769 -0.004618 0.000013 0.004869 0.000002
# 2 -0.002769 0.013517 -0.001738 -0.000024 0.000251 0.000041
# 3 -0.004618 -0.001738 0.007983 0.000002 -0.001854 -0.000009
# 4 0.000013 -0.000024 0.000002 0.031403 0.000036 0.003546
# 5 0.004869 0.000251 -0.001854 0.000036 0.042275 -0.000080
# 6 0.000002 0.000041 -0.000009 0.003546 -0.000080 0.038055
#
#
# Mechanical properties :
#
#
# Convention : Reuss Voigt Hill
#
# Bulk Modulus (GPa) = 56.75187 65.90181 61.32684
# Shear Modulus (GPa) = 29.11549 31.81070 30.46310
#
# Velocity S-wave (km/s) = 3.51093 3.66984 3.59127
# Velocity P-wave (km/s) = 6.36102 6.77184 6.56965
#
# Compressibility (1/GPa) = 0.01762056
#
# Stress axis : x y z
#
# Youngs Moduli (GPa) = 69.57807 73.98021 125.26995
#
# Poissons Ratio (x) = 0.20488 0.57855
# Poissons Ratio (y) = 0.19269 0.21773
# Poissons Ratio (z) = 0.32134 0.12858
#
# Static dielectric constant tensor:
#      x y z
#    x 3.990440 -0.000080 0.051530 
#    y -0.000080 3.963770 0.000320 
#    z 0.051530 0.000320 4.660720 
# 
# 
# High freq. dielectric constant tensor:
#      x y z
#    x 1.922570 -0.000010 -0.000260 
#    y -0.000010 1.932710 0.000010 
#    z -0.000260 0.000010 1.957900 
# 
# From -- ./inp_files/47753.got.cif
#   From: 2010.03.12/outbox.cif.g09.slc.cpg/sg5_24_cif.got.tgz:47753.got - 2010.03.31 09:47:26.
