data_PCOD8052368
_publ_section_title
;
Structure prediction by ZEFSAII (Michael W. Deem and Ramdas Pophale) SiO2 
 PCOD8052368
Probable space group: P M
;
_chemical_formula_sum "Si O2"
_cell_formula_units_Z 16
_cell_length_a 19.332117
_cell_length_b 9.100745
_cell_length_c 14.049000
_cell_angle_alpha 90.000000
_cell_angle_beta 160.449769
_cell_angle_gamma 90.000000
_cell_volume 827.124192
_symmetry_space_group_name_H-M "P M"
_symmetry_group_IT_number 6
_symmetry_cell_setting 'monoclinic'
loop_
_space_group_symop_operation_xyz
x,y,z
x,-y,z
loop_
_atom_site_type_symbol
_atom_site_label
_atom_site_fract_x
_atom_site_fract_y
_atom_site_fract_z
Si Si1 0.148320 0.826062 0.642210
Si Si2 0.404472 0.327064 0.135769
Si Si3 0.356087 0.831920 0.715129
Si Si4 0.879304 0.671306 0.777722
Si Si5 0.632204 0.669832 0.764998
Si Si6 0.971484 0.831400 0.091600
Si Si7 0.261506 0.673303 0.155130
Si Si8 0.713099 0.330318 0.084750
O O1 0.238043 0.778789 0.656532
O O2 0.925835 0.755708 0.368493
O O3 0.126482 0.000000 0.622859
O O4 0.303223 0.766182 0.921864
O O5 0.361622 0.500000 0.065992
O O6 0.647406 0.291241 0.447088
O O7 0.310944 0.266839 0.114039
O O8 0.206579 0.813613 0.430675
O O9 0.428738 0.000000 0.820152
O O10 0.556924 0.731372 0.961414
O O11 0.905905 0.500000 0.834577
O O12 0.944552 0.754485 0.956522
O O13 0.032283 0.721799 0.890825
O O14 0.669873 0.500000 0.787490
O O15 0.429225 0.732654 0.448651
O O16 0.606358 0.692039 0.843922
O O17 0.829221 0.760403 0.987464
O O18 0.907596 0.000000 0.998273
O O19 0.280867 0.500000 0.176827
O O20 0.757468 0.500000 0.164492
#
# Coordination Sequence:
#
# PCOD8052368 Si02
#       8
#     2   2   2   2   2   2   2   2
#     4  11  24  43  62  83 120 163 200 244 299 358
#     4  10  21  38  59  85 115 152 201 250 291 339
#     4  10  23  41  60  85 123 165 195 235 299 360
#     4  10  20  37  61  85 117 154 189 241 296 344
#     4  10  19  35  59  88 120 153 188 235 297 354
#     4  11  21  35  58  88 121 156 193 234 288 357
#     4   9  18  35  59  87 117 149 187 235 294 346
#     4  11  23  38  64  95 119 150 199 252 296 350
#
# _framework density 19.344134
#
# number of rings (size 3 to 8) (size 9 to 14) (size 15 to 20)
#    0.000    1.750    2.500    1.875    0.000    5.000 
#    0.000    2.500    0.000    0.000    0.000    0.000 
#    0.000    0.000    0.000    0.000    0.000    0.000 
#
# Total GULP energy -198444.690292 kJ/mol
# GULP energy per Si atom -12402.793143 kJ/mol
# Density = 1.930011 g / cm^3
# Si number density = 19.344134 Si / 1000 Ang^3
#
#
#
# Elastic Constant Matrix: (Units=GPa)
#
#
# Indices 1 2 3 4 5 6 
#
# 1 87.0221 52.3393 70.3997 0.0000 18.7477 0.0000
# 2 52.3393 78.3629 60.9981 0.0000 6.4972 0.0000
# 3 70.3997 60.9981 116.8878 0.0000 7.4070 0.0000
# 4 0.0000 0.0000 0.0000 31.4587 0.0000 -2.1844
# 5 18.7477 6.4972 7.4070 0.0000 40.0077 0.0000
# 6 0.0000 0.0000 0.0000 -2.1844 0.0000 23.4494
#
#
#
# Elastic Compliance Matrix: (Units=1/GPa)
#
#
# Indices 1 2 3 4 5 6 
#
# 1 0.028711 -0.009074 -0.011938 0.000000 -0.009770 0.000000
# 2 -0.009074 0.024440 -0.007394 0.000000 0.001652 0.000000
# 3 -0.011938 -0.007394 0.019401 0.000000 0.003203 0.000000
# 4 0.000000 0.000000 0.000000 0.031995 0.000000 0.002980
# 5 -0.009770 0.001652 0.003203 0.000000 0.028712 0.000000
# 6 0.000000 0.000000 0.000000 0.002980 0.000000 0.042923
#
#
# Mechanical properties :
#
#
# Convention : Reuss Voigt Hill
#
# Bulk Modulus (GPa) = 63.52873 72.19412 67.86143
# Shear Modulus (GPa) = 20.98723 25.55222 23.26972
#
# Velocity S-wave (km/s) = 3.29742 3.63840 3.47210
# Velocity P-wave (km/s) = 6.88549 7.41974 7.15760
#
# Compressibility (1/GPa) = 0.01574091
#
# Stress axis : x y z
#
# Youngs Moduli (GPa) = 34.82932 40.91656 51.54436
#
# Poissons Ratio (x) = 0.37127 0.61534
# Poissons Ratio (y) = 0.31604 0.38110
# Poissons Ratio (z) = 0.41580 0.30252
#
# Static dielectric constant tensor:
#      x y z
#    x 3.762290 0.000000 0.123650 
#    y 0.000000 3.411990 0.000000 
#    z 0.123650 0.000000 3.593160 
# 
# 
# High freq. dielectric constant tensor:
#      x y z
#    x 1.760010 0.000000 0.006390 
#    y 0.000000 1.739040 0.000000 
#    z 0.006390 0.000000 1.757840 
# 
# From -- ./inp_files/5674.got.cif
#   From: 2010.03.12/outbox.cif.g09.slc.cpg/sg6_3_cif.got.tgz:5674.got - 2010.03.30 10:24:59.
