data_PCOD8052865
_publ_section_title
;
Structure prediction by ZEFSAII (Michael W. Deem and Ramdas Pophale) SiO2 
 PCOD8052865
Probable space group: C M
;
_chemical_formula_sum "Si O2"
_cell_formula_units_Z 32
_cell_length_a 22.110410
_cell_length_b 13.419773
_cell_length_c 9.145829
_cell_angle_alpha 90.000000
_cell_angle_beta 38.167639
_cell_angle_gamma 90.000000
_cell_volume 1676.982488
_symmetry_space_group_name_H-M "C M"
_symmetry_group_IT_number 8
_symmetry_cell_setting 'monoclinic'
loop_
_space_group_symop_operation_xyz
x,y,z
x,-y,z
1/2+x,1/2+y,z
1/2+x,1/2-y,z
loop_
_atom_site_type_symbol
_atom_site_label
_atom_site_fract_x
_atom_site_fract_y
_atom_site_fract_z
Si Si1 0.995600 0.384435 0.865720
Si Si2 0.036027 0.111712 0.911535
Si Si3 0.635034 0.117466 0.114192
Si Si4 0.846304 0.777132 0.225225
Si Si5 0.476347 0.209217 0.592390
Si Si6 0.094887 0.885880 0.466042
Si Si7 0.267840 0.251024 0.063907
Si Si8 0.652598 0.792037 0.768014
O O1 0.970765 0.500000 0.920086
O O2 0.011135 0.349956 0.670273
O O3 0.095533 0.361226 0.761251
O O4 0.904406 0.327579 0.112797
O O5 0.079022 0.126602 0.668329
O O6 0.095510 0.187569 0.902128
O O7 0.051710 0.000000 0.940255
O O8 0.920493 0.135047 0.130330
O O9 0.524833 0.153913 0.361760
O O10 0.643047 0.000000 0.112485
O O11 0.710164 0.165429 0.085476
O O12 0.662166 0.150409 0.900815
O O13 0.761282 0.770072 0.505273
O O14 0.805352 0.801613 0.142002
O O15 0.513678 0.323258 0.532477
O O16 0.359573 0.210625 0.794922
O O17 0.086435 0.000000 0.431642
O O18 0.202329 0.845173 0.223987
#
# Coordination Sequence:
#
# PCOD8052865 Si02
#       8
#     4   4   4   4   4   4   4   4
#     4  10  20  36  61  87 111 144 194 242 291 336
#     4  10  20  35  59  86 110 143 186 236 287 334
#     4  11  25  39  57  82 118 161 193 226 283 344
#     4  10  20  36  58  86 114 141 190 240 290 329
#     4  10  20  40  58  86 116 149 188 245 284 332
#     4  10  18  33  57  87 114 144 182 232 293 337
#     4  10  20  37  59  88 115 146 188 241 286 337
#     4  11  21  40  55  80 120 152 189 236 278 335
#
# _framework density 19.081892
#
# number of rings (size 3 to 8) (size 9 to 14) (size 15 to 20)
#    0.000    1.750    5.000    1.500    0.000    7.000 
#    0.000    2.500    0.000    0.000    0.000    0.000 
#    0.000    0.000    0.000    0.000    0.000    0.000 
#
# Total GULP energy -198436.559459 kJ/mol
# GULP energy per Si atom -12402.284966 kJ/mol
# Density = 1.903846 g / cm^3
# Si number density = 19.081892 Si / 1000 Ang^3
#
#
#
# Elastic Constant Matrix: (Units=GPa)
#
#
# Indices 1 2 3 4 5 6 
#
# 1 41.6616 32.2406 35.0887 0.0000 -12.9221 0.0000
# 2 32.2406 136.5232 31.6109 0.0000 -5.2620 0.0000
# 3 35.0887 31.6109 126.0098 0.0000 -18.0400 0.0000
# 4 0.0000 0.0000 0.0000 22.8912 0.0000 5.4763
# 5 -12.9221 -5.2620 -18.0400 0.0000 28.3339 0.0000
# 6 0.0000 0.0000 0.0000 5.4763 0.0000 17.5853
#
#
#
# Elastic Compliance Matrix: (Units=1/GPa)
#
#
# Indices 1 2 3 4 5 6 
#
# 1 0.039561 -0.007142 -0.007516 0.000000 0.011930 0.000000
# 2 -0.007142 0.009067 -0.000562 0.000000 -0.001931 0.000000
# 3 -0.007516 -0.000562 0.010634 0.000000 0.003238 0.000000
# 4 0.000000 0.000000 0.000000 0.047201 0.000000 -0.014699
# 5 0.011930 -0.001931 0.003238 0.000000 0.042437 0.000000
# 6 0.000000 0.000000 0.000000 -0.014699 0.000000 0.061443
#
#
# Mechanical properties :
#
#
# Convention : Reuss Voigt Hill
#
# Bulk Modulus (GPa) = 34.69842 55.78610 45.24226
# Shear Modulus (GPa) = 19.96866 27.44573 23.70720
#
# Velocity S-wave (km/s) = 3.23843 3.79662 3.52858
# Velocity P-wave (km/s) = 5.67509 6.96546 6.35312
#
# Compressibility (1/GPa) = 0.02881975
#
# Stress axis : x y z
#
# Youngs Moduli (GPa) = 25.27729 110.28759 94.04224
#
# Poissons Ratio (x) = 0.78771 0.70687
# Poissons Ratio (y) = 0.18054 0.05288
# Poissons Ratio (z) = 0.19000 0.06201
#
# Static dielectric constant tensor:
#      x y z
#    x 3.303080 0.000000 -0.160530 
#    y 0.000000 3.522060 0.000000 
#    z -0.160530 0.000000 3.619180 
# 
# 
# High freq. dielectric constant tensor:
#      x y z
#    x 1.720480 0.000000 -0.014930 
#    y 0.000000 1.741870 0.000000 
#    z -0.014930 0.000000 1.749620 
# 
# From -- ./inp_files/13143.got.cif
#   From: 2010.03.12/outbox.cif.g09.slc.cpg/sg8_7_cif.got.tgz:13143.got - 2010.03.31 10:45:26.
