data_PCOD8052194
_publ_section_title
;
Structure prediction by ZEFSAII (Michael W. Deem and Ramdas Pophale) SiO2 
 PCOD8052194
Probable space group: C 2
;
_chemical_formula_sum "Si O2"
_cell_formula_units_Z 14
_cell_length_a 4.992293
_cell_length_b 22.818769
_cell_length_c 5.044139
_cell_angle_alpha 90.000000
_cell_angle_beta 85.849558
_cell_angle_gamma 90.000000
_cell_volume 573.111166
_symmetry_space_group_name_H-M "C 2"
_symmetry_group_IT_number 5
_symmetry_cell_setting 'monoclinic'
loop_
_space_group_symop_operation_xyz
x,y,z
-x,y,-z
1/2+x,1/2+y,z
1/2-x,1/2+y,-z
loop_
_atom_site_type_symbol
_atom_site_label
_atom_site_fract_x
_atom_site_fract_y
_atom_site_fract_z
Si Si1 0.500000 0.530081 0.000000
Si Si2 0.000000 0.608655 0.000000
Si Si3 0.500000 0.876330 0.500000
Si Si4 0.500000 0.187742 0.500000
Si Si5 0.778583 0.271943 0.826351
Si Si6 0.500000 0.453080 0.500000
O O1 0.254356 0.569015 0.912112
O O2 0.592341 0.491298 0.744721
O O3 0.916655 0.648280 0.755630
O O4 0.377289 0.836451 0.740640
O O5 0.258231 0.914834 0.396993
O O6 0.744744 0.230493 0.570212
O O7 0.500000 0.277802 0.000000
O O8 0.000000 0.242172 0.000000
#
# Coordination Sequence:
#
# PCOD8052194 Si02
#       6
#     2   2   2   2   4   2
#     4  12  28  52  73 114 141 200 268 324 370 456
#     4  12  28  48  81 104 155 198 258 320 388 438
#     4  12  28  45  79 112 155 203 248 310 390 456
#     4  12  27  51  76 118 152 207 245 316 386 462
#     4  12  27  48  76 118 164 201 253 309 373 488
#     4  12  27  50  79 106 153 198 257 322 386 438
#
# _framework density 24.428070999999999
#
# number of rings (size 3 to 8) (size 9 to 14) (size 15 to 20)
#    0.000    0.000    1.429    7.714    8.000    2.286 
#    0.000    0.000    0.000    0.000    0.000    0.000 
#    0.000    0.000    0.000    0.000    0.000    0.000 
#
# Total GULP energy -86845.618031 kJ/mol
# GULP energy per Si atom -12406.516862 kJ/mol
# Density = 2.437247 g / cm^3
# Si number density = 24.428071 Si / 1000 Ang^3
#
#
#
# Elastic Constant Matrix: (Units=GPa)
#
#
# Indices 1 2 3 4 5 6 
#
# 1 180.8430 65.5455 50.0912 0.0000 16.7710 0.0000
# 2 65.5455 140.7105 64.5783 0.0000 8.1628 0.0000
# 3 50.0912 64.5783 172.8468 0.0000 13.9045 0.0000
# 4 0.0000 0.0000 0.0000 4.0007 0.0000 43.0326
# 5 16.7710 8.1628 13.9045 0.0000 44.9006 0.0000
# 6 0.0000 0.0000 0.0000 43.0326 0.0000 -60.9699
#
#
#
# Elastic Compliance Matrix: (Units=1/GPa)
#
#
# Indices 1 2 3 4 5 6 
#
# 1 0.006922 -0.002734 -0.000837 0.000000 -0.001829 0.000000
# 2 -0.002734 0.009672 -0.002833 0.000000 0.000140 0.000000
# 3 -0.000837 -0.002833 0.007199 0.000000 -0.001402 0.000000
# 4 0.000000 0.000000 0.000000 0.029093 0.000000 0.020533
# 5 -0.001829 0.000140 -0.001402 0.000000 0.023363 0.000000
# 6 0.000000 0.000000 0.000000 0.020533 0.000000 -0.001909
#
#
# Mechanical properties :
#
#
# Convention : Reuss Voigt Hill
#
# Bulk Modulus (GPa) = 91.02946 94.98113 93.00530
# Shear Modulus (GPa) = 55.05972 18.53195 36.79583
#
# Velocity S-wave (km/s) = 4.75273 2.75732 3.88531
# Velocity P-wave (km/s) = 8.21359 7.00739 7.63435
#
# Compressibility (1/GPa) = 0.01098545
#
# Stress axis : x y z
#
# Youngs Moduli (GPa) = 144.46307 103.38842 138.90357
#
# Poissons Ratio (x) = 0.28267 0.11632
# Poissons Ratio (y) = 0.39497 0.39347
# Poissons Ratio (z) = 0.12098 0.29286
#
# Static dielectric constant tensor:
#      x y z
#    x 4.455460 0.000000 0.273010 
#    y 0.000000 4.641710 0.000000 
#    z 0.273010 0.000000 4.573850 
# 
# 
# High freq. dielectric constant tensor:
#      x y z
#    x 1.983490 0.000000 0.006330 
#    y 0.000000 1.979930 0.000000 
#    z 0.006330 0.000000 1.981060 
# 
# From -- ./inp_files/432.got.cif
#   From: 2010.03.12/outbox.cif.g09.slc.cpg/sg5_1_cif.got.tgz:432.got - 2010.03.31 09:47:26.
