data_PCOD8052998
_publ_section_title
;
Structure prediction by ZEFSAII (Michael W. Deem and Ramdas Pophale) SiO2 
 PCOD8052998
Probable space group: C M
;
_chemical_formula_sum "Si O2"
_cell_formula_units_Z 32
_cell_length_a 19.939895
_cell_length_b 9.324025
_cell_length_c 25.073000
_cell_angle_alpha 90.000000
_cell_angle_beta 157.054898
_cell_angle_gamma 90.000000
_cell_volume 1817.309867
_symmetry_space_group_name_H-M "C M"
_symmetry_group_IT_number 8
_symmetry_cell_setting 'monoclinic'
loop_
_space_group_symop_operation_xyz
x,y,z
x,-y,z
1/2+x,1/2+y,z
1/2+x,1/2-y,z
loop_
_atom_site_type_symbol
_atom_site_label
_atom_site_fract_x
_atom_site_fract_y
_atom_site_fract_z
Si Si1 0.190910 0.169951 0.334270
Si Si2 0.485637 0.664188 0.497892
Si Si3 0.194953 0.833421 0.830846
Si Si4 0.241446 0.163999 0.596945
Si Si5 0.821573 0.664207 0.810586
Si Si6 0.853291 0.335307 0.058218
Si Si7 0.846129 0.334769 0.559234
Si Si8 0.001436 0.834973 0.856674
O O1 0.324755 0.232345 0.389350
O O2 0.246439 0.220046 0.434091
O O3 0.004165 0.232367 0.186973
O O4 0.184686 0.000000 0.323699
O O5 0.423367 0.500000 0.457253
O O6 0.560555 0.697442 0.493672
O O7 0.632936 0.698656 0.649039
O O8 0.320677 0.802743 0.872888
O O9 0.019827 0.749843 0.695178
O O10 0.145489 0.000000 0.798216
O O11 0.291432 0.783141 0.954704
O O12 0.221634 0.189187 0.519158
O O13 0.392429 0.263482 0.729690
O O14 0.294415 0.000000 0.648634
O O15 0.870221 0.500000 0.834509
O O16 0.964288 0.762134 0.886599
O O17 0.916468 0.500000 0.102002
O O18 0.701622 0.317634 0.990040
O O19 0.896958 0.500000 0.589605
O O20 0.946606 0.000000 0.819712
#
# Coordination Sequence:
#
# PCOD8052998 Si02
#       8
#     4   4   4   4   4   4   4   4
#     4  11  23  36  53  79 110 144 179 219 270 321
#     4   9  17  32  54  77 105 141 175 215 266 319
#     4  10  19  35  57  81 106 138 183 223 262 317
#     4   9  18  33  54  79 107 139 176 218 268 318
#     4   9  18  32  54  81 108 138 173 217 268 320
#     4  10  22  38  55  77 107 145 183 218 264 321
#     4  10  20  34  54  82 110 137 177 227 269 310
#     4  10  19  32  53  80 109 138 174 221 267 314
#
# _framework density 17.608445
#
# number of rings (size 3 to 8) (size 9 to 14) (size 15 to 20)
#    0.000    2.250    2.500    1.500    0.000    4.500 
#    0.000    1.250    0.000    6.000    0.000    0.000 
#    0.000    0.000    0.000    0.000    0.000    0.000 
#
# Total GULP energy -198412.256122 kJ/mol
# GULP energy per Si atom -12400.766008 kJ/mol
# Density = 1.756837 g / cm^3
# Si number density = 17.608445 Si / 1000 Ang^3
#
#
#
# Elastic Constant Matrix: (Units=GPa)
#
#
# Indices 1 2 3 4 5 6 
#
# 1 124.7180 51.3545 57.6994 -0.0075 1.1274 0.0012
# 2 51.3545 85.0739 57.2800 0.0118 6.6906 -0.0008
# 3 57.6994 57.2800 97.8422 0.0090 0.4858 0.0002
# 4 -0.0075 0.0118 0.0090 30.2709 -0.0123 5.4894
# 5 1.1274 6.6906 0.4858 -0.0123 23.5793 -0.0006
# 6 0.0012 -0.0008 0.0002 5.4894 -0.0006 28.3250
#
#
#
# Elastic Compliance Matrix: (Units=1/GPa)
#
#
# Indices 1 2 3 4 5 6 
#
# 1 0.011818 -0.004116 -0.004563 0.000007 0.000697 -0.000002
# 2 -0.004116 0.021514 -0.010139 -0.000009 -0.005699 0.000003
# 3 -0.004563 -0.010139 0.018834 -0.000002 0.002707 0.000000
# 4 0.000007 -0.000009 -0.000002 0.034238 0.000020 -0.006635
# 5 0.000697 -0.005699 0.002707 0.000020 0.043938 -0.000003
# 6 -0.000002 0.000003 0.000000 -0.006635 -0.000003 0.036590
#
#
# Mechanical properties :
#
#
# Convention : Reuss Voigt Hill
#
# Bulk Modulus (GPa) = 68.82896 71.14466 69.98681
# Shear Modulus (GPa) = 23.87632 25.85506 24.86569
#
# Velocity S-wave (km/s) = 3.68633 3.83604 3.76193
# Velocity P-wave (km/s) = 7.56916 7.75317 7.66172
#
# Compressibility (1/GPa) = 0.01452877
#
# Stress axis : x y z
#
# Youngs Moduli (GPa) = 84.61909 46.48045 53.09630
#
# Poissons Ratio (x) = 0.19134 0.24226
# Poissons Ratio (y) = 0.34833 0.53836
# Poissons Ratio (z) = 0.38609 0.47128
#
# Static dielectric constant tensor:
#      x y z
#    x 3.725210 0.000000 -0.031700 
#    y 0.000000 3.292430 0.000000 
#    z -0.031700 0.000000 2.938250 
# 
# 
# High freq. dielectric constant tensor:
#      x y z
#    x 1.698460 0.000000 0.005600 
#    y 0.000000 1.683130 0.000000 
#    z 0.005600 0.000000 1.646460 
# 
# From -- ./inp_files/15808.got.cif
#   From: 2010.03.12/outbox.cif.g09.slc.cpg/sg8_8_cif.got.tgz:15808.got - 2010.03.31 10:45:26.
