data_PCOD8052004
_publ_section_title
;
Structure prediction by ZEFSAII (Michael W. Deem and Ramdas Pophale) SiO2 
 PCOD8052004
Probable space group: C 2
;
_chemical_formula_sum "Si O2"
_cell_formula_units_Z 26
_cell_length_a 13.972977
_cell_length_b 5.060469
_cell_length_c 20.270181
_cell_angle_alpha 90.000000
_cell_angle_beta 129.620072
_cell_angle_gamma 90.000000
_cell_volume 1104.057109
_symmetry_space_group_name_H-M "C 2"
_symmetry_group_IT_number 5
_symmetry_cell_setting 'monoclinic'
loop_
_space_group_symop_operation_xyz
x,y,z
-x,y,-z
1/2+x,1/2+y,z
1/2-x,1/2+y,-z
loop_
_atom_site_type_symbol
_atom_site_label
_atom_site_fract_x
_atom_site_fract_y
_atom_site_fract_z
Si Si1 0.120456 0.687120 0.895154
Si Si2 0.951153 0.910853 0.722341
Si Si3 0.000000 0.752238 0.500000
Si Si4 0.225954 0.685050 0.071450
Si Si5 0.830026 0.872242 0.538210
Si Si6 0.288253 0.056795 0.317016
Si Si7 0.194006 0.059701 0.762231
O O1 0.215129 0.477196 0.905666
O O2 0.992852 0.692963 0.796297
O O3 0.173224 0.981022 0.911362
O O4 0.106509 0.652957 0.969208
O O5 0.895175 0.762816 0.633420
O O6 0.845460 0.096757 0.707630
O O7 0.065040 0.091285 0.746287
O O8 0.930886 0.928811 0.524905
O O9 0.897991 0.573607 0.418562
O O10 0.196322 0.617671 0.135436
O O11 0.733909 0.649592 0.473013
O O12 0.297733 0.264024 0.261747
O O13 0.299465 0.760618 0.294876
#
# Coordination Sequence:
#
# PCOD8052004 Si02
#       7
#     4   4   2   4   4   4   4
#     4   9  19  36  66 101 128 177 220 272 323 407
#     4  11  25  45  72  98 138 176 227 277 336 392
#     4  12  28  48  68 100 138 176 228 280 334 402
#     4   9  18  37  66  97 135 172 222 263 341 389
#     4  12  29  45  70  99 135 178 225 279 340 396
#     4  12  28  42  69 102 134 176 232 272 335 404
#     4  11  25  44  68 100 137 179 218 282 333 393
#
# _framework density 23.549505
#
# number of rings (size 3 to 8) (size 9 to 14) (size 15 to 20)
#    0.000    1.231    3.077    1.846    4.308    6.154 
#    0.000    0.769    0.000    7.385    0.000    0.000 
#    0.000    0.000    0.000    0.000    0.000    0.000 
#
# Total GULP energy -161086.900541 kJ/mol
# GULP energy per Si atom -12391.300042 kJ/mol
# Density = 2.349591 g / cm^3
# Si number density = 23.549505 Si / 1000 Ang^3
#
#
#
# Elastic Constant Matrix: (Units=GPa)
#
#
# Indices 1 2 3 4 5 6 
#
# 1 124.0569 24.8877 39.3145 0.0000 -2.2846 0.0000
# 2 24.8877 71.9752 19.9315 -0.0001 1.0853 0.0001
# 3 39.3145 19.9315 196.9574 0.0001 -30.4173 0.0000
# 4 0.0000 -0.0001 0.0001 24.3053 0.0000 -3.8914
# 5 -2.2846 1.0853 -30.4173 0.0000 27.7045 0.0000
# 6 0.0000 0.0001 0.0000 -3.8914 0.0000 17.9560
#
#
#
# Elastic Compliance Matrix: (Units=1/GPa)
#
#
# Indices 1 2 3 4 5 6 
#
# 1 0.009118 -0.002665 -0.001708 0.000000 -0.001019 0.000000
# 2 -0.002665 0.015229 -0.001367 0.000000 -0.002317 0.000000
# 3 -0.001708 -0.001367 0.006675 0.000000 0.007241 0.000000
# 4 0.000000 0.000000 0.000000 0.042622 0.000000 0.009237
# 5 -0.001019 -0.002317 0.007241 0.000000 0.044052 0.000000
# 6 0.000000 0.000000 0.000000 0.009237 0.000000 0.057694
#
#
# Mechanical properties :
#
#
# Convention : Reuss Voigt Hill
#
# Bulk Modulus (GPa) = 51.17049 62.36187 56.76618
# Shear Modulus (GPa) = 25.85559 34.58353 30.21956
#
# Velocity S-wave (km/s) = 3.31709 3.83632 3.58611
# Velocity P-wave (km/s) = 6.03712 6.79425 6.42684
#
# Compressibility (1/GPa) = 0.01954251
#
# Stress axis : x y z
#
# Youngs Moduli (GPa) = 109.67589 65.66618 149.81882
#
# Poissons Ratio (x) = 0.17497 0.25584
# Poissons Ratio (y) = 0.29223 0.20482
# Poissons Ratio (z) = 0.18729 0.08977
#
# Static dielectric constant tensor:
#      x y z
#    x 4.024490 0.000000 -0.222790 
#    y 0.000000 3.764140 0.000000 
#    z -0.222790 0.000000 5.307170 
# 
# 
# High freq. dielectric constant tensor:
#      x y z
#    x 1.903060 0.000000 -0.023550 
#    y 0.000000 1.912100 0.000000 
#    z -0.023550 0.000000 1.969110 
# 
# From -- ./inp_files/65706.got.cif
#   From: 2010.03.12/outbox.cif.g09.slc.cpg/sg5_33_cif.got.tgz:65706.got - 2010.03.31 09:47:26.
