data_PCOD8052279
_publ_section_title
;
Structure prediction by ZEFSAII (Michael W. Deem and Ramdas Pophale) SiO2 
 PCOD8052279
Probable space group: P M
;
_chemical_formula_sum "Si O2"
_cell_formula_units_Z 16
_cell_length_a 12.137604
_cell_length_b 8.863000
_cell_length_c 10.377532
_cell_angle_alpha 90.000000
_cell_angle_beta 128.019916
_cell_angle_gamma 90.000000
_cell_volume 879.471870
_symmetry_space_group_name_H-M "P M"
_symmetry_group_IT_number 6
_symmetry_cell_setting 'monoclinic'
loop_
_space_group_symop_operation_xyz
x,y,z
x,-y,z
loop_
_atom_site_type_symbol
_atom_site_label
_atom_site_fract_x
_atom_site_fract_y
_atom_site_fract_z
Si Si1 0.993070 0.828156 0.180330
Si Si2 0.234503 0.321057 0.744650
Si Si3 0.265046 0.678119 0.290686
Si Si4 0.400602 0.174598 0.631250
Si Si5 0.382428 0.322402 0.106679
Si Si6 0.682991 0.173153 0.965548
Si Si7 0.966235 0.173981 0.462762
Si Si8 0.680956 0.323621 0.230712
O O1 0.001588 0.799714 0.338845
O O2 0.102149 0.719258 0.188761
O O3 0.032494 0.000000 0.175526
O O4 0.836360 0.788042 0.018410
O O5 0.244379 0.500000 0.742547
O O6 0.316257 0.252329 0.683938
O O7 0.073733 0.269187 0.625989
O O8 0.301267 0.256024 0.924343
O O9 0.283119 0.500000 0.313818
O O10 0.361788 0.753345 0.467772
O O11 0.317159 0.742663 0.191023
O O12 0.566923 0.196779 0.771905
O O13 0.357523 0.000000 0.598833
O O14 0.362048 0.500000 0.088927
O O15 0.546135 0.280328 0.218670
O O16 0.685316 0.000000 0.017935
O O17 0.647382 0.280468 0.059240
O O18 0.810925 0.232119 0.382018
O O19 0.976497 0.000000 0.509034
O O20 0.714937 0.500000 0.260722
#
# Coordination Sequence:
#
# PCOD8052279 Si02
#       8
#     2   2   2   2   2   2   2   2
#     4   9  18  34  53  77 110 143 177 224 274 323
#     4  11  20  35  58  83 108 142 186 231 275 323
#     4  11  22  37  56  79 111 150 186 223 273 332
#     4  11  21  35  55  83 113 142 181 232 280 324
#     4   9  21  38  55  80 113 144 182 232 276 321
#     4   9  19  34  54  79 110 141 176 227 281 323
#     4  10  20  34  53  82 116 142 176 227 276 325
#     4  10  18  33  56  81 109 142 182 226 275 325
#
# _framework density 18.192737000000001
#
# number of rings (size 3 to 8) (size 9 to 14) (size 15 to 20)
#    0.000    2.000    2.500    2.625    0.000    2.500 
#    0.000    6.250    0.000    4.500    0.000    0.000 
#    0.000    0.000    0.000    0.000    0.000    0.000 
#
# Total GULP energy -198420.977458 kJ/mol
# GULP energy per Si atom -12401.311091 kJ/mol
# Density = 1.815133 g / cm^3
# Si number density = 18.192737 Si / 1000 Ang^3
#
#
#
# Elastic Constant Matrix: (Units=GPa)
#
#
# Indices 1 2 3 4 5 6 
#
# 1 118.1248 40.6712 65.3562 0.0000 7.8316 0.0000
# 2 40.6712 77.2291 38.6424 0.0000 2.2114 0.0000
# 3 65.3562 38.6424 116.2422 0.0000 7.1092 0.0000
# 4 0.0000 0.0000 0.0000 12.6982 0.0000 16.0050
# 5 7.8316 2.2114 7.1092 0.0000 27.7829 0.0000
# 6 0.0000 0.0000 0.0000 16.0050 0.0000 18.6690
#
#
#
# Elastic Compliance Matrix: (Units=1/GPa)
#
#
# Indices 1 2 3 4 5 6 
#
# 1 0.013288 -0.003915 -0.006055 0.000000 -0.001885 0.000000
# 2 -0.003915 0.016685 -0.003385 0.000000 0.000642 0.000000
# 3 -0.006055 -0.003385 0.013218 0.000000 -0.001406 0.000000
# 4 0.000000 0.000000 0.000000 -0.977560 0.000000 0.838067
# 5 -0.001885 0.000642 -0.001406 0.000000 0.036833 0.000000
# 6 0.000000 0.000000 0.000000 0.838067 0.000000 -0.664913
#
#
# Mechanical properties :
#
#
# Convention : Reuss Voigt Hill
#
# Bulk Modulus (GPa) = 60.66701 66.77060 63.71881
# Shear Modulus (GPa) = -3.26745 22.95846 9.84550
#
# Velocity S-wave (km/s) = -1.34161 3.55626 2.32885
# Velocity P-wave (km/s) = 5.56950 7.32421 6.50628
#
# Compressibility (1/GPa) = 0.01648342
#
# Stress axis : x y z
#
# Youngs Moduli (GPa) = 75.25407 59.93269 75.65332
#
# Poissons Ratio (x) = 0.23461 0.45805
# Poissons Ratio (y) = 0.29459 0.25609
# Poissons Ratio (z) = 0.45564 0.20287
#
# Static dielectric constant tensor:
#      x y z
#    x 3.451280 0.000000 0.241440 
#    y 0.000000 3.336160 0.000000 
#    z 0.241440 0.000000 3.500100 
# 
# 
# High freq. dielectric constant tensor:
#      x y z
#    x 1.701350 0.000000 0.026830 
#    y 0.000000 1.704580 0.000000 
#    z 0.026830 0.000000 1.695490 
# 
# From -- ./inp_files/3742.got.cif
#   From: 2010.03.12/outbox.cif.g09.slc.cpg/sg6_2_cif.got.tgz:3742.got - 2010.03.30 10:24:59.
