data_PCOD8052085
_publ_section_title
;
Structure prediction by ZEFSAII (Michael W. Deem and Ramdas Pophale) SiO2 
 PCOD8052085
Probable space group: C 2
;
_chemical_formula_sum "Si O2"
_cell_formula_units_Z 20
_cell_length_a 14.508773
_cell_length_b 5.019143
_cell_length_c 23.628281
_cell_angle_alpha 90.000000
_cell_angle_beta 148.301702
_cell_angle_gamma 90.000000
_cell_volume 904.108983
_symmetry_space_group_name_H-M "C 2"
_symmetry_group_IT_number 5
_symmetry_cell_setting 'monoclinic'
loop_
_space_group_symop_operation_xyz
x,y,z
-x,y,-z
1/2+x,1/2+y,z
1/2-x,1/2+y,-z
loop_
_atom_site_type_symbol
_atom_site_label
_atom_site_fract_x
_atom_site_fract_y
_atom_site_fract_z
Si Si1 0.352909 0.266790 0.257495
Si Si2 0.634091 0.275337 0.121102
Si Si3 0.859768 0.800584 0.070773
Si Si4 0.676241 0.293126 0.624131
Si Si5 0.893681 0.795856 0.703303
O O1 0.211293 0.480787 0.162662
O O2 0.368718 0.275396 0.333167
O O3 0.547093 0.309547 0.331683
O O4 0.293021 0.983011 0.201055
O O5 0.533186 0.352029 0.125317
O O6 0.500000 0.304998 0.000000
O O7 0.922662 0.849416 0.167675
O O8 0.795005 0.500923 0.026391
O O9 0.500000 0.373546 0.500000
O O10 0.822951 0.510945 0.686754
O O11 0.743923 0.010729 0.636883
#
# Coordination Sequence:
#
# PCOD8052085 Si02
#       5
#     4   4   4   4   4
#     4  12  24  45  68  97 138 175 222 282 333 398
#     4  12  23  41  65  98 139 178 221 271 331 404
#     4  12  22  38  63  97 133 173 218 265 326 399
#     4  12  26  47  71  99 134 179 230 286 337 390
#     4  12  25  45  69  99 138 175 227 281 334 403
#
# _framework density 22.121227999999999
#
# number of rings (size 3 to 8) (size 9 to 14) (size 15 to 20)
#    0.000    0.000    4.000    7.200    0.000    1.600 
#    0.000    0.000    0.000    0.000    0.000    0.000 
#    0.000    0.000    0.000    0.000    0.000    0.000 
#
# Total GULP energy -124067.659531 kJ/mol
# GULP energy per Si atom -12406.765953 kJ/mol
# Density = 2.207088 g / cm^3
# Si number density = 22.121228 Si / 1000 Ang^3
#
#
#
# Elastic Constant Matrix: (Units=GPa)
#
#
# Indices 1 2 3 4 5 6 
#
# 1 172.5552 28.8965 33.4040 0.0004 -5.9724 0.0040
# 2 28.8965 90.4707 14.3556 -0.0004 -5.5750 0.0014
# 3 33.4040 14.3556 93.2516 -0.0008 -7.3795 0.0050
# 4 0.0004 -0.0004 -0.0008 27.3935 0.0004 2.9830
# 5 -5.9724 -5.5750 -7.3795 0.0004 23.3426 -0.0022
# 6 0.0040 0.0014 0.0050 2.9830 -0.0022 30.0715
#
#
#
# Elastic Compliance Matrix: (Units=1/GPa)
#
#
# Indices 1 2 3 4 5 6 
#
# 1 0.006494 -0.001717 -0.002013 0.000000 0.000615 0.000000
# 2 -0.001717 0.011896 -0.001053 0.000000 0.002069 0.000000
# 3 -0.002013 -0.001053 0.011843 0.000000 0.002977 -0.000001
# 4 0.000000 0.000000 0.000000 0.036904 -0.000001 -0.003661
# 5 0.000615 0.002069 0.002977 -0.000001 0.044433 0.000003
# 6 0.000000 0.000000 -0.000001 -0.003661 0.000003 0.033617
#
#
# Mechanical properties :
#
#
# Convention : Reuss Voigt Hill
#
# Bulk Modulus (GPa) = 48.38581 56.62108 52.50345
# Shear Modulus (GPa) = 30.93285 34.80295 32.86790
#
# Velocity S-wave (km/s) = 3.74349 3.97077 3.85880
# Velocity P-wave (km/s) = 6.37224 6.83184 6.60604
#
# Compressibility (1/GPa) = 0.02066722
#
# Stress axis : x y z
#
# Youngs Moduli (GPa) = 153.99421 84.06062 84.44159
#
# Poissons Ratio (x) = 0.14431 0.17000
# Poissons Ratio (y) = 0.26437 0.08889
# Poissons Ratio (z) = 0.31002 0.08849
#
# Static dielectric constant tensor:
#      x y z
#    x 4.344520 0.000000 -0.106230 
#    y 0.000000 4.023940 0.000000 
#    z -0.106230 0.000000 3.739460 
# 
# 
# High freq. dielectric constant tensor:
#      x y z
#    x 1.890220 0.000000 0.000130 
#    y 0.000000 1.884220 0.000000 
#    z 0.000130 0.000000 1.857250 
# 
# From -- ./inp_files/57360.got.cif
#   From: 2010.03.12/outbox.cif.g09.slc.cpg/sg5_29_cif.got.tgz:57360.got - 2010.03.31 09:47:26.
