data_PCOD8052770
_publ_section_title
;
Structure prediction by ZEFSAII (Michael W. Deem and Ramdas Pophale) SiO2 
 PCOD8052770
Probable space group: C M
;
_chemical_formula_sum "Si O2"
_cell_formula_units_Z 32
_cell_length_a 28.187246
_cell_length_b 8.724827
_cell_length_c 21.471341
_cell_angle_alpha 90.000000
_cell_angle_beta 161.274761
_cell_angle_gamma 90.000000
_cell_volume 1695.175008
_symmetry_space_group_name_H-M "C M"
_symmetry_group_IT_number 8
_symmetry_cell_setting 'monoclinic'
loop_
_space_group_symop_operation_xyz
x,y,z
x,-y,z
1/2+x,1/2+y,z
1/2+x,1/2-y,z
loop_
_atom_site_type_symbol
_atom_site_label
_atom_site_fract_x
_atom_site_fract_y
_atom_site_fract_z
Si Si1 0.721710 0.819268 0.104550
Si Si2 0.365532 0.177127 0.165630
Si Si3 0.139003 0.678622 0.430580
Si Si4 0.960473 0.818528 0.095187
Si Si5 0.702452 0.681103 0.836712
Si Si6 0.868663 0.817824 0.412207
Si Si7 0.888679 0.318316 0.676760
Si Si8 0.712101 0.817927 0.342106
O O1 0.821579 0.775841 0.170155
O O2 0.794326 0.749860 0.257370
O O3 0.716744 0.000000 0.103854
O O4 0.555324 0.756361 0.890677
O O5 0.541477 0.204808 0.371699
O O6 0.333852 0.000000 0.140575
O O7 0.268239 0.230220 0.985482
O O8 0.166620 0.500000 0.453288
O O9 0.296909 0.765972 0.624769
O O10 0.043228 0.745367 0.256022
O O11 0.046728 0.753468 0.141926
O O12 0.969532 0.000000 0.107181
O O13 0.791124 0.762312 0.890095
O O14 0.715532 0.500000 0.843708
O O15 0.535900 0.742805 0.625606
O O16 0.776363 0.759114 0.356560
O O17 0.870586 0.000000 0.413219
O O18 0.881028 0.500000 0.660425
O O19 0.819687 0.241276 0.530069
O O20 0.703229 0.000000 0.334340
#
# Coordination Sequence:
#
# PCOD8052770 Si02
#       8
#     4   4   4   4   4   4   4   4
#     4  10  21  35  50  72 102 133 165 203 247 293
#     4   9  18  32  52  77  99 124 162 206 248 291
#     4   9  17  31  51  74  99 128 166 204 239 288
#     4  10  18  29  48  77 107 127 154 201 253 297
#     4   9  17  33  55  75  97 128 168 206 239 287
#     4   9  19  35  53  72  96 131 173 208 238 284
#     4  10  19  31  50  77 105 128 158 203 251 296
#     4  10  18  32  55  76  97 129 168 205 241 288
#
# _framework density 18.877108
#
# number of rings (size 3 to 8) (size 9 to 14) (size 15 to 20)
#    0.000    2.500    0.000    5.250    0.000    4.500 
#    0.000    4.375    0.000    6.000    0.000    0.000 
#    0.000    0.000    0.000    0.000    0.000    0.000 
#
# Total GULP energy -198320.629831 kJ/mol
# GULP energy per Si atom -12395.039364 kJ/mol
# Density = 1.883414 g / cm^3
# Si number density = 18.877108 Si / 1000 Ang^3
#
#
#
# Elastic Constant Matrix: (Units=GPa)
#
#
# Indices 1 2 3 4 5 6 
#
# 1 136.5208 38.4369 92.6699 0.0003 30.2627 0.0002
# 2 38.4369 73.9052 30.3241 0.0000 11.0351 0.0000
# 3 92.6699 30.3241 78.6934 0.0000 19.7297 0.0001
# 4 0.0003 0.0000 0.0000 21.1605 0.0003 8.4553
# 5 30.2627 11.0351 19.7297 0.0003 34.0450 0.0002
# 6 0.0002 0.0000 0.0001 8.4553 0.0002 27.5283
#
#
#
# Elastic Compliance Matrix: (Units=1/GPa)
#
#
# Indices 1 2 3 4 5 6 
#
# 1 0.039008 -0.001198 -0.043147 0.000000 -0.009281 0.000000
# 2 -0.001198 0.016214 -0.004431 0.000000 -0.001623 0.000000
# 3 -0.043147 -0.004431 0.064642 0.000000 0.002329 0.000000
# 4 0.000000 0.000000 0.000000 0.053869 0.000000 -0.016546
# 5 -0.009281 -0.001623 0.002329 0.000000 0.036799 0.000000
# 6 0.000000 0.000000 0.000000 -0.016546 0.000000 0.041408
#
#
# Mechanical properties :
#
#
# Convention : Reuss Voigt Hill
#
# Bulk Modulus (GPa) = 44.81877 67.99792 56.40835
# Shear Modulus (GPa) = 14.00838 25.05933 19.53386
#
# Velocity S-wave (km/s) = 2.72708 3.64744 3.22031
# Velocity P-wave (km/s) = 5.80602 7.33744 6.61619
#
# Compressibility (1/GPa) = 0.02231208
#
# Stress axis : x y z
#
# Youngs Moduli (GPa) = 25.63594 61.67485 15.46992
#
# Poissons Ratio (x) = 0.07387 0.66749
# Poissons Ratio (y) = 0.03070 0.06854
# Poissons Ratio (z) = 1.10612 0.27326
#
# Static dielectric constant tensor:
#      x y z
#    x 3.748240 0.000000 0.525660 
#    y 0.000000 3.278030 0.000000 
#    z 0.525660 0.000000 3.794040 
# 
# 
# High freq. dielectric constant tensor:
#      x y z
#    x 1.729330 0.000000 0.035730 
#    y 0.000000 1.722000 0.000000 
#    z 0.035730 0.000000 1.722080 
# 
# From -- ./inp_files/31639.got.cif
#   From: 2010.03.12/outbox.cif.g09.slc.cpg/sg8_16_cif.got.tgz:31639.got - 2010.03.31 10:45:26.
