data_PCOD8052140
_publ_section_title
;
Structure prediction by ZEFSAII (Michael W. Deem and Ramdas Pophale) SiO2 
 PCOD8052140
Probable space group: C 2
;
_chemical_formula_sum "Si O2"
_cell_formula_units_Z 18
_cell_length_a 16.477412
_cell_length_b 10.127028
_cell_length_c 9.800008
_cell_angle_alpha 90.000000
_cell_angle_beta 27.487332
_cell_angle_gamma 90.000000
_cell_volume 754.776788
_symmetry_space_group_name_H-M "C 2"
_symmetry_group_IT_number 5
_symmetry_cell_setting 'monoclinic'
loop_
_space_group_symop_operation_xyz
x,y,z
-x,y,-z
1/2+x,1/2+y,z
1/2-x,1/2+y,-z
loop_
_atom_site_type_symbol
_atom_site_label
_atom_site_fract_x
_atom_site_fract_y
_atom_site_fract_z
Si Si1 0.340226 0.427300 0.953923
Si Si2 0.222236 0.845239 0.429680
Si Si3 0.247771 0.250103 0.328635
Si Si4 0.658727 0.723846 0.023866
Si Si5 0.000000 0.546125 0.000000
O O1 0.551042 0.418469 0.625504
O O2 0.270746 0.577539 0.043497
O O3 0.279745 0.380441 0.193354
O O4 0.255791 0.335132 0.965465
O O5 0.174088 0.759083 0.633641
O O6 0.312296 0.755278 0.178621
O O7 0.362559 0.950230 0.283118
O O8 0.044089 0.217185 0.632908
O O9 0.372254 0.130005 0.087173
#
# Coordination Sequence:
#
# PCOD8052140 Si02
#       5
#     4   4   4   4   2
#     4  12  29  47  72 107 148 192 238 294 360 426
#     4  12  26  46  76 105 141 187 243 296 354 427
#     4  12  26  46  76 105 141 187 243 296 354 427
#     4  12  29  47  72 107 148 192 238 294 360 426
#     4  12  24  44  78 106 142 180 242 296 366 408
#
# _framework density 23.848109999999998
#
# number of rings (size 3 to 8) (size 9 to 14) (size 15 to 20)
#    0.000    0.000    6.667    1.333    6.222    7.111 
#    0.000    0.000    0.000    0.000    0.000    0.000 
#    0.000    0.000    0.000    0.000    0.000    0.000 
#
# Total GULP energy -111554.863907 kJ/mol
# GULP energy per Si atom -12394.984879 kJ/mol
# Density = 2.379383 g / cm^3
# Si number density = 23.848110 Si / 1000 Ang^3
#
#
#
# Elastic Constant Matrix: (Units=GPa)
#
#
# Indices 1 2 3 4 5 6 
#
# 1 111.5989 54.3503 38.8646 0.0000 7.0809 0.0000
# 2 54.3503 171.1673 43.3216 0.0000 17.1817 0.0000
# 3 38.8646 43.3216 107.9309 0.0000 7.1665 0.0000
# 4 0.0000 0.0000 0.0000 28.1901 0.0000 -10.8648
# 5 7.0809 17.1817 7.1665 0.0000 21.2276 0.0000
# 6 0.0000 0.0000 0.0000 -10.8648 0.0000 41.8909
#
#
#
# Elastic Compliance Matrix: (Units=1/GPa)
#
#
# Indices 1 2 3 4 5 6 
#
# 1 0.011390 -0.002821 -0.002934 0.000000 -0.000525 0.000000
# 2 -0.002821 0.007647 -0.001744 0.000000 -0.004660 0.000000
# 3 -0.002934 -0.001744 0.011112 0.000000 -0.001361 0.000000
# 4 0.000000 0.000000 0.000000 0.039413 0.000000 0.010222
# 5 -0.000525 -0.004660 -0.001361 0.000000 0.051515 0.000000
# 6 0.000000 0.000000 0.000000 0.010222 0.000000 0.026523
#
#
# Mechanical properties :
#
#
# Convention : Reuss Voigt Hill
#
# Bulk Modulus (GPa) = 66.00555 73.75222 69.87888
# Shear Modulus (GPa) = 29.82423 35.20577 32.51500
#
# Velocity S-wave (km/s) = 3.54021 3.84637 3.69646
# Velocity P-wave (km/s) = 6.66696 7.12173 6.89809
#
# Compressibility (1/GPa) = 0.01515024
#
# Stress axis : x y z
#
# Youngs Moduli (GPa) = 87.79811 130.76591 89.99164
#
# Poissons Ratio (x) = 0.36892 0.26404
# Poissons Ratio (y) = 0.24770 0.15696
# Poissons Ratio (z) = 0.25760 0.22808
#
# Static dielectric constant tensor:
#      x y z
#    x 4.141630 0.000000 -0.201580 
#    y 0.000000 4.440020 0.000000 
#    z -0.201580 0.000000 4.416720 
# 
# 
# High freq. dielectric constant tensor:
#      x y z
#    x 1.933290 0.000000 -0.024540 
#    y 0.000000 1.956390 0.000000 
#    z -0.024540 0.000000 1.960440 
# 
# From -- ./inp_files/26927.got.cif
#   From: 2010.03.12/outbox.cif.g09.slc.cpg/sg5_14_cif.got.tgz:26927.got - 2010.03.31 09:47:26.
