data_PCOD8052944
_publ_section_title
;
Structure prediction by ZEFSAII (Michael W. Deem and Ramdas Pophale) SiO2 
 PCOD8052944
Probable space group: C M
;
_chemical_formula_sum "Si O2"
_cell_formula_units_Z 24
_cell_length_a 18.331344
_cell_length_b 9.202405
_cell_length_c 16.386076
_cell_angle_alpha 90.000000
_cell_angle_beta 150.318528
_cell_angle_gamma 90.000000
_cell_volume 1368.773966
_symmetry_space_group_name_H-M "C M"
_symmetry_group_IT_number 8
_symmetry_cell_setting 'monoclinic'
loop_
_space_group_symop_operation_xyz
x,y,z
x,-y,z
1/2+x,1/2+y,z
1/2+x,1/2-y,z
loop_
_atom_site_type_symbol
_atom_site_label
_atom_site_fract_x
_atom_site_fract_y
_atom_site_fract_z
Si Si1 0.763770 0.170829 0.546180
Si Si2 0.649752 0.163755 0.674713
Si Si3 0.470041 0.839802 0.333395
Si Si4 0.895616 0.327034 0.826835
Si Si5 0.229243 0.669153 0.177813
Si Si6 0.398001 0.669776 0.503570
O O1 0.589015 0.210674 0.380846
O O2 0.855667 0.265745 0.699289
O O3 0.817984 0.211831 0.509276
O O4 0.785337 0.000000 0.587772
O O5 0.558269 0.161422 0.503213
O O6 0.797914 0.255659 0.803499
O O7 0.551321 0.242247 0.648064
O O8 0.688911 0.000000 0.741147
O O9 0.327879 0.737443 0.201085
O O10 0.410355 0.000000 0.254919
O O11 0.873134 0.500000 0.806229
O O12 0.062098 0.279080 0.007402
O O13 0.242737 0.500000 0.177610
O O14 0.288718 0.716322 0.324342
O O15 0.435834 0.500000 0.535550
#
# Coordination Sequence:
#
# PCOD8052944 Si02
#       6
#     4   4   4   4   4   4
#     4   9  18  32  50  72  95 122 158 196 233 276
#     4   9  17  30  48  70  95 123 158 194 230 279
#     4   8  15  28  46  67  91 121 156 190 226 273
#     4  10  19  31  48  70  97 127 158 192 232 279
#     4   9  18  31  48  70  94 122 156 193 233 278
#     4   9  17  32  52  71  94 123 156 195 236 277
#
# _framework density 17.533940000000001
#
# number of rings (size 3 to 8) (size 9 to 14) (size 15 to 20)
#    0.000    3.000    0.000    2.000    0.000    6.000 
#    0.000    1.667    0.000    4.000    0.000    0.000 
#    0.000    0.000    0.000    0.000    0.000    0.000 
#
# Total GULP energy -148757.471912 kJ/mol
# GULP energy per Si atom -12396.455993 kJ/mol
# Density = 1.749403 g / cm^3
# Si number density = 17.533940 Si / 1000 Ang^3
#
#
#
# Elastic Constant Matrix: (Units=GPa)
#
#
# Indices 1 2 3 4 5 6 
#
# 1 143.0429 55.5933 59.5083 0.0000 38.0124 0.0000
# 2 55.5933 75.8721 54.8711 0.0000 21.8213 0.0000
# 3 59.5083 54.8711 102.2267 0.0000 34.7809 0.0000
# 4 0.0000 0.0000 0.0000 25.1584 0.0000 8.7207
# 5 38.0124 21.8213 34.7809 0.0000 30.0917 0.0000
# 6 0.0000 0.0000 0.0000 8.7207 0.0000 28.7764
#
#
#
# Elastic Compliance Matrix: (Units=1/GPa)
#
#
# Indices 1 2 3 4 5 6 
#
# 1 0.012213 -0.005480 -0.000447 0.000000 -0.010938 0.000000
# 2 -0.005480 0.024257 -0.010219 0.000000 0.001144 0.000000
# 3 -0.000447 -0.010219 0.021119 0.000000 -0.016435 0.000000
# 4 0.000000 0.000000 0.000000 0.044414 0.000000 -0.013460
# 5 -0.010938 0.001144 -0.016435 0.000000 0.065215 0.000000
# 6 0.000000 0.000000 0.000000 -0.013460 0.000000 0.038830
#
#
# Mechanical properties :
#
#
# Convention : Reuss Voigt Hill
#
# Bulk Modulus (GPa) = 39.52993 73.45412 56.49203
# Shear Modulus (GPa) = 20.26153 26.88322 23.57238
#
# Velocity S-wave (km/s) = 3.40304 3.91987 3.67056
# Velocity P-wave (km/s) = 6.16723 7.90384 7.08891
#
# Compressibility (1/GPa) = 0.02529728
#
# Stress axis : x y z
#
# Youngs Moduli (GPa) = 81.87903 41.22494 47.34973
#
# Poissons Ratio (x) = 0.22592 0.02115
# Poissons Ratio (y) = 0.44870 0.48389
# Poissons Ratio (z) = 0.03658 0.42130
#
# Static dielectric constant tensor:
#      x y z
#    x 3.402710 0.000000 0.350080 
#    y 0.000000 3.342130 0.000000 
#    z 0.350080 0.000000 3.177290 
# 
# 
# High freq. dielectric constant tensor:
#      x y z
#    x 1.674550 0.000000 0.030850 
#    y 0.000000 1.679860 0.000000 
#    z 0.030850 0.000000 1.653250 
# 
# From -- ./inp_files/14195.got.cif
#   From: 2010.03.12/outbox.cif.g09.slc.cpg/sg8_8_cif.got.tgz:14195.got - 2010.03.31 10:45:26.
