data_PCOD8052488
_publ_section_title
;
Structure prediction by ZEFSAII (Michael W. Deem and Ramdas Pophale) SiO2 
 PCOD8052488
Probable space group: P M
;
_chemical_formula_sum "Si O2"
_cell_formula_units_Z 16
_cell_length_a 12.342422
_cell_length_b 9.366218
_cell_length_c 12.242603
_cell_angle_alpha 90.000000
_cell_angle_beta 143.655176
_cell_angle_gamma 90.000000
_cell_volume 838.748859
_symmetry_space_group_name_H-M "P M"
_symmetry_group_IT_number 6
_symmetry_cell_setting 'monoclinic'
loop_
_space_group_symop_operation_xyz
x,y,z
x,-y,z
loop_
_atom_site_type_symbol
_atom_site_label
_atom_site_fract_x
_atom_site_fract_y
_atom_site_fract_z
Si Si1 0.758250 0.662468 0.321690
Si Si2 0.879395 0.333428 0.184756
Si Si3 0.289713 0.663842 0.469310
Si Si4 0.407050 0.336391 0.317313
Si Si5 0.822123 0.336065 0.612938
Si Si6 0.526574 0.830946 0.834016
Si Si7 0.425198 0.837967 0.990589
Si Si8 0.150562 0.835253 0.949519
O O1 0.693836 0.500000 0.262814
O O2 0.878364 0.703281 0.313507
O O3 0.869767 0.689730 0.523610
O O4 0.572042 0.749452 0.177301
O O5 0.837066 0.500000 0.128616
O O6 0.077702 0.289654 0.301624
O O7 0.727728 0.239777 0.999247
O O8 0.311048 0.500000 0.526374
O O9 0.358220 0.684150 0.403155
O O10 0.409900 0.766137 0.641760
O O11 0.378094 0.500000 0.256157
O O12 0.615849 0.289363 0.470368
O O13 0.280054 0.234517 0.143983
O O14 0.854671 0.500000 0.672762
O O15 0.953774 0.239534 0.793278
O O16 0.418420 0.791967 0.858111
O O17 0.547812 0.000000 0.834145
O O18 0.231463 0.815782 0.892755
O O19 0.491776 0.000000 0.052242
O O20 0.126139 0.000000 0.960403
#
# Coordination Sequence:
#
# PCOD8052488 Si02
#       8
#     2   2   2   2   2   2   2   2
#     4   9  17  32  56  84 112 143 183 231 279 326
#     4   9  19  36  57  84 114 145 185 233 280 326
#     4  10  22  39  61  84 110 149 192 232 275 329
#     4  10  22  42  61  80 111 150 192 234 276 327
#     4  10  21  36  57  84 112 146 187 232 281 331
#     4  10  21  37  57  84 117 151 185 226 279 336
#     4   9  19  35  54  81 117 151 181 222 280 337
#     4  11  23  37  57  85 115 149 187 230 282 336
#
# _framework density 19.076032999999999
#
# number of rings (size 3 to 8) (size 9 to 14) (size 15 to 20)
#    0.000    2.250    1.250    0.750    1.750    4.000 
#    0.000    5.000    0.000    0.000    0.000    0.000 
#    0.000    0.000    0.000    0.000    0.000    0.000 
#
# Total GULP energy -198409.936930 kJ/mol
# GULP energy per Si atom -12400.621058 kJ/mol
# Density = 1.903261 g / cm^3
# Si number density = 19.076033 Si / 1000 Ang^3
#
#
#
# Elastic Constant Matrix: (Units=GPa)
#
#
# Indices 1 2 3 4 5 6 
#
# 1 70.3479 41.5089 51.7843 0.0000 1.7767 0.0000
# 2 41.5089 98.6630 82.4519 0.0000 8.1181 0.0000
# 3 51.7843 82.4519 135.2131 0.0000 13.7634 0.0000
# 4 0.0000 0.0000 0.0000 47.5016 0.0000 8.0676
# 5 1.7767 8.1181 13.7634 0.0000 18.4667 0.0000
# 6 0.0000 0.0000 0.0000 8.0676 0.0000 28.2998
#
#
#
# Elastic Compliance Matrix: (Units=1/GPa)
#
#
# Indices 1 2 3 4 5 6 
#
# 1 0.020927 -0.004272 -0.005839 0.000000 0.004216 0.000000
# 2 -0.004272 0.021542 -0.011446 0.000000 -0.000528 0.000000
# 3 -0.005839 -0.011446 0.017359 0.000000 -0.007344 0.000000
# 4 0.000000 0.000000 0.000000 0.022123 0.000000 -0.006307
# 5 0.004216 -0.000528 -0.007344 0.000000 0.059452 0.000000
# 6 0.000000 0.000000 0.000000 -0.006307 0.000000 0.037134
#
#
# Mechanical properties :
#
#
# Convention : Reuss Voigt Hill
#
# Bulk Modulus (GPa) = 59.82870 72.85712 66.34291
# Shear Modulus (GPa) = 22.00485 27.41888 24.71187
#
# Velocity S-wave (km/s) = 3.40006 3.79535 3.60313
# Velocity P-wave (km/s) = 6.84436 7.58170 7.22244
#
# Compressibility (1/GPa) = 0.01671439
#
# Stress axis : x y z
#
# Youngs Moduli (GPa) = 47.78423 46.42187 57.60542
#
# Poissons Ratio (x) = 0.19829 0.33637
# Poissons Ratio (y) = 0.20411 0.65936
# Poissons Ratio (z) = 0.27902 0.53135
#
# Static dielectric constant tensor:
#      x y z
#    x 3.644570 0.000000 -0.000980 
#    y 0.000000 3.511580 0.000000 
#    z -0.000980 0.000000 3.286480 
# 
# 
# High freq. dielectric constant tensor:
#      x y z
#    x 1.744920 0.000000 -0.000540 
#    y 0.000000 1.740420 0.000000 
#    z -0.000540 0.000000 1.733110 
# 
# From -- ./inp_files/5064.got.cif
#   From: 2010.03.12/outbox.cif.g09.slc.cpg/sg6_3_cif.got.tgz:5064.got - 2010.03.30 10:24:59.
