data_PCOD8052205
_publ_section_title
;
Structure prediction by ZEFSAII (Michael W. Deem and Ramdas Pophale) SiO2 
 PCOD8052205
Probable space group: C 2
;
_chemical_formula_sum "Si O2"
_cell_formula_units_Z 18
_cell_length_a 4.951671
_cell_length_b 27.974726
_cell_length_c 5.213117
_cell_angle_alpha 90.000000
_cell_angle_beta 87.506161
_cell_angle_gamma 90.000000
_cell_volume 721.445589
_symmetry_space_group_name_H-M "C 2"
_symmetry_group_IT_number 5
_symmetry_cell_setting 'monoclinic'
loop_
_space_group_symop_operation_xyz
x,y,z
-x,y,-z
1/2+x,1/2+y,z
1/2-x,1/2+y,-z
loop_
_atom_site_type_symbol
_atom_site_label
_atom_site_fract_x
_atom_site_fract_y
_atom_site_fract_z
Si Si1 0.500000 0.914551 0.500000
Si Si2 0.500000 0.102117 0.000000
Si Si3 0.729456 0.184969 0.665303
Si Si4 0.317546 0.339253 0.758710
Si Si5 0.500000 0.479056 0.500000
Si Si6 0.500000 0.757296 0.000000
Si Si7 0.000000 0.038859 0.000000
O O1 0.596361 0.881466 0.734987
O O2 0.247448 0.947037 0.593488
O O3 0.380407 0.134611 0.229873
O O4 0.743739 0.070204 0.099617
O O5 0.500000 0.208728 0.500000
O O6 0.775729 0.223327 0.885307
O O7 0.000000 0.173901 0.500000
O O8 0.500000 0.336472 0.500000
O O9 0.151185 0.289987 0.785472
O O10 0.500000 0.349189 0.000000
O O11 0.590875 0.509146 0.247391
#
# Coordination Sequence:
#
# PCOD8052205 Si02
#       7
#     2   2   4   4   2   2   2
#     4  12  28  58  82 123 166 219 270 344 414 494
#     4  12  28  54  79 121 160 217 269 338 414 496
#     4  12  29  50  80 115 167 219 279 336 402 486
#     4  12  30  51  83 118 167 223 284 337 402 489
#     4  12  30  52  88 123 164 207 272 344 424 498
#     4  12  31  46  75 124 166 226 279 340 389 480
#     4  12  29  52  88 125 162 209 270 344 419 506
#
# _framework density 24.949909000000002
#
# number of rings (size 3 to 8) (size 9 to 14) (size 15 to 20)
#    0.000    0.000    1.111    6.000   15.556    1.778 
#    0.000    0.000    0.000    0.000    0.000    0.000 
#    0.000    0.000    0.000    0.000    0.000    0.000 
#
# Total GULP energy -111650.917276 kJ/mol
# GULP energy per Si atom -12405.657475 kJ/mol
# Density = 2.489312 g / cm^3
# Si number density = 24.949909 Si / 1000 Ang^3
#
#
#
# Elastic Constant Matrix: (Units=GPa)
#
#
# Indices 1 2 3 4 5 6 
#
# 1 200.5003 80.5178 63.8883 0.0000 7.8834 0.0000
# 2 80.5178 155.9708 61.6507 0.0000 3.9533 0.0000
# 3 63.8883 61.6507 153.9746 0.0000 5.7083 0.0000
# 4 0.0000 0.0000 0.0000 -49.7520 0.0000 -56.7830
# 5 7.8834 3.9533 5.7083 0.0000 56.4647 0.0000
# 6 0.0000 0.0000 0.0000 -56.7830 0.0000 130.8697
#
#
#
# Elastic Compliance Matrix: (Units=1/GPa)
#
#
# Indices 1 2 3 4 5 6 
#
# 1 0.006641 -0.002772 -0.001625 0.000000 -0.000569 0.000000
# 2 -0.002772 0.008777 -0.002365 0.000000 0.000012 0.000000
# 3 -0.001625 -0.002365 0.008131 0.000000 -0.000430 0.000000
# 4 0.000000 0.000000 0.000000 -0.013443 0.000000 -0.005833
# 5 -0.000569 0.000012 -0.000430 0.000000 0.017832 0.000000
# 6 0.000000 0.000000 0.000000 -0.005833 0.000000 0.005110
#
#
# Mechanical properties :
#
#
# Convention : Reuss Voigt Hill
#
# Bulk Modulus (GPa) = 99.72873 102.50657 101.11765
# Shear Modulus (GPa) = 100.17636 47.80909 73.99273
#
# Velocity S-wave (km/s) = 6.34336 4.38219 5.45169
# Velocity P-wave (km/s) = 9.68035 8.17184 8.95791
#
# Compressibility (1/GPa) = 0.01002720
#
# Stress axis : x y z
#
# Youngs Moduli (GPa) = 150.59003 113.93987 122.98122
#
# Poissons Ratio (x) = 0.31579 0.19979
# Poissons Ratio (y) = 0.41737 0.29079
# Poissons Ratio (z) = 0.24464 0.26941
#
# Static dielectric constant tensor:
#      x y z
#    x 4.996840 0.000000 0.504740 
#    y 0.000000 4.727690 0.000000 
#    z 0.504740 0.000000 5.407570 
# 
# 
# High freq. dielectric constant tensor:
#      x y z
#    x 2.022400 0.000000 -0.000190 
#    y 0.000000 2.004730 0.000000 
#    z -0.000190 0.000000 1.990970 
# 
# From -- ./inp_files/866.got.cif
#   From: 2010.03.12/outbox.cif.g09.slc.cpg/sg5_1_cif.got.tgz:866.got - 2010.03.31 09:47:26.
