data_PCOD8052622
_publ_section_title
;
Structure prediction by ZEFSAII (Michael W. Deem and Ramdas Pophale) SiO2 
 PCOD8052622
Probable space group: P C
;
_chemical_formula_sum "Si O2"
_cell_formula_units_Z 12
_cell_length_a 7.579724
_cell_length_b 13.919731
_cell_length_c 5.295040
_cell_angle_alpha 90.000000
_cell_angle_beta 123.400426
_cell_angle_gamma 90.000000
_cell_volume 466.400160
_symmetry_space_group_name_H-M "P C"
_symmetry_group_IT_number 7
_symmetry_cell_setting 'monoclinic'
loop_
_space_group_symop_operation_xyz
x,y,z
x,-y,1/2+z
loop_
_atom_site_type_symbol
_atom_site_label
_atom_site_fract_x
_atom_site_fract_y
_atom_site_fract_z
Si Si1 0.691100 0.941333 0.965090
Si Si2 0.616070 0.264657 0.500336
Si Si3 0.224873 0.259852 0.483422
Si Si4 0.555164 0.465058 0.276108
Si Si5 0.028152 0.456133 0.180509
Si Si6 0.049394 0.186981 0.857004
O O1 0.560730 0.841165 0.841322
O O2 0.941145 0.914621 0.192672
O O3 0.630086 0.000368 0.668901
O O4 0.473007 0.284000 0.637226
O O5 0.574333 0.349938 0.267513
O O6 0.864391 0.266563 0.763019
O O7 0.197819 0.219680 0.743269
O O8 0.072822 0.349874 0.317553
O O9 0.171795 0.181194 0.219859
O O10 0.428759 0.494280 0.433670
O O11 0.776066 0.524171 0.463423
O O12 0.123330 0.471988 0.972925
#
# Coordination Sequence:
#
# PCOD8052622 Si02
#       6
#     2   2   2   2   2   2
#     4  10  23  46  71  99 136 178 226 286 352 407
#     4  10  26  42  73  99 142 184 228 285 346 403
#     4  12  23  43  67 105 130 188 232 274 343 411
#     4  10  20  36  59  93 131 181 217 267 331 390
#     4  10  20  35  58  88 137 173 218 273 318 389
#     4  10  24  42  70  92 140 170 225 291 338 402
#
# _framework density 25.728978999999999
#
# number of rings (size 3 to 8) (size 9 to 14) (size 15 to 20)
#    1.000    0.667    0.000    6.000    0.000    6.667 
#    0.000    5.000    0.000    0.000    0.000    0.000 
#    0.000    0.000    0.000    0.000    0.000    0.000 
#
# Total GULP energy -148660.584610 kJ/mol
# GULP energy per Si atom -12388.382051 kJ/mol
# Density = 2.567042 g / cm^3
# Si number density = 25.728979 Si / 1000 Ang^3
#
#
#
# Elastic Constant Matrix: (Units=GPa)
#
#
# Indices 1 2 3 4 5 6 
#
# 1 114.0876 14.0626 43.7316 0.0000 -28.7292 0.0000
# 2 14.0626 120.0698 19.5123 0.0000 -19.1281 0.0000
# 3 43.7316 19.5123 116.6719 0.0000 -37.9187 0.0000
# 4 0.0000 0.0000 0.0000 20.3381 0.0000 -8.5636
# 5 -28.7292 -19.1281 -37.9187 0.0000 44.9188 0.0000
# 6 0.0000 0.0000 0.0000 -8.5636 0.0000 32.8335
#
#
#
# Elastic Compliance Matrix: (Units=1/GPa)
#
#
# Indices 1 2 3 4 5 6 
#
# 1 0.010962 -0.000103 -0.002518 0.000000 0.004842 0.000000
# 2 -0.000103 0.008946 -0.000332 0.000000 0.003463 0.000000
# 3 -0.002518 -0.000332 0.012404 0.000000 0.008719 0.000000
# 4 0.000000 0.000000 0.000000 0.055235 0.000000 0.014406
# 5 0.004842 0.003463 0.008719 0.000000 0.034194 0.000000
# 6 0.000000 0.000000 0.000000 0.014406 0.000000 0.034214
#
#
# Mechanical properties :
#
#
# Convention : Reuss Voigt Hill
#
# Bulk Modulus (GPa) = 37.87001 56.16025 47.01513
# Shear Modulus (GPa) = 29.29717 37.85293 33.57505
#
# Velocity S-wave (km/s) = 3.37810 3.83981 3.61633
# Velocity P-wave (km/s) = 5.47414 6.44467 5.97913
#
# Compressibility (1/GPa) = 0.02640612
#
# Stress axis : x y z
#
# Youngs Moduli (GPa) = 91.22110 111.77843 80.61793
#
# Poissons Ratio (x) = 0.01156 0.20301
# Poissons Ratio (y) = 0.00943 0.02675
# Poissons Ratio (z) = 0.22971 0.03709
#
# Static dielectric constant tensor:
#      x y z
#    x 4.994840 0.000000 -0.512010 
#    y 0.000000 4.370590 0.000000 
#    z -0.512010 0.000000 5.043330 
# 
# 
# High freq. dielectric constant tensor:
#      x y z
#    x 2.044650 0.000000 -0.002370 
#    y 0.000000 2.007690 0.000000 
#    z -0.002370 0.000000 2.030330 
# 
# From -- ./inp_files/769.got.cif
#   From: 2010.03.12/outbox.cif.g09.slc.cpg/sg7_cif.got.tgz:769.got - 2010.03.30 08:40:41.
