data_PCOD8052218
_publ_section_title
;
Structure prediction by ZEFSAII (Michael W. Deem and Ramdas Pophale) SiO2 
 PCOD8052218
Probable space group: C 2
;
_chemical_formula_sum "Si O2"
_cell_formula_units_Z 16
_cell_length_a 12.000000
_cell_length_b 15.000000
_cell_length_c 18.000000
_cell_angle_alpha 90.000000
_cell_angle_beta 30.000000
_cell_angle_gamma 90.000000
_cell_volume 1620.000000
_symmetry_space_group_name_H-M "C 2"
_symmetry_group_IT_number 5
_symmetry_cell_setting 'monoclinic'
loop_
_space_group_symop_operation_xyz
x,y,z
-x,y,-z
1/2+x,1/2+y,z
1/2-x,1/2+y,-z
loop_
_atom_site_type_symbol
_atom_site_label
_atom_site_fract_x
_atom_site_fract_y
_atom_site_fract_z
Si Si1 0.965286 0.108970 0.789674
Si Si2 0.245146 0.648591 0.166407
Si Si3 0.534309 0.159137 0.125715
Si Si4 0.306425 0.011378 0.169337
Si Si5 0.831716 0.282167 0.362324
Si Si6 0.698716 0.323577 0.825514
Si Si7 0.846850 0.822241 0.691443
Si Si8 0.309693 0.005120 0.676019
O O1 0.878162 0.072853 0.762090
O O2 0.165411 0.176817 0.655723
O O3 0.072289 0.031238 0.777321
O O4 0.767626 0.160490 0.946966
O O5 0.088140 0.658647 0.183192
O O6 0.260459 0.745300 0.196050
O O7 0.139302 0.575654 0.285625
O O8 0.500000 0.619851 0.000000
O O9 0.404115 0.066533 0.183157
O O10 0.384181 0.242802 0.181588
O O11 0.186286 0.919931 0.257271
O O12 0.500000 0.988712 0.000000
O O13 0.613677 0.304777 0.536742
O O14 0.786451 0.328577 0.309265
O O15 0.069054 0.304886 0.264271
O O16 0.761649 0.407817 0.737966
O O17 0.500000 0.343587 0.000000
O O18 0.500000 0.003320 0.500000
#
# Coordination Sequence:
#
# PCOD8052218 Si02
#       8
#     4   4   4   4   4   4   4   4
#     4  11  21  45  68  95 140 181 231 280 354 414
#     4  12  24  44  71 107 142 181 241 295 349 422
#     4  11  23  45  71 104 137 177 234 299 345 412
#     4  10  23  41  70 101 135 179 228 286 347 416
#     4  11  23  46  68  93 144 186 232 276 355 421
#     4  12  26  45  75 107 141 190 238 295 351 426
#     4  11  25  42  67 103 139 187 228 284 351 421
#     4  12  28  45  70 103 143 190 236 293 358 419
#
# _framework density 9.8765429999999999
#
# number of rings (size 3 to 8) (size 9 to 14) (size 15 to 20)
#    0.000    0.750    5.000    1.875    5.250    1.000 
#    0.000    0.000    2.750    0.000    0.000    0.000 
#    0.000    0.000    0.000    0.000    0.000    0.000 
#
# Total GULP energy -198272.799504 kJ/mol
# GULP energy per Si atom -12392.049969 kJ/mol
# Density = 0.985406 g / cm^3
# Si number density = 9.876543 Si / 1000 Ang^3
#
#
#
# Elastic Constant Matrix: (Units=GPa)
#
#
# Indices 1 2 3 4 5 6 
#
# 1 157.4284 37.2506 51.1626 0.0057 -7.4172 0.0124
# 2 37.2506 126.9835 59.2695 -0.0109 8.7391 -0.0020
# 3 51.1626 59.2695 120.4566 0.0209 -2.2859 0.0309
# 4 0.0057 -0.0109 0.0209 39.6848 -0.0080 -0.3345
# 5 -7.4172 8.7391 -2.2859 -0.0080 42.8056 -0.0159
# 6 0.0124 -0.0020 0.0309 -0.3345 -0.0159 37.8718
#
#
#
# Elastic Compliance Matrix: (Units=1/GPa)
#
#
# Indices 1 2 3 4 5 6 
#
# 1 0.007530 -0.001069 -0.002646 0.000000 0.001382 0.000000
# 2 -0.001069 0.010618 -0.004820 0.000005 -0.002610 0.000004
# 3 -0.002646 -0.004820 0.011819 -0.000007 0.001157 -0.000009
# 4 0.000000 0.000005 -0.000007 0.025200 0.000003 0.000223
# 5 0.001382 -0.002610 0.001157 0.000003 0.024196 0.000009
# 6 0.000000 0.000004 -0.000009 0.000223 0.000009 0.026407
#
#
# Mechanical properties :
#
#
# Convention : Reuss Voigt Hill
#
# Bulk Modulus (GPa) = 77.53640 77.80376 77.67008
# Shear Modulus (GPa) = 39.32689 41.21814 40.27252
#
# Velocity S-wave (km/s) = 4.46682 4.57296 4.52020
# Velocity P-wave (km/s) = 8.12042 8.20709 8.16387
#
# Compressibility (1/GPa) = 0.01289717
#
# Stress axis : x y z
#
# Youngs Moduli (GPa) = 132.80041 94.17971 84.60773
#
# Poissons Ratio (x) = 0.10067 0.22388
# Poissons Ratio (y) = 0.14196 0.40781
# Poissons Ratio (z) = 0.35141 0.45395
#
# Static dielectric constant tensor:
#      x y z
#    x 4.094310 0.000000 -0.026910 
#    y 0.000000 3.766210 0.000040 
#    z -0.026910 0.000040 3.817740 
# 
# 
# High freq. dielectric constant tensor:
#      x y z
#    x 1.804650 0.000000 -0.007440 
#    y 0.000000 1.789370 0.000000 
#    z -0.007440 0.000000 1.780920 
# 
# From -- ./inp_files/60682.got.cif
#   From: 2010.06.25/outbox.ucp.g09.slc.cvg/sg5_31_cif.got.tgz:60682.got - 2010.06.28 13:24:32.
