data_PCOD8052318
_publ_section_title
;
Structure prediction by ZEFSAII (Michael W. Deem and Ramdas Pophale) SiO2 
 PCOD8052318
Probable space group: P M
;
_chemical_formula_sum "Si O2"
_cell_formula_units_Z 12
_cell_length_a 9.161010
_cell_length_b 8.904863
_cell_length_c 9.146079
_cell_angle_alpha 90.000000
_cell_angle_beta 63.356454
_cell_angle_gamma 90.000000
_cell_volume 666.887445
_symmetry_space_group_name_H-M "P M"
_symmetry_group_IT_number 6
_symmetry_cell_setting 'monoclinic'
loop_
_space_group_symop_operation_xyz
x,y,z
x,-y,z
loop_
_atom_site_type_symbol
_atom_site_label
_atom_site_fract_x
_atom_site_fract_y
_atom_site_fract_z
Si Si1 0.962890 0.322185 0.830840
Si Si2 0.629163 0.320949 0.469895
Si Si3 0.917819 0.821013 0.162894
Si Si4 0.282295 0.675306 0.509969
Si Si5 0.122552 0.834558 0.333587
Si Si6 0.788274 0.830940 0.660104
O O1 0.945872 0.500000 0.859934
O O2 0.813922 0.262979 0.797504
O O3 0.135159 0.275345 0.681770
O O4 0.955680 0.237173 0.986109
O O5 0.643952 0.500000 0.470852
O O6 0.755777 0.258371 0.294921
O O7 0.451178 0.264100 0.499413
O O8 0.655668 0.253632 0.619671
O O9 0.074347 0.775513 0.193477
O O10 0.891408 0.000000 0.178106
O O11 0.289490 0.500000 0.491607
O O12 0.255656 0.733745 0.356320
O O13 0.955878 0.836873 0.498065
O O14 0.199030 0.000000 0.289139
O O15 0.727961 0.000000 0.723583
#
# Coordination Sequence:
#
# PCOD8052318 Si02
#       6
#     2   2   2   2   2   2
#     4  10  19  33  53  76 100 131 166 204 248 295
#     4  10  19  33  52  75 101 132 167 205 246 293
#     4  10  20  34  51  75 102 130 166 208 248 293
#     4   9  19  33  51  75 101 128 164 204 245 293
#     4   8  16  30  49  70  95 128 166 202 241 289
#     4   9  17  31  50  73  99 131 167 203 242 293
#
# _framework density 17.994040999999999
#
# number of rings (size 3 to 8) (size 9 to 14) (size 15 to 20)
#    0.000    2.667    0.000    3.000    0.000    6.667 
#    0.000    1.667    0.000    6.000    0.000    0.000 
#    0.000    0.000    0.000    0.000    0.000    0.000 
#
# Total GULP energy -148757.858463 kJ/mol
# GULP energy per Si atom -12396.488205 kJ/mol
# Density = 1.795309 g / cm^3
# Si number density = 17.994041 Si / 1000 Ang^3
#
#
#
# Elastic Constant Matrix: (Units=GPa)
#
#
# Indices 1 2 3 4 5 6 
#
# 1 152.5242 53.4095 58.8876 0.0000 31.6640 0.0000
# 2 53.4095 68.0246 31.4577 0.0000 10.8930 0.0000
# 3 58.8876 31.4577 79.8213 0.0000 31.4782 0.0000
# 4 0.0000 0.0000 0.0000 26.4967 0.0000 12.5160
# 5 31.6640 10.8930 31.4782 0.0000 29.9877 0.0000
# 6 0.0000 0.0000 0.0000 12.5160 0.0000 27.7599
#
#
#
# Elastic Compliance Matrix: (Units=1/GPa)
#
#
# Indices 1 2 3 4 5 6 
#
# 1 0.011391 -0.006348 -0.003529 0.000000 -0.006018 0.000000
# 2 -0.006348 0.021557 -0.005746 0.000000 0.004905 0.000000
# 3 -0.003529 -0.005746 0.025772 0.000000 -0.021240 0.000000
# 4 0.000000 0.000000 0.000000 0.047953 0.000000 -0.021620
# 5 -0.006018 0.004905 -0.021240 0.000000 0.060215 0.000000
# 6 0.000000 0.000000 0.000000 -0.021620 0.000000 0.045771
#
#
# Mechanical properties :
#
#
# Convention : Reuss Voigt Hill
#
# Bulk Modulus (GPa) = 36.39905 65.31996 50.85951
# Shear Modulus (GPa) = 19.75794 27.28988 23.52391
#
# Velocity S-wave (km/s) = 3.31724 3.89859 3.61961
# Velocity P-wave (km/s) = 5.91138 7.52629 6.76718
#
# Compressibility (1/GPa) = 0.02747324
#
# Stress axis : x y z
#
# Youngs Moduli (GPa) = 87.78952 46.38907 38.80194
#
# Poissons Ratio (x) = 0.29448 0.13692
# Poissons Ratio (y) = 0.55730 0.22297
# Poissons Ratio (z) = 0.30978 0.26657
#
# Static dielectric constant tensor:
#      x y z
#    x 3.679390 0.000000 0.324420 
#    y 0.000000 3.449700 0.000000 
#    z 0.324420 0.000000 3.213830 
# 
# 
# High freq. dielectric constant tensor:
#      x y z
#    x 1.694520 0.000000 0.031010 
#    y 0.000000 1.706500 0.000000 
#    z 0.031010 0.000000 1.674280 
# 
# From -- ./inp_files/2409.got.cif
#   From: 2010.03.12/outbox.cif.g09.slc.cpg/sg6_2_cif.got.tgz:2409.got - 2010.03.30 10:24:59.
