data_PCOD8052382
_publ_section_title
;
Structure prediction by ZEFSAII (Michael W. Deem and Ramdas Pophale) SiO2 
 PCOD8052382
Probable space group: P M
;
_chemical_formula_sum "Si O2"
_cell_formula_units_Z 11
_cell_length_a 5.126837
_cell_length_b 11.470699
_cell_length_c 8.370468
_cell_angle_alpha 90.000000
_cell_angle_beta 87.997202
_cell_angle_gamma 90.000000
_cell_volume 491.953157
_symmetry_space_group_name_H-M "P M"
_symmetry_group_IT_number 6
_symmetry_cell_setting 'monoclinic'
loop_
_space_group_symop_operation_xyz
x,y,z
x,-y,z
loop_
_atom_site_type_symbol
_atom_site_label
_atom_site_fract_x
_atom_site_fract_y
_atom_site_fract_z
Si Si1 0.729220 0.500000 0.954720
Si Si2 0.645321 0.251863 0.845933
Si Si3 0.668116 0.865188 0.159677
Si Si4 0.160857 0.243464 0.298308
Si Si5 0.077996 0.500000 0.635323
Si Si6 0.178093 0.253873 0.650938
Si Si7 0.017027 0.500000 0.285708
O O1 0.575582 0.378095 0.928439
O O2 0.945064 0.500000 0.811798
O O3 0.822283 0.500000 0.138026
O O4 0.385075 0.198970 0.768974
O O5 0.878414 0.255220 0.713409
O O6 0.736742 0.158161 0.974032
O O7 0.371249 0.822942 0.187451
O O8 0.865710 0.790908 0.261813
O O9 0.698115 0.000000 0.201177
O O10 0.202327 0.195826 0.477343
O O11 0.193021 0.382776 0.270155
O O12 0.898327 0.500000 0.472557
O O13 0.265803 0.388421 0.625743
#
# Coordination Sequence:
#
# PCOD8052382 Si02
#       7
#     1   2   2   2   1   2   1
#     4  10  19  36  64  98 135 173 212 268 341 407
#     4  11  22  39  65  94 130 168 216 266 333 394
#     4  12  26  45  65  94 133 177 227 279 324 387
#     4  11  24  44  69  99 134 172 219 276 334 401
#     4   8  19  33  58  92 139 164 202 268 331 396
#     4  10  21  40  63  93 129 169 211 267 330 398
#     4  10  20  39  66 106 132 173 220 270 342 411
#
# _framework density 22.359853000000001
#
# number of rings (size 3 to 8) (size 9 to 14) (size 15 to 20)
#    0.000    1.455    1.818    3.273    2.545    1.455 
#    0.000   10.909    0.000    0.000    0.000    0.000 
#    0.000    0.000    0.000    0.000    0.000    0.000 
#
# Total GULP energy -136286.776502 kJ/mol
# GULP energy per Si atom -12389.706955 kJ/mol
# Density = 2.230896 g / cm^3
# Si number density = 22.359853 Si / 1000 Ang^3
#
#
#
# Elastic Constant Matrix: (Units=GPa)
#
#
# Indices 1 2 3 4 5 6 
#
# 1 85.7749 17.7586 25.6241 0.0000 15.2038 0.0000
# 2 17.7586 93.7367 20.4307 0.0000 -4.4437 0.0000
# 3 25.6241 20.4307 133.1065 0.0000 27.2384 0.0000
# 4 0.0000 0.0000 0.0000 7.5543 0.0000 -6.0402
# 5 15.2038 -4.4437 27.2384 0.0000 40.1048 0.0000
# 6 0.0000 0.0000 0.0000 -6.0402 0.0000 14.6996
#
#
#
# Elastic Compliance Matrix: (Units=1/GPa)
#
#
# Indices 1 2 3 4 5 6 
#
# 1 0.013340 -0.002461 -0.001277 0.000000 -0.004462 0.000000
# 2 -0.002461 0.011760 -0.002078 0.000000 0.003647 0.000000
# 3 -0.001277 -0.002078 0.009321 0.000000 -0.006077 0.000000
# 4 0.000000 0.000000 0.000000 0.197147 0.000000 0.081009
# 5 -0.004462 0.003647 -0.006077 0.000000 0.031158 0.000000
# 6 0.000000 0.000000 0.000000 0.081009 0.000000 0.101316
#
#
# Mechanical properties :
#
#
# Convention : Reuss Voigt Hill
#
# Bulk Modulus (GPa) = 43.87784 48.91611 46.39698
# Shear Modulus (GPa) = 13.04564 29.05873 21.05218
#
# Velocity S-wave (km/s) = 2.41807 3.60890 3.07174
# Velocity P-wave (km/s) = 5.24044 6.26816 5.77720
#
# Compressibility (1/GPa) = 0.02279055
#
# Stress axis : x y z
#
# Youngs Moduli (GPa) = 74.96032 85.03349 107.28358
#
# Poissons Ratio (x) = 0.20923 0.13703
# Poissons Ratio (y) = 0.18444 0.22290
# Poissons Ratio (z) = 0.09575 0.17667
#
# Static dielectric constant tensor:
#      x y z
#    x 3.549190 0.000000 0.139930 
#    y 0.000000 3.979830 0.000000 
#    z 0.139930 0.000000 4.324100 
# 
# 
# High freq. dielectric constant tensor:
#      x y z
#    x 1.854770 0.000000 0.009750 
#    y 0.000000 1.857600 0.000000 
#    z 0.009750 0.000000 1.905440 
# 
# From -- ./inp_files/873.got.cif
#   From: 2010.03.12/outbox.cif.g09.slc.cpg/sg6_1_cif.got.tgz:873.got - 2010.03.30 10:24:59.
