data_PCOD8052334
_publ_section_title
;
Structure prediction by ZEFSAII (Michael W. Deem and Ramdas Pophale) SiO2 
 PCOD8052334
Probable space group: P M
;
_chemical_formula_sum "Si O2"
_cell_formula_units_Z 16
_cell_length_a 12.118455
_cell_length_b 9.011331
_cell_length_c 9.861292
_cell_angle_alpha 90.000000
_cell_angle_beta 125.287619
_cell_angle_gamma 90.000000
_cell_volume 879.022170
_symmetry_space_group_name_H-M "P M"
_symmetry_group_IT_number 6
_symmetry_cell_setting 'monoclinic'
loop_
_space_group_symop_operation_xyz
x,y,z
x,-y,z
loop_
_atom_site_type_symbol
_atom_site_label
_atom_site_fract_x
_atom_site_fract_y
_atom_site_fract_z
Si Si1 0.760640 0.828734 0.459150
Si Si2 0.681880 0.327813 0.658446
Si Si3 0.707735 0.171085 0.117707
Si Si4 0.498705 0.326919 0.779041
Si Si5 0.974027 0.669877 0.957849
Si Si6 0.216159 0.176145 0.620829
Si Si7 0.040673 0.327595 0.705648
Si Si8 0.006465 0.174553 0.247398
O O1 0.661738 0.764886 0.505730
O O2 0.684932 0.810236 0.262317
O O3 0.901216 0.741419 0.554092
O O4 0.793957 0.000000 0.511997
O O5 0.694907 0.500000 0.627653
O O6 0.558905 0.297146 0.672383
O O7 0.820142 0.274555 0.828252
O O8 0.857752 0.226907 0.186592
O O9 0.686654 0.000000 0.058691
O O10 0.601685 0.275336 0.967606
O O11 0.468134 0.500000 0.779439
O O12 0.364480 0.231645 0.692090
O O13 0.974641 0.500000 0.004101
O O14 0.057290 0.694433 0.878818
O O15 0.044070 0.762770 0.126494
O O16 0.167569 0.245798 0.728081
O O17 0.115312 0.234129 0.432335
O O18 0.216505 0.000000 0.634517
O O19 0.040743 0.500000 0.666545
O O20 0.015072 0.000000 0.247208
#
# Coordination Sequence:
#
# PCOD8052334 Si02
#       8
#     2   2   2   2   2   2   2   2
#     4  10  19  33  56  85 114 144 186 234 280 328
#     4   9  19  35  53  80 115 146 183 229 280 335
#     4  10  20  36  56  84 115 145 188 235 277 329
#     4  11  23  39  58  83 114 151 190 229 282 339
#     4   9  18  33  54  83 113 141 181 231 277 326
#     4  11  23  40  58  82 115 150 189 232 279 337
#     4  10  20  35  55  82 115 149 186 228 280 334
#     4  10  20  35  56  83 113 144 187 232 275 328
#
# _framework density 18.202043
#
# number of rings (size 3 to 8) (size 9 to 14) (size 15 to 20)
#    0.000    2.000    2.500    2.250    0.000    5.500 
#    0.000    1.250    0.000    3.000    0.000    0.000 
#    0.000    0.000    0.000    0.000    0.000    0.000 
#
# Total GULP energy -198443.052783 kJ/mol
# GULP energy per Si atom -12402.690799 kJ/mol
# Density = 1.816061 g / cm^3
# Si number density = 18.202043 Si / 1000 Ang^3
#
#
#
# Elastic Constant Matrix: (Units=GPa)
#
#
# Indices 1 2 3 4 5 6 
#
# 1 107.5697 49.6269 47.3346 0.0000 -6.1033 0.0000
# 2 49.6269 81.0599 44.8994 0.0000 -6.6340 0.0000
# 3 47.3346 44.8994 92.6971 0.0000 -8.4018 0.0000
# 4 0.0000 0.0000 0.0000 24.9931 0.0000 -8.1904
# 5 -6.1033 -6.6340 -8.4018 0.0000 27.2963 0.0000
# 6 0.0000 0.0000 0.0000 -8.1904 0.0000 28.9048
#
#
#
# Elastic Compliance Matrix: (Units=1/GPa)
#
#
# Indices 1 2 3 4 5 6 
#
# 1 0.014013 -0.006293 -0.004076 0.000000 0.000349 0.000000
# 2 -0.006293 0.019757 -0.006222 0.000000 0.001479 0.000000
# 3 -0.004076 -0.006222 0.016113 0.000000 0.002536 0.000000
# 4 0.000000 0.000000 0.000000 0.044107 0.000000 0.012498
# 5 0.000349 0.001479 0.002536 0.000000 0.037853 0.000000
# 6 0.000000 0.000000 0.000000 0.012498 0.000000 0.038138
#
#
# Mechanical properties :
#
#
# Convention : Reuss Voigt Hill
#
# Bulk Modulus (GPa) = 59.87707 62.78317 61.33012
# Shear Modulus (GPa) = 23.95464 25.53657 24.74561
#
# Velocity S-wave (km/s) = 3.63166 3.74966 3.69113
# Velocity P-wave (km/s) = 7.11003 7.30163 7.20647
#
# Compressibility (1/GPa) = 0.01670088
#
# Stress axis : x y z
#
# Youngs Moduli (GPa) = 71.36352 50.61584 62.06302
#
# Poissons Ratio (x) = 0.31852 0.25295
# Poissons Ratio (y) = 0.44908 0.38616
# Poissons Ratio (z) = 0.29086 0.31493
#
# Static dielectric constant tensor:
#      x y z
#    x 3.359720 0.000000 -0.201200 
#    y 0.000000 3.379010 0.000000 
#    z -0.201200 0.000000 3.339830 
# 
# 
# High freq. dielectric constant tensor:
#      x y z
#    x 1.695520 0.000000 -0.021740 
#    y 0.000000 1.711870 0.000000 
#    z -0.021740 0.000000 1.697220 
# 
# From -- ./inp_files/3510.got.cif
#   From: 2010.03.12/outbox.cif.g09.slc.cpg/sg6_2_cif.got.tgz:3510.got - 2010.03.30 10:24:59.
