data_PCOD8052780
_publ_section_title
;
Structure prediction by ZEFSAII (Michael W. Deem and Ramdas Pophale) SiO2 
 PCOD8052780
Probable space group: C M
;
_chemical_formula_sum "Si O2"
_cell_formula_units_Z 28
_cell_length_a 12.056093
_cell_length_b 27.903765
_cell_length_c 4.937360
_cell_angle_alpha 90.000000
_cell_angle_beta 75.653207
_cell_angle_gamma 90.000000
_cell_volume 1609.179365
_symmetry_space_group_name_H-M "C M"
_symmetry_group_IT_number 8
_symmetry_cell_setting 'monoclinic'
loop_
_space_group_symop_operation_xyz
x,y,z
x,-y,z
1/2+x,1/2+y,z
1/2+x,1/2-y,z
loop_
_atom_site_type_symbol
_atom_site_label
_atom_site_fract_x
_atom_site_fract_y
_atom_site_fract_z
Si Si1 0.939970 0.787546 0.912580
Si Si2 0.235370 0.000000 0.320401
Si Si3 0.185540 0.712796 0.258628
Si Si4 0.073560 0.187002 0.329425
Si Si5 0.552002 0.187434 0.841617
Si Si6 0.382506 0.000000 0.726629
Si Si7 0.730519 0.602483 0.429024
Si Si8 0.389103 0.897490 0.836927
O O1 0.964898 0.803457 0.590632
O O2 0.961580 0.730745 0.908245
O O3 0.812719 0.798648 0.085886
O O4 0.024565 0.818003 0.056187
O O5 0.352064 0.000000 0.428301
O O6 0.170547 0.049496 0.441487
O O7 0.266606 0.000000 0.983059
O O8 0.164226 0.769733 0.263959
O O9 0.160598 0.696860 0.580412
O O10 0.101088 0.682512 0.114481
O O11 0.135192 0.140013 0.400763
O O12 0.489363 0.141021 0.762004
O O13 0.447615 0.050006 0.750676
O O14 0.783573 0.612623 0.693662
O O15 0.839014 0.604729 0.166814
#
# Coordination Sequence:
#
# PCOD8052780 Si02
#       8
#     4   2   4   4   4   2   4   4
#     4  10  20  33  46  66  94 120 154 194 222 264
#     4   8  16  28  44  68  95 120 145 182 232 276
#     4  10  20  33  46  66  94 120 154 194 222 264
#     4  10  20  31  48  69  89 123 157 181 230 275
#     4  10  20  31  48  69  89 123 157 181 230 275
#     4   8  16  28  44  68  95 120 145 182 232 276
#     4  10  18  30  48  71  98 122 149 187 229 278
#     4  10  18  30  48  71  98 122 149 187 229 278
#
# _framework density 17.400172999999999
#
# number of rings (size 3 to 8) (size 9 to 14) (size 15 to 20)
#    0.000    2.286    0.000    3.429    0.000    4.571 
#    0.000    0.000    0.000    0.000    0.000    6.000 
#    0.000    0.000    0.000    0.000    0.000    0.000 
#
# Total GULP energy -173494.445272 kJ/mol
# GULP energy per Si atom -12392.460377 kJ/mol
# Density = 1.736057 g / cm^3
# Si number density = 17.400173 Si / 1000 Ang^3
#
#
#
# Elastic Constant Matrix: (Units=GPa)
#
#
# Indices 1 2 3 4 5 6 
#
# 1 46.2129 48.0117 10.4806 0.0000 -4.9469 0.0000
# 2 48.0117 111.8657 3.2721 0.0000 7.7538 0.0000
# 3 10.4806 3.2721 59.3246 0.0000 9.1741 0.0000
# 4 0.0000 0.0000 0.0000 16.5944 0.0000 8.9273
# 5 -4.9469 7.7538 9.1741 0.0000 25.9598 0.0000
# 6 0.0000 0.0000 0.0000 8.9273 0.0000 21.8599
#
#
#
# Elastic Compliance Matrix: (Units=1/GPa)
#
#
# Indices 1 2 3 4 5 6 
#
# 1 0.049139 -0.022147 -0.010505 0.000000 0.019691 0.000000
# 2 -0.022147 0.019111 0.004648 0.000000 -0.011571 0.000000
# 3 -0.010505 0.004648 0.020077 0.000000 -0.010485 0.000000
# 4 0.000000 0.000000 0.000000 0.077228 0.000000 -0.031539
# 5 0.019691 -0.011571 -0.010485 0.000000 0.049435 0.000000
# 6 0.000000 0.000000 0.000000 -0.031539 0.000000 0.058626
#
#
# Mechanical properties :
#
#
# Convention : Reuss Voigt Hill
#
# Bulk Modulus (GPa) = 30.94188 37.88132 34.41160
# Shear Modulus (GPa) = 14.68872 23.25876 18.97374
#
# Velocity S-wave (km/s) = 2.90861 3.66005 3.30575
# Velocity P-wave (km/s) = 5.39455 6.29915 5.86432
#
# Compressibility (1/GPa) = 0.03231866
#
# Stress axis : x y z
#
# Youngs Moduli (GPa) = 20.35055 52.32632 49.80740
#
# Poissons Ratio (x) = 1.15890 0.52321
# Poissons Ratio (y) = 0.45071 -0.23151
# Poissons Ratio (z) = 0.21378 -0.24321
#
# Static dielectric constant tensor:
#      x y z
#    x 2.804780 0.000000 0.227810 
#    y 0.000000 3.396590 0.000000 
#    z 0.227810 0.000000 3.445560 
# 
# 
# High freq. dielectric constant tensor:
#      x y z
#    x 1.628300 0.000000 0.022920 
#    y 0.000000 1.664880 0.000000 
#    z 0.022920 0.000000 1.694760 
# 
# From -- ./inp_files/1885.got.cif
#   From: 2010.03.12/outbox.cif.g09.slc.cpg/sg8_1_cif.got.tgz:1885.got - 2010.03.31 10:45:26.
