data_PCOD8052089
_publ_section_title
;
Structure prediction by ZEFSAII (Michael W. Deem and Ramdas Pophale) SiO2 
 PCOD8052089
Probable space group: C 2
;
_chemical_formula_sum "Si O2"
_cell_formula_units_Z 28
_cell_length_a 15.728886
_cell_length_b 11.504333
_cell_length_c 7.683100
_cell_angle_alpha 90.000000
_cell_angle_beta 65.331096
_cell_angle_gamma 90.000000
_cell_volume 1263.377301
_symmetry_space_group_name_H-M "C 2"
_symmetry_group_IT_number 5
_symmetry_cell_setting 'monoclinic'
loop_
_space_group_symop_operation_xyz
x,y,z
-x,y,-z
1/2+x,1/2+y,z
1/2-x,1/2+y,-z
loop_
_atom_site_type_symbol
_atom_site_label
_atom_site_fract_x
_atom_site_fract_y
_atom_site_fract_z
Si Si1 0.889965 0.210170 0.077142
Si Si2 0.613056 0.472239 0.110056
Si Si3 0.136562 0.615581 0.717879
Si Si4 0.330693 0.729781 0.514691
Si Si5 0.608478 0.970549 0.410310
Si Si6 0.679529 0.944664 0.982114
Si Si7 0.000000 0.787258 0.000000
Si Si8 0.000000 0.077428 0.500000
O O1 0.836229 0.225939 0.302978
O O2 0.855406 0.311380 0.977477
O O3 0.000000 0.223608 0.000000
O O4 0.864820 0.084228 0.025834
O O5 0.708152 0.441523 0.130051
O O6 0.528175 0.496422 0.315014
O O7 0.579509 0.365049 0.022354
O O8 0.234542 0.677814 0.665247
O O9 0.126896 0.574927 0.527602
O O10 0.131786 0.508649 0.858566
O O11 0.052092 0.705431 0.817085
O O12 0.331526 0.861590 0.576987
O O13 0.413419 0.657589 0.528723
O O14 0.500000 0.936630 0.500000
O O15 0.644565 0.008130 0.188356
#
# Coordination Sequence:
#
# PCOD8052089 Si02
#       8
#     4   4   4   4   4   4   2   2
#     4  12  24  46  76 104 142 195 245 302 362 434
#     4  12  26  47  73 105 147 195 239 304 368 434
#     4  12  28  49  72 108 151 191 238 307 368 429
#     4  12  23  44  75 106 145 183 247 301 353 433
#     4  12  25  47  72 105 144 191 242 298 359 433
#     4  12  27  45  75 109 146 188 252 298 366 434
#     4  12  28  52  70 104 154 190 244 304 372 438
#     4  12  22  44  74 110 144 184 250 300 358 438
#
# _framework density 22.162818000000001
#
# number of rings (size 3 to 8) (size 9 to 14) (size 15 to 20)
#    0.000    0.000    5.714    4.286    3.000    2.286 
#    6.429    0.000    0.000    0.000    0.000    0.000 
#    0.000    0.000    0.000    0.000    0.000    0.000 
#
# Total GULP energy -173725.308115 kJ/mol
# GULP energy per Si atom -12408.950580 kJ/mol
# Density = 2.211237 g / cm^3
# Si number density = 22.162818 Si / 1000 Ang^3
#
#
#
# Elastic Constant Matrix: (Units=GPa)
#
#
# Indices 1 2 3 4 5 6 
#
# 1 85.7992 40.3862 0.6164 0.0000 -2.5552 0.0000
# 2 40.3862 112.2412 10.9365 0.0000 -1.3645 0.0000
# 3 0.6164 10.9365 87.9138 0.0000 7.6078 0.0000
# 4 0.0000 0.0000 0.0000 32.1759 0.0000 -1.3101
# 5 -2.5552 -1.3645 7.6078 0.0000 39.3405 0.0000
# 6 0.0000 0.0000 0.0000 -1.3101 0.0000 33.4785
#
#
#
# Elastic Compliance Matrix: (Units=1/GPa)
#
#
# Indices 1 2 3 4 5 6 
#
# 1 0.014073 -0.005103 0.000480 0.000000 0.000644 0.000000
# 2 -0.005103 0.010880 -0.001344 0.000000 0.000306 0.000000
# 3 0.000480 -0.001344 0.011736 0.000000 -0.002285 0.000000
# 4 0.000000 0.000000 0.000000 0.031129 0.000000 0.001218
# 5 0.000644 0.000306 -0.002285 0.000000 0.025913 0.000000
# 6 0.000000 0.000000 0.000000 0.001218 0.000000 0.029918
#
#
# Mechanical properties :
#
#
# Convention : Reuss Voigt Hill
#
# Bulk Modulus (GPa) = 40.39371 43.31471 41.85421
# Shear Modulus (GPa) = 34.76237 36.60000 35.68118
#
# Velocity S-wave (km/s) = 3.96473 4.06817 4.01678
# Velocity P-wave (km/s) = 6.26292 6.45391 6.35913
#
# Compressibility (1/GPa) = 0.02475633
#
# Stress axis : x y z
#
# Youngs Moduli (GPa) = 71.05984 91.91128 85.20521
#
# Poissons Ratio (x) = 0.46898 -0.04093
# Poissons Ratio (y) = 0.36259 0.11453
# Poissons Ratio (z) = -0.03413 0.12355
#
# Static dielectric constant tensor:
#      x y z
#    x 4.069420 0.000000 -0.059150 
#    y 0.000000 4.114890 0.000000 
#    z -0.059150 0.000000 4.162930 
# 
# 
# High freq. dielectric constant tensor:
#      x y z
#    x 1.880340 0.000000 -0.002610 
#    y 0.000000 1.875210 0.000000 
#    z -0.002610 0.000000 1.885160 
# 
# From -- ./inp_files/23565.got.cif
#   From: 2010.03.12/outbox.cif.g09.slc.cpg/sg5_12_cif.got.tgz:23565.got - 2010.03.31 09:47:26.
