data_PCOD8052714
_publ_section_title
;
Structure prediction by ZEFSAII (Michael W. Deem and Ramdas Pophale) SiO2 
 PCOD8052714
Probable space group: C M
;
_chemical_formula_sum "Si O2"
_cell_formula_units_Z 32
_cell_length_a 23.338130
_cell_length_b 8.980501
_cell_length_c 9.623763
_cell_angle_alpha 90.000000
_cell_angle_beta 109.852147
_cell_angle_gamma 90.000000
_cell_volume 1897.158531
_symmetry_space_group_name_H-M "C M"
_symmetry_group_IT_number 8
_symmetry_cell_setting 'monoclinic'
loop_
_space_group_symop_operation_xyz
x,y,z
x,-y,z
1/2+x,1/2+y,z
1/2+x,1/2-y,z
loop_
_atom_site_type_symbol
_atom_site_label
_atom_site_fract_x
_atom_site_fract_y
_atom_site_fract_z
Si Si1 0.850840 0.672810 0.049490
Si Si2 0.436847 0.329489 0.927352
Si Si3 0.669072 0.670709 0.243776
Si Si4 0.038449 0.825074 0.226980
Si Si5 0.908408 0.172295 0.598890
Si Si6 0.452964 0.174094 0.360097
Si Si7 0.295973 0.171257 0.433505
Si Si8 0.259324 0.676472 0.142555
O O1 0.835572 0.500000 0.024817
O O2 0.898103 0.710660 0.210967
O O3 0.786779 0.760588 0.020783
O O4 0.880412 0.728590 0.930528
O O5 0.419722 0.500000 0.946152
O O6 0.447306 0.305309 0.771649
O O7 0.498666 0.284803 0.058176
O O8 0.660047 0.500000 0.189530
O O9 0.606686 0.735654 0.253615
O O10 0.723098 0.682406 0.406696
O O11 0.691316 0.762544 0.124717
O O12 0.014188 0.743246 0.344215
O O13 0.039003 0.000000 0.258235
O O14 0.942288 0.255334 0.502129
O O15 0.841180 0.243253 0.575047
O O16 0.900973 0.000000 0.554550
O O17 0.462984 0.000000 0.388151
O O18 0.306390 0.254279 0.294470
O O19 0.316983 0.000000 0.436456
O O20 0.259053 0.500000 0.143012
#
# Coordination Sequence:
#
# PCOD8052714 Si02
#       8
#     4   4   4   4   4   4   4   4
#     4  10  18  30  47  70  98 126 159 198 240 284
#     4   9  20  33  48  71 100 129 161 196 237 289
#     4   8  16  29  47  71  95 122 159 202 240 279
#     4   9  17  33  52  70  95 127 161 201 241 279
#     4  11  20  31  48  73 100 130 160 193 242 294
#     4  10  19  29  46  70  96 125 160 202 239 281
#     4   9  17  29  46  71  96 121 155 197 235 281
#     4  10  17  26  46  72  96 122 151 195 242 279
#
# _framework density 16.867329000000002
#
# number of rings (size 3 to 8) (size 9 to 14) (size 15 to 20)
#    0.750    1.750    1.250    2.250    0.000    2.500 
#    0.000    0.000    0.000    1.500    0.000    3.500 
#    0.000    0.000    0.000    0.000    0.000    0.000 
#
# Total GULP energy -198230.580667 kJ/mol
# GULP energy per Si atom -12389.411292 kJ/mol
# Density = 1.682894 g / cm^3
# Si number density = 16.867329 Si / 1000 Ang^3
#
#
#
# Elastic Constant Matrix: (Units=GPa)
#
#
# Indices 1 2 3 4 5 6 
#
# 1 122.6829 47.8588 38.4997 0.0000 -19.5660 0.0000
# 2 47.8588 96.6154 34.3033 0.0000 -13.8172 0.0000
# 3 38.4997 34.3033 71.5940 0.0000 -11.5067 0.0000
# 4 0.0000 0.0000 0.0000 20.4512 0.0000 -4.9815
# 5 -19.5660 -13.8172 -11.5067 0.0000 19.7320 0.0000
# 6 0.0000 0.0000 0.0000 -4.9815 0.0000 26.1105
#
#
#
# Elastic Compliance Matrix: (Units=1/GPa)
#
#
# Indices 1 2 3 4 5 6 
#
# 1 0.011776 -0.003580 -0.003469 0.000000 0.007148 0.000000
# 2 -0.003580 0.014190 -0.004246 0.000000 0.003911 0.000000
# 3 -0.003469 -0.004246 0.018578 0.000000 0.004421 0.000000
# 4 0.000000 0.000000 0.000000 0.051280 0.000000 0.009783
# 5 0.007148 0.003911 0.004421 0.000000 0.063084 0.000000
# 6 0.000000 0.000000 0.000000 0.009783 0.000000 0.040165
#
#
# Mechanical properties :
#
#
# Convention : Reuss Voigt Hill
#
# Bulk Modulus (GPa) = 45.54469 59.13511 52.33990
# Shear Modulus (GPa) = 21.83607 24.60744 23.22176
#
# Velocity S-wave (km/s) = 3.60193 3.82367 3.71446
# Velocity P-wave (km/s) = 6.66024 7.39115 7.03519
#
# Compressibility (1/GPa) = 0.02195645
#
# Stress axis : x y z
#
# Youngs Moduli (GPa) = 84.91910 70.47126 53.82801
#
# Poissons Ratio (x) = 0.25225 0.18671
# Poissons Ratio (y) = 0.30397 0.22853
# Poissons Ratio (z) = 0.29456 0.29919
#
# Static dielectric constant tensor:
#      x y z
#    x 3.214980 0.000000 -0.105010 
#    y 0.000000 3.163070 0.000000 
#    z -0.105010 0.000000 2.860750 
# 
# 
# High freq. dielectric constant tensor:
#      x y z
#    x 1.640580 0.000000 -0.017160 
#    y 0.000000 1.659630 0.000000 
#    z -0.017160 0.000000 1.608900 
# 
# From -- ./inp_files/16803.got.cif
#   From: 2010.03.12/outbox.cif.g09.slc.cpg/sg8_9_cif.got.tgz:16803.got - 2010.03.31 10:45:26.
