data_PCOD8052838
_publ_section_title
;
Structure prediction by ZEFSAII (Michael W. Deem and Ramdas Pophale) SiO2 
 PCOD8052838
Probable space group: C M
;
_chemical_formula_sum "Si O2"
_cell_formula_units_Z 32
_cell_length_a 20.664828
_cell_length_b 9.331960
_cell_length_c 21.790358
_cell_angle_alpha 90.000000
_cell_angle_beta 157.727636
_cell_angle_gamma 90.000000
_cell_volume 1592.646994
_symmetry_space_group_name_H-M "C M"
_symmetry_group_IT_number 8
_symmetry_cell_setting 'monoclinic'
loop_
_space_group_symop_operation_xyz
x,y,z
x,-y,z
1/2+x,1/2+y,z
1/2+x,1/2-y,z
loop_
_atom_site_type_symbol
_atom_site_label
_atom_site_fract_x
_atom_site_fract_y
_atom_site_fract_z
Si Si1 0.635180 0.329582 0.217220
Si Si2 0.765767 0.659371 0.686375
Si Si3 0.779081 0.832877 0.579604
Si Si4 0.445799 0.659536 0.494401
Si Si5 0.672179 0.335543 0.895285
Si Si6 0.914536 0.844027 0.911789
Si Si7 0.538014 0.834491 0.254607
Si Si8 0.610223 0.157865 0.729291
O O1 0.635916 0.500000 0.225919
O O2 0.813393 0.269141 0.347890
O O3 0.589295 0.257933 0.241135
O O4 0.511453 0.277783 0.054679
O O5 0.828118 0.500000 0.723375
O O6 0.711209 0.744765 0.578062
O O7 0.608166 0.650312 0.593788
O O8 0.920012 0.740396 0.857463
O O9 0.655725 0.784244 0.415221
O O10 0.981123 0.795176 0.750414
O O11 0.754579 0.000000 0.571509
O O12 0.370482 0.500000 0.437856
O O13 0.471772 0.724472 0.586354
O O14 0.671711 0.500000 0.871547
O O15 0.714751 0.225651 0.877538
O O16 0.830199 0.314488 0.082540
O O17 0.722766 0.864650 0.767404
O O18 0.989038 0.000000 0.957506
O O19 0.577428 0.000000 0.275438
O O20 0.535025 0.000000 0.681420
#
# Coordination Sequence:
#
# PCOD8052838 Si02
#       8
#     4   4   4   4   4   4   4   4
#     4  11  21  35  57  90 121 149 187 235 294 352
#     4  10  22  40  60  81 108 149 199 242 289 343
#     4  10  22  40  59  80 114 157 201 244 289 345
#     4  10  21  36  55  82 115 151 191 237 293 352
#     4  10  20  35  57  85 117 155 198 238 289 354
#     4   9  19  35  56  82 115 148 182 228 285 345
#     4  10  21  37  59  87 120 158 194 237 294 352
#     4  10  18  32  55  83 114 147 186 233 289 343
#
# _framework density 20.092337000000001
#
# number of rings (size 3 to 8) (size 9 to 14) (size 15 to 20)
#    0.000    2.000    1.250    2.250    0.000    5.000 
#    2.250    0.000    0.000    0.000    0.000    0.000 
#    0.000    0.000    0.000    0.000    0.000    0.000 
#
# Total GULP energy -198210.531862 kJ/mol
# GULP energy per Si atom -12388.158241 kJ/mol
# Density = 2.004661 g / cm^3
# Si number density = 20.092337 Si / 1000 Ang^3
#
#
#
# Elastic Constant Matrix: (Units=GPa)
#
#
# Indices 1 2 3 4 5 6 
#
# 1 53.5272 43.3624 43.9467 0.0001 -26.8974 0.0001
# 2 43.3624 101.8910 54.2919 0.0007 -28.1173 0.0001
# 3 43.9467 54.2919 133.8823 -0.0003 -23.5277 -0.0007
# 4 0.0001 0.0007 -0.0003 24.4285 -0.0009 -6.7341
# 5 -26.8974 -28.1173 -23.5277 -0.0009 33.5590 -0.0007
# 6 0.0001 0.0001 -0.0007 -6.7341 -0.0007 29.2637
#
#
#
# Elastic Compliance Matrix: (Units=1/GPa)
#
#
# Indices 1 2 3 4 5 6 
#
# 1 0.041740 -0.008230 -0.006497 0.000001 0.022005 0.000000
# 2 -0.008230 0.016297 -0.003042 0.000000 0.004926 0.000000
# 3 -0.006497 -0.003042 0.010803 0.000000 -0.000182 0.000000
# 4 0.000001 0.000000 0.000000 0.043708 0.000002 0.010058
# 5 0.022005 0.004926 -0.000182 0.000002 0.051434 0.000002
# 6 0.000000 0.000000 0.000000 0.010058 0.000002 0.036487
#
#
# Mechanical properties :
#
#
# Convention : Reuss Voigt Hill
#
# Bulk Modulus (GPa) = 30.02644 63.61139 46.81891
# Shear Modulus (GPa) = 20.23409 27.29687 23.76548
#
# Velocity S-wave (km/s) = 3.17686 3.68988 3.44294
# Velocity P-wave (km/s) = 5.33228 7.06271 6.25760
#
# Compressibility (1/GPa) = 0.03330399
#
# Stress axis : x y z
#
# Youngs Moduli (GPa) = 23.95767 61.36198 92.56329
#
# Poissons Ratio (x) = 0.50498 0.60138
# Poissons Ratio (y) = 0.19716 0.28155
# Poissons Ratio (z) = 0.15565 0.18664
#
# Static dielectric constant tensor:
#      x y z
#    x 3.266620 0.000000 -0.031940 
#    y 0.000000 4.020040 0.000000 
#    z -0.031940 0.000000 3.976560 
# 
# 
# High freq. dielectric constant tensor:
#      x y z
#    x 1.748330 0.000000 -0.007780 
#    y 0.000000 1.794360 0.000000 
#    z -0.007780 0.000000 1.790640 
# 
# From -- ./inp_files/15801.got.cif
#   From: 2010.03.12/outbox.cif.g09.slc.cpg/sg8_8_cif.got.tgz:15801.got - 2010.03.31 10:45:26.
