data_PCOD8052059
_publ_section_title
;
Structure prediction by ZEFSAII (Michael W. Deem and Ramdas Pophale) SiO2 
 PCOD8052059
Probable space group: C 2
;
_chemical_formula_sum "Si O2"
_cell_formula_units_Z 16
_cell_length_a 5.416162
_cell_length_b 24.972950
_cell_length_c 5.104857
_cell_angle_alpha 90.000000
_cell_angle_beta 80.594224
_cell_angle_gamma 90.000000
_cell_volume 681.187517
_symmetry_space_group_name_H-M "C 2"
_symmetry_group_IT_number 5
_symmetry_cell_setting 'monoclinic'
loop_
_space_group_symop_operation_xyz
x,y,z
-x,y,-z
1/2+x,1/2+y,z
1/2-x,1/2+y,-z
loop_
_atom_site_type_symbol
_atom_site_label
_atom_site_fract_x
_atom_site_fract_y
_atom_site_fract_z
Si Si1 0.220564 0.834510 0.157108
Si Si2 0.500000 0.177425 0.000000
Si Si3 0.500000 0.609192 0.000000
Si Si4 0.500000 0.248708 0.500000
Si Si5 0.655745 0.943903 0.716084
Si Si6 0.000000 0.037639 0.500000
O O1 0.150898 0.895175 0.259633
O O2 0.226220 0.789727 0.385777
O O3 0.500000 0.836551 0.000000
O O4 0.000000 0.815804 0.000000
O O5 0.570154 0.212200 0.734263
O O6 0.750134 0.143558 0.003534
O O7 0.435836 0.573688 0.262652
O O8 0.500000 0.921153 0.500000
O O9 0.500000 0.958040 0.000000
O O10 0.770416 0.999853 0.609694
#
# Coordination Sequence:
#
# PCOD8052059 Si02
#       6
#     4   2   2   2   4   2
#     4  11  28  47  76 116 156 197 245 298 368 455
#     4  12  30  52  77 110 145 194 256 324 368 434
#     4  12  30  52  77 110 145 194 256 324 368 434
#     4  12  27  52  82 106 154 196 253 300 390 434
#     4  11  27  45  74 113 154 195 244 297 367 454
#     4  12  27  48  82 102 152 196 251 300 388 434
#
# _framework density 23.488392000000001
#
# number of rings (size 3 to 8) (size 9 to 14) (size 15 to 20)
#    0.000    0.500    1.250    3.750   22.750    2.000 
#    0.000    0.000    0.000    0.000    0.000    0.000 
#    0.000    0.000    0.000    0.000    0.000    0.000 
#
# Total GULP energy -99154.389342 kJ/mol
# GULP energy per Si atom -12394.298668 kJ/mol
# Density = 2.343493 g / cm^3
# Si number density = 23.488392 Si / 1000 Ang^3
#
#
#
# Elastic Constant Matrix: (Units=GPa)
#
#
# Indices 1 2 3 4 5 6 
#
# 1 141.9622 71.0704 58.8934 0.0000 -2.8954 0.0000
# 2 71.0704 197.2667 95.9695 0.0000 -1.7695 0.0000
# 3 58.8934 95.9695 197.9025 0.0000 3.9961 0.0000
# 4 0.0000 0.0000 0.0000 255.8118 0.0000 355.5993
# 5 -2.8954 -1.7695 3.9961 0.0000 32.4669 0.0000
# 6 0.0000 0.0000 0.0000 355.5993 0.0000 662.7063
#
#
#
# Elastic Compliance Matrix: (Units=1/GPa)
#
#
# Indices 1 2 3 4 5 6 
#
# 1 0.008916 -0.002494 -0.001461 0.000000 0.000839 0.000000
# 2 -0.002494 0.007351 -0.002833 0.000000 0.000527 0.000000
# 3 -0.001461 -0.002833 0.006884 0.000000 -0.001132 0.000000
# 4 0.000000 0.000000 0.000000 0.015384 0.000000 -0.008255
# 5 0.000839 0.000527 -0.001132 0.000000 0.031043 0.000000
# 6 0.000000 0.000000 0.000000 -0.008255 0.000000 0.005938
#
#
# Mechanical properties :
#
#
# Convention : Reuss Voigt Hill
#
# Bulk Modulus (GPa) = 104.43492 109.88867 107.16179
# Shear Modulus (GPa) = 54.18022 210.94354 132.56188
#
# Velocity S-wave (km/s) = 4.80800 9.48697 7.52062
# Velocity P-wave (km/s) = 8.68225 12.91856 11.00615
#
# Compressibility (1/GPa) = 0.00957534
#
# Stress axis : x y z
#
# Youngs Moduli (GPa) = 112.16048 136.03914 145.25523
#
# Poissons Ratio (x) = 0.33928 0.21218
# Poissons Ratio (y) = 0.27972 0.41153
# Poissons Ratio (z) = 0.16384 0.38542
#
# Static dielectric constant tensor:
#      x y z
#    x 3.776700 0.000000 -0.325540 
#    y 0.000000 4.608860 0.000000 
#    z -0.325540 0.000000 4.182430 
# 
# 
# High freq. dielectric constant tensor:
#      x y z
#    x 1.913530 0.000000 -0.005120 
#    y 0.000000 1.955830 0.000000 
#    z -0.005120 0.000000 1.959100 
# 
# From -- ./inp_files/626.got.cif
#   From: 2010.03.12/outbox.cif.g09.slc.cpg/sg5_1_cif.got.tgz:626.got - 2010.03.31 09:47:26.
