data_PCOD8052955
_publ_section_title
;
Structure prediction by ZEFSAII (Michael W. Deem and Ramdas Pophale) SiO2 
 PCOD8052955
Probable space group: C M
;
_chemical_formula_sum "Si O2"
_cell_formula_units_Z 32
_cell_length_a 20.015788
_cell_length_b 8.924228
_cell_length_c 12.325580
_cell_angle_alpha 90.000000
_cell_angle_beta 54.475991
_cell_angle_gamma 90.000000
_cell_volume 1791.871581
_symmetry_space_group_name_H-M "C M"
_symmetry_group_IT_number 8
_symmetry_cell_setting 'monoclinic'
loop_
_space_group_symop_operation_xyz
x,y,z
x,-y,z
1/2+x,1/2+y,z
1/2+x,1/2-y,z
loop_
_atom_site_type_symbol
_atom_site_label
_atom_site_fract_x
_atom_site_fract_y
_atom_site_fract_z
Si Si1 0.049100 0.322161 0.346640
Si Si2 0.624766 0.177201 0.052822
Si Si3 0.099225 0.323453 0.527461
Si Si4 0.864743 0.677373 0.560508
Si Si5 0.584503 0.324089 0.876458
Si Si6 0.809573 0.827209 0.831918
Si Si7 0.716790 0.177849 0.600831
Si Si8 0.970676 0.829221 0.793514
O O1 0.050319 0.500000 0.341277
O O2 0.089557 0.258302 0.199129
O O3 0.102241 0.264961 0.400441
O O4 0.956045 0.264953 0.447927
O O5 0.612212 0.000000 0.054622
O O6 0.572838 0.257318 0.007194
O O7 0.720336 0.222706 0.957327
O O8 0.093464 0.500000 0.533924
O O9 0.178705 0.270786 0.520926
O O10 0.015850 0.269108 0.661386
O O11 0.857607 0.500000 0.559012
O O12 0.837247 0.727087 0.705510
O O13 0.807011 0.752407 0.523840
O O14 0.602950 0.500000 0.865078
O O15 0.662212 0.242030 0.750018
O O16 0.501756 0.288366 0.885557
O O17 0.872987 0.803204 0.872516
O O18 0.808741 0.000000 0.794639
O O19 0.720327 0.000000 0.609548
O O20 0.994655 0.000000 0.745913
#
# Coordination Sequence:
#
# PCOD8052955 Si02
#       8
#     4   4   4   4   4   4   4   4
#     4   9  19  35  53  75 102 138 176 210 254 306
#     4  10  20  35  54  74 103 140 176 210 252 310
#     4   9  17  32  52  74 100 133 173 211 250 304
#     4  11  20  32  53  77 104 134 171 218 257 300
#     4  10  19  32  50  75 107 137 170 210 257 306
#     4  10  19  32  52  77 102 131 173 216 254 301
#     4  10  19  31  51  78 105 132 169 215 260 304
#     4   9  18  31  49  76 105 131 164 214 264 301
#
# _framework density 17.858422000000001
#
# number of rings (size 3 to 8) (size 9 to 14) (size 15 to 20)
#    0.000    2.250    2.500    1.125    0.000    1.000 
#    0.000    3.125    0.000    3.000    0.000    0.000 
#    0.000    0.000    0.000    0.000    0.000    0.000 
#
# Total GULP energy -198359.391860 kJ/mol
# GULP energy per Si atom -12397.461991 kJ/mol
# Density = 1.781778 g / cm^3
# Si number density = 17.858422 Si / 1000 Ang^3
#
#
#
# Elastic Constant Matrix: (Units=GPa)
#
#
# Indices 1 2 3 4 5 6 
#
# 1 148.2706 32.0870 74.7707 0.0000 13.9173 0.0000
# 2 32.0870 39.3361 27.1489 0.0000 2.2047 0.0000
# 3 74.7707 27.1489 124.1376 0.0000 13.8310 0.0000
# 4 0.0000 0.0000 0.0000 16.8956 0.0000 0.0996
# 5 13.9173 2.2047 13.8310 0.0000 28.6137 0.0000
# 6 0.0000 0.0000 0.0000 0.0996 0.0000 24.7519
#
#
#
# Elastic Compliance Matrix: (Units=1/GPa)
#
#
# Indices 1 2 3 4 5 6 
#
# 1 0.010582 -0.005043 -0.005010 0.000000 -0.002336 0.000000
# 2 -0.005043 0.032367 -0.004267 0.000000 0.002021 0.000000
# 3 -0.005010 -0.004267 0.012364 0.000000 -0.003211 0.000000
# 4 0.000000 0.000000 0.000000 0.059188 0.000000 -0.000238
# 5 -0.002336 0.002021 -0.003211 0.000000 0.037481 0.000000
# 6 0.000000 0.000000 0.000000 -0.000238 0.000000 0.040402
#
#
# Mechanical properties :
#
#
# Convention : Reuss Voigt Hill
#
# Bulk Modulus (GPa) = 37.49038 64.41752 50.95395
# Shear Modulus (GPa) = 21.74726 25.90142 23.82434
#
# Velocity S-wave (km/s) = 3.49343 3.81251 3.65645
# Velocity P-wave (km/s) = 6.10825 7.45184 6.81324
#
# Compressibility (1/GPa) = 0.02667351
#
# Stress axis : x y z
#
# Youngs Moduli (GPa) = 94.50301 30.89603 80.87803
#
# Poissons Ratio (x) = 0.15580 0.40524
# Poissons Ratio (y) = 0.47654 0.34507
# Poissons Ratio (z) = 0.47350 0.13182
#
# Static dielectric constant tensor:
#      x y z
#    x 3.793600 0.000000 0.164430 
#    y 0.000000 3.194340 0.000000 
#    z 0.164430 0.000000 3.232180 
# 
# 
# High freq. dielectric constant tensor:
#      x y z
#    x 1.712510 0.000000 0.009870 
#    y 0.000000 1.681330 0.000000 
#    z 0.009870 0.000000 1.657040 
# 
# From -- ./inp_files/22938.got.cif
#   From: 2010.03.12/outbox.cif.g09.slc.cpg/sg8_12_cif.got.tgz:22938.got - 2010.03.31 10:45:26.
