data_PCOD8052509
_publ_section_title
;
Structure prediction by ZEFSAII (Michael W. Deem and Ramdas Pophale) SiO2 
 PCOD8052509
Probable space group: P M
;
_chemical_formula_sum "Si O2"
_cell_formula_units_Z 16
_cell_length_a 14.031453
_cell_length_b 8.943321
_cell_length_c 7.348221
_cell_angle_alpha 90.000000
_cell_angle_beta 59.072981
_cell_angle_gamma 90.000000
_cell_volume 791.008551
_symmetry_space_group_name_H-M "P M"
_symmetry_group_IT_number 6
_symmetry_cell_setting 'monoclinic'
loop_
_space_group_symop_operation_xyz
x,y,z
x,-y,z
loop_
_atom_site_type_symbol
_atom_site_label
_atom_site_fract_x
_atom_site_fract_y
_atom_site_fract_z
Si Si1 0.315120 0.332115 0.759820
Si Si2 0.292496 0.668444 0.351617
Si Si3 0.530937 0.171438 0.500561
Si Si4 0.700749 0.827526 0.637285
Si Si5 0.071361 0.174978 0.608390
Si Si6 0.513002 0.825291 0.105347
Si Si7 0.931587 0.676618 0.453131
Si Si8 0.093301 0.824657 0.009698
O O1 0.307285 0.500000 0.843594
O O2 0.306856 0.326974 0.552215
O O3 0.433789 0.263108 0.697449
O O4 0.214663 0.237414 0.944760
O O5 0.276492 0.500000 0.295190
O O6 0.184573 0.764735 0.405345
O O7 0.401764 0.738771 0.151912
O O8 0.646043 0.196599 0.492981
O O9 0.548584 0.221277 0.274755
O O10 0.492842 0.000000 0.547444
O O11 0.803946 0.717952 0.549210
O O12 0.737749 0.000000 0.627078
O O13 0.613323 0.778942 0.876958
O O14 0.969281 0.256640 0.610021
O O15 0.064034 0.000000 0.577572
O O16 0.065156 0.212117 0.827795
O O17 0.486497 0.000000 0.116136
O O18 0.946199 0.500000 0.440296
O O19 0.001115 0.744976 0.219915
O O20 0.091100 0.000000 0.050931
#
# Coordination Sequence:
#
# PCOD8052509 Si02
#       8
#     2   2   2   2   2   2   2   2
#     4   9  17  31  54  85 118 147 179 225 282 340
#     4   9  17  31  54  85 118 147 179 225 282 340
#     4   9  18  34  56  80 108 144 184 228 279 333
#     4  10  22  39  56  77 106 143 193 241 275 324
#     4  10  21  39  63  87 114 151 193 236 282 337
#     4   9  18  34  56  80 108 144 184 228 279 333
#     4  12  26  41  58  83 116 151 191 241 291 342
#     4  10  21  39  63  87 114 151 193 236 282 337
#
# _framework density 20.227342
#
# number of rings (size 3 to 8) (size 9 to 14) (size 15 to 20)
#    0.000    2.250    0.000    2.625    0.000    7.500 
#    0.000    6.250    0.000    0.000    0.000    0.000 
#    0.000    0.000    0.000    0.000    0.000    0.000 
#
# Total GULP energy -198439.727836 kJ/mol
# GULP energy per Si atom -12402.482990 kJ/mol
# Density = 2.018130 g / cm^3
# Si number density = 20.227342 Si / 1000 Ang^3
#
#
#
# Elastic Constant Matrix: (Units=GPa)
#
#
# Indices 1 2 3 4 5 6 
#
# 1 50.8548 21.8953 -1.0141 0.0000 -14.8924 0.0000
# 2 21.8953 111.5256 26.0206 0.0000 -13.8442 0.0000
# 3 -1.0141 26.0206 68.7295 0.0000 -12.8880 0.0000
# 4 0.0000 0.0000 0.0000 24.7519 0.0000 -6.3008
# 5 -14.8924 -13.8442 -12.8880 0.0000 29.9417 0.0000
# 6 0.0000 0.0000 0.0000 -6.3008 0.0000 27.0155
#
#
#
# Elastic Compliance Matrix: (Units=1/GPa)
#
#
# Indices 1 2 3 4 5 6 
#
# 1 0.025303 -0.004450 0.004386 0.000000 0.012416 0.000000
# 2 -0.004450 0.010909 -0.003987 0.000000 0.001115 0.000000
# 3 0.004386 -0.003987 0.017608 0.000000 0.007918 0.000000
# 4 0.000000 0.000000 0.000000 0.042951 0.000000 0.010017
# 5 0.012416 0.001115 0.007918 0.000000 0.043497 0.000000
# 6 0.000000 0.000000 0.000000 0.010017 0.000000 0.039352
#
#
# Mechanical properties :
#
#
# Convention : Reuss Voigt Hill
#
# Bulk Modulus (GPa) = 21.87243 36.10153 28.98698
# Shear Modulus (GPa) = 24.63534 28.62234 26.62884
#
# Velocity S-wave (km/s) = 3.49366 3.76577 3.63227
# Velocity P-wave (km/s) = 5.20682 6.06586 5.65268
#
# Compressibility (1/GPa) = 0.04571966
#
# Stress axis : x y z
#
# Youngs Moduli (GPa) = 39.52112 91.67036 56.79079
#
# Poissons Ratio (x) = 0.40791 -0.24909
# Poissons Ratio (y) = 0.17586 0.22640
# Poissons Ratio (z) = -0.17334 0.36545
#
# Static dielectric constant tensor:
#      x y z
#    x 3.699880 0.000000 0.061630 
#    y 0.000000 3.728000 0.000000 
#    z 0.061630 0.000000 3.680030 
# 
# 
# High freq. dielectric constant tensor:
#      x y z
#    x 1.789990 0.000000 0.003710 
#    y 0.000000 1.790580 0.000000 
#    z 0.003710 0.000000 1.787690 
# 
# From -- ./inp_files/4106.got.cif
#   From: 2010.03.12/outbox.cif.g09.slc.cpg/sg6_3_cif.got.tgz:4106.got - 2010.03.30 10:24:59.
