data_PCOD8052977
_publ_section_title
;
Structure prediction by ZEFSAII (Michael W. Deem and Ramdas Pophale) SiO2 
 PCOD8052977
Probable space group: C M
;
_chemical_formula_sum "Si O2"
_cell_formula_units_Z 32
_cell_length_a 25.113852
_cell_length_b 8.999059
_cell_length_c 23.814821
_cell_angle_alpha 90.000000
_cell_angle_beta 161.780325
_cell_angle_gamma 90.000000
_cell_volume 1682.796588
_symmetry_space_group_name_H-M "C M"
_symmetry_group_IT_number 8
_symmetry_cell_setting 'monoclinic'
loop_
_space_group_symop_operation_xyz
x,y,z
x,-y,z
1/2+x,1/2+y,z
1/2+x,1/2-y,z
loop_
_atom_site_type_symbol
_atom_site_label
_atom_site_fract_x
_atom_site_fract_y
_atom_site_fract_z
Si Si1 0.198400 0.330610 0.816970
Si Si2 0.030008 0.675924 0.957093
Si Si3 0.039495 0.322855 0.838692
Si Si4 0.365405 0.674028 0.358834
Si Si5 0.857948 0.827816 0.091096
Si Si6 0.226054 0.823483 0.451832
Si Si7 0.222949 0.673005 0.714437
Si Si8 0.855928 0.827889 0.476972
O O1 0.128503 0.500000 0.750644
O O2 0.271696 0.298883 0.828474
O O3 0.049316 0.217493 0.682276
O O4 0.339926 0.301492 0.006044
O O5 0.008463 0.500000 0.940812
O O6 0.033201 0.731419 0.896238
O O7 0.868312 0.749611 0.824101
O O8 0.208699 0.727167 0.163282
O O9 0.039049 0.500000 0.835057
O O10 0.874712 0.260427 0.640622
O O11 0.207436 0.253075 0.977002
O O12 0.403978 0.500000 0.390007
O O13 0.537291 0.760201 0.513953
O O14 0.309145 0.711662 0.365989
O O15 0.044673 0.768308 0.295549
O O16 0.847497 0.000000 0.094970
O O17 0.236096 0.762659 0.398704
O O18 0.232193 0.000000 0.454076
O O19 0.218096 0.500000 0.694738
O O20 0.832299 0.000000 0.466110
#
# Coordination Sequence:
#
# PCOD8052977 Si02
#       8
#     4   4   4   4   4   4   4   4
#     4   9  17  33  54  77 108 141 177 219 264 316
#     4  10  21  37  59  82 108 148 189 228 271 323
#     4   9  18  34  55  80 106 136 183 229 265 309
#     4   9  20  37  55  79 112 149 187 225 268 323
#     4   9  17  30  52  81 104 129 174 224 264 310
#     4  10  19  32  55  81 106 137 174 224 274 317
#     4  10  21  35  55  84 114 146 181 225 279 329
#     4  10  19  32  51  78 112 144 175 216 269 325
#
# _framework density 19.015962999999999
#
# number of rings (size 3 to 8) (size 9 to 14) (size 15 to 20)
#    0.000    2.500    1.250    0.750    1.750    2.500 
#    0.000    5.000    0.000    0.000    0.000    0.000 
#    0.000    0.000    0.000    0.000    0.000    0.000 
#
# Total GULP energy -198343.815067 kJ/mol
# GULP energy per Si atom -12396.488442 kJ/mol
# Density = 1.897268 g / cm^3
# Si number density = 19.015963 Si / 1000 Ang^3
#
#
#
# Elastic Constant Matrix: (Units=GPa)
#
#
# Indices 1 2 3 4 5 6 
#
# 1 142.1472 33.7445 96.5631 -0.0012 11.2899 -0.0005
# 2 33.7445 36.1537 37.8645 0.0003 2.7881 0.0002
# 3 96.5631 37.8645 167.6653 -0.0018 12.0104 0.0003
# 4 -0.0012 0.0003 -0.0018 18.5002 0.0009 4.2543
# 5 11.2899 2.7881 12.0104 0.0009 26.5260 0.0005
# 6 -0.0005 0.0002 0.0003 4.2543 0.0005 25.4169
#
#
#
# Elastic Compliance Matrix: (Units=1/GPa)
#
#
# Indices 1 2 3 4 5 6 
#
# 1 0.012401 -0.005357 -0.005782 0.000000 -0.002097 0.000000
# 2 -0.005357 0.038543 -0.005676 -0.000002 0.000799 0.000000
# 3 -0.005782 -0.005676 0.010704 0.000001 -0.001789 0.000000
# 4 0.000000 -0.000002 0.000001 0.056217 -0.000002 -0.009410
# 5 -0.002097 0.000799 -0.001789 -0.000002 0.039318 0.000000
# 6 0.000000 0.000000 0.000000 -0.009410 0.000000 0.040919
#
#
# Mechanical properties :
#
#
# Convention : Reuss Voigt Hill
#
# Bulk Modulus (GPa) = 35.69195 75.81226 55.75210
# Shear Modulus (GPa) = 20.74063 25.94157 23.34110
#
# Velocity S-wave (km/s) = 3.30615 3.69751 3.50730
# Velocity P-wave (km/s) = 5.77792 7.62778 6.76637
#
# Compressibility (1/GPa) = 0.02801753
#
# Stress axis : x y z
#
# Youngs Moduli (GPa) = 80.63749 25.94492 93.41995
#
# Poissons Ratio (x) = 0.13900 0.54016
# Poissons Ratio (y) = 0.43201 0.53026
# Poissons Ratio (z) = 0.46625 0.14727
#
# Static dielectric constant tensor:
#      x y z
#    x 3.644340 0.000000 -0.016090 
#    y 0.000000 3.198330 0.000000 
#    z -0.016090 0.000000 3.643140 
# 
# 
# High freq. dielectric constant tensor:
#      x y z
#    x 1.740350 0.000000 0.001950 
#    y 0.000000 1.704820 0.000000 
#    z 0.001950 0.000000 1.744140 
# 
# From -- ./inp_files/32331.got.cif
#   From: 2010.03.12/outbox.cif.g09.slc.cpg/sg8_17_cif.got.tgz:32331.got - 2010.03.31 10:45:26.
