data_PCOD8052190
_publ_section_title
;
Structure prediction by ZEFSAII (Michael W. Deem and Ramdas Pophale) SiO2 
 PCOD8052190
Probable space group: C 2
;
_chemical_formula_sum "Si O2"
_cell_formula_units_Z 14
_cell_length_a 10.704388
_cell_length_b 9.838361
_cell_length_c 7.769895
_cell_angle_alpha 90.000000
_cell_angle_beta 140.123411
_cell_angle_gamma 90.000000
_cell_volume 524.626215
_symmetry_space_group_name_H-M "C 2"
_symmetry_group_IT_number 5
_symmetry_cell_setting 'monoclinic'
loop_
_space_group_symop_operation_xyz
x,y,z
-x,y,-z
1/2+x,1/2+y,z
1/2-x,1/2+y,-z
loop_
_atom_site_type_symbol
_atom_site_label
_atom_site_fract_x
_atom_site_fract_y
_atom_site_fract_z
Si Si1 0.402720 0.475100 0.218310
Si Si2 0.000000 0.788226 0.000000
Si Si3 0.194200 0.193703 0.462371
Si Si4 0.469971 0.966789 0.661630
O O1 0.500000 0.423515 0.500000
O O2 0.468525 0.373379 0.139069
O O3 0.485690 0.623579 0.260300
O O4 0.169336 0.491684 0.975695
O O5 0.190985 0.695458 0.232658
O O6 0.150882 0.350273 0.359889
O O7 0.339444 0.103524 0.496597
O O8 0.500000 0.910590 0.500000
#
# Coordination Sequence:
#
# PCOD8052190 Si02
#       4
#     4   2   4   4
#     4  12  27  51  83 121 164 225 275 341 428 489
#     4  12  26  56  76 126 176 206 284 354 396 520
#     4  12  26  52  83 122 167 216 286 342 408 516
#     4  12  27  53  86 122 172 224 275 352 425 493
#
# _framework density 26.685666999999999
#
# number of rings (size 3 to 8) (size 9 to 14) (size 15 to 20)
#    0.000    0.000    5.714    2.571    4.000    1.143 
#   10.286    0.000    0.000    0.000    0.000    0.000 
#    0.000    0.000    0.000    0.000    0.000    0.000 
#
# Total GULP energy -86729.250536 kJ/mol
# GULP energy per Si atom -12389.892934 kJ/mol
# Density = 2.662493 g / cm^3
# Si number density = 26.685667 Si / 1000 Ang^3
#
#
#
# Elastic Constant Matrix: (Units=GPa)
#
#
# Indices 1 2 3 4 5 6 
#
# 1 83.3160 30.7325 34.8419 0.0000 14.3999 0.0000
# 2 30.7325 118.7699 35.1338 0.0000 23.2889 0.0000
# 3 34.8419 35.1338 189.3489 0.0000 47.7863 0.0000
# 4 0.0000 0.0000 0.0000 58.8747 0.0000 9.0554
# 5 14.3999 23.2889 47.7863 0.0000 63.2670 0.0000
# 6 0.0000 0.0000 0.0000 9.0554 0.0000 23.6321
#
#
#
# Elastic Compliance Matrix: (Units=1/GPa)
#
#
# Indices 1 2 3 4 5 6 
#
# 1 0.013980 -0.002932 -0.001850 0.000000 -0.000705 0.000000
# 2 -0.002932 0.009858 -0.000670 0.000000 -0.002455 0.000000
# 3 -0.001850 -0.000670 0.006891 0.000000 -0.004537 0.000000
# 4 0.000000 0.000000 0.000000 0.018049 0.000000 -0.006916
# 5 -0.000705 -0.002455 -0.004537 0.000000 0.020297 0.000000
# 6 0.000000 0.000000 0.000000 -0.006916 0.000000 0.044965
#
#
# Mechanical properties :
#
#
# Convention : Reuss Voigt Hill
#
# Bulk Modulus (GPa) = 50.44320 65.87237 58.15778
# Shear Modulus (GPa) = 38.00757 48.53652 43.27205
#
# Velocity S-wave (km/s) = 3.77804 4.26939 4.03121
# Velocity P-wave (km/s) = 6.16241 7.00298 6.59610
#
# Compressibility (1/GPa) = 0.01982428
#
# Stress axis : x y z
#
# Youngs Moduli (GPa) = 71.53287 101.44148 145.11419
#
# Poissons Ratio (x) = 0.29739 0.26853
# Poissons Ratio (y) = 0.20971 0.09723
# Poissons Ratio (z) = 0.13237 0.06797
#
# Static dielectric constant tensor:
#      x y z
#    x 4.578460 0.000000 0.350240 
#    y 0.000000 4.861730 0.000000 
#    z 0.350240 0.000000 5.430830 
# 
# 
# High freq. dielectric constant tensor:
#      x y z
#    x 2.052970 0.000000 0.027640 
#    y 0.000000 2.078220 0.000000 
#    z 0.027640 0.000000 2.096780 
# 
# From -- ./inp_files/18150.got.cif
#   From: 2010.03.12/outbox.cif.g09.slc.cpg/sg5_10_cif.got.tgz:18150.got - 2010.03.31 09:47:26.
