data_PCOD8052911
_publ_section_title
;
Structure prediction by ZEFSAII (Michael W. Deem and Ramdas Pophale) SiO2 
 PCOD8052911
Probable space group: C M
;
_chemical_formula_sum "Si O2"
_cell_formula_units_Z 32
_cell_length_a 17.672220
_cell_length_b 14.661729
_cell_length_c 11.703981
_cell_angle_alpha 90.000000
_cell_angle_beta 29.721246
_cell_angle_gamma 90.000000
_cell_volume 1503.486564
_symmetry_space_group_name_H-M "C M"
_symmetry_group_IT_number 8
_symmetry_cell_setting 'monoclinic'
loop_
_space_group_symop_operation_xyz
x,y,z
x,-y,z
1/2+x,1/2+y,z
1/2+x,1/2-y,z
loop_
_atom_site_type_symbol
_atom_site_label
_atom_site_fract_x
_atom_site_fract_y
_atom_site_fract_z
Si Si1 0.498260 0.209779 0.299530
Si Si2 0.445961 0.156704 0.619027
Si Si3 0.686086 0.900930 0.472923
Si Si4 0.781896 0.099205 0.950423
Si Si5 0.083876 0.851177 0.470073
Si Si6 0.438310 0.396041 0.971165
Si Si7 0.141983 0.894883 0.148346
Si Si8 0.708018 0.290975 0.535173
O O1 0.448012 0.152714 0.478414
O O2 0.508545 0.320166 0.301283
O O3 0.377491 0.192458 0.358558
O O4 0.664016 0.169840 0.045606
O O5 0.569665 0.092309 0.518524
O O6 0.490677 0.257814 0.592760
O O7 0.282371 0.127137 0.882100
O O8 0.659861 0.816122 0.591671
O O9 0.676789 0.000000 0.548362
O O10 0.856113 0.886449 0.200144
O O11 0.825014 0.139557 0.019301
O O12 0.940906 0.081217 0.674103
O O13 0.702059 0.000000 0.064502
O O14 0.182848 0.879963 0.229539
O O15 0.200056 0.844437 0.424474
O O16 0.485112 0.500000 0.882810
O O17 0.589020 0.334455 0.780136
O O18 0.088351 0.000000 0.197841
#
# Coordination Sequence:
#
# PCOD8052911 Si02
#       8
#     4   4   4   4   4   4   4   4
#     4  11  23  39  59  99 128 161 203 260 316 365
#     4  10  20  37  63  90 122 158 212 263 297 355
#     4  10  20  37  63  91 121 164 213 252 300 369
#     4  10  18  35  64  87 117 162 210 256 303 364
#     4   9  20  39  63  89 119 161 211 251 305 370
#     4   9  19  38  62  87 116 161 211 252 300 363
#     4  11  23  40  65  92 126 167 210 256 306 370
#     4  10  23  37  61  93 131 160 196 258 319 370
#
# _framework density 21.283861999999999
#
# number of rings (size 3 to 8) (size 9 to 14) (size 15 to 20)
#    0.000    2.000    2.500    0.750    0.000    3.000 
#    0.000    1.250    0.000    0.750    0.000    0.000 
#    0.000    0.000    0.000    0.000    0.000    0.000 
#
# Total GULP energy -198244.587850 kJ/mol
# GULP energy per Si atom -12390.286741 kJ/mol
# Density = 2.123542 g / cm^3
# Si number density = 21.283862 Si / 1000 Ang^3
#
#
#
# Elastic Constant Matrix: (Units=GPa)
#
#
# Indices 1 2 3 4 5 6 
#
# 1 101.6418 28.7870 38.7532 0.0000 -23.1636 0.0000
# 2 28.7870 124.3690 36.3510 0.0000 -13.9591 0.0000
# 3 38.7532 36.3510 89.0974 -0.0001 -1.7022 0.0000
# 4 0.0000 0.0000 -0.0001 29.5257 0.0000 2.7559
# 5 -23.1636 -13.9591 -1.7022 0.0000 30.6471 0.0000
# 6 0.0000 0.0000 0.0000 2.7559 0.0000 11.0334
#
#
#
# Elastic Compliance Matrix: (Units=1/GPa)
#
#
# Indices 1 2 3 4 5 6 
#
# 1 0.014650 -0.000460 -0.005983 0.000000 0.010531 0.000000
# 2 -0.000460 0.009649 -0.003663 0.000000 0.003844 0.000000
# 3 -0.005983 -0.003663 0.015218 0.000000 -0.005345 0.000000
# 4 0.000000 0.000000 0.000000 0.034677 0.000000 -0.008662
# 5 0.010531 0.003844 -0.005345 0.000000 0.042043 0.000000
# 6 0.000000 0.000000 0.000000 -0.008662 0.000000 0.092798
#
#
# Mechanical properties :
#
#
# Convention : Reuss Voigt Hill
#
# Bulk Modulus (GPa) = 51.80108 58.09895 54.95001
# Shear Modulus (GPa) = 21.21494 28.32237 24.76865
#
# Velocity S-wave (km/s) = 3.16058 3.65183 3.41505
# Velocity P-wave (km/s) = 6.14085 6.71845 6.43613
#
# Compressibility (1/GPa) = 0.01930462
#
# Stress axis : x y z
#
# Youngs Moduli (GPa) = 68.25999 103.63542 65.70977
#
# Poissons Ratio (x) = 0.04770 0.39314
# Poissons Ratio (y) = 0.03141 0.24071
# Poissons Ratio (z) = 0.40840 0.37964
#
# Static dielectric constant tensor:
#      x y z
#    x 3.546220 0.000000 0.063170 
#    y 0.000000 4.027600 0.000000 
#    z 0.063170 0.000000 3.714070 
# 
# 
# High freq. dielectric constant tensor:
#      x y z
#    x 1.795440 0.000000 0.000430 
#    y 0.000000 1.846700 0.000000 
#    z 0.000430 0.000000 1.824160 
# 
# From -- ./inp_files/23301.got.cif
#   From: 2010.03.12/outbox.cif.g09.slc.cpg/sg8_12_cif.got.tgz:23301.got - 2010.03.31 10:45:26.
