data_PCOD8052452
_publ_section_title
;
Structure prediction by ZEFSAII (Michael W. Deem and Ramdas Pophale) SiO2 
 PCOD8052452
Probable space group: P M
;
_chemical_formula_sum "Si O2"
_cell_formula_units_Z 16
_cell_length_a 9.272387
_cell_length_b 8.494372
_cell_length_c 11.119364
_cell_angle_alpha 90.000000
_cell_angle_beta 64.961883
_cell_angle_gamma 90.000000
_cell_volume 793.493989
_symmetry_space_group_name_H-M "P M"
_symmetry_group_IT_number 6
_symmetry_cell_setting 'monoclinic'
loop_
_space_group_symop_operation_xyz
x,y,z
x,-y,z
loop_
_atom_site_type_symbol
_atom_site_label
_atom_site_fract_x
_atom_site_fract_y
_atom_site_fract_z
Si Si1 0.334240 0.818722 0.157630
Si Si2 0.944735 0.686334 0.916606
Si Si3 0.862927 0.315526 0.683105
Si Si4 0.718842 0.817282 0.388699
Si Si5 0.553296 0.182140 0.690579
Si Si6 0.639331 0.683844 0.168357
Si Si7 0.028902 0.681825 0.379231
Si Si8 0.265585 0.683890 0.924518
O O1 0.479797 0.712591 0.150220
O O2 0.180195 0.785845 0.292830
O O3 0.381994 0.000000 0.153791
O O4 0.299276 0.780868 0.032126
O O5 0.946174 0.500000 0.918854
O O6 0.943127 0.742504 0.778514
O O7 0.102075 0.751120 0.926091
O O8 0.788914 0.750061 0.040033
O O9 0.819984 0.500000 0.700276
O O10 0.700347 0.219307 0.726258
O O11 0.983632 0.276702 0.532318
O O12 0.599163 0.771666 0.538350
O O13 0.630170 0.775744 0.297119
O O14 0.882323 0.719880 0.342257
O O15 0.763324 0.000000 0.379580
O O16 0.403855 0.288673 0.778845
O O17 0.507253 0.000000 0.719548
O O18 0.657586 0.500000 0.188421
O O19 0.073890 0.500000 0.346815
O O20 0.252634 0.500000 0.960524
#
# Coordination Sequence:
#
# PCOD8052452 Si02
#       8
#     2   2   2   2   2   2   2   2
#     4  12  25  40  58  83 117 153 191 240 300 355
#     4   9  20  37  58  84 111 142 185 238 288 336
#     4   9  18  36  61  86 113 148 190 236 286 340
#     4  10  21  38  59  85 120 157 193 238 292 346
#     4  10  21  37  57  85 119 154 191 232 285 345
#     4  11  22  38  61  86 114 150 195 244 293 348
#     4  10  20  36  60  88 116 151 196 240 286 345
#     4  11  22  38  60  85 114 149 193 242 290 345
#
# _framework density 20.163983000000002
#
# number of rings (size 3 to 8) (size 9 to 14) (size 15 to 20)
#    0.000    1.750    0.000    4.500    0.000    5.000 
#    0.000    5.000    0.000    0.000    0.000    0.000 
#    0.000    0.000    0.000    0.000    0.000    0.000 
#
# Total GULP energy -198494.129734 kJ/mol
# GULP energy per Si atom -12405.883108 kJ/mol
# Density = 2.011809 g / cm^3
# Si number density = 20.163983 Si / 1000 Ang^3
#
#
#
# Elastic Constant Matrix: (Units=GPa)
#
#
# Indices 1 2 3 4 5 6 
#
# 1 126.4013 7.3199 71.6685 0.0000 7.2729 0.0000
# 2 7.3199 45.6835 21.2369 0.0000 -2.0895 0.0000
# 3 71.6685 21.2369 120.2957 0.0000 0.5410 0.0000
# 4 0.0000 0.0000 0.0000 29.6363 0.0000 0.3779
# 5 7.2729 -2.0895 0.5410 0.0000 40.2524 0.0000
# 6 0.0000 0.0000 0.0000 0.3779 0.0000 23.2029
#
#
#
# Elastic Compliance Matrix: (Units=1/GPa)
#
#
# Indices 1 2 3 4 5 6 
#
# 1 0.012208 0.001447 -0.007519 0.000000 -0.002030 0.000000
# 2 0.001447 0.024086 -0.005119 0.000000 0.001058 0.000000
# 3 -0.007519 -0.005119 0.013692 0.000000 0.000909 0.000000
# 4 0.000000 0.000000 0.000000 0.033749 0.000000 -0.000550
# 5 -0.002030 0.001058 0.000909 0.000000 0.025253 0.000000
# 6 0.000000 0.000000 0.000000 -0.000550 0.000000 0.043107
#
#
# Mechanical properties :
#
#
# Convention : Reuss Voigt Hill
#
# Bulk Modulus (GPa) = 36.22792 54.75900 45.49346
# Shear Modulus (GPa) = 27.22152 31.42867 29.32509
#
# Velocity S-wave (km/s) = 3.67823 3.95226 3.81771
# Velocity P-wave (km/s) = 6.00373 6.93130 6.48413
#
# Compressibility (1/GPa) = 0.02760302
#
# Stress axis : x y z
#
# Youngs Moduli (GPa) = 81.91595 41.51816 73.03472
#
# Poissons Ratio (x) = -0.06006 0.54916
# Poissons Ratio (y) = -0.11850 0.37384
# Poissons Ratio (z) = 0.61594 0.21252
#
# Static dielectric constant tensor:
#      x y z
#    x 3.666670 0.000000 0.004510 
#    y 0.000000 3.489840 0.000000 
#    z 0.004510 0.000000 3.804540 
# 
# 
# High freq. dielectric constant tensor:
#      x y z
#    x 1.786610 0.000000 0.001860 
#    y 0.000000 1.779950 0.000000 
#    z 0.001860 0.000000 1.799810 
# 
# From -- ./inp_files/3784.got.cif
#   From: 2010.03.12/outbox.cif.g09.slc.cpg/sg6_2_cif.got.tgz:3784.got - 2010.03.30 10:24:59.
