data_PCOD8052732
_publ_section_title
;
Structure prediction by ZEFSAII (Michael W. Deem and Ramdas Pophale) SiO2 
 PCOD8052732
Probable space group: C M
;
_chemical_formula_sum "Si O2"
_cell_formula_units_Z 26
_cell_length_a 20.953050
_cell_length_b 7.921124
_cell_length_c 16.456166
_cell_angle_alpha 90.000000
_cell_angle_beta 146.646409
_cell_angle_gamma 90.000000
_cell_volume 1501.657487
_symmetry_space_group_name_H-M "C M"
_symmetry_group_IT_number 8
_symmetry_cell_setting 'monoclinic'
loop_
_space_group_symop_operation_xyz
x,y,z
x,-y,z
1/2+x,1/2+y,z
1/2+x,1/2-y,z
loop_
_atom_site_type_symbol
_atom_site_label
_atom_site_fract_x
_atom_site_fract_y
_atom_site_fract_z
Si Si1 0.260140 0.808902 0.089710
Si Si2 0.789764 0.188392 0.949858
Si Si3 0.374302 0.000000 0.763723
Si Si4 0.428232 0.313387 0.400749
Si Si5 0.521880 0.808977 0.665004
Si Si6 0.498004 0.308829 0.812079
Si Si7 0.637134 0.500000 0.578770
Si Si8 0.339673 0.000000 0.905329
O O1 0.341881 0.795816 0.254724
O O2 0.257353 0.000000 0.054896
O O3 0.308876 0.696898 0.067512
O O4 0.129605 0.754630 0.974602
O O5 0.655882 0.224920 0.786473
O O6 0.866899 0.329867 0.985892
O O7 0.827006 0.000000 0.960811
O O8 0.415051 0.172890 0.765970
O O9 0.415175 0.000000 0.902144
O O10 0.232184 0.000000 0.607491
O O11 0.374176 0.500000 0.357173
O O12 0.442352 0.224677 0.502406
O O13 0.553801 0.333607 0.488880
O O14 0.481378 0.693255 0.696952
O O15 0.504153 0.000000 0.675116
O O16 0.469396 0.500000 0.811876
O O17 0.703693 0.500000 0.736178
#
# Coordination Sequence:
#
# PCOD8052732 Si02
#       8
#     4   4   2   4   4   4   2   2
#     4  10  20  32  51  83 116 136 169 222 276 322
#     4  10  18  30  52  80 105 133 171 218 271 313
#     4  10  20  37  55  77 103 148 183 217 258 303
#     4  10  18  31  51  81 109 139 168 214 278 316
#     4  10  17  29  50  78 109 133 171 216 270 317
#     4  10  21  34  54  81 108 142 179 221 261 312
#     4   8  20  33  53  76 110 139 173 225 255 313
#     4  10  18  36  52  75 107 135 172 228 253 308
#
# _framework density 17.314202000000002
#
# number of rings (size 3 to 8) (size 9 to 14) (size 15 to 20)
#    0.923    1.231    3.077    1.385    3.231    0.615 
#    0.000    1.538    0.000    1.846    0.000    0.000 
#    0.000    0.000    0.000    0.000    0.000    0.000 
#
# Total GULP energy -161090.801334 kJ/mol
# GULP energy per Si atom -12391.600103 kJ/mol
# Density = 1.727479 g / cm^3
# Si number density = 17.314202 Si / 1000 Ang^3
#
#
#
# Elastic Constant Matrix: (Units=GPa)
#
#
# Indices 1 2 3 4 5 6 
#
# 1 80.9479 46.6370 30.2773 0.0000 -3.5207 0.0000
# 2 46.6370 104.9447 11.5380 0.0000 -4.9988 0.0000
# 3 30.2773 11.5380 95.9254 0.0000 -14.1803 0.0000
# 4 0.0000 0.0000 0.0000 22.5796 0.0000 -7.5618
# 5 -3.5207 -4.9988 -14.1803 0.0000 20.2607 0.0000
# 6 0.0000 0.0000 0.0000 -7.5618 0.0000 22.9655
#
#
#
# Elastic Compliance Matrix: (Units=1/GPa)
#
#
# Indices 1 2 3 4 5 6 
#
# 1 0.018782 -0.007875 -0.005338 0.000000 -0.002415 0.000000
# 2 -0.007875 0.013014 0.001330 0.000000 0.002774 0.000000
# 3 -0.005338 0.001330 0.013230 0.000000 0.008660 0.000000
# 4 0.000000 0.000000 0.000000 0.049777 0.000000 0.016390
# 5 -0.002415 0.002774 0.008660 0.000000 0.055682 0.000000
# 6 0.000000 0.000000 0.000000 0.016390 0.000000 0.048940
#
#
# Mechanical properties :
#
#
# Convention : Reuss Voigt Hill
#
# Bulk Modulus (GPa) = 47.03521 50.96920 49.00220
# Shear Modulus (GPa) = 21.71288 26.05222 23.88255
#
# Velocity S-wave (km/s) = 3.54510 3.88322 3.71801
# Velocity P-wave (km/s) = 6.63186 7.04326 6.84066
#
# Compressibility (1/GPa) = 0.02126067
#
# Stress axis : x y z
#
# Youngs Moduli (GPa) = 53.24172 76.83872 75.58663
#
# Poissons Ratio (x) = 0.60510 0.40349
# Poissons Ratio (y) = 0.41927 -0.10055
# Poissons Ratio (z) = 0.28421 -0.10221
#
# Static dielectric constant tensor:
#      x y z
#    x 2.864660 0.000000 -0.089630 
#    y 0.000000 3.236240 0.000000 
#    z -0.089630 0.000000 2.976650 
# 
# 
# High freq. dielectric constant tensor:
#      x y z
#    x 1.631340 0.000000 -0.020450 
#    y 0.000000 1.680910 0.000000 
#    z -0.020450 0.000000 1.648810 
# 
# From -- ./inp_files/27665.got.cif
#   From: 2010.03.12/outbox.cif.g09.slc.cpg/sg8_14_cif.got.tgz:27665.got - 2010.03.31 10:45:26.
