data_PCOD8052168
_publ_section_title
;
Structure prediction by ZEFSAII (Michael W. Deem and Ramdas Pophale) SiO2 
 PCOD8052168
Probable space group: C 2
;
_chemical_formula_sum "Si O2"
_cell_formula_units_Z 20
_cell_length_a 13.215804
_cell_length_b 6.197933
_cell_length_c 18.447115
_cell_angle_alpha 90.000000
_cell_angle_beta 148.846636
_cell_angle_gamma 90.000000
_cell_volume 781.694578
_symmetry_space_group_name_H-M "C 2"
_symmetry_group_IT_number 5
_symmetry_cell_setting 'monoclinic'
loop_
_space_group_symop_operation_xyz
x,y,z
-x,y,-z
1/2+x,1/2+y,z
1/2-x,1/2+y,-z
loop_
_atom_site_type_symbol
_atom_site_label
_atom_site_fract_x
_atom_site_fract_y
_atom_site_fract_z
Si Si1 0.961840 0.200270 0.143925
Si Si2 0.314953 0.959195 0.927667
Si Si3 0.827925 0.419400 0.348194
Si Si4 0.990920 0.730753 0.639579
Si Si5 0.749433 0.521982 0.611478
O O1 0.059524 0.405336 0.241417
O O2 0.768809 0.139350 0.069964
O O3 0.893103 0.253506 0.020602
O O4 0.112836 0.002386 0.235782
O O5 0.149689 0.891781 0.769825
O O6 0.500000 0.065099 0.000000
O O7 0.895965 0.503866 0.310270
O O8 0.000000 0.531826 0.500000
O O9 0.833170 0.162463 0.370085
O O10 0.814809 0.686628 0.587688
O O11 0.905853 0.853047 0.516411
#
# Coordination Sequence:
#
# PCOD8052168 Si02
#       5
#     4   4   4   4   4
#     4  12  27  53  75 118 162 206 266 323 392 474
#     4  12  27  50  80 113 165 209 263 323 388 474
#     4  12  26  47  82 113 155 206 253 333 394 457
#     4  12  25  50  79 119 153 207 268 323 397 466
#     4  12  27  51  80 114 163 199 272 331 390 472
#
# _framework density 25.585440999999999
#
# number of rings (size 3 to 8) (size 9 to 14) (size 15 to 20)
#    0.000    0.000    6.000    3.600    2.800    1.600 
#    0.000    0.000    0.000    0.000    0.000    0.000 
#    0.000    0.000    0.000    0.000    0.000    0.000 
#
# Total GULP energy -123951.063621 kJ/mol
# GULP energy per Si atom -12395.106362 kJ/mol
# Density = 2.552721 g / cm^3
# Si number density = 25.585441 Si / 1000 Ang^3
#
#
#
# Elastic Constant Matrix: (Units=GPa)
#
#
# Indices 1 2 3 4 5 6 
#
# 1 103.0323 28.6886 27.6898 0.0000 16.1431 0.0000
# 2 28.6886 92.8067 27.9131 -0.0001 1.8591 -0.0001
# 3 27.6898 27.9131 120.7586 -0.0002 10.7578 -0.0001
# 4 0.0000 -0.0001 -0.0002 27.8100 0.0000 10.5842
# 5 16.1431 1.8591 10.7578 0.0000 40.9872 0.0000
# 6 0.0000 -0.0001 -0.0001 10.5842 0.0000 62.0403
#
#
#
# Elastic Compliance Matrix: (Units=1/GPa)
#
#
# Indices 1 2 3 4 5 6 
#
# 1 0.011608 -0.003025 -0.001605 0.000000 -0.004014 0.000000
# 2 -0.003025 0.012370 -0.002275 0.000000 0.001228 0.000000
# 3 -0.001605 -0.002275 0.009327 0.000000 -0.001713 0.000000
# 4 0.000000 0.000000 0.000000 0.038455 0.000000 -0.006561
# 5 -0.004014 0.001228 -0.001713 0.000000 0.026372 0.000000
# 6 0.000000 0.000000 0.000000 -0.006561 0.000000 0.017238
#
#
# Mechanical properties :
#
#
# Convention : Reuss Voigt Hill
#
# Bulk Modulus (GPa) = 51.29444 53.90895 52.60170
# Shear Modulus (GPa) = 36.85149 41.65456 39.25302
#
# Velocity S-wave (km/s) = 3.79929 4.03930 3.92113
# Velocity P-wave (km/s) = 6.27199 6.54755 6.41125
#
# Compressibility (1/GPa) = 0.01949529
#
# Stress axis : x y z
#
# Youngs Moduli (GPa) = 86.14587 80.84142 107.21062
#
# Poissons Ratio (x) = 0.24457 0.17207
# Poissons Ratio (y) = 0.26061 0.24390
# Poissons Ratio (z) = 0.13826 0.18391
#
# Static dielectric constant tensor:
#      x y z
#    x 4.727510 0.000000 0.083830 
#    y 0.000000 4.252480 0.000000 
#    z 0.083830 0.000000 4.784440 
# 
# 
# High freq. dielectric constant tensor:
#      x y z
#    x 2.027990 0.000000 0.010120 
#    y 0.000000 2.010490 0.000000 
#    z 0.010120 0.000000 2.038580 
# 
# From -- ./inp_files/56458.got.cif
#   From: 2010.03.12/outbox.cif.g09.slc.cpg/sg5_29_cif.got.tgz:56458.got - 2010.03.31 09:47:26.
