data_PCOD8052222
_publ_section_title
;
Structure prediction by ZEFSAII (Michael W. Deem and Ramdas Pophale) SiO2 
 PCOD8052222
Probable space group: P M
;
_chemical_formula_sum "Si O2"
_cell_formula_units_Z 16
_cell_length_a 9.546239
_cell_length_b 9.006862
_cell_length_c 18.763929
_cell_angle_alpha 90.000000
_cell_angle_beta 144.214074
_cell_angle_gamma 90.000000
_cell_volume 943.422183
_symmetry_space_group_name_H-M "P M"
_symmetry_group_IT_number 6
_symmetry_cell_setting 'monoclinic'
loop_
_space_group_symop_operation_xyz
x,y,z
x,-y,z
loop_
_atom_site_type_symbol
_atom_site_label
_atom_site_fract_x
_atom_site_fract_y
_atom_site_fract_z
Si Si1 0.752280 0.828084 0.982980
Si Si2 0.174280 0.331531 0.507452
Si Si3 0.508165 0.670015 0.764309
Si Si4 0.616037 0.330686 0.061868
Si Si5 0.191113 0.173765 0.063375
Si Si6 0.634347 0.174758 0.681740
Si Si7 0.085617 0.671334 0.872158
Si Si8 0.665397 0.675246 0.245897
O O1 0.535266 0.740161 0.853667
O O2 0.687813 0.000000 0.954640
O O3 0.763912 0.772745 0.069044
O O4 0.006600 0.793651 0.051277
O O5 0.187964 0.500000 0.485124
O O6 0.237884 0.322418 0.618964
O O7 0.379925 0.240088 0.548501
O O8 0.910402 0.268634 0.384407
O O9 0.598376 0.500000 0.802457
O O10 0.673328 0.771080 0.780099
O O11 0.690654 0.500000 0.078500
O O12 0.683643 0.284513 0.169978
O O13 0.332205 0.308330 0.930745
O O14 0.452592 0.233025 0.195740
O O15 0.202021 0.000000 0.049322
O O16 0.119595 0.265068 0.964815
O O17 0.870852 0.242842 0.741048
O O18 0.632568 0.000000 0.673594
O O19 0.014047 0.500000 0.849107
O O20 0.620094 0.500000 0.238043
#
# Coordination Sequence:
#
# PCOD8052222 Si02
#       8
#     2   2   2   2   2   2   2   2
#     4  11  21  32  47  72 104 132 161 198 245 298
#     4   8  16  30  49  72  96 125 162 205 243 283
#     4   9  17  29  49  72  95 125 158 198 240 284
#     4   9  20  33  49  71  99 131 163 199 243 292
#     4  10  19  29  46  71  97 126 161 203 247 289
#     4  10  17  26  45  74 100 122 152 196 245 289
#     4  10  18  31  49  71  96 127 164 203 244 288
#     4   9  18  34  52  73  97 126 167 206 241 287
#
# _framework density 16.959533
#
# number of rings (size 3 to 8) (size 9 to 14) (size 15 to 20)
#    0.750    1.750    1.250    3.000    0.000    4.500 
#    0.000    0.000    0.000    1.500    0.000    3.500 
#    0.000    0.000    0.000    0.000    0.000    0.000 
#
# Total GULP energy -198232.753084 kJ/mol
# GULP energy per Si atom -12389.547068 kJ/mol
# Density = 1.692093 g / cm^3
# Si number density = 16.959533 Si / 1000 Ang^3
#
#
#
# Elastic Constant Matrix: (Units=GPa)
#
#
# Indices 1 2 3 4 5 6 
#
# 1 69.3267 37.8169 30.6322 0.0000 6.1105 0.0000
# 2 37.8169 103.6830 42.2806 0.0000 11.9316 0.0000
# 3 30.6322 42.2806 104.1331 0.0000 18.4199 0.0000
# 4 0.0000 0.0000 0.0000 18.6086 0.0000 4.8293
# 5 6.1105 11.9316 18.4199 0.0000 19.3304 0.0000
# 6 0.0000 0.0000 0.0000 4.8293 0.0000 24.8850
#
#
#
# Elastic Compliance Matrix: (Units=1/GPa)
#
#
# Indices 1 2 3 4 5 6 
#
# 1 0.018923 -0.005589 -0.003427 0.000000 0.000733 0.000000
# 2 -0.005589 0.013376 -0.003174 0.000000 -0.003465 0.000000
# 3 -0.003427 -0.003174 0.013665 0.000000 -0.009979 0.000000
# 4 0.000000 0.000000 0.000000 0.056589 0.000000 -0.010982
# 5 0.000733 -0.003465 -0.009979 0.000000 0.063148 0.000000
# 6 0.000000 0.000000 0.000000 -0.010982 0.000000 0.042316
#
#
# Mechanical properties :
#
#
# Convention : Reuss Voigt Hill
#
# Bulk Modulus (GPa) = 46.32973 55.40023 50.86498
# Shear Modulus (GPa) = 20.86888 23.65900 22.26394
#
# Velocity S-wave (km/s) = 3.51167 3.73906 3.62715
# Velocity P-wave (km/s) = 6.61963 7.16783 6.89918
#
# Compressibility (1/GPa) = 0.02158441
#
# Stress axis : x y z
#
# Youngs Moduli (GPa) = 52.84699 74.75894 73.17898
#
# Poissons Ratio (x) = 0.41780 0.25078
# Poissons Ratio (y) = 0.29534 0.23228
# Poissons Ratio (z) = 0.18110 0.23730
#
# Static dielectric constant tensor:
#      x y z
#    x 2.905610 0.000000 0.265630 
#    y 0.000000 3.165850 0.000000 
#    z 0.265630 0.000000 3.283970 
# 
# 
# High freq. dielectric constant tensor:
#      x y z
#    x 1.613290 0.000000 0.021490 
#    y 0.000000 1.662550 0.000000 
#    z 0.021490 0.000000 1.643850 
# 
# From -- ./inp_files/5893.got.cif
#   From: 2010.03.12/outbox.cif.g09.slc.cpg/sg6_3_cif.got.tgz:5893.got - 2010.03.30 10:24:59.
