data_PCOD8052725
_publ_section_title
;
Structure prediction by ZEFSAII (Michael W. Deem and Ramdas Pophale) SiO2 
 PCOD8052725
Probable space group: C M
;
_chemical_formula_sum "Si O2"
_cell_formula_units_Z 32
_cell_length_a 22.205525
_cell_length_b 13.566532
_cell_length_c 22.275193
_cell_angle_alpha 90.000000
_cell_angle_beta 162.064909
_cell_angle_gamma 90.000000
_cell_volume 2066.410396
_symmetry_space_group_name_H-M "C M"
_symmetry_group_IT_number 8
_symmetry_cell_setting 'monoclinic'
loop_
_space_group_symop_operation_xyz
x,y,z
x,-y,z
1/2+x,1/2+y,z
1/2+x,1/2-y,z
loop_
_atom_site_type_symbol
_atom_site_label
_atom_site_fract_x
_atom_site_fract_y
_atom_site_fract_z
Si Si1 0.708320 0.297632 0.968480
Si Si2 0.611535 0.888037 0.376697
Si Si3 0.978196 0.297608 0.570303
Si Si4 0.574984 0.611951 0.162119
Si Si5 0.702926 0.888221 0.889388
Si Si6 0.983539 0.111795 0.649368
Si Si7 0.893577 0.885239 0.750173
Si Si8 0.792937 0.114771 0.788632
O O1 0.648331 0.366496 0.855583
O O2 0.577941 0.321708 0.902873
O O3 0.677294 0.183060 0.922048
O O4 0.933880 0.314185 0.198058
O O5 0.771278 0.870009 0.476733
O O6 0.705567 0.864603 0.530540
O O7 0.534277 0.000000 0.301661
O O8 0.108494 0.321708 0.635818
O O9 0.752601 0.314175 0.340732
O O10 0.009213 0.183034 0.616727
O O11 0.038291 0.366450 0.683291
O O12 0.652340 0.500000 0.237164
O O13 0.415305 0.629833 0.062183
O O14 0.480834 0.635467 0.008192
O O15 0.677161 0.000000 0.887359
O O16 0.008936 0.000000 0.651052
O O17 0.843312 0.851240 0.769458
O O18 0.953153 0.000000 0.803689
O O19 0.733439 0.000000 0.735193
#
# Coordination Sequence:
#
# PCOD8052725 Si02
#       8
#     4   4   4   4   4   4   4   4
#     4  10  17  28  46  63  86 117 142 168 211 256
#     4   9  16  27  44  65  87 110 138 171 211 257
#     4  10  17  28  46  63  86 117 142 168 211 256
#     4   9  16  27  44  65  87 110 138 171 211 257
#     4   9  18  29  42  65  91 111 138 176 210 248
#     4   9  18  29  42  65  91 111 138 176 210 248
#     4   9  18  30  43  64  90 111 139 178 212 248
#     4   9  18  30  43  64  90 111 139 178 212 248
#
# _framework density 15.485791000000001
#
# number of rings (size 3 to 8) (size 9 to 14) (size 15 to 20)
#    0.000    2.750    0.000    4.500    0.000    1.000 
#    0.000    3.750    0.000    0.750    0.000    1.750 
#    0.000    0.000    0.000    0.000    0.000    0.000 
#
# Total GULP energy -198425.063436 kJ/mol
# GULP energy per Si atom -12401.566465 kJ/mol
# Density = 1.545054 g / cm^3
# Si number density = 15.485791 Si / 1000 Ang^3
#
#
#
# Elastic Constant Matrix: (Units=GPa)
#
#
# Indices 1 2 3 4 5 6 
#
# 1 93.2180 53.1732 32.7940 0.0814 1.9057 0.0264
# 2 53.1732 94.0932 36.6925 -0.1058 4.2473 -0.0412
# 3 32.7940 36.6925 83.2064 0.0025 5.3832 -0.0020
# 4 0.0814 -0.1058 0.0025 17.3728 -0.0093 0.6258
# 5 1.9057 4.2473 5.3832 -0.0093 10.2288 0.0103
# 6 0.0264 -0.0412 -0.0020 0.6258 0.0103 24.7092
#
#
#
# Elastic Compliance Matrix: (Units=1/GPa)
#
#
# Indices 1 2 3 4 5 6 
#
# 1 0.016414 -0.008202 -0.002976 -0.000124 0.001914 -0.000029
# 2 -0.008202 0.016992 -0.004041 0.000139 -0.003401 0.000035
# 3 -0.002976 -0.004041 0.015351 -0.000016 -0.005847 0.000001
# 4 -0.000124 0.000139 -0.000016 0.057615 0.000027 -0.001459
# 5 0.001914 -0.003401 -0.005847 0.000027 0.101896 -0.000052
# 6 -0.000029 0.000035 0.000001 -0.001459 -0.000052 0.040508
#
#
# Mechanical properties :
#
#
# Convention : Reuss Voigt Hill
#
# Bulk Modulus (GPa) = 54.58408 57.31520 55.94964
# Shear Modulus (GPa) = 17.52416 20.31935 18.92176
#
# Velocity S-wave (km/s) = 3.36762 3.62626 3.49933
# Velocity P-wave (km/s) = 7.10250 7.39086 7.24812
#
# Compressibility (1/GPa) = 0.01832036
#
# Stress axis : x y z
#
# Youngs Moduli (GPa) = 60.92388 58.85134 65.14041
#
# Poissons Ratio (x) = 0.48268 0.19387
# Poissons Ratio (y) = 0.49967 0.26321
# Poissons Ratio (z) = 0.18132 0.23780
#
# Static dielectric constant tensor:
#      x y z
#    x 2.844590 -0.000020 -0.007640 
#    y -0.000020 2.858100 -0.000020 
#    z -0.007640 -0.000020 2.901370 
# 
# 
# High freq. dielectric constant tensor:
#      x y z
#    x 1.572300 0.000000 0.002400 
#    y 0.000000 1.576440 -0.000010 
#    z 0.002400 -0.000010 1.600070 
# 
# From -- ./inp_files/5633.got.cif
#   From: 2010.03.12/outbox.cif.g09.slc.cpg/sg8_3_cif.got.tgz:5633.got - 2010.03.31 10:45:26.
