data_PCOD8052366
_publ_section_title
;
Structure prediction by ZEFSAII (Michael W. Deem and Ramdas Pophale) SiO2 
 PCOD8052366
Probable space group: P M
;
_chemical_formula_sum "Si O2"
_cell_formula_units_Z 16
_cell_length_a 12.047121
_cell_length_b 8.569299
_cell_length_c 10.009074
_cell_angle_alpha 90.000000
_cell_angle_beta 54.444808
_cell_angle_gamma 90.000000
_cell_volume 840.639501
_symmetry_space_group_name_H-M "P M"
_symmetry_group_IT_number 6
_symmetry_cell_setting 'monoclinic'
loop_
_space_group_symop_operation_xyz
x,y,z
x,-y,z
loop_
_atom_site_type_symbol
_atom_site_label
_atom_site_fract_x
_atom_site_fract_y
_atom_site_fract_z
Si Si1 0.957020 0.680339 0.559290
Si Si2 0.106260 0.179837 0.693006
Si Si3 0.174377 0.682146 0.915140
Si Si4 0.443556 0.815234 0.105791
Si Si5 0.663387 0.817190 0.738248
Si Si6 0.483122 0.681208 0.643719
Si Si7 0.419242 0.818639 0.418744
Si Si8 0.154536 0.183102 0.207413
O O1 0.983794 0.500000 0.509307
O O2 0.798779 0.717019 0.653839
O O3 0.001832 0.719477 0.678550
O O4 0.040793 0.785398 0.397362
O O5 0.091390 0.228957 0.857673
O O6 0.258055 0.213736 0.534570
O O7 0.066318 0.000000 0.705229
O O8 0.156435 0.500000 0.902995
O O9 0.333204 0.731308 0.798935
O O10 0.111781 0.731845 0.100477
O O11 0.473232 0.760585 0.236769
O O12 0.299403 0.746953 0.155295
O O13 0.430603 0.000000 0.112778
O O14 0.564664 0.757089 0.925977
O O15 0.592296 0.784376 0.646391
O O16 0.695901 0.000000 0.728555
O O17 0.512444 0.500000 0.648430
O O18 0.496934 0.718935 0.476798
O O19 0.450104 0.000000 0.422859
O O20 0.163710 0.000000 0.173368
#
# Coordination Sequence:
#
# PCOD8052366 Si02
#       8
#     2   2   2   2   2   2   2   2
#     4  12  25  40  57  84 121 157 191 241 301 352
#     4  10  19  35  59  85 114 153 197 240 285 344
#     4  10  20  34  55  88 123 152 187 241 297 341
#     4   9  18  34  59  88 113 141 190 244 284 330
#     4  11  22  39  61  84 113 155 197 237 286 348
#     4  10  20  34  53  84 120 152 187 232 289 346
#     4   9  17  33  57  85 113 144 186 239 287 336
#     4  11  20  37  61  88 115 150 199 244 285 343
#
# _framework density 19.03313
#
# number of rings (size 3 to 8) (size 9 to 14) (size 15 to 20)
#    0.000    1.750    2.500    3.000    0.000    1.500 
#    0.000    2.500    0.000    1.500    0.000    0.000 
#    0.000    0.000    0.000    0.000    0.000    0.000 
#
# Total GULP energy -198473.740178 kJ/mol
# GULP energy per Si atom -12404.608761 kJ/mol
# Density = 1.898981 g / cm^3
# Si number density = 19.033130 Si / 1000 Ang^3
#
#
#
# Elastic Constant Matrix: (Units=GPa)
#
#
# Indices 1 2 3 4 5 6 
#
# 1 90.5839 20.5105 46.4888 0.0000 12.8929 0.0000
# 2 20.5105 53.7283 10.1966 0.0000 3.3742 0.0000
# 3 46.4888 10.1966 103.8801 0.0000 16.3996 0.0000
# 4 0.0000 0.0000 0.0000 22.2711 0.0000 3.1870
# 5 12.8929 3.3742 16.3996 0.0000 31.2472 0.0000
# 6 0.0000 0.0000 0.0000 3.1870 0.0000 29.0284
#
#
#
# Elastic Compliance Matrix: (Units=1/GPa)
#
#
# Indices 1 2 3 4 5 6 
#
# 1 0.015607 -0.004629 -0.006098 0.000000 -0.002739 0.000000
# 2 -0.004629 0.020377 0.000128 0.000000 -0.000358 0.000000
# 3 -0.006098 0.000128 0.013027 0.000000 -0.004335 0.000000
# 4 0.000000 0.000000 0.000000 0.045618 0.000000 -0.005008
# 5 -0.002739 -0.000358 -0.004335 0.000000 0.035447 0.000000
# 6 0.000000 0.000000 0.000000 -0.005008 0.000000 0.034999
#
#
# Mechanical properties :
#
#
# Convention : Reuss Voigt Hill
#
# Bulk Modulus (GPa) = 35.95277 44.73156 40.34216
# Shear Modulus (GPa) = 25.56977 27.90910 26.73944
#
# Velocity S-wave (km/s) = 3.66927 3.83344 3.75225
# Velocity P-wave (km/s) = 6.07305 6.56861 6.32569
#
# Compressibility (1/GPa) = 0.02781427
#
# Stress axis : x y z
#
# Youngs Moduli (GPa) = 64.07472 49.07413 76.76290
#
# Poissons Ratio (x) = 0.22714 0.46807
# Poissons Ratio (y) = 0.29657 -0.00980
# Poissons Ratio (z) = 0.39070 -0.00627
#
# Static dielectric constant tensor:
#      x y z
#    x 3.363130 0.000000 0.199530 
#    y 0.000000 3.338410 0.000000 
#    z 0.199530 0.000000 3.513060 
# 
# 
# High freq. dielectric constant tensor:
#      x y z
#    x 1.727550 0.000000 0.024290 
#    y 0.000000 1.735730 0.000000 
#    z 0.024290 0.000000 1.735950 
# 
# From -- ./inp_files/3724.got.cif
#   From: 2010.03.12/outbox.cif.g09.slc.cpg/sg6_2_cif.got.tgz:3724.got - 2010.03.30 10:24:59.
