data_PCOD8052606
_publ_section_title
;
Structure prediction by ZEFSAII (Michael W. Deem and Ramdas Pophale) SiO2 
 PCOD8052606
Probable space group: P C
;
_chemical_formula_sum "Si O2"
_cell_formula_units_Z 16
_cell_length_a 18.003788
_cell_length_b 8.285020
_cell_length_c 5.243746
_cell_angle_alpha 90.000000
_cell_angle_beta 98.396516
_cell_angle_gamma 90.000000
_cell_volume 773.782424
_symmetry_space_group_name_H-M "P C"
_symmetry_group_IT_number 7
_symmetry_cell_setting 'monoclinic'
loop_
_space_group_symop_operation_xyz
x,y,z
x,-y,1/2+z
loop_
_atom_site_type_symbol
_atom_site_label
_atom_site_fract_x
_atom_site_fract_y
_atom_site_fract_z
Si Si1 0.290840 0.107153 0.186090
Si Si2 0.378701 0.581804 0.730023
Si Si3 0.841733 0.612023 0.461004
Si Si4 0.555900 0.092286 0.817458
Si Si5 0.733425 0.901375 0.406709
Si Si6 0.129054 0.105376 0.105061
Si Si7 0.965226 0.888665 0.522905
Si Si8 0.542205 0.550868 0.311968
O O1 0.359001 0.231090 0.220307
O O2 0.208911 0.201218 0.145038
O O3 0.299373 0.999968 0.440332
O O4 0.342880 0.500083 0.461997
O O5 0.468828 0.563878 0.775208
O O6 0.844057 0.499992 0.712160
O O7 0.766689 0.721247 0.423401
O O8 0.910401 0.736917 0.495430
O O9 0.644543 0.121724 0.862231
O O10 0.515922 0.264973 0.798774
O O11 0.528542 0.000837 0.552972
O O12 0.760191 0.000005 0.670127
O O13 0.048540 0.196282 0.064656
O O14 0.129776 0.000058 0.355484
O O15 0.952360 0.000002 0.266457
O O16 0.590221 0.500036 0.586052
#
# Coordination Sequence:
#
# PCOD8052606 Si02
#       8
#     2   2   2   2   2   2   2   2
#     4  10  19  35  58  82 106 138 186 233 265 311
#     4  10  21  38  53  77 111 144 175 214 274 335
#     4  12  24  36  53  84 118 145 180 225 272 319
#     4  10  21  38  61  85 106 137 186 233 265 311
#     4  10  21  39  60  81 107 144 187 224 268 323
#     4   8  16  30  53  80 102 134 184 230 266 309
#     4  10  19  36  58  77 106 150 188 221 268 323
#     4  10  21  38  56  78 112 144 172 214 274 335
#
# _framework density 20.677648999999999
#
# number of rings (size 3 to 8) (size 9 to 14) (size 15 to 20)
#    0.000    2.000    0.000    3.750    0.000    1.000 
#    0.000   16.250    0.000    0.000    0.000    0.000 
#    0.000    0.000    0.000    0.000    0.000    0.000 
#
# Total GULP energy -198226.654480 kJ/mol
# GULP energy per Si atom -12389.165905 kJ/mol
# Density = 2.063059 g / cm^3
# Si number density = 20.677649 Si / 1000 Ang^3
#
#
#
# Elastic Constant Matrix: (Units=GPa)
#
#
# Indices 1 2 3 4 5 6 
#
# 1 40.8942 14.9201 11.5341 0.0000 0.1606 0.0000
# 2 14.9201 102.6195 61.7455 0.0000 -7.5166 0.0000
# 3 11.5341 61.7455 210.8488 0.0000 -28.0322 0.0000
# 4 0.0000 0.0000 0.0000 41.0664 0.0000 -3.8386
# 5 0.1606 -7.5166 -28.0322 0.0000 16.7330 0.0000
# 6 0.0000 0.0000 0.0000 -3.8386 0.0000 17.8689
#
#
#
# Elastic Compliance Matrix: (Units=1/GPa)
#
#
# Indices 1 2 3 4 5 6 
#
# 1 0.025980 -0.003521 -0.000815 0.000000 -0.003196 0.000000
# 2 -0.003521 0.012311 -0.003439 0.000000 -0.000197 0.000000
# 3 -0.000815 -0.003439 0.007192 0.000000 0.010511 0.000000
# 4 0.000000 0.000000 0.000000 0.024850 0.000000 0.005338
# 5 -0.003196 -0.000197 0.010511 0.000000 0.077314 0.000000
# 6 0.000000 0.000000 0.000000 0.005338 0.000000 0.057110
#
#
# Mechanical properties :
#
#
# Convention : Reuss Voigt Hill
#
# Bulk Modulus (GPa) = 33.40718 58.97355 46.19037
# Shear Modulus (GPa) = 21.71221 32.87783 27.29502
#
# Velocity S-wave (km/s) = 3.24394 3.99183 3.63716
# Velocity P-wave (km/s) = 5.49746 7.05894 6.32656
#
# Compressibility (1/GPa) = 0.02993368
#
# Stress axis : x y z
#
# Youngs Moduli (GPa) = 38.49055 81.22557 139.04658
#
# Poissons Ratio (x) = 0.28600 0.11333
# Poissons Ratio (y) = 0.13553 0.47816
# Poissons Ratio (z) = 0.03137 0.27932
#
# Static dielectric constant tensor:
#      x y z
#    x 4.018250 0.000000 -0.205740 
#    y 0.000000 3.518610 0.000000 
#    z -0.205740 0.000000 5.229630 
# 
# 
# High freq. dielectric constant tensor:
#      x y z
#    x 1.802750 0.000000 -0.007410 
#    y 0.000000 1.782450 0.000000 
#    z -0.007410 0.000000 1.847650 
# 
# From -- ./inp_files/1440.got.cif
#   From: 2010.03.12/outbox.cif.g09.slc.cpg/sg7_cif.got.tgz:1440.got - 2010.03.30 08:40:41.
