data_PCOD8052634
_publ_section_title
;
Structure prediction by ZEFSAII (Michael W. Deem and Ramdas Pophale) SiO2 
 PCOD8052634
Probable space group: P C
;
_chemical_formula_sum "Si O2"
_cell_formula_units_Z 12
_cell_length_a 14.694786
_cell_length_b 7.158262
_cell_length_c 5.229713
_cell_angle_alpha 90.000000
_cell_angle_beta 99.717719
_cell_angle_gamma 90.000000
_cell_volume 542.215612
_symmetry_space_group_name_H-M "P C"
_symmetry_group_IT_number 7
_symmetry_cell_setting 'monoclinic'
loop_
_space_group_symop_operation_xyz
x,y,z
x,-y,1/2+z
loop_
_atom_site_type_symbol
_atom_site_label
_atom_site_fract_x
_atom_site_fract_y
_atom_site_fract_z
Si Si1 0.302080 0.876877 0.984930
Si Si2 0.130523 0.381416 0.442573
Si Si3 0.755149 0.881693 0.758096
Si Si4 0.571170 0.293126 0.093051
Si Si5 0.963361 0.121090 0.320822
Si Si6 0.491750 0.290107 0.555005
O O1 0.201963 0.785818 0.942188
O O2 0.314036 0.988552 0.729837
O O3 0.380977 0.716316 0.032654
O O4 0.146447 0.467382 0.729313
O O5 0.027598 0.301428 0.372547
O O6 0.682231 0.713544 0.678817
O O7 0.858702 0.801774 0.781964
O O8 0.739496 0.038977 0.534967
O O9 0.522362 0.187175 0.307500
O O10 0.531276 0.501040 0.041475
O O11 0.540970 0.187725 0.818029
O O12 0.983598 0.979502 0.561834
#
# Coordination Sequence:
#
# PCOD8052634 Si02
#       6
#     2   2   2   2   2   2
#     4  12  26  44  68  97 126 172 219 266 320 388
#     4  12  26  43  69 101 131 168 211 267 326 390
#     4  10  21  37  64  93 126 170 215 260 311 376
#     4  10  21  39  58  90 125 173 205 268 313 372
#     4  10  21  43  68  95 134 171 211 265 319 379
#     4  10  23  38  61  86 126 170 207 264 323 369
#
# _framework density 22.131416999999999
#
# number of rings (size 3 to 8) (size 9 to 14) (size 15 to 20)
#    0.000    1.333    0.000    5.000    4.667    4.000 
#    6.000    0.000    0.000    0.000    0.000    0.000 
#    0.000    0.000    0.000    0.000    0.000    0.000 
#
# Total GULP energy -148777.232046 kJ/mol
# GULP energy per Si atom -12398.102671 kJ/mol
# Density = 2.208105 g / cm^3
# Si number density = 22.131417 Si / 1000 Ang^3
#
#
#
# Elastic Constant Matrix: (Units=GPa)
#
#
# Indices 1 2 3 4 5 6 
#
# 1 134.3366 41.1397 24.3837 0.0000 13.3687 0.0000
# 2 41.1397 63.7258 4.4171 0.0000 7.2684 0.0000
# 3 24.3837 4.4171 157.9628 0.0000 -9.7569 0.0000
# 4 0.0000 0.0000 0.0000 13.3376 0.0000 11.8134
# 5 13.3687 7.2684 -9.7569 0.0000 37.9156 0.0000
# 6 0.0000 0.0000 0.0000 11.8134 0.0000 52.2625
#
#
#
# Elastic Compliance Matrix: (Units=1/GPa)
#
#
# Indices 1 2 3 4 5 6 
#
# 1 0.009799 -0.005912 -0.001515 0.000000 -0.002712 0.000000
# 2 -0.005912 0.019675 0.000262 0.000000 -0.001620 0.000000
# 3 -0.001515 0.000262 0.006693 0.000000 0.002206 0.000000
# 4 0.000000 0.000000 0.000000 0.093745 0.000000 -0.021190
# 5 -0.002712 -0.001620 0.002206 0.000000 0.028209 0.000000
# 6 0.000000 0.000000 0.000000 -0.021190 0.000000 0.023924
#
#
# Mechanical properties :
#
#
# Convention : Reuss Voigt Hill
#
# Bulk Modulus (GPa) = 45.78903 55.10069 50.44486
# Shear Modulus (GPa) = 24.55148 39.77545 32.16346
#
# Velocity S-wave (km/s) = 3.33430 4.24398 3.81635
# Velocity P-wave (km/s) = 5.96305 6.99759 6.50093
#
# Compressibility (1/GPa) = 0.02183929
#
# Stress axis : x y z
#
# Youngs Moduli (GPa) = 102.04844 50.82502 149.40146
#
# Poissons Ratio (x) = 0.30047 0.22632
# Poissons Ratio (y) = 0.60330 -0.03919
# Poissons Ratio (z) = 0.15459 -0.01333
#
# Static dielectric constant tensor:
#      x y z
#    x 4.234850 0.000000 -0.178270 
#    y 0.000000 3.591310 0.000000 
#    z -0.178270 0.000000 5.440050 
# 
# 
# High freq. dielectric constant tensor:
#      x y z
#    x 1.885120 0.000000 -0.003230 
#    y 0.000000 1.838490 0.000000 
#    z -0.003230 0.000000 1.910460 
# 
# From -- ./inp_files/1248.got.cif
#   From: 2010.03.12/outbox.cif.g09.slc.cpg/sg7_cif.got.tgz:1248.got - 2010.03.30 08:40:41.
