data_PCOD8052661
_publ_section_title
;
Structure prediction by ZEFSAII (Michael W. Deem and Ramdas Pophale) SiO2 
 PCOD8052661
Probable space group: P C
;
_chemical_formula_sum "Si O2"
_cell_formula_units_Z 14
_cell_length_a 8.852795
_cell_length_b 16.178798
_cell_length_c 5.109418
_cell_angle_alpha 90.000000
_cell_angle_beta 122.317940
_cell_angle_gamma 90.000000
_cell_volume 618.448241
_symmetry_space_group_name_H-M "P C"
_symmetry_group_IT_number 7
_symmetry_cell_setting 'monoclinic'
loop_
_space_group_symop_operation_xyz
x,y,z
x,-y,1/2+z
loop_
_atom_site_type_symbol
_atom_site_label
_atom_site_fract_x
_atom_site_fract_y
_atom_site_fract_z
Si Si1 0.725240 0.312987 0.337890
Si Si2 0.690404 0.960871 0.486772
Si Si3 0.315131 0.311374 0.923451
Si Si4 0.815980 0.211810 0.929875
Si Si5 0.300733 0.967851 0.748116
Si Si6 0.226148 0.790909 0.833890
Si Si7 0.016692 0.554204 0.100035
O O1 0.744083 0.244803 0.584874
O O2 0.841258 0.393255 0.511772
O O3 0.520881 0.338518 0.102048
O O4 0.802654 0.281841 0.135463
O O5 0.697632 0.865214 0.414731
O O6 0.784934 0.982828 0.848856
O O7 0.483761 0.987945 0.315070
O O8 0.270980 0.241042 0.666896
O O9 0.195625 0.391838 0.777170
O O10 0.278581 0.279546 0.180185
O O11 0.020567 0.184328 0.103294
O O12 0.335359 0.873627 0.865963
O O13 0.194697 0.979068 0.373910
O O14 0.016262 0.479950 0.305706
#
# Coordination Sequence:
#
# PCOD8052661 Si02
#       7
#     2   2   2   2   2   2   2
#     4  12  27  46  76 113 142 194 243 285 371 442
#     4  10  23  38  60  96 138 186 246 296 370 397
#     4  12  27  46  76 113 142 194 243 285 371 442
#     4  12  24  45  72 101 150 193 248 308 357 433
#     4  10  23  38  60  96 138 186 246 296 370 397
#     4  12  24  45  72 101 150 193 248 308 357 433
#     4  12  26  50  80 110 154 178 228 308 364 436
#
# _framework density 22.637301999999998
#
# number of rings (size 3 to 8) (size 9 to 14) (size 15 to 20)
#    0.000    0.571    2.857    4.286   12.000    2.286 
#    0.000    0.000    0.000    0.000    0.000    0.000 
#    0.000    0.000    0.000    0.000    0.000    0.000 
#
# Total GULP energy -173573.594207 kJ/mol
# GULP energy per Si atom -12398.113872 kJ/mol
# Density = 2.258578 g / cm^3
# Si number density = 22.637302 Si / 1000 Ang^3
#
#
#
# Elastic Constant Matrix: (Units=GPa)
#
#
# Indices 1 2 3 4 5 6 
#
# 1 96.4042 42.1715 50.0472 0.0000 -6.2280 0.0000
# 2 42.1715 105.1043 24.3048 0.0000 15.0326 0.0000
# 3 50.0472 24.3048 101.4654 0.0000 -1.4811 0.0000
# 4 0.0000 0.0000 0.0000 39.3864 0.0000 -11.4617
# 5 -6.2280 15.0326 -1.4811 0.0000 56.8881 0.0000
# 6 0.0000 0.0000 0.0000 -11.4617 0.0000 48.4408
#
#
#
# Elastic Compliance Matrix: (Units=1/GPa)
#
#
# Indices 1 2 3 4 5 6 
#
# 1 0.016490 -0.005491 -0.006774 0.000000 0.003080 0.000000
# 2 -0.005491 0.012341 -0.000304 0.000000 -0.003870 0.000000
# 3 -0.006774 -0.000304 0.013265 0.000000 -0.000316 0.000000
# 4 0.000000 0.000000 0.000000 0.027267 0.000000 0.006452
# 5 0.003080 -0.003870 -0.000316 0.000000 0.018930 0.000000
# 6 0.000000 0.000000 0.000000 0.006452 0.000000 0.022170
#
#
# Mechanical properties :
#
#
# Convention : Reuss Voigt Hill
#
# Bulk Modulus (GPa) = 58.96512 59.55789 59.26151
# Shear Modulus (GPa) = 35.39723 41.37309 38.38516
#
# Velocity S-wave (km/s) = 3.95861 4.27974 4.12231
# Velocity P-wave (km/s) = 6.85554 7.12659 6.99238
#
# Compressibility (1/GPa) = 0.01695918
#
# Stress axis : x y z
#
# Youngs Moduli (GPa) = 60.64211 81.02858 75.38684
#
# Poissons Ratio (x) = 0.44490 0.51064
# Poissons Ratio (y) = 0.33296 0.02296
# Poissons Ratio (z) = 0.41076 0.02467
#
# Static dielectric constant tensor:
#      x y z
#    x 4.435640 0.000000 -0.453680 
#    y 0.000000 3.874490 0.000000 
#    z -0.453680 0.000000 4.944500 
# 
# 
# High freq. dielectric constant tensor:
#      x y z
#    x 1.906410 0.000000 -0.019360 
#    y 0.000000 1.883630 0.000000 
#    z -0.019360 0.000000 1.912650 
# 
# From -- ./inp_files/816.got.cif
#   From: 2010.03.12/outbox.cif.g09.slc.cpg/sg7_cif.got.tgz:816.got - 2010.03.30 08:40:41.
