data_PCOD8052926
_publ_section_title
;
Structure prediction by ZEFSAII (Michael W. Deem and Ramdas Pophale) SiO2 
 PCOD8052926
Probable space group: C M
;
_chemical_formula_sum "Si O2"
_cell_formula_units_Z 20
_cell_length_a 9.034680
_cell_length_b 17.677638
_cell_length_c 10.299295
_cell_angle_alpha 90.000000
_cell_angle_beta 40.861194
_cell_angle_gamma 90.000000
_cell_volume 1076.153247
_symmetry_space_group_name_H-M "C M"
_symmetry_group_IT_number 8
_symmetry_cell_setting 'monoclinic'
loop_
_space_group_symop_operation_xyz
x,y,z
x,-y,z
1/2+x,1/2+y,z
1/2+x,1/2-y,z
loop_
_atom_site_type_symbol
_atom_site_label
_atom_site_fract_x
_atom_site_fract_y
_atom_site_fract_z
Si Si1 0.745260 0.413089 0.456530
Si Si2 0.617322 0.587472 0.837044
Si Si3 0.185734 0.339129 0.234461
Si Si4 0.966848 0.798255 0.489413
Si Si5 0.052049 0.336127 0.597771
O O1 0.727031 0.500000 0.434383
O O2 0.655249 0.394689 0.660362
O O3 0.603042 0.372142 0.439609
O O4 0.003921 0.386854 0.273287
O O5 0.549697 0.500000 0.905857
O O6 0.848206 0.605541 0.763876
O O7 0.426938 0.645808 0.010680
O O8 0.193778 0.367427 0.379252
O O9 0.105202 0.250161 0.286995
O O10 0.720099 0.825224 0.606364
O O11 0.937239 0.744439 0.635179
#
# Coordination Sequence:
#
# PCOD8052926 Si02
#       5
#     4   4   4   4   4
#     4  10  20  37  60  85 117 149 189 238 285 338
#     4  10  20  36  60  86 112 154 191 232 288 336
#     4   9  18  37  56  83 114 148 190 229 276 349
#     4  10  18  40  55  84 114 147 195 227 289 334
#     4   9  19  36  56  82 113 150 189 234 277 341
#
# _framework density 18.584713000000001
#
# number of rings (size 3 to 8) (size 9 to 14) (size 15 to 20)
#    1.200    1.200    2.000    0.600    0.000    1.600 
#   14.400    0.000    0.000    0.000    0.000    0.000 
#    0.000    0.000    0.000    0.000    0.000    0.000 
#
# Total GULP energy -123911.198964 kJ/mol
# GULP energy per Si atom -12391.119896 kJ/mol
# Density = 1.854241 g / cm^3
# Si number density = 18.584713 Si / 1000 Ang^3
#
#
#
# Elastic Constant Matrix: (Units=GPa)
#
#
# Indices 1 2 3 4 5 6 
#
# 1 111.5043 37.9047 39.2286 -0.0001 -22.1201 0.0001
# 2 37.9047 99.5443 38.2636 0.0000 -12.8863 0.0000
# 3 39.2286 38.2636 73.2019 0.0000 -24.7634 0.0000
# 4 -0.0001 0.0000 0.0000 22.3236 0.0000 -3.5778
# 5 -22.1201 -12.8863 -24.7634 0.0000 17.6067 0.0000
# 6 0.0001 0.0000 0.0000 -3.5778 0.0000 37.4138
#
#
#
# Elastic Compliance Matrix: (Units=1/GPa)
#
#
# Indices 1 2 3 4 5 6 
#
# 1 0.012793 -0.002807 -0.001233 0.000000 0.012284 0.000000
# 2 -0.002807 0.013188 -0.006328 0.000000 -0.002774 0.000000
# 3 -0.001233 -0.006328 0.029642 0.000000 0.035511 0.000000
# 4 0.000000 0.000000 0.000000 0.045493 0.000000 0.004350
# 5 0.012284 -0.002774 0.035511 0.000000 0.120145 0.000000
# 6 0.000000 0.000000 0.000000 0.004350 0.000000 0.027144
#
#
# Mechanical properties :
#
#
# Convention : Reuss Voigt Hill
#
# Bulk Modulus (GPa) = 28.66351 57.22715 42.94533
# Shear Modulus (GPa) = 17.80822 26.72573 22.26698
#
# Velocity S-wave (km/s) = 3.09887 3.79628 3.46516
# Velocity P-wave (km/s) = 5.31607 7.07637 6.25842
#
# Compressibility (1/GPa) = 0.03488756
#
# Stress axis : x y z
#
# Youngs Moduli (GPa) = 78.16636 75.82736 33.73595
#
# Poissons Ratio (x) = 0.21287 0.04159
# Poissons Ratio (y) = 0.21944 0.21347
# Poissons Ratio (z) = 0.09636 0.47981
#
# Static dielectric constant tensor:
#      x y z
#    x 3.299190 0.000000 -0.089480 
#    y 0.000000 3.372230 0.000000 
#    z -0.089480 0.000000 3.009680 
# 
# 
# High freq. dielectric constant tensor:
#      x y z
#    x 1.717150 0.000000 -0.016950 
#    y 0.000000 1.718070 0.000000 
#    z -0.016950 0.000000 1.685240 
# 
# From -- ./inp_files/1163.got.cif
#   From: 2010.03.12/outbox.cif.g09.slc.cpg/sg8_1_cif.got.tgz:1163.got - 2010.03.31 10:45:26.
