data_PCOD8052810
_publ_section_title
;
Structure prediction by ZEFSAII (Michael W. Deem and Ramdas Pophale) SiO2 
 PCOD8052810
Probable space group: C M
;
_chemical_formula_sum "Si O2"
_cell_formula_units_Z 32
_cell_length_a 20.925809
_cell_length_b 9.121407
_cell_length_c 20.433072
_cell_angle_alpha 90.000000
_cell_angle_beta 28.279483
_cell_angle_gamma 90.000000
_cell_volume 1847.770215
_symmetry_space_group_name_H-M "C M"
_symmetry_group_IT_number 8
_symmetry_cell_setting 'monoclinic'
loop_
_space_group_symop_operation_xyz
x,y,z
x,-y,z
1/2+x,1/2+y,z
1/2+x,1/2-y,z
loop_
_atom_site_type_symbol
_atom_site_label
_atom_site_fract_x
_atom_site_fract_y
_atom_site_fract_z
Si Si1 0.734090 0.171172 0.564590
Si Si2 0.650918 0.328753 0.867682
Si Si3 0.864357 0.329037 0.567631
Si Si4 0.687624 0.675014 0.980410
Si Si5 0.109687 0.828282 0.297796
Si Si6 0.934807 0.672351 0.840490
Si Si7 0.496750 0.671361 0.262412
Si Si8 0.912665 0.672168 0.007866
O O1 0.771878 0.261071 0.594624
O O2 0.582978 0.212304 0.678878
O O3 0.837186 0.209037 0.412160
O O4 0.745208 0.000000 0.573277
O O5 0.616726 0.500000 0.899860
O O6 0.788646 0.298387 0.704086
O O7 0.673117 0.263371 0.920311
O O8 0.523257 0.249727 0.951889
O O9 0.881914 0.500000 0.538055
O O10 0.012862 0.255586 0.436470
O O11 0.692069 0.500000 0.973431
O O12 0.824256 0.738239 0.890548
O O13 0.561948 0.736257 0.137352
O O14 0.073194 0.769565 0.257980
O O15 0.265876 0.793686 0.171271
O O16 0.078365 0.000000 0.331885
O O17 0.911387 0.500000 0.865775
O O18 0.918042 0.735431 0.929009
O O19 0.523021 0.500000 0.235851
O O20 0.943137 0.500000 0.980100
#
# Coordination Sequence:
#
# PCOD8052810 Si02
#       8
#     4   4   4   4   4   4   4   4
#     4   9  16  27  48  75  95 117 158 208 248 278
#     4  10  21  33  47  71 105 139 161 188 242 304
#     4  10  19  30  44  69 103 135 161 188 237 298
#     4   9  16  29  47  69  99 128 158 200 244 285
#     4   9  17  30  51  76  94 117 162 213 249 276
#     4   9  15  26  48  75  95 117 158 208 243 271
#     4   8  13  24  44  70  94 115 150 199 244 279
#     4  10  18  31  53  77  97 122 164 212 247 281
#
# _framework density 17.318171
#
# number of rings (size 3 to 8) (size 9 to 14) (size 15 to 20)
#    0.000    2.750    2.500    1.125    0.000    1.000 
#    0.000    1.250    0.000    9.000    0.000    0.000 
#    0.000    0.000    0.000    0.000    0.000    0.000 
#
# Total GULP energy -198301.878964 kJ/mol
# GULP energy per Si atom -12393.867435 kJ/mol
# Density = 1.727875 g / cm^3
# Si number density = 17.318171 Si / 1000 Ang^3
#
#
#
# Elastic Constant Matrix: (Units=GPa)
#
#
# Indices 1 2 3 4 5 6 
#
# 1 123.7358 28.4681 81.7827 0.0001 -0.8431 0.0000
# 2 28.4681 37.1699 42.6140 0.0006 -0.3822 -0.0003
# 3 81.7827 42.6140 166.3628 0.0003 -3.7592 -0.0002
# 4 0.0001 0.0006 0.0003 20.4673 -0.0001 -1.5521
# 5 -0.8431 -0.3822 -3.7592 -0.0001 26.9577 0.0000
# 6 0.0000 -0.0003 -0.0002 -1.5521 0.0000 16.9595
#
#
#
# Elastic Compliance Matrix: (Units=1/GPa)
#
#
# Indices 1 2 3 4 5 6 
#
# 1 0.012292 -0.003512 -0.005152 0.000000 -0.000384 0.000000
# 2 -0.003512 0.039111 -0.008308 -0.000001 -0.000714 0.000001
# 3 -0.005152 -0.008308 0.010699 0.000000 0.001213 0.000000
# 4 0.000000 -0.000001 0.000000 0.049200 0.000000 0.004503
# 5 -0.000384 -0.000714 0.001213 0.000000 0.037242 0.000000
# 6 0.000000 0.000001 0.000000 0.004503 0.000000 0.059376
#
#
# Mechanical properties :
#
#
# Convention : Reuss Voigt Hill
#
# Bulk Modulus (GPa) = 35.51327 70.33312 52.92319
# Shear Modulus (GPa) = 19.90051 24.50381 22.20216
#
# Velocity S-wave (km/s) = 3.39353 3.76562 3.58441
# Velocity P-wave (km/s) = 5.99213 7.72056 6.91060
#
# Compressibility (1/GPa) = 0.02815849
#
# Stress axis : x y z
#
# Youngs Moduli (GPa) = 81.35225 25.56839 93.46628
#
# Poissons Ratio (x) = 0.08980 0.48152
# Poissons Ratio (y) = 0.28571 0.77651
# Poissons Ratio (z) = 0.41911 0.21242
#
# Static dielectric constant tensor:
#      x y z
#    x 3.153110 0.000000 0.012040 
#    y 0.000000 2.857830 0.000000 
#    z 0.012040 0.000000 3.619970 
# 
# 
# High freq. dielectric constant tensor:
#      x y z
#    x 1.640600 0.000000 -0.006290 
#    y 0.000000 1.625800 0.000000 
#    z -0.006290 0.000000 1.690860 
# 
# From -- ./inp_files/29743.got.cif
#   From: 2010.03.12/outbox.cif.g09.slc.cpg/sg8_15_cif.got.tgz:29743.got - 2010.03.31 10:45:26.
