data_PCOD8052522
_publ_section_title
;
Structure prediction by ZEFSAII (Michael W. Deem and Ramdas Pophale) SiO2 
 PCOD8052522
Probable space group: P M
;
_chemical_formula_sum "Si O2"
_cell_formula_units_Z 14
_cell_length_a 12.886397
_cell_length_b 10.462247
_cell_length_c 14.775381
_cell_angle_alpha 90.000000
_cell_angle_beta 159.855852
_cell_angle_gamma 90.000000
_cell_volume 686.020526
_symmetry_space_group_name_H-M "P M"
_symmetry_group_IT_number 6
_symmetry_cell_setting 'monoclinic'
loop_
_space_group_symop_operation_xyz
x,y,z
x,-y,z
loop_
_atom_site_type_symbol
_atom_site_label
_atom_site_fract_x
_atom_site_fract_y
_atom_site_fract_z
Si Si1 0.914490 0.788157 0.766930
Si Si2 0.907155 0.655200 0.427427
Si Si3 0.614318 0.152649 0.330660
Si Si4 0.580192 0.357679 0.982836
Si Si5 0.963499 0.000000 0.125233
Si Si6 0.667187 0.000000 0.690493
Si Si7 0.917277 0.725273 0.090698
Si Si8 0.606135 0.354226 0.654590
O O1 0.776988 0.818886 0.557679
O O2 0.802764 0.654920 0.721246
O O3 0.772686 0.876506 0.725878
O O4 0.268923 0.807303 0.054164
O O5 0.869837 0.500000 0.415599
O O6 0.754317 0.745934 0.376221
O O7 0.769600 0.702926 0.219673
O O8 0.251213 0.704044 0.703687
O O9 0.648330 0.000000 0.333551
O O10 0.516177 0.500000 0.961901
O O11 0.762615 0.364089 0.038290
O O12 0.870786 0.132575 0.097132
O O13 0.314905 0.000000 0.401050
O O14 0.808600 0.000000 0.902787
O O15 0.266180 0.693955 0.360966
O O16 0.753668 0.719815 0.860026
O O17 0.596707 0.500000 0.676434
#
# Coordination Sequence:
#
# PCOD8052522 Si02
#       8
#     2   2   2   2   1   1   2   2
#     4  12  23  38  63  85 123 162 200 240 300 365
#     4  10  23  43  64  87 117 155 204 257 308 362
#     4  12  24  40  64  91 117 159 205 253 312 366
#     4  10  21  41  65  87 116 160 201 242 305 367
#     4  12  22  38  62  89 126 167 202 248 298 358
#     4  12  20  40  60  83 124 169 206 236 282 372
#     4  12  23  40  63  93 126 164 204 249 304 364
#     4  12  25  39  60  94 130 163 206 253 294 356
#
# _framework density 20.407553
#
# number of rings (size 3 to 8) (size 9 to 14) (size 15 to 20)
#    0.000    0.571    4.286    4.714    0.000    2.286 
#    2.571    0.000    0.000    0.000    0.000    0.000 
#    0.000    0.000    0.000    0.000    0.000    0.000 
#
# Total GULP energy -173442.776168 kJ/mol
# GULP energy per Si atom -12388.769726 kJ/mol
# Density = 2.036110 g / cm^3
# Si number density = 20.407553 Si / 1000 Ang^3
#
#
#
# Elastic Constant Matrix: (Units=GPa)
#
#
# Indices 1 2 3 4 5 6 
#
# 1 109.5106 18.1144 62.1872 0.0000 0.1735 0.0000
# 2 18.1144 94.2691 20.5261 0.0000 12.6039 0.0000
# 3 62.1872 20.5261 185.4336 0.0000 -6.0744 0.0000
# 4 0.0000 0.0000 0.0000 18.6208 0.0000 9.4933
# 5 0.1735 12.6039 -6.0744 0.0000 24.0515 0.0000
# 6 0.0000 0.0000 0.0000 9.4933 0.0000 40.9495
#
#
#
# Elastic Compliance Matrix: (Units=1/GPa)
#
#
# Indices 1 2 3 4 5 6 
#
# 1 0.011459 -0.001354 -0.003703 0.000000 -0.000308 0.000000
# 2 -0.001354 0.011979 -0.001086 0.000000 -0.006542 0.000000
# 3 -0.003703 -0.001086 0.006831 0.000000 0.002321 0.000000
# 4 0.000000 0.000000 0.000000 0.060902 0.000000 -0.014119
# 5 -0.000308 -0.006542 0.002321 0.000000 0.045594 0.000000
# 6 0.000000 0.000000 0.000000 -0.014119 0.000000 0.027693
#
#
# Mechanical properties :
#
#
# Convention : Reuss Voigt Hill
#
# Bulk Modulus (GPa) = 55.61108 65.65207 60.63157
# Shear Modulus (GPa) = 27.36137 35.95006 31.65571
#
# Velocity S-wave (km/s) = 3.66559 4.20170 3.94277
# Velocity P-wave (km/s) = 6.72494 7.46856 7.10648
#
# Compressibility (1/GPa) = 0.01798203
#
# Stress axis : x y z
#
# Youngs Moduli (GPa) = 87.26851 83.47682 146.39404
#
# Poissons Ratio (x) = 0.11306 0.54210
# Poissons Ratio (y) = 0.11820 0.15900
# Poissons Ratio (z) = 0.32316 0.09067
#
# Static dielectric constant tensor:
#      x y z
#    x 3.616500 0.000000 -0.165240 
#    y 0.000000 4.149580 0.000000 
#    z -0.165240 0.000000 4.167720 
# 
# 
# High freq. dielectric constant tensor:
#      x y z
#    x 1.788950 0.000000 -0.010760 
#    y 0.000000 1.803560 0.000000 
#    z -0.010760 0.000000 1.822960 
# 
# From -- ./inp_files/5550.got.cif
#   From: 2010.03.12/outbox.cif.g09.slc.cpg/sg6_3_cif.got.tgz:5550.got - 2010.03.30 10:24:59.
