data_PCOD8052442
_publ_section_title
;
Structure prediction by ZEFSAII (Michael W. Deem and Ramdas Pophale) SiO2 
 PCOD8052442
Probable space group: P M
;
_chemical_formula_sum "Si O2"
_cell_formula_units_Z 16
_cell_length_a 11.221182
_cell_length_b 8.898930
_cell_length_c 9.197642
_cell_angle_alpha 90.000000
_cell_angle_beta 114.196071
_cell_angle_gamma 90.000000
_cell_volume 837.757482
_symmetry_space_group_name_H-M "P M"
_symmetry_group_IT_number 6
_symmetry_cell_setting 'monoclinic'
loop_
_space_group_symop_operation_xyz
x,y,z
x,-y,z
loop_
_atom_site_type_symbol
_atom_site_label
_atom_site_fract_x
_atom_site_fract_y
_atom_site_fract_z
Si Si1 0.670360 0.824668 0.380150
Si Si2 0.167452 0.178393 0.617993
Si Si3 0.402841 0.676479 0.237358
Si Si4 0.399071 0.323639 0.904413
Si Si5 0.927370 0.824377 0.009799
Si Si6 0.663670 0.172871 0.043410
Si Si7 0.920129 0.821991 0.673638
Si Si8 0.155058 0.677329 0.299687
O O1 0.535440 0.749649 0.363310
O O2 0.702412 0.789422 0.228369
O O3 0.789054 0.756002 0.533980
O O4 0.655025 0.000000 0.401738
O O5 0.301283 0.238294 0.750406
O O6 0.148934 0.236463 0.447013
O O7 0.047195 0.240558 0.654012
O O8 0.170597 0.000000 0.617671
O O9 0.422740 0.500000 0.251775
O O10 0.284458 0.729975 0.279054
O O11 0.373180 0.728454 0.057416
O O12 0.380077 0.500000 0.873611
O O13 0.545218 0.277455 0.931476
O O14 0.785496 0.790251 0.002932
O O15 0.030631 0.722181 0.143484
O O16 0.963885 0.000000 0.044708
O O17 0.926969 0.770633 0.843325
O O18 0.619955 0.000000 0.007029
O O19 0.916272 0.000000 0.658232
O O20 0.155163 0.500000 0.326820
#
# Coordination Sequence:
#
# PCOD8052442 Si02
#       8
#     2   2   2   2   2   2   2   2
#     4   9  17  32  54  79 108 142 180 220 262 313
#     4  11  22  37  57  80 108 142 182 225 270 320
#     4   9  20  37  55  78 110 145 178 217 266 320
#     4  10  20  36  57  81 111 144 179 220 268 321
#     4  10  20  36  58  82 109 141 180 224 269 319
#     4   9  18  33  54  80 111 146 182 220 263 315
#     4   9  19  35  56  82 109 138 176 224 271 316
#     4  11  23  38  55  78 110 144 181 224 271 322
#
# _framework density 19.098607000000001
#
# number of rings (size 3 to 8) (size 9 to 14) (size 15 to 20)
#    0.000    2.250    0.000    2.625    0.000    5.000 
#    0.000    6.250    0.000    0.000    0.000    0.000 
#    0.000    0.000    0.000    0.000    0.000    0.000 
#
# Total GULP energy -198455.859468 kJ/mol
# GULP energy per Si atom -12403.491217 kJ/mol
# Density = 1.905514 g / cm^3
# Si number density = 19.098607 Si / 1000 Ang^3
#
#
#
# Elastic Constant Matrix: (Units=GPa)
#
#
# Indices 1 2 3 4 5 6 
#
# 1 139.4118 38.6290 70.5347 0.0000 -5.6316 0.0000
# 2 38.6290 46.2966 34.3150 0.0000 2.9167 0.0000
# 3 70.5347 34.3150 137.0013 0.0000 10.5974 0.0000
# 4 0.0000 0.0000 0.0000 20.8002 0.0000 -1.9187
# 5 -5.6316 2.9167 10.5974 0.0000 31.8324 0.0000
# 6 0.0000 0.0000 0.0000 -1.9187 0.0000 24.8520
#
#
#
# Elastic Compliance Matrix: (Units=1/GPa)
#
#
# Indices 1 2 3 4 5 6 
#
# 1 0.011445 -0.006392 -0.004612 0.000000 0.004146 0.000000
# 2 -0.006392 0.030096 -0.004051 0.000000 -0.002540 0.000000
# 3 -0.004612 -0.004051 0.011006 0.000000 -0.004109 0.000000
# 4 0.000000 0.000000 0.000000 0.048421 0.000000 0.003738
# 5 0.004146 -0.002540 -0.004109 0.000000 0.033749 0.000000
# 6 0.000000 0.000000 0.000000 0.003738 0.000000 0.040527
#
#
# Mechanical properties :
#
#
# Convention : Reuss Voigt Hill
#
# Bulk Modulus (GPa) = 44.56922 67.74078 56.15500
# Shear Modulus (GPa) = 23.49260 27.44565 25.46913
#
# Velocity S-wave (km/s) = 3.51104 3.79496 3.65575
# Velocity P-wave (km/s) = 6.31059 7.39920 6.87647
#
# Compressibility (1/GPa) = 0.02243701
#
# Stress axis : x y z
#
# Youngs Moduli (GPa) = 87.37313 33.22722 90.85847
#
# Poissons Ratio (x) = 0.21240 0.41905
# Poissons Ratio (y) = 0.55852 0.36803
# Poissons Ratio (z) = 0.40297 0.13459
#
# Static dielectric constant tensor:
#      x y z
#    x 3.696480 0.000000 -0.028970 
#    y 0.000000 3.333110 0.000000 
#    z -0.028970 0.000000 3.588530 
# 
# 
# High freq. dielectric constant tensor:
#      x y z
#    x 1.754500 0.000000 0.003750 
#    y 0.000000 1.727130 0.000000 
#    z 0.003750 0.000000 1.748240 
# 
# From -- ./inp_files/3076.got.cif
#   From: 2010.03.12/outbox.cif.g09.slc.cpg/sg6_2_cif.got.tgz:3076.got - 2010.03.30 10:24:59.
