data_PCOD8052768
_publ_section_title
;
Structure prediction by ZEFSAII (Michael W. Deem and Ramdas Pophale) SiO2 
 PCOD8052768
Probable space group: C M
;
_chemical_formula_sum "Si O2"
_cell_formula_units_Z 32
_cell_length_a 24.688755
_cell_length_b 8.890490
_cell_length_c 18.909324
_cell_angle_alpha 90.000000
_cell_angle_beta 153.488321
_cell_angle_gamma 90.000000
_cell_volume 1852.703139
_symmetry_space_group_name_H-M "C M"
_symmetry_group_IT_number 8
_symmetry_cell_setting 'monoclinic'
loop_
_space_group_symop_operation_xyz
x,y,z
x,-y,z
1/2+x,1/2+y,z
1/2+x,1/2-y,z
loop_
_atom_site_type_symbol
_atom_site_label
_atom_site_fract_x
_atom_site_fract_y
_atom_site_fract_z
Si Si1 0.132380 0.674113 0.096090
Si Si2 0.309648 0.831566 0.204109
Si Si3 0.477832 0.176657 0.674849
Si Si4 0.737722 0.827114 0.367101
Si Si5 0.945729 0.823121 0.250023
Si Si6 0.441142 0.326944 0.780155
Si Si7 0.167577 0.671028 0.440182
Si Si8 0.716271 0.332215 0.947663
O O1 0.117284 0.500000 0.058007
O O2 0.256308 0.736178 0.206339
O O3 0.143362 0.696446 0.193214
O O4 0.015264 0.766952 0.934266
O O5 0.427495 0.749391 0.307302
O O6 0.345060 0.000000 0.270715
O O7 0.206013 0.839491 0.021774
O O8 0.358846 0.230963 0.493936
O O9 0.470903 0.224889 0.747952
O O10 0.597595 0.249052 0.778773
O O11 0.490204 0.000000 0.683501
O O12 0.674276 0.777343 0.365986
O O13 0.779825 0.000000 0.423455
O O14 0.077166 0.781658 0.374567
O O15 0.931945 0.000000 0.239724
O O16 0.840539 0.758344 0.074374
O O17 0.475652 0.500000 0.804896
O O18 0.298288 0.313370 0.630241
O O19 0.119414 0.500000 0.389485
O O20 0.724177 0.500000 0.924580
#
# Coordination Sequence:
#
# PCOD8052768 Si02
#       8
#     4   4   4   4   4   4   4   4
#     4  11  20  32  51  77 104 131 166 206 248 295
#     4   9  18  30  48  72  98 130 161 196 244 296
#     4  11  19  29  48  75 101 126 165 211 247 286
#     4   9  21  36  50  70 104 141 165 196 248 304
#     4  10  18  29  48  75 100 122 161 214 252 284
#     4  10  19  31  49  70  98 133 166 203 247 295
#     4   9  18  34  51  69  96 133 170 200 242 299
#     4   9  17  29  47  70  97 128 158 194 244 295
#
# _framework density 17.27206
#
# number of rings (size 3 to 8) (size 9 to 14) (size 15 to 20)
#    0.750    1.500    1.250    4.125    0.000    3.500 
#    0.000    0.000    0.000    1.500    0.000    5.250 
#    0.000    0.000    0.000    0.000    0.000    0.000 
#
# Total GULP energy -198324.103692 kJ/mol
# GULP energy per Si atom -12395.256481 kJ/mol
# Density = 1.723275 g / cm^3
# Si number density = 17.272060 Si / 1000 Ang^3
#
#
#
# Elastic Constant Matrix: (Units=GPa)
#
#
# Indices 1 2 3 4 5 6 
#
# 1 65.6761 30.7783 33.5119 0.0000 9.3389 0.0000
# 2 30.7783 120.8198 35.7297 0.0000 9.4543 0.0000
# 3 33.5119 35.7297 75.3793 0.0000 3.4881 0.0000
# 4 0.0000 0.0000 0.0000 27.1414 0.0000 5.7626
# 5 9.3389 9.4543 3.4881 0.0000 25.1822 0.0000
# 6 0.0000 0.0000 0.0000 5.7626 0.0000 24.7138
#
#
#
# Elastic Compliance Matrix: (Units=1/GPa)
#
#
# Indices 1 2 3 4 5 6 
#
# 1 0.021358 -0.002624 -0.007981 0.000000 -0.005830 0.000000
# 2 -0.002624 0.010179 -0.003549 0.000000 -0.002357 0.000000
# 3 -0.007981 -0.003549 0.018416 0.000000 0.001742 0.000000
# 4 0.000000 0.000000 0.000000 0.038763 0.000000 -0.009039
# 5 -0.005830 -0.002357 0.001742 0.000000 0.042516 0.000000
# 6 0.000000 0.000000 0.000000 -0.009039 0.000000 0.042571
#
#
# Mechanical properties :
#
#
# Convention : Reuss Voigt Hill
#
# Bulk Modulus (GPa) = 46.20336 51.32387 48.76361
# Shear Modulus (GPa) = 23.88597 26.19783 25.04190
#
# Velocity S-wave (km/s) = 3.72280 3.89880 3.81182
# Velocity P-wave (km/s) = 6.72960 7.07439 6.90415
#
# Compressibility (1/GPa) = 0.02164345
#
# Stress axis : x y z
#
# Youngs Moduli (GPa) = 46.82161 98.23817 54.29950
#
# Poissons Ratio (x) = 0.25780 0.43339
# Poissons Ratio (y) = 0.12287 0.19272
# Poissons Ratio (z) = 0.37370 0.34867
#
# Static dielectric constant tensor:
#      x y z
#    x 2.855320 0.000000 0.097770 
#    y 0.000000 3.239390 0.000000 
#    z 0.097770 0.000000 3.111020 
# 
# 
# High freq. dielectric constant tensor:
#      x y z
#    x 1.628740 0.000000 0.017860 
#    y 0.000000 1.680590 0.000000 
#    z 0.017860 0.000000 1.650060 
# 
# From -- ./inp_files/30053.got.cif
#   From: 2010.03.12/outbox.cif.g09.slc.cpg/sg8_16_cif.got.tgz:30053.got - 2010.03.31 10:45:26.
