data_PCOD8052730
_publ_section_title
;
Structure prediction by ZEFSAII (Michael W. Deem and Ramdas Pophale) SiO2 
 PCOD8052730
Probable space group: C M
;
_chemical_formula_sum "Si O2"
_cell_formula_units_Z 32
_cell_length_a 19.315780
_cell_length_b 8.885720
_cell_length_c 25.513439
_cell_angle_alpha 90.000000
_cell_angle_beta 25.162363
_cell_angle_gamma 90.000000
_cell_volume 1861.879780
_symmetry_space_group_name_H-M "C M"
_symmetry_group_IT_number 8
_symmetry_cell_setting 'monoclinic'
loop_
_space_group_symop_operation_xyz
x,y,z
x,-y,z
1/2+x,1/2+y,z
1/2+x,1/2-y,z
loop_
_atom_site_type_symbol
_atom_site_label
_atom_site_fract_x
_atom_site_fract_y
_atom_site_fract_z
Si Si1 0.704290 0.175968 0.121870
Si Si2 0.100530 0.677011 0.011482
Si Si3 0.635827 0.170720 0.393358
Si Si4 0.988666 0.821930 0.190045
Si Si5 0.288325 0.672305 0.181853
Si Si6 0.523539 0.172776 0.898256
Si Si7 0.872529 0.170091 0.639283
Si Si8 0.747598 0.677098 0.819604
O O1 0.543414 0.252887 0.208165
O O2 0.707627 0.212704 0.181470
O O3 0.702366 0.000000 0.111283
O O4 0.861906 0.251389 0.985280
O O5 0.123887 0.500000 0.000654
O O6 0.104218 0.751298 0.066243
O O7 0.931420 0.714322 0.098530
O O8 0.251734 0.746376 0.874272
O O9 0.801940 0.224625 0.307777
O O10 0.648555 0.189825 0.321953
O O11 0.484885 0.267583 0.516657
O O12 0.599346 0.000000 0.434074
O O13 0.010480 0.000000 0.174411
O O14 0.355673 0.500000 0.136779
O O15 0.681728 0.179638 0.751180
O O16 0.570606 0.273224 0.917221
O O17 0.488787 0.000000 0.938466
O O18 0.888773 0.260192 0.683750
O O19 0.923915 0.000000 0.615884
O O20 0.764072 0.500000 0.813485
#
# Coordination Sequence:
#
# PCOD8052730 Si02
#       8
#     4   4   4   4   4   4   4   4
#     4  11  20  32  52  77 104 136 170 207 255 308
#     4  11  19  30  49  75 102 129 168 210 252 302
#     4   9  18  33  51  72  98 134 171 207 254 302
#     4  10  22  36  50  71 106 141 169 208 255 305
#     4   9  18  31  49  72 100 132 168 208 252 299
#     4   9  18  30  47  75 102 127 161 206 251 297
#     4   9  18  30  48  75 101 127 165 214 255 293
#     4  10  17  28  48  73  99 128 160 202 250 296
#
# _framework density 17.186931999999999
#
# number of rings (size 3 to 8) (size 9 to 14) (size 15 to 20)
#    0.750    1.500    1.250    4.125    0.000    3.000 
#    0.000    0.000    0.000    1.500    0.000    3.500 
#    0.000    0.000    0.000    0.000    0.000    0.000 
#
# Total GULP energy -198263.057991 kJ/mol
# GULP energy per Si atom -12391.441124 kJ/mol
# Density = 1.714781 g / cm^3
# Si number density = 17.186932 Si / 1000 Ang^3
#
#
#
# Elastic Constant Matrix: (Units=GPa)
#
#
# Indices 1 2 3 4 5 6 
#
# 1 83.0260 32.3569 29.8873 -0.0004 3.7573 0.0001
# 2 32.3569 114.1761 40.7769 -0.0006 4.5514 0.0006
# 3 29.8873 40.7769 83.7075 -0.0014 11.4369 -0.0006
# 4 -0.0004 -0.0006 -0.0014 30.0052 -0.0010 2.1368
# 5 3.7573 4.5514 11.4369 -0.0010 18.2212 0.0001
# 6 0.0001 0.0006 -0.0006 2.1368 0.0001 26.0762
#
#
#
# Elastic Compliance Matrix: (Units=1/GPa)
#
#
# Indices 1 2 3 4 5 6 
#
# 1 0.014494 -0.002734 -0.003859 0.000000 0.000116 0.000000
# 2 -0.002734 0.011126 -0.004529 0.000000 0.000628 0.000000
# 3 -0.003859 -0.004529 0.016699 0.000000 -0.008555 0.000001
# 4 0.000000 0.000000 0.000000 0.033523 0.000002 -0.002747
# 5 0.000116 0.000628 -0.008555 0.000002 0.060070 -0.000001
# 6 0.000000 0.000000 0.000001 -0.002747 -0.000001 0.038574
#
#
# Mechanical properties :
#
#
# Convention : Reuss Voigt Hill
#
# Bulk Modulus (GPa) = 49.81483 54.10574 51.96028
# Shear Modulus (GPa) = 24.57941 26.71976 25.64958
#
# Velocity S-wave (km/s) = 3.78580 3.94719 3.86734
# Velocity P-wave (km/s) = 6.93951 7.23345 7.08800
#
# Compressibility (1/GPa) = 0.02007434
#
# Stress axis : x y z
#
# Youngs Moduli (GPa) = 68.99519 89.88133 59.88218
#
# Poissons Ratio (x) = 0.24572 0.23109
# Poissons Ratio (y) = 0.18862 0.27123
# Poissons Ratio (z) = 0.26626 0.40711
#
# Static dielectric constant tensor:
#      x y z
#    x 3.029580 0.000000 0.190800 
#    y 0.000000 3.215700 0.000000 
#    z 0.190800 0.000000 3.100040 
# 
# 
# High freq. dielectric constant tensor:
#      x y z
#    x 1.628720 0.000000 0.021170 
#    y 0.000000 1.678570 0.000000 
#    z 0.021170 0.000000 1.645990 
# 
# From -- ./inp_files/32111.got.cif
#   From: 2010.03.12/outbox.cif.g09.slc.cpg/sg8_17_cif.got.tgz:32111.got - 2010.03.31 10:45:26.
