data_PCOD8052746
_publ_section_title
;
Structure prediction by ZEFSAII (Michael W. Deem and Ramdas Pophale) SiO2 
 PCOD8052746
Probable space group: C M
;
_chemical_formula_sum "Si O2"
_cell_formula_units_Z 32
_cell_length_a 14.101703
_cell_length_b 22.826799
_cell_length_c 8.664035
_cell_angle_alpha 90.000000
_cell_angle_beta 148.627011
_cell_angle_gamma 90.000000
_cell_volume 1451.934193
_symmetry_space_group_name_H-M "C M"
_symmetry_group_IT_number 8
_symmetry_cell_setting 'monoclinic'
loop_
_space_group_symop_operation_xyz
x,y,z
x,-y,z
1/2+x,1/2+y,z
1/2+x,1/2-y,z
loop_
_atom_site_type_symbol
_atom_site_label
_atom_site_fract_x
_atom_site_fract_y
_atom_site_fract_z
Si Si1 0.127580 0.735153 0.890550
Si Si2 0.361571 0.169388 0.321059
Si Si3 0.173896 0.339137 0.222946
Si Si4 0.555510 0.635734 0.127899
Si Si5 0.806302 0.230750 0.672389
Si Si6 0.412952 0.067671 0.173914
Si Si7 0.277198 0.141968 0.717165
Si Si8 0.814810 0.064020 0.594669
O O1 0.052500 0.701925 0.633572
O O2 0.956019 0.754322 0.752668
O O3 0.260364 0.791237 0.046762
O O4 0.245538 0.692460 0.167931
O O5 0.229539 0.164374 0.284724
O O6 0.405717 0.104107 0.322978
O O7 0.149221 0.298167 0.344551
O O8 0.322262 0.389644 0.464657
O O9 0.975640 0.366608 0.914604
O O10 0.620002 0.616614 0.387414
O O11 0.390844 0.683110 0.907748
O O12 0.479677 0.577637 0.940184
O O13 0.738533 0.287316 0.675025
O O14 0.619723 0.069094 0.404953
O O15 0.348734 0.000000 0.107731
O O16 0.275238 0.102747 0.868724
O O17 0.847180 0.000000 0.570618
#
# Coordination Sequence:
#
# PCOD8052746 Si02
#       8
#     4   4   4   4   4   4   4   4
#     4  10  17  32  56  87 120 148 182 235 298 350
#     4  11  21  38  61  90 121 157 188 244 298 355
#     4   9  15  29  55  83 114 147 185 236 294 343
#     4  10  19  32  64  91 111 144 201 250 288 345
#     4   9  15  29  53  85 121 143 178 231 301 347
#     4  10  24  44  57  76 123 168 196 239 298 345
#     4  10  17  32  56  85 109 149 193 237 292 347
#     4   9  20  38  58  79 115 162 201 238 291 348
#
# _framework density 22.039565
#
# number of rings (size 3 to 8) (size 9 to 14) (size 15 to 20)
#    0.000    2.250    3.750    1.500    0.000    1.000 
#    9.000    0.625    0.000    0.000    0.000    0.000 
#    0.000    0.000    0.000    0.000    0.000    0.000 
#
# Total GULP energy -198217.875637 kJ/mol
# GULP energy per Si atom -12388.617227 kJ/mol
# Density = 2.198940 g / cm^3
# Si number density = 22.039565 Si / 1000 Ang^3
#
#
#
# Elastic Constant Matrix: (Units=GPa)
#
#
# Indices 1 2 3 4 5 6 
#
# 1 10.6278 17.5936 12.1114 0.0000 -4.4026 0.0000
# 2 17.5936 162.3815 52.8166 0.0000 -13.6651 0.0000
# 3 12.1114 52.8166 131.3774 0.0000 -24.9840 0.0000
# 4 0.0000 0.0000 0.0000 26.2497 0.0000 1.1147
# 5 -4.4026 -13.6651 -24.9840 0.0000 18.6093 0.0000
# 6 0.0000 0.0000 0.0000 1.1147 0.0000 24.5560
#
#
#
# Elastic Compliance Matrix: (Units=1/GPa)
#
#
# Indices 1 2 3 4 5 6 
#
# 1 0.122913 -0.010675 -0.004029 0.000000 0.015831 0.000000
# 2 -0.010675 0.008060 -0.002163 0.000000 0.000489 0.000000
# 3 -0.004029 -0.002163 0.011239 0.000000 0.012547 0.000000
# 4 0.000000 0.000000 0.000000 0.038169 0.000000 -0.001733
# 5 0.015831 0.000489 0.012547 0.000000 0.074686 0.000000
# 6 0.000000 0.000000 0.000000 -0.001733 0.000000 0.040802
#
#
# Mechanical properties :
#
#
# Convention : Reuss Voigt Hill
#
# Bulk Modulus (GPa) = 9.21847 52.15888 30.68868
# Shear Modulus (GPa) = 13.67011 28.67401 21.17206
#
# Velocity S-wave (km/s) = 2.49319 3.61088 3.10278
# Velocity P-wave (km/s) = 3.53267 6.41109 5.17599
#
# Compressibility (1/GPa) = 0.10847782
#
# Stress axis : x y z
#
# Youngs Moduli (GPa) = 8.13584 124.07539 88.97742
#
# Poissons Ratio (x) = 1.32445 0.35850
# Poissons Ratio (y) = 0.08685 0.19247
# Poissons Ratio (z) = 0.03278 0.26839
#
# Static dielectric constant tensor:
#      x y z
#    x 3.349080 0.000000 -0.202780 
#    y 0.000000 4.275020 0.000000 
#    z -0.202780 0.000000 4.354380 
# 
# 
# High freq. dielectric constant tensor:
#      x y z
#    x 1.807540 0.000000 -0.006650 
#    y 0.000000 1.856170 0.000000 
#    z -0.006650 0.000000 1.884480 
# 
# From -- ./inp_files/13846.got.cif
#   From: 2010.03.12/outbox.cif.g09.slc.cpg/sg8_7_cif.got.tgz:13846.got - 2010.03.31 10:45:26.
