data_PCOD8052162
_publ_section_title
;
Structure prediction by ZEFSAII (Michael W. Deem and Ramdas Pophale) SiO2 
 PCOD8052162
Probable space group: C 2
;
_chemical_formula_sum "Si O2"
_cell_formula_units_Z 16
_cell_length_a 12.763688
_cell_length_b 7.265790
_cell_length_c 8.289809
_cell_angle_alpha 90.000000
_cell_angle_beta 127.057371
_cell_angle_gamma 90.000000
_cell_volume 613.513504
_symmetry_space_group_name_H-M "C 2"
_symmetry_group_IT_number 5
_symmetry_cell_setting 'monoclinic'
loop_
_space_group_symop_operation_xyz
x,y,z
-x,y,-z
1/2+x,1/2+y,z
1/2-x,1/2+y,-z
loop_
_atom_site_type_symbol
_atom_site_label
_atom_site_fract_x
_atom_site_fract_y
_atom_site_fract_z
Si Si1 0.264507 0.290370 0.621434
Si Si2 0.959779 0.055619 0.648001
Si Si3 0.770615 0.073449 0.911565
Si Si4 0.352870 0.950905 0.893860
O O1 0.125845 0.245180 0.401821
O O2 0.374513 0.374882 0.609260
O O3 0.241648 0.413713 0.757525
O O4 0.307318 0.083532 0.708572
O O5 0.000000 0.044508 0.500000
O O6 0.083363 0.059016 0.879757
O O7 0.758355 0.271455 0.813969
O O8 0.661431 0.059595 0.949303
O O9 0.500000 0.887947 0.000000
#
# Coordination Sequence:
#
# PCOD8052162 Si02
#       4
#     4   4   4   4
#     4  12  29  50  79 115 157 211 256 329 400 461
#     4  12  27  53  77 117 161 201 271 327 385 484
#     4  12  26  52  83 113 160 208 264 329 396 474
#     4  12  25  46  81 114 152 209 260 317 401 466
#
# _framework density 26.079294999999998
#
# number of rings (size 3 to 8) (size 9 to 14) (size 15 to 20)
#    0.000    0.000    5.000    3.750    7.000    0.000 
#    0.000    0.000    5.500    0.000    0.000    0.000 
#    0.000    0.000    0.000    0.000    0.000    0.000 
#
# Total GULP energy -99220.913251 kJ/mol
# GULP energy per Si atom -12402.614156 kJ/mol
# Density = 2.601994 g / cm^3
# Si number density = 26.079295 Si / 1000 Ang^3
#
#
#
# Elastic Constant Matrix: (Units=GPa)
#
#
# Indices 1 2 3 4 5 6 
#
# 1 133.3114 25.3774 1.6118 0.0000 5.1211 0.0000
# 2 25.3774 151.8485 26.4870 0.0000 12.4723 0.0000
# 3 1.6118 26.4870 81.5170 0.0000 8.8968 0.0000
# 4 0.0000 0.0000 0.0000 55.2510 0.0000 -4.5670
# 5 5.1211 12.4723 8.8968 0.0000 18.3980 0.0000
# 6 0.0000 0.0000 0.0000 -4.5670 0.0000 46.0634
#
#
#
# Elastic Compliance Matrix: (Units=1/GPa)
#
#
# Indices 1 2 3 4 5 6 
#
# 1 0.007793 -0.001250 0.000418 0.000000 -0.001524 0.000000
# 2 -0.001250 0.007448 -0.001987 0.000000 -0.003740 0.000000
# 3 0.000418 -0.001987 0.013482 0.000000 -0.005289 0.000000
# 4 0.000000 0.000000 0.000000 0.018249 0.000000 0.001809
# 5 -0.001524 -0.003740 -0.005289 0.000000 0.059871 0.000000
# 6 0.000000 0.000000 0.000000 0.001809 0.000000 0.021889
#
#
# Mechanical properties :
#
#
# Convention : Reuss Voigt Hill
#
# Bulk Modulus (GPa) = 43.31779 52.62548 47.97164
# Shear Modulus (GPa) = 35.19533 44.82253 40.00893
#
# Velocity S-wave (km/s) = 3.67761 4.15022 3.92104
# Velocity P-wave (km/s) = 5.88890 6.57180 6.23970
#
# Compressibility (1/GPa) = 0.02308521
#
# Stress axis : x y z
#
# Youngs Moduli (GPa) = 128.32523 134.25904 74.17285
#
# Poissons Ratio (x) = 0.16785 -0.03104
# Poissons Ratio (y) = 0.16043 0.14740
# Poissons Ratio (z) = -0.05370 0.26680
#
# Static dielectric constant tensor:
#      x y z
#    x 5.135410 0.000000 0.100180 
#    y 0.000000 5.095630 0.000000 
#    z 0.100180 0.000000 5.070440 
# 
# 
# High freq. dielectric constant tensor:
#      x y z
#    x 2.056140 0.000000 -0.015110 
#    y 0.000000 2.061100 0.000000 
#    z -0.015110 0.000000 2.049610 
# 
# From -- ./inp_files/18110.got.cif
#   From: 2010.03.12/outbox.cif.g09.slc.cpg/sg5_10_cif.got.tgz:18110.got - 2010.03.31 09:47:26.
