data_PCOD8052079
_publ_section_title
;
Structure prediction by ZEFSAII (Michael W. Deem and Ramdas Pophale) SiO2 
 PCOD8052079
Probable space group: C 2
;
_chemical_formula_sum "Si O2"
_cell_formula_units_Z 16
_cell_length_a 18.349843
_cell_length_b 4.867718
_cell_length_c 8.653113
_cell_angle_alpha 90.000000
_cell_angle_beta 115.550983
_cell_angle_gamma 90.000000
_cell_volume 697.322777
_symmetry_space_group_name_H-M "C 2"
_symmetry_group_IT_number 5
_symmetry_cell_setting 'monoclinic'
loop_
_space_group_symop_operation_xyz
x,y,z
-x,y,-z
1/2+x,1/2+y,z
1/2-x,1/2+y,-z
loop_
_atom_site_type_symbol
_atom_site_label
_atom_site_fract_x
_atom_site_fract_y
_atom_site_fract_z
Si Si1 0.431713 0.823200 0.661168
Si Si2 0.074701 0.575476 0.648685
Si Si3 0.913664 0.821133 0.844404
Si Si4 0.303062 0.387387 0.029651
O O1 0.410512 0.515247 0.690488
O O2 0.529695 0.875317 0.733176
O O3 0.386973 0.891653 0.456157
O O4 0.399397 0.014358 0.770835
O O5 0.138400 0.775717 0.783483
O O6 0.000000 0.750871 0.500000
O O7 0.844016 0.894870 0.900798
O O8 0.000000 0.863330 0.000000
O O9 0.276689 0.695222 0.051079
#
# Coordination Sequence:
#
# PCOD8052079 Si02
#       4
#     4   4   4   4
#     4   9  22  37  72  96 125 173 238 275 312 395
#     4   8  21  45  68 102 131 181 229 271 339 407
#     4  12  21  41  68 103 131 174 239 274 325 405
#     4  12  27  43  66 105 145 175 215 292 356 389
#
# _framework density 22.944900000000001
#
# number of rings (size 3 to 8) (size 9 to 14) (size 15 to 20)
#    1.500    0.000    2.500    2.250    3.500    6.000 
#    0.000    5.000    0.000    0.000    0.000    0.000 
#    0.000    0.000    0.000    0.000    0.000    0.000 
#
# Total GULP energy -99140.427093 kJ/mol
# GULP energy per Si atom -12392.553387 kJ/mol
# Density = 2.289268 g / cm^3
# Si number density = 22.944900 Si / 1000 Ang^3
#
#
#
# Elastic Constant Matrix: (Units=GPa)
#
#
# Indices 1 2 3 4 5 6 
#
# 1 88.5561 0.6864 20.2759 0.0000 -27.4581 0.0000
# 2 0.6864 55.9428 6.3894 0.0000 -9.5399 0.0000
# 3 20.2759 6.3894 90.5743 0.0000 -14.5798 0.0000
# 4 0.0000 0.0000 0.0000 26.4665 0.0000 -13.6828
# 5 -27.4581 -9.5399 -14.5798 0.0000 41.0471 0.0000
# 6 0.0000 0.0000 0.0000 -13.6828 0.0000 30.1505
#
#
#
# Elastic Compliance Matrix: (Units=1/GPa)
#
#
# Indices 1 2 3 4 5 6 
#
# 1 0.014662 0.001658 -0.001865 0.000000 0.009531 0.000000
# 2 0.001658 0.018837 -0.000866 0.000000 0.005180 0.000000
# 3 -0.001865 -0.000866 0.011970 0.000000 0.002803 0.000000
# 4 0.000000 0.000000 0.000000 0.049365 0.000000 0.022403
# 5 0.009531 0.005180 0.002803 0.000000 0.032937 0.000000
# 6 0.000000 0.000000 0.000000 0.022403 0.000000 0.043334
#
#
# Mechanical properties :
#
#
# Convention : Reuss Voigt Hill
#
# Bulk Modulus (GPa) = 23.08215 32.19740 27.63977
# Shear Modulus (GPa) = 26.63931 33.38092 30.01012
#
# Velocity S-wave (km/s) = 3.41106 3.81836 3.62044
# Velocity P-wave (km/s) = 5.05919 5.78816 5.43591
#
# Compressibility (1/GPa) = 0.04332353
#
# Stress axis : x y z
#
# Youngs Moduli (GPa) = 68.20559 53.08624 83.53895
#
# Poissons Ratio (x) = -0.08804 0.15579
# Poissons Ratio (y) = -0.11311 0.07237
# Poissons Ratio (z) = 0.12720 0.04599
#
# Static dielectric constant tensor:
#      x y z
#    x 3.956760 0.000000 -0.286220 
#    y 0.000000 3.888830 0.000000 
#    z -0.286220 0.000000 4.045320 
# 
# 
# High freq. dielectric constant tensor:
#      x y z
#    x 1.883350 0.000000 -0.027820 
#    y 0.000000 1.898050 0.000000 
#    z -0.027820 0.000000 1.908810 
# 
# From -- ./inp_files/25863.got.cif
#   From: 2010.03.12/outbox.cif.g09.slc.cpg/sg5_13_cif.got.tgz:25863.got - 2010.03.31 09:47:26.
