data_PCOD8052534
_publ_section_title
;
Structure prediction by ZEFSAII (Michael W. Deem and Ramdas Pophale) SiO2 
 PCOD8052534
Probable space group: P M
;
_chemical_formula_sum "Si O2"
_cell_formula_units_Z 16
_cell_length_a 9.732111
_cell_length_b 8.461558
_cell_length_c 19.605991
_cell_angle_alpha 90.000000
_cell_angle_beta 151.117491
_cell_angle_gamma 90.000000
_cell_volume 779.842498
_symmetry_space_group_name_H-M "P M"
_symmetry_group_IT_number 6
_symmetry_cell_setting 'monoclinic'
loop_
_space_group_symop_operation_xyz
x,y,z
x,-y,z
loop_
_atom_site_type_symbol
_atom_site_label
_atom_site_fract_x
_atom_site_fract_y
_atom_site_fract_z
Si Si1 0.734970 0.685895 0.517940
Si Si2 0.367472 0.686903 0.581760
Si Si3 0.727007 0.185017 0.852755
Si Si4 0.327717 0.687121 0.083122
Si Si5 0.347514 0.813454 0.814592
Si Si6 0.785792 0.686188 0.385670
Si Si7 0.220652 0.815932 0.373454
Si Si8 0.609279 0.313376 0.066355
O O1 0.684194 0.500000 0.507986
O O2 0.720375 0.736296 0.433324
O O3 0.474193 0.788537 0.431188
O O4 0.039280 0.730900 0.682621
O O5 0.404478 0.500000 0.600340
O O6 0.627743 0.765163 0.734408
O O7 0.353227 0.742749 0.498793
O O8 0.093721 0.753104 0.501857
O O9 0.530542 0.252111 0.829319
O O10 0.739677 0.000000 0.865782
O O11 0.041989 0.251835 0.993204
O O12 0.326231 0.500000 0.084614
O O13 0.566601 0.760056 0.236666
O O14 0.400027 0.741840 0.037148
O O15 0.303264 0.000000 0.789716
O O16 0.515420 0.774437 0.956888
O O17 0.788338 0.500000 0.377427
O O18 0.934229 0.727893 0.226021
O O19 0.152640 0.000000 0.351894
O O20 0.588439 0.500000 0.045545
#
# Coordination Sequence:
#
# PCOD8052534 Si02
#       8
#     2   2   2   2   2   2   2   2
#     4  11  23  42  68  97 125 168 218 263 315 381
#     4  11  21  42  70  94 122 163 216 268 313 377
#     4  11  25  42  62  95 132 170 210 258 324 384
#     4  10  22  42  66  94 124 163 214 266 315 374
#     4  11  25  44  63  92 134 173 211 265 325 381
#     4   9  19  39  67  95 121 154 209 269 315 363
#     4  12  26  43  64  96 133 169 207 263 328 384
#     4  11  24  44  68  93 125 170 219 266 315 380
#
# _framework density 20.516964999999999
#
# number of rings (size 3 to 8) (size 9 to 14) (size 15 to 20)
#    0.000    1.250    2.500    3.000    3.500    2.500 
#    0.000    0.625    0.000    0.000    0.000    0.000 
#    0.000    0.000    0.000    0.000    0.000    0.000 
#
# Total GULP energy -198395.059689 kJ/mol
# GULP energy per Si atom -12399.691231 kJ/mol
# Density = 2.047027 g / cm^3
# Si number density = 20.516965 Si / 1000 Ang^3
#
#
#
# Elastic Constant Matrix: (Units=GPa)
#
#
# Indices 1 2 3 4 5 6 
#
# 1 116.6412 48.1062 27.3206 0.0000 -2.2245 0.0000
# 2 48.1062 75.2249 -7.6035 0.0000 -13.9054 0.0000
# 3 27.3206 -7.6035 86.7434 0.0000 -8.9566 0.0000
# 4 0.0000 0.0000 0.0000 87.0629 0.0000 -26.5765
# 5 -2.2245 -13.9054 -8.9566 0.0000 45.4006 0.0000
# 6 0.0000 0.0000 0.0000 -26.5765 0.0000 42.8603
#
#
#
# Elastic Compliance Matrix: (Units=1/GPa)
#
#
# Indices 1 2 3 4 5 6 
#
# 1 0.014054 -0.010221 -0.005690 0.000000 -0.003565 0.000000
# 2 -0.010221 0.021780 0.005885 0.000000 0.007331 0.000000
# 3 -0.005690 0.005885 0.014285 0.000000 0.004342 0.000000
# 4 0.000000 0.000000 0.000000 0.014168 0.000000 0.008785
# 5 -0.003565 0.007331 0.004342 0.000000 0.024953 0.000000
# 6 0.000000 0.000000 0.000000 0.008785 0.000000 0.028779
#
#
# Mechanical properties :
#
#
# Convention : Reuss Voigt Hill
#
# Bulk Modulus (GPa) = 33.26039 46.02844 39.64441
# Shear Modulus (GPa) = 33.76251 49.11718 41.43985
#
# Velocity S-wave (km/s) = 4.06099 4.89814 4.49908
# Velocity P-wave (km/s) = 6.18346 7.38052 6.80835
#
# Compressibility (1/GPa) = 0.03006580
#
# Stress axis : x y z
#
# Youngs Moduli (GPa) = 71.15521 45.91340 70.00500
#
# Poissons Ratio (x) = 0.46930 0.39836
# Poissons Ratio (y) = 0.72731 -0.41201
# Poissons Ratio (z) = 0.40490 -0.27022
#
# Static dielectric constant tensor:
#      x y z
#    x 3.908580 0.000000 -0.041500 
#    y 0.000000 3.571210 0.000000 
#    z -0.041500 0.000000 3.816680 
# 
# 
# High freq. dielectric constant tensor:
#      x y z
#    x 1.816120 0.000000 -0.001360 
#    y 0.000000 1.794010 0.000000 
#    z -0.001360 0.000000 1.816080 
# 
# From -- ./inp_files/2689.got.cif
#   From: 2010.03.12/outbox.cif.g09.slc.cpg/sg6_2_cif.got.tgz:2689.got - 2010.03.30 10:24:59.
