data_PCOD8052556
_publ_section_title
;
Structure prediction by ZEFSAII (Michael W. Deem and Ramdas Pophale) SiO2 
 PCOD8052556
Probable space group: P M
;
_chemical_formula_sum "Si O2"
_cell_formula_units_Z 16
_cell_length_a 10.111590
_cell_length_b 8.664376
_cell_length_c 22.678265
_cell_angle_alpha 90.000000
_cell_angle_beta 153.520012
_cell_angle_gamma 90.000000
_cell_volume 885.910059
_symmetry_space_group_name_H-M "P M"
_symmetry_group_IT_number 6
_symmetry_cell_setting 'monoclinic'
loop_
_space_group_symop_operation_xyz
x,y,z
x,-y,z
loop_
_atom_site_type_symbol
_atom_site_label
_atom_site_fract_x
_atom_site_fract_y
_atom_site_fract_z
Si Si1 0.107950 0.680903 0.956110
Si Si2 0.243729 0.182425 0.668013
Si Si3 0.716785 0.181790 0.159103
Si Si4 0.842328 0.816483 0.964195
Si Si5 0.323974 0.817339 0.459297
Si Si6 0.030216 0.817320 0.165728
Si Si7 0.552667 0.816439 0.674421
Si Si8 0.618782 0.815581 0.459711
O O1 0.061446 0.500000 0.940460
O O2 0.063394 0.750040 0.003442
O O3 0.877520 0.750528 0.817133
O O4 0.435581 0.720018 0.065428
O O5 0.505303 0.236220 0.816281
O O6 0.322969 0.236791 0.633510
O O7 0.932209 0.256820 0.564173
O O8 0.213066 0.000000 0.657602
O O9 0.985941 0.229442 0.310014
O O10 0.802367 0.229661 0.126454
O O11 0.647975 0.000000 0.136123
O O12 0.871054 0.000000 0.973426
O O13 0.927735 0.747651 0.062200
O O14 0.429687 0.747593 0.563893
O O15 0.543969 0.756495 0.495816
O O16 0.343853 0.000000 0.469835
O O17 0.360841 0.756635 0.312668
O O18 0.037769 0.000000 0.164370
O O19 0.581118 0.000000 0.684239
O O20 0.627134 0.000000 0.462542
#
# Coordination Sequence:
#
# PCOD8052556 Si02
#       8
#     2   2   2   2   2   2   2   2
#     4  11  22  34  47  68  98 135 171 203 239 283
#     4   8  14  23  38  61  90 117 145 182 228 275
#     4   9  17  32  52  76 102 127 157 199 244 291
#     4   9  17  31  49  70  94 124 160 200 241 284
#     4   8  15  27  47  73  98 121 151 192 242 290
#     4   8  15  27  47  73  98 121 151 192 242 290
#     4   9  17  31  49  70  94 124 160 200 241 284
#     4   8  13  23  40  69 100 117 137 184 241 291
#
# _framework density 18.060523
#
# number of rings (size 3 to 8) (size 9 to 14) (size 15 to 20)
#    0.000    3.250    0.000    3.375    0.000    2.000 
#    0.000    8.750    0.000    0.000    0.000   14.000 
#    0.000    0.000    0.000    0.000    0.000    0.000 
#
# Total GULP energy -198313.314608 kJ/mol
# GULP energy per Si atom -12394.582163 kJ/mol
# Density = 1.801942 g / cm^3
# Si number density = 18.060523 Si / 1000 Ang^3
#
#
#
# Elastic Constant Matrix: (Units=GPa)
#
#
# Indices 1 2 3 4 5 6 
#
# 1 146.8781 17.1031 116.9230 0.0000 -9.4107 0.0000
# 2 17.1031 23.7912 17.0129 0.0000 -1.3470 0.0000
# 3 116.9230 17.0129 146.7165 0.0000 -8.2533 0.0000
# 4 0.0000 0.0000 0.0000 3.6169 0.0000 0.8291
# 5 -9.4107 -1.3470 -8.2533 0.0000 45.4893 0.0000
# 6 0.0000 0.0000 0.0000 0.8291 0.0000 3.5476
#
#
#
# Elastic Compliance Matrix: (Units=1/GPa)
#
#
# Indices 1 2 3 4 5 6 
#
# 1 0.018885 -0.003048 -0.014631 0.000000 0.001162 0.000000
# 2 -0.003048 0.046332 -0.002932 0.000000 0.000209 0.000000
# 3 -0.014631 -0.002932 0.018833 0.000000 0.000303 0.000000
# 4 0.000000 0.000000 0.000000 0.292130 0.000000 -0.068270
# 5 0.001162 0.000209 0.000303 0.000000 0.022285 0.000000
# 6 0.000000 0.000000 0.000000 -0.068270 0.000000 0.297832
#
#
# Mechanical properties :
#
#
# Convention : Reuss Voigt Hill
#
# Bulk Modulus (GPa) = 23.34922 68.82930 46.08926
# Shear Modulus (GPa) = 6.65075 21.62055 14.13565
#
# Velocity S-wave (km/s) = 1.92106 3.46369 2.80068
# Velocity P-wave (km/s) = 4.22812 7.36134 6.00276
#
# Compressibility (1/GPa) = 0.04282799
#
# Stress axis : x y z
#
# Youngs Moduli (GPa) = 52.95204 21.58348 53.09809
#
# Poissons Ratio (x) = 0.06578 0.77689
# Poissons Ratio (y) = 0.16137 0.15569
# Poissons Ratio (z) = 0.77476 0.06328
#
# Static dielectric constant tensor:
#      x y z
#    x 3.732850 0.000000 -0.214750 
#    y 0.000000 2.728100 0.000000 
#    z -0.214750 0.000000 3.719740 
# 
# 
# High freq. dielectric constant tensor:
#      x y z
#    x 1.705890 0.000000 -0.001370 
#    y 0.000000 1.640440 0.000000 
#    z -0.001370 0.000000 1.705830 
# 
# From -- ./inp_files/3603.got.cif
#   From: 2010.03.12/outbox.cif.g09.slc.cpg/sg6_2_cif.got.tgz:3603.got - 2010.03.30 10:24:59.
