data_PCOD8052581
_publ_section_title
;
Structure prediction by ZEFSAII (Michael W. Deem and Ramdas Pophale) SiO2 
 PCOD8052581
Probable space group: P C
;
_chemical_formula_sum "Si O2"
_cell_formula_units_Z 14
_cell_length_a 16.080764
_cell_length_b 7.831356
_cell_length_c 5.309931
_cell_angle_alpha 90.000000
_cell_angle_beta 90.379197
_cell_angle_gamma 90.000000
_cell_volume 668.687202
_symmetry_space_group_name_H-M "P C"
_symmetry_group_IT_number 7
_symmetry_cell_setting 'monoclinic'
loop_
_space_group_symop_operation_xyz
x,y,z
x,-y,1/2+z
loop_
_atom_site_type_symbol
_atom_site_label
_atom_site_fract_x
_atom_site_fract_y
_atom_site_fract_z
Si Si1 0.907300 0.393768 0.978400
Si Si2 0.483675 0.820230 0.997218
Si Si3 0.096994 0.607497 0.494144
Si Si4 0.232736 0.890152 0.475282
Si Si5 0.747542 0.802843 0.515828
Si Si6 0.678161 0.179937 0.514517
Si Si7 0.414350 0.199272 0.995840
O O1 0.889478 0.477581 0.707327
O O2 0.846090 0.232017 0.005163
O O3 0.001789 0.328218 0.994855
O O4 0.580982 0.859332 0.999235
O O5 0.456031 0.716371 0.745971
O O6 0.434378 0.997930 0.992589
O O7 0.455264 0.716107 0.246193
O O8 0.116878 0.497262 0.742084
O O9 0.152158 0.774930 0.502619
O O10 0.315340 0.773528 0.497542
O O11 0.231647 0.025794 0.700319
O O12 0.708140 0.716826 0.767533
O O13 0.729921 0.003986 0.527301
O O14 0.701494 0.719212 0.271048
#
# Coordination Sequence:
#
# PCOD8052581 Si02
#       7
#     2   2   2   2   2   2   2
#     4  10  21  39  59  76 101 147 199 224 262 343
#     4  10  16  28  46  74 113 152 170 209 284 344
#     4  10  23  43  62  82 116 164 200 228 291 377
#     4  12  21  37  58  95 123 139 196 260 296 332
#     4  10  18  32  49  78 106 137 170 234 266 320
#     4  10  19  30  50  81 119 133 177 216 295 324
#     4  10  16  27  46  76 114 134 178 221 278 320
#
# _framework density 20.936543
#
# number of rings (size 3 to 8) (size 9 to 14) (size 15 to 20)
#    0.000    1.714    2.857    6.000    0.000    0.000 
#    5.143    0.000    0.000    0.000    0.000   34.000 
#    0.000    0.000    0.000    0.000    0.000    0.000 
#
# Total GULP energy -173518.658930 kJ/mol
# GULP energy per Si atom -12394.189924 kJ/mol
# Density = 2.088889 g / cm^3
# Si number density = 20.936543 Si / 1000 Ang^3
#
#
#
# Elastic Constant Matrix: (Units=GPa)
#
#
# Indices 1 2 3 4 5 6 
#
# 1 147.3103 36.0586 36.8894 0.0000 -7.3568 0.0000
# 2 36.0586 21.8405 6.7501 0.0000 -2.5486 0.0000
# 3 36.8894 6.7501 203.2397 0.0000 -3.9824 0.0000
# 4 0.0000 0.0000 0.0000 9.1281 0.0000 -0.3776
# 5 -7.3568 -2.5486 -3.9824 0.0000 25.5032 0.0000
# 6 0.0000 0.0000 0.0000 -0.3776 0.0000 4.5235
#
#
#
# Elastic Compliance Matrix: (Units=1/GPa)
#
#
# Indices 1 2 3 4 5 6 
#
# 1 0.011879 -0.018997 -0.001500 0.000000 0.001294 0.000000
# 2 -0.018997 0.077139 0.000933 0.000000 0.002374 0.000000
# 3 -0.001500 0.000933 0.005171 0.000000 0.000468 0.000000
# 4 0.000000 0.000000 0.000000 0.109932 0.000000 0.009176
# 5 0.001294 0.002374 0.000468 0.000000 0.039894 0.000000
# 6 0.000000 0.000000 0.000000 0.009176 0.000000 0.221835
#
#
# Mechanical properties :
#
#
# Convention : Reuss Voigt Hill
#
# Bulk Modulus (GPa) = 18.16190 59.08741 38.62466
# Shear Modulus (GPa) = 9.55418 27.34377 18.44898
#
# Velocity S-wave (km/s) = 2.13853 3.61783 2.97170
# Velocity P-wave (km/s) = 3.84595 6.76276 5.50119
#
# Compressibility (1/GPa) = 0.05506031
#
# Stress axis : x y z
#
# Youngs Moduli (GPa) = 84.18432 12.96354 193.39694
#
# Poissons Ratio (x) = 0.24627 0.29005
# Poissons Ratio (y) = 1.59926 -0.18037
# Poissons Ratio (z) = 0.12626 -0.01209
#
# Static dielectric constant tensor:
#      x y z
#    x 3.864950 0.000000 -0.045090 
#    y 0.000000 2.947440 0.000000 
#    z -0.045090 0.000000 6.888810 
# 
# 
# High freq. dielectric constant tensor:
#      x y z
#    x 1.830450 0.000000 -0.001360 
#    y 0.000000 1.742730 0.000000 
#    z -0.001360 0.000000 1.868860 
# 
# From -- ./inp_files/1042.got.cif
#   From: 2010.03.12/outbox.cif.g09.slc.cpg/sg7_cif.got.tgz:1042.got - 2010.03.30 08:40:41.
