data_PCOD8052391
_publ_section_title
;
Structure prediction by ZEFSAII (Michael W. Deem and Ramdas Pophale) SiO2 
 PCOD8052391
Probable space group: P M
;
_chemical_formula_sum "Si O2"
_cell_formula_units_Z 16
_cell_length_a 9.805144
_cell_length_b 8.775010
_cell_length_c 12.086772
_cell_angle_alpha 90.000000
_cell_angle_beta 50.927730
_cell_angle_gamma 90.000000
_cell_volume 807.365804
_symmetry_space_group_name_H-M "P M"
_symmetry_group_IT_number 6
_symmetry_cell_setting 'monoclinic'
loop_
_space_group_symop_operation_xyz
x,y,z
x,-y,z
loop_
_atom_site_type_symbol
_atom_site_label
_atom_site_fract_x
_atom_site_fract_y
_atom_site_fract_z
Si Si1 0.698780 0.820191 0.774940
Si Si2 0.908211 0.670282 0.296511
Si Si3 0.011833 0.177092 0.028046
Si Si4 0.382102 0.319368 0.803674
Si Si5 0.507148 0.329152 0.511441
Si Si6 0.015624 0.322398 0.479521
Si Si7 0.410452 0.680158 0.325388
Si Si8 0.701007 0.820275 0.027472
O O1 0.520991 0.748862 0.818301
O O2 0.870858 0.771659 0.619893
O O3 0.679962 0.000000 0.777228
O O4 0.719645 0.765888 0.891373
O O5 0.959587 0.500000 0.227761
O O6 0.930388 0.795104 0.190296
O O7 0.709674 0.671546 0.439416
O O8 0.018970 0.716728 0.347496
O O9 0.873771 0.235310 0.006257
O O10 0.056413 0.000000 0.989552
O O11 0.186624 0.276483 0.936913
O O12 0.408535 0.500000 0.790622
O O13 0.411032 0.250846 0.665071
O O14 0.432950 0.500000 0.536709
O O15 0.473142 0.248214 0.410963
O O16 0.975614 0.500000 0.519371
O O17 0.207487 0.274003 0.421807
O O18 0.440347 0.500000 0.303214
O O19 0.523869 0.751222 0.168960
O O20 0.684887 0.000000 0.045288
#
# Coordination Sequence:
#
# PCOD8052391 Si02
#       8
#     2   2   2   2   2   2   2   2
#     4  11  24  42  61  86 123 164 201 243 296 357
#     4  10  19  38  62  86 118 153 197 251 297 348
#     4  11  24  41  60  89 123 159 201 246 297 359
#     4  11  23  41  64  91 120 156 199 250 302 353
#     4   9  18  36  61  87 115 146 193 251 298 345
#     4  10  22  39  61  90 120 153 199 249 296 352
#     4  10  21  38  62  90 117 152 200 248 296 351
#     4  10  24  43  59  83 124 163 200 244 294 355
#
# _framework density 19.817533999999998
#
# number of rings (size 3 to 8) (size 9 to 14) (size 15 to 20)
#    0.000    1.750    2.500    1.125    3.500    2.500 
#    0.000    1.250    0.000    0.000    0.000    0.000 
#    0.000    0.000    0.000    0.000    0.000    0.000 
#
# Total GULP energy -198401.944189 kJ/mol
# GULP energy per Si atom -12400.121512 kJ/mol
# Density = 1.977243 g / cm^3
# Si number density = 19.817534 Si / 1000 Ang^3
#
#
#
# Elastic Constant Matrix: (Units=GPa)
#
#
# Indices 1 2 3 4 5 6 
#
# 1 125.0386 32.8497 56.2665 0.0000 3.0825 0.0000
# 2 32.8497 45.6726 33.7796 0.0000 3.0480 0.0000
# 3 56.2665 33.7796 107.4671 0.0000 4.1118 0.0000
# 4 0.0000 0.0000 0.0000 29.1940 0.0000 -2.0323
# 5 3.0825 3.0480 4.1118 0.0000 36.1577 0.0000
# 6 0.0000 0.0000 0.0000 -2.0323 0.0000 24.0846
#
#
#
# Elastic Compliance Matrix: (Units=1/GPa)
#
#
# Indices 1 2 3 4 5 6 
#
# 1 0.011234 -0.004857 -0.004353 0.000000 -0.000053 0.000000
# 2 -0.004857 0.030696 -0.007053 0.000000 -0.001371 0.000000
# 3 -0.004353 -0.007053 0.013824 0.000000 -0.000606 0.000000
# 4 0.000000 0.000000 0.000000 0.034456 0.000000 0.002907
# 5 -0.000053 -0.001371 -0.000606 0.000000 0.027846 0.000000
# 6 0.000000 0.000000 0.000000 0.002907 0.000000 0.041766
#
#
# Mechanical properties :
#
#
# Convention : Reuss Voigt Hill
#
# Bulk Modulus (GPa) = 43.05062 58.21887 50.63475
# Shear Modulus (GPa) = 24.98870 28.23943 26.61407
#
# Velocity S-wave (km/s) = 3.55482 3.77898 3.66861
# Velocity P-wave (km/s) = 6.21447 6.96291 6.59931
#
# Compressibility (1/GPa) = 0.02322847
#
# Stress axis : x y z
#
# Youngs Moduli (GPa) = 89.01896 32.57722 72.33541
#
# Poissons Ratio (x) = 0.15822 0.31487
# Poissons Ratio (y) = 0.43233 0.51021
# Poissons Ratio (z) = 0.38750 0.22978
#
# Static dielectric constant tensor:
#      x y z
#    x 3.838950 0.000000 0.152750 
#    y 0.000000 3.392360 0.000000 
#    z 0.152750 0.000000 3.608280 
# 
# 
# High freq. dielectric constant tensor:
#      x y z
#    x 1.788620 0.000000 0.005210 
#    y 0.000000 1.751000 0.000000 
#    z 0.005210 0.000000 1.780860 
# 
# From -- ./inp_files/3733.got.cif
#   From: 2010.03.12/outbox.cif.g09.slc.cpg/sg6_2_cif.got.tgz:3733.got - 2010.03.30 10:24:59.
