data_PCOD8052314
_publ_section_title
;
Structure prediction by ZEFSAII (Michael W. Deem and Ramdas Pophale) SiO2 
 PCOD8052314
Probable space group: P M
;
_chemical_formula_sum "Si O2"
_cell_formula_units_Z 16
_cell_length_a 12.116746
_cell_length_b 8.986990
_cell_length_c 10.326764
_cell_angle_alpha 90.000000
_cell_angle_beta 128.287334
_cell_angle_gamma 90.000000
_cell_volume 882.645348
_symmetry_space_group_name_H-M "P M"
_symmetry_group_IT_number 6
_symmetry_cell_setting 'monoclinic'
loop_
_space_group_symop_operation_xyz
x,y,z
x,-y,z
loop_
_atom_site_type_symbol
_atom_site_label
_atom_site_fract_x
_atom_site_fract_y
_atom_site_fract_z
Si Si1 0.700820 0.170926 0.959850
Si Si2 0.966409 0.675148 0.067489
Si Si3 0.124441 0.676771 0.437023
Si Si4 0.390709 0.328203 0.000355
Si Si5 0.961462 0.173531 0.551699
Si Si6 0.665623 0.172312 0.227266
Si Si7 0.383998 0.173146 0.723157
Si Si8 0.091024 0.671950 0.887577
O O1 0.543695 0.198881 0.792322
O O2 0.744523 0.000000 0.980593
O O3 0.807892 0.263779 0.950279
O O4 0.710719 0.223858 0.116107
O O5 0.957999 0.500000 0.068116
O O6 0.048744 0.736607 0.252812
O O7 0.047100 0.727706 0.997751
O O8 0.130939 0.500000 0.447263
O O9 0.282375 0.741435 0.550099
O O10 0.043968 0.734431 0.504261
O O11 0.412242 0.500000 0.978645
O O12 0.530261 0.267305 0.174103
O O13 0.360280 0.235513 0.849414
O O14 0.258572 0.306201 0.999099
O O15 0.794386 0.202548 0.417538
O O16 0.006809 0.227373 0.725416
O O17 0.996218 0.000000 0.558517
O O18 0.620676 0.000000 0.191195
O O19 0.345316 0.000000 0.697999
O O20 0.049824 0.500000 0.834048
#
# Coordination Sequence:
#
# PCOD8052314 Si02
#       8
#     2   2   2   2   2   2   2   2
#     4   9  18  34  54  79 110 143 179 224 272 324
#     4  10  22  38  56  79 112 149 183 224 275 330
#     4  11  21  34  55  84 111 142 186 231 273 324
#     4  10  19  32  54  81 109 143 182 224 274 325
#     4  11  21  35  57  83 110 144 184 229 278 325
#     4   9  19  34  53  80 112 140 175 227 277 323
#     4  10  20  34  54  81 112 142 180 229 277 323
#     4  10  22  39  55  79 114 147 183 228 274 326
#
# _framework density 18.127324999999999
#
# number of rings (size 3 to 8) (size 9 to 14) (size 15 to 20)
#    0.000    2.000    2.500    2.250    0.000    5.000 
#    0.000    1.250    0.000    4.500    0.000    0.000 
#    0.000    0.000    0.000    0.000    0.000    0.000 
#
# Total GULP energy -198435.278142 kJ/mol
# GULP energy per Si atom -12402.204884 kJ/mol
# Density = 1.808607 g / cm^3
# Si number density = 18.127325 Si / 1000 Ang^3
#
#
#
# Elastic Constant Matrix: (Units=GPa)
#
#
# Indices 1 2 3 4 5 6 
#
# 1 122.4528 44.5026 59.1167 0.0000 7.3110 0.0000
# 2 44.5026 69.4143 42.8154 0.0000 6.9078 0.0000
# 3 59.1167 42.8154 96.2630 0.0000 10.4188 0.0000
# 4 0.0000 0.0000 0.0000 23.1458 0.0000 13.0307
# 5 7.3110 6.9078 10.4188 0.0000 28.2555 0.0000
# 6 0.0000 0.0000 0.0000 13.0307 0.0000 25.7390
#
#
#
# Elastic Compliance Matrix: (Units=1/GPa)
#
#
# Indices 1 2 3 4 5 6 
#
# 1 0.012568 -0.004541 -0.005694 0.000000 -0.000042 0.000000
# 2 -0.004541 0.021569 -0.006625 0.000000 -0.001655 0.000000
# 3 -0.005694 -0.006625 0.017183 0.000000 -0.003243 0.000000
# 4 0.000000 0.000000 0.000000 0.060427 0.000000 -0.030592
# 5 -0.000042 -0.001655 -0.003243 0.000000 0.037003 0.000000
# 6 0.000000 0.000000 0.000000 -0.030592 0.000000 0.054339
#
#
# Mechanical properties :
#
#
# Convention : Reuss Voigt Hill
#
# Bulk Modulus (GPa) = 56.82220 64.55551 60.68885
# Shear Modulus (GPa) = 20.60355 24.87440 22.73897
#
# Velocity S-wave (km/s) = 3.37501 3.70835 3.54560
# Velocity P-wave (km/s) = 6.82655 7.35019 7.09321
#
# Compressibility (1/GPa) = 0.01759876
#
# Stress axis : x y z
#
# Youngs Moduli (GPa) = 79.56541 46.36264 58.19823
#
# Poissons Ratio (x) = 0.21056 0.33137
# Poissons Ratio (y) = 0.36135 0.38558
# Poissons Ratio (z) = 0.45304 0.30716
#
# Static dielectric constant tensor:
#      x y z
#    x 3.373350 0.000000 0.261040 
#    y 0.000000 3.362160 0.000000 
#    z 0.261040 0.000000 3.424180 
# 
# 
# High freq. dielectric constant tensor:
#      x y z
#    x 1.697140 0.000000 0.024920 
#    y 0.000000 1.707760 0.000000 
#    z 0.024920 0.000000 1.688910 
# 
# From -- ./inp_files/3758.got.cif
#   From: 2010.03.12/outbox.cif.g09.slc.cpg/sg6_2_cif.got.tgz:3758.got - 2010.03.30 10:24:59.
