data_PCOD8052737
_publ_section_title
;
Structure prediction by ZEFSAII (Michael W. Deem and Ramdas Pophale) SiO2 
 PCOD8052737
Probable space group: C M
;
_chemical_formula_sum "Si O2"
_cell_formula_units_Z 32
_cell_length_a 20.225179
_cell_length_b 9.107904
_cell_length_c 29.122801
_cell_angle_alpha 90.000000
_cell_angle_beta 20.085576
_cell_angle_gamma 90.000000
_cell_volume 1842.356540
_symmetry_space_group_name_H-M "C M"
_symmetry_group_IT_number 8
_symmetry_cell_setting 'monoclinic'
loop_
_space_group_symop_operation_xyz
x,y,z
x,-y,z
1/2+x,1/2+y,z
1/2+x,1/2-y,z
loop_
_atom_site_type_symbol
_atom_site_label
_atom_site_fract_x
_atom_site_fract_y
_atom_site_fract_z
Si Si1 0.738710 0.829174 0.382890
Si Si2 0.161991 0.327594 0.630573
Si Si3 0.699096 0.828242 0.165325
Si Si4 0.026843 0.674624 0.433557
Si Si5 0.376527 0.671791 0.143383
Si Si6 0.267913 0.826010 0.929807
Si Si7 0.171537 0.173241 0.093229
Si Si8 0.805405 0.170326 0.438831
O O1 0.583107 0.767581 0.448172
O O2 0.682285 0.794774 0.472733
O O3 0.952383 0.767134 0.233610
O O4 0.749978 0.000000 0.365330
O O5 0.179879 0.500000 0.628317
O O6 0.326687 0.248361 0.551696
O O7 0.176290 0.291489 0.567064
O O8 0.957336 0.264338 0.781105
O O9 0.855333 0.795058 0.103094
O O10 0.773236 0.751694 0.070253
O O11 0.496230 0.766981 0.315393
O O12 0.675556 0.000000 0.171918
O O13 0.000670 0.500000 0.447405
O O14 0.193044 0.733907 0.290915
O O15 0.382415 0.500000 0.149812
O O16 0.576522 0.742497 0.030970
O O17 0.260505 0.000000 0.929482
O O18 0.277790 0.781416 0.977005
O O19 0.178851 0.000000 0.097099
O O20 0.869068 0.000000 0.397016
#
# Coordination Sequence:
#
# PCOD8052737 Si02
#       8
#     4   4   4   4   4   4   4   4
#     4   8  14  26  48  71  88 117 164 203 228 272
#     4  10  20  32  49  74 102 128 159 200 242 285
#     4  10  18  28  47  75 100 120 153 202 249 284
#     4  10  17  30  51  72  95 126 165 201 238 285
#     4   9  16  28  49  74  95 123 165 203 235 279
#     4   9  17  32  52  71  95 131 168 198 232 284
#     4   9  16  30  51  71  93 124 162 198 237 284
#     4   9  17  30  47  70  98 127 160 195 235 283
#
# _framework density 17.369059
#
# number of rings (size 3 to 8) (size 9 to 14) (size 15 to 20)
#    0.000    2.750    2.500    1.125    0.000    0.000 
#    0.000    4.375    0.000    6.750    0.000    0.000 
#    0.000    0.000    0.000    0.000    0.000    0.000 
#
# Total GULP energy -198303.736444 kJ/mol
# GULP energy per Si atom -12393.983528 kJ/mol
# Density = 1.732953 g / cm^3
# Si number density = 17.369059 Si / 1000 Ang^3
#
#
#
# Elastic Constant Matrix: (Units=GPa)
#
#
# Indices 1 2 3 4 5 6 
#
# 1 154.0636 37.9448 73.3456 0.0445 10.0764 0.0048
# 2 37.9448 34.3642 23.9661 -0.0113 2.6163 -0.0017
# 3 73.3456 23.9661 113.7704 0.0066 6.4761 -0.0003
# 4 0.0445 -0.0113 0.0066 15.7979 -0.0100 -1.0945
# 5 10.0764 2.6163 6.4761 -0.0100 28.5631 -0.0044
# 6 0.0048 -0.0017 -0.0003 -1.0945 -0.0044 24.7730
#
#
#
# Elastic Compliance Matrix: (Units=1/GPa)
#
#
# Indices 1 2 3 4 5 6 
#
# 1 0.011280 -0.008571 -0.005354 -0.000037 -0.001980 -0.000005
# 2 -0.008571 0.040689 -0.003045 0.000055 -0.000013 0.000007
# 3 -0.005354 -0.003045 0.012926 0.000007 -0.000763 0.000001
# 4 -0.000037 0.000055 0.000007 0.063494 0.000029 0.002805
# 5 -0.001980 -0.000013 -0.000763 0.000029 0.035883 0.000008
# 6 -0.000005 0.000007 0.000001 0.002805 0.000008 0.040490
#
#
# Mechanical properties :
#
#
# Convention : Reuss Voigt Hill
#
# Bulk Modulus (GPa) = 32.30460 63.63456 47.96958
# Shear Modulus (GPa) = 20.07869 24.95625 22.51747
#
# Velocity S-wave (km/s) = 3.40369 3.79466 3.60448
# Velocity P-wave (km/s) = 5.83833 7.47767 6.70826
#
# Compressibility (1/GPa) = 0.03095535
#
# Stress axis : x y z
#
# Youngs Moduli (GPa) = 88.65135 24.57692 77.36310
#
# Poissons Ratio (x) = 0.21064 0.41419
# Poissons Ratio (y) = 0.75982 0.23557
# Poissons Ratio (z) = 0.47463 0.07484
#
# Static dielectric constant tensor:
#      x y z
#    x 3.602870 0.000000 0.079880 
#    y 0.000000 2.876030 0.000050 
#    z 0.079880 0.000050 3.165670 
# 
# 
# High freq. dielectric constant tensor:
#      x y z
#    x 1.691540 0.000000 0.009500 
#    y 0.000000 1.630360 0.000000 
#    z 0.009500 0.000000 1.643270 
# 
# From -- ./inp_files/23065.got.cif
#   From: 2010.03.12/outbox.cif.g09.slc.cpg/sg8_12_cif.got.tgz:23065.got - 2010.03.31 10:45:26.
