data_PCOD8052808
_publ_section_title
;
Structure prediction by ZEFSAII (Michael W. Deem and Ramdas Pophale) SiO2 
 PCOD8052808
Probable space group: C M
;
_chemical_formula_sum "Si O2"
_cell_formula_units_Z 32
_cell_length_a 28.058013
_cell_length_b 9.073123
_cell_length_c 21.399634
_cell_angle_alpha 90.000000
_cell_angle_beta 161.373269
_cell_angle_gamma 90.000000
_cell_volume 1740.030816
_symmetry_space_group_name_H-M "C M"
_symmetry_group_IT_number 8
_symmetry_cell_setting 'monoclinic'
loop_
_space_group_symop_operation_xyz
x,y,z
x,-y,z
1/2+x,1/2+y,z
1/2+x,1/2-y,z
loop_
_atom_site_type_symbol
_atom_site_label
_atom_site_fract_x
_atom_site_fract_y
_atom_site_fract_z
Si Si1 0.371590 0.173059 0.916900
Si Si2 0.550890 0.324816 0.247356
Si Si3 0.382345 0.828253 0.408065
Si Si4 0.894652 0.825374 0.178754
Si Si5 0.635733 0.837138 0.164628
Si Si6 0.031247 0.825764 0.477371
Si Si7 0.811589 0.165372 0.512135
Si Si8 0.558259 0.173262 0.751363
O O1 0.202974 0.222288 0.695133
O O2 0.386381 0.000000 0.951985
O O3 0.431873 0.268175 0.049158
O O4 0.465200 0.207462 0.969508
O O5 0.562949 0.500000 0.256386
O O6 0.493887 0.271706 0.244072
O O7 0.714916 0.255245 0.442601
O O8 0.213172 0.777397 0.213755
O O9 0.436672 0.744873 0.414808
O O10 0.491761 0.786827 0.600954
O O11 0.380353 0.000000 0.391678
O O12 0.966993 0.764628 0.332264
O O13 0.889694 0.000000 0.173322
O O14 0.726337 0.765575 0.962337
O O15 0.720053 0.837637 0.334886
O O16 0.642292 0.000000 0.142250
O O17 0.014003 0.000000 0.460820
O O18 0.968599 0.246188 0.695408
O O19 0.841232 0.000000 0.573628
O O20 0.547345 0.000000 0.750395
#
# Coordination Sequence:
#
# PCOD8052808 Si02
#       8
#     4   4   4   4   4   4   4   4
#     4   9  18  32  52  77 100 125 163 206 246 291
#     4  10  18  31  53  77 101 129 162 202 247 293
#     4  10  19  31  50  76 101 125 159 204 249 293
#     4   9  19  34  51  72  98 131 170 205 239 288
#     4   8  15  29  48  71  98 126 158 197 240 289
#     4  10  20  35  52  70  98 134 168 203 243 290
#     4   9  17  30  49  76 105 128 158 201 246 293
#     4   9  17  32  53  75  99 128 164 204 244 289
#
# _framework density 18.390478999999999
#
# number of rings (size 3 to 8) (size 9 to 14) (size 15 to 20)
#    0.000    2.750    0.000    2.625    0.000    5.000 
#    0.000    4.375    0.000    4.500    0.000    0.000 
#    0.000    0.000    0.000    0.000    0.000    0.000 
#
# Total GULP energy -198376.858355 kJ/mol
# GULP energy per Si atom -12398.553647 kJ/mol
# Density = 1.834862 g / cm^3
# Si number density = 18.390479 Si / 1000 Ang^3
#
#
#
# Elastic Constant Matrix: (Units=GPa)
#
#
# Indices 1 2 3 4 5 6 
#
# 1 141.3128 52.0797 81.1459 0.0000 27.3952 0.0000
# 2 52.0797 60.6305 28.5460 0.0000 6.0689 0.0000
# 3 81.1459 28.5460 55.0721 0.0000 13.9776 0.0000
# 4 0.0000 0.0000 0.0000 19.4005 0.0000 5.6349
# 5 27.3952 6.0689 13.9776 0.0000 28.6216 0.0000
# 6 0.0000 0.0000 0.0000 5.6349 0.0000 26.0150
#
#
#
# Elastic Compliance Matrix: (Units=1/GPa)
#
#
# Indices 1 2 3 4 5 6 
#
# 1 0.056915 -0.012852 -0.073129 0.000000 -0.016038 0.000000
# 2 -0.012852 0.024746 0.004931 0.000000 0.004646 0.000000
# 3 -0.073129 0.004931 0.120831 0.000000 0.009941 0.000000
# 4 0.000000 0.000000 0.000000 0.055006 0.000000 -0.011914
# 5 -0.016038 0.004646 0.009941 0.000000 0.044449 0.000000
# 6 0.000000 0.000000 0.000000 -0.011914 0.000000 0.041020
#
#
# Mechanical properties :
#
#
# Convention : Reuss Voigt Hill
#
# Bulk Modulus (GPa) = 24.75761 64.50652 44.63206
# Shear Modulus (GPa) = 9.64259 21.15701 15.39980
#
# Velocity S-wave (km/s) = 2.29230 3.39548 2.89689
# Velocity P-wave (km/s) = 4.52743 7.10807 5.95912
#
# Compressibility (1/GPa) = 0.04039163
#
# Stress axis : x y z
#
# Youngs Moduli (GPa) = 17.56998 40.40983 8.27601
#
# Poissons Ratio (x) = 0.51937 0.60522
# Poissons Ratio (y) = 0.22582 -0.04081
# Poissons Ratio (z) = 1.28488 -0.19926
#
# Static dielectric constant tensor:
#      x y z
#    x 3.435050 0.000000 0.303120 
#    y 0.000000 3.304910 0.000000 
#    z 0.303120 0.000000 3.485450 
# 
# 
# High freq. dielectric constant tensor:
#      x y z
#    x 1.708630 0.000000 0.029030 
#    y 0.000000 1.702060 0.000000 
#    z 0.029030 0.000000 1.701290 
# 
# From -- ./inp_files/31062.got.cif
#   From: 2010.03.12/outbox.cif.g09.slc.cpg/sg8_16_cif.got.tgz:31062.got - 2010.03.31 10:45:26.
