data_PCOD8052115
_publ_section_title
;
Structure prediction by ZEFSAII (Michael W. Deem and Ramdas Pophale) SiO2 
 PCOD8052115
Probable space group: C 2
;
_chemical_formula_sum "Si O2"
_cell_formula_units_Z 26
_cell_length_a 5.840671
_cell_length_b 14.326385
_cell_length_c 16.190694
_cell_angle_alpha 90.000000
_cell_angle_beta 128.299430
_cell_angle_gamma 90.000000
_cell_volume 1063.198013
_symmetry_space_group_name_H-M "C 2"
_symmetry_group_IT_number 5
_symmetry_cell_setting 'monoclinic'
loop_
_space_group_symop_operation_xyz
x,y,z
-x,y,-z
1/2+x,1/2+y,z
1/2-x,1/2+y,-z
loop_
_atom_site_type_symbol
_atom_site_label
_atom_site_fract_x
_atom_site_fract_y
_atom_site_fract_z
Si Si1 0.419115 0.303280 0.705064
Si Si2 0.291897 0.508476 0.699372
Si Si3 0.990609 0.359996 0.085990
Si Si4 0.500000 0.220988 0.000000
Si Si5 0.223844 0.649255 0.215116
Si Si6 0.150089 0.653837 0.442221
Si Si7 0.722523 0.521020 0.122355
O O1 0.285508 0.405891 0.656092
O O2 0.723427 0.308015 0.820446
O O3 0.207073 0.245511 0.720611
O O4 0.463321 0.246632 0.629984
O O5 0.517249 0.577960 0.704708
O O6 0.416504 0.494263 0.820575
O O7 0.974140 0.556729 0.624022
O O8 0.739078 0.285161 0.010017
O O9 0.915866 0.432896 0.140132
O O10 0.000000 0.413535 0.000000
O O11 0.676870 0.159814 0.106332
O O12 0.923160 0.610067 0.184965
O O13 0.500000 0.649820 0.500000
O O14 0.000000 0.661032 0.500000
O O15 0.500000 0.546437 0.000000
#
# Coordination Sequence:
#
# PCOD8052115 Si02
#       7
#     4   4   4   2   4   4   4
#     4  12  26  52  80 115 156 211 262 327 407 481
#     4  12  27  53  79 113 157 210 258 330 410 484
#     4  12  24  43  66 113 160 210 267 307 378 476
#     4  12  24  36  66 102 162 224 266 312 366 456
#     4  12  25  44  69 110 162 213 264 322 378 469
#     4  12  30  58  88 120 157 200 275 355 422 494
#     4  12  25  41  70 114 161 210 265 313 377 473
#
# _framework density 24.454521
#
# number of rings (size 3 to 8) (size 9 to 14) (size 15 to 20)
#    0.000    0.000    5.385    4.615    3.231    1.846 
#    0.000    4.615    0.000    0.000    0.000    0.000 
#    0.000    0.000    0.000    0.000    0.000    0.000 
#
# Total GULP energy -161111.015127 kJ/mol
# GULP energy per Si atom -12393.155010 kJ/mol
# Density = 2.439886 g / cm^3
# Si number density = 24.454521 Si / 1000 Ang^3
#
#
#
# Elastic Constant Matrix: (Units=GPa)
#
#
# Indices 1 2 3 4 5 6 
#
# 1 110.5501 49.2329 51.2017 -0.0001 -2.0751 -0.0001
# 2 49.2329 177.2388 46.3925 0.0000 5.4126 0.0000
# 3 51.2017 46.3925 105.4952 -0.0001 -9.0630 -0.0001
# 4 -0.0001 0.0000 -0.0001 30.0628 -0.0001 -6.5908
# 5 -2.0751 5.4126 -9.0630 -0.0001 44.2161 -0.0001
# 6 -0.0001 0.0000 -0.0001 -6.5908 -0.0001 39.1642
#
#
#
# Elastic Compliance Matrix: (Units=1/GPa)
#
#
# Indices 1 2 3 4 5 6 
#
# 1 0.012325 -0.002087 -0.005082 0.000000 -0.000208 0.000000
# 2 -0.002087 0.006813 -0.002100 0.000000 -0.001362 0.000000
# 3 -0.005082 -0.002100 0.013102 0.000000 0.002704 0.000000
# 4 0.000000 0.000000 0.000000 0.034538 0.000000 0.005812
# 5 -0.000208 -0.001362 0.002704 0.000000 0.023327 0.000000
# 6 0.000000 0.000000 0.000000 0.005812 0.000000 0.026512
#
#
# Mechanical properties :
#
#
# Convention : Reuss Voigt Hill
#
# Bulk Modulus (GPa) = 72.98642 76.32646 74.65644
# Shear Modulus (GPa) = 35.78528 39.11909 37.45219
#
# Velocity S-wave (km/s) = 3.82951 4.00392 3.91769
# Velocity P-wave (km/s) = 7.03307 7.25635 7.14558
#
# Compressibility (1/GPa) = 0.01370118
#
# Stress axis : x y z
#
# Youngs Moduli (GPa) = 81.13638 146.77403 76.32712
#
# Poissons Ratio (x) = 0.30632 0.38789
# Poissons Ratio (y) = 0.16934 0.16031
# Poissons Ratio (z) = 0.41233 0.30827
#
# Static dielectric constant tensor:
#      x y z
#    x 4.539160 0.000000 -0.010260 
#    y 0.000000 4.536740 0.000000 
#    z -0.010260 0.000000 4.466350 
# 
# 
# High freq. dielectric constant tensor:
#      x y z
#    x 1.975420 0.000000 -0.003340 
#    y 0.000000 1.979220 0.000000 
#    z -0.003340 0.000000 1.967740 
# 
# From -- ./inp_files/58817.got.cif
#   From: 2010.03.12/outbox.cif.g09.slc.cpg/sg5_30_cif.got.tgz:58817.got - 2010.03.31 09:47:26.
