data_PCOD8052047
_publ_section_title
;
Structure prediction by ZEFSAII (Michael W. Deem and Ramdas Pophale) SiO2 
 PCOD8052047
Probable space group: C 2
;
_chemical_formula_sum "Si O2"
_cell_formula_units_Z 28
_cell_length_a 23.427655
_cell_length_b 9.609283
_cell_length_c 7.739957
_cell_angle_alpha 90.000000
_cell_angle_beta 136.277700
_cell_angle_gamma 90.000000
_cell_volume 1204.312794
_symmetry_space_group_name_H-M "C 2"
_symmetry_group_IT_number 5
_symmetry_cell_setting 'monoclinic'
loop_
_space_group_symop_operation_xyz
x,y,z
-x,y,-z
1/2+x,1/2+y,z
1/2-x,1/2+y,-z
loop_
_atom_site_type_symbol
_atom_site_label
_atom_site_fract_x
_atom_site_fract_y
_atom_site_fract_z
Si Si1 0.455076 0.459450 0.084224
Si Si2 0.000000 0.493781 0.000000
Si Si3 0.168591 0.373006 0.437741
Si Si4 0.290510 0.589822 0.602513
Si Si5 0.772429 0.521762 0.891612
Si Si6 0.500000 0.626888 0.500000
Si Si7 0.829006 0.251173 0.180806
Si Si8 0.948994 0.657825 0.211358
O O1 0.374278 0.551768 0.881649
O O2 0.500000 0.441687 0.000000
O O3 0.512272 0.534694 0.353179
O O4 0.428098 0.312763 0.104421
O O5 0.078470 0.393422 0.161171
O O6 0.003769 0.586159 0.181903
O O7 0.214867 0.521742 0.542668
O O8 0.216497 0.258155 0.424397
O O9 0.158836 0.316411 0.606427
O O10 0.287588 0.525221 0.404574
O O11 0.727474 0.612365 0.942201
O O12 0.780260 0.361384 0.958358
O O13 0.861972 0.582617 0.043866
O O14 0.419172 0.721780 0.300038
O O15 0.000000 0.654371 0.500000
#
# Coordination Sequence:
#
# PCOD8052047 Si02
#       8
#     4   2   4   4   4   2   4   4
#     4  12  26  48  78 111 153 199 253 309 383 452
#     4  12  26  48  78 112 152 206 250 316 378 452
#     4  11  26  47  75 110 151 197 257 307 381 451
#     4  11  26  45  76 106 150 193 248 313 371 446
#     4  11  26  49  73 111 151 194 254 314 377 453
#     4  12  30  50  78 114 154 202 252 324 370 452
#     4  11  28  48  76 111 151 199 254 310 388 446
#     4  12  26  48  76 112 157 196 253 312 381 451
#
# _framework density 23.249773999999999
#
# number of rings (size 3 to 8) (size 9 to 14) (size 15 to 20)
#    0.000    0.571    2.857    4.286   12.000    1.143 
#    0.000    0.000    0.000    0.000    0.000    0.000 
#    0.000    0.000    0.000    0.000    0.000    0.000 
#
# Total GULP energy -173638.361606 kJ/mol
# GULP energy per Si atom -12402.740115 kJ/mol
# Density = 2.319686 g / cm^3
# Si number density = 23.249774 Si / 1000 Ang^3
#
#
#
# Elastic Constant Matrix: (Units=GPa)
#
#
# Indices 1 2 3 4 5 6 
#
# 1 106.4374 35.4228 29.7040 0.0000 0.6020 0.0000
# 2 35.4228 86.9610 28.7237 0.0000 -8.3459 0.0000
# 3 29.7040 28.7237 113.6792 0.0000 -13.5985 0.0000
# 4 0.0000 0.0000 0.0000 38.1826 0.0000 1.1384
# 5 0.6020 -8.3459 -13.5985 0.0000 44.7640 0.0000
# 6 0.0000 0.0000 0.0000 1.1384 0.0000 44.1290
#
#
#
# Elastic Compliance Matrix: (Units=1/GPa)
#
#
# Indices 1 2 3 4 5 6 
#
# 1 0.011352 -0.004072 -0.002124 0.000000 -0.001557 0.000000
# 2 -0.004072 0.014096 -0.002259 0.000000 0.001997 0.000000
# 3 -0.002124 -0.002259 0.010248 0.000000 0.002721 0.000000
# 4 0.000000 0.000000 0.000000 0.026210 0.000000 -0.000676
# 5 -0.001557 0.001997 0.002721 0.000000 0.023559 0.000000
# 6 0.000000 0.000000 0.000000 -0.000676 0.000000 0.022678
#
#
# Mechanical properties :
#
#
# Convention : Reuss Voigt Hill
#
# Bulk Modulus (GPa) = 53.22944 54.97542 54.10243
# Shear Modulus (GPa) = 38.07673 39.63026 38.85350
#
# Velocity S-wave (km/s) = 4.05127 4.13309 4.09239
# Velocity P-wave (km/s) = 6.69537 6.81715 6.75654
#
# Compressibility (1/GPa) = 0.01878660
#
# Stress axis : x y z
#
# Youngs Moduli (GPa) = 88.09152 70.94284 97.58260
#
# Poissons Ratio (x) = 0.28889 0.20722
# Poissons Ratio (y) = 0.35872 0.22042
# Poissons Ratio (z) = 0.18707 0.16024
#
# Static dielectric constant tensor:
#      x y z
#    x 4.561320 0.000000 -0.238260 
#    y 0.000000 4.546360 0.000000 
#    z -0.238260 0.000000 4.316930 
# 
# 
# High freq. dielectric constant tensor:
#      x y z
#    x 1.919450 0.000000 -0.009760 
#    y 0.000000 1.929750 0.000000 
#    z -0.009760 0.000000 1.931340 
# 
# From -- ./inp_files/31800.got.cif
#   From: 2010.03.12/outbox.cif.g09.slc.cpg/sg5_16_cif.got.tgz:31800.got - 2010.03.31 09:47:26.
