data_PCOD8052124
_publ_section_title
;
Structure prediction by ZEFSAII (Michael W. Deem and Ramdas Pophale) SiO2 
 PCOD8052124
Probable space group: C 2
;
_chemical_formula_sum "Si O2"
_cell_formula_units_Z 24
_cell_length_a 7.889976
_cell_length_b 5.377935
_cell_length_c 21.794181
_cell_angle_alpha 90.000000
_cell_angle_beta 78.280050
_cell_angle_gamma 90.000000
_cell_volume 905.486465
_symmetry_space_group_name_H-M "C 2"
_symmetry_group_IT_number 5
_symmetry_cell_setting 'monoclinic'
loop_
_space_group_symop_operation_xyz
x,y,z
-x,y,-z
1/2+x,1/2+y,z
1/2-x,1/2+y,-z
loop_
_atom_site_type_symbol
_atom_site_label
_atom_site_fract_x
_atom_site_fract_y
_atom_site_fract_z
Si Si1 0.500000 0.662860 0.000000
Si Si2 0.376562 0.679837 0.252250
Si Si3 0.344174 0.408353 0.831360
Si Si4 0.838834 0.636245 0.418495
Si Si5 0.799835 0.408208 0.910329
Si Si6 0.000000 0.977109 0.500000
Si Si7 0.881277 0.365743 0.664123
O O1 0.378082 0.469835 0.043607
O O2 0.567521 0.854937 0.045264
O O3 0.459487 0.448206 0.208647
O O4 0.219748 0.616060 0.310096
O O5 0.543660 0.768872 0.277964
O O6 0.302664 0.881969 0.210533
O O7 0.285485 0.654110 0.872338
O O8 0.357924 0.151590 0.867957
O O9 0.974610 0.827278 0.438604
O O10 0.679923 0.624003 0.478042
O O11 0.767448 0.698019 0.356045
O O12 0.963578 0.399146 0.397609
#
# Coordination Sequence:
#
# PCOD8052124 Si02
#       7
#     2   4   4   4   4   2   4
#     4  12  30  52  80 114 154 200 252 310 380 452
#     4  12  27  47  74 107 146 194 248 307 374 446
#     4  12  29  51  78 113 152 199 254 313 377 452
#     4  12  24  43  68 100 141 186 242 302 366 438
#     4  12  30  52  80 114 154 200 252 313 377 452
#     4  12  24  42  68 100 138 188 240 300 364 436
#     4  12  25  45  70 103 143 190 242 304 368 440
#
# _framework density 26.505089999999999
#
# number of rings (size 3 to 8) (size 9 to 14) (size 15 to 20)
#    0.000    0.000    0.000    9.000    0.000   18.000 
#    0.000    0.000    0.000    0.000    0.000    0.000 
#    0.000    0.000    0.000    0.000    0.000    0.000 
#
# Total GULP energy -148711.647086 kJ/mol
# GULP energy per Si atom -12392.637257 kJ/mol
# Density = 2.644476 g / cm^3
# Si number density = 26.505090 Si / 1000 Ang^3
#
#
#
# Elastic Constant Matrix: (Units=GPa)
#
#
# Indices 1 2 3 4 5 6 
#
# 1 141.9515 37.9427 43.5649 0.0000 3.1425 0.0000
# 2 37.9427 115.4244 23.8167 0.0000 1.5783 0.0000
# 3 43.5649 23.8167 98.6978 0.0000 -8.0310 0.0000
# 4 0.0000 0.0000 0.0000 28.1472 0.0000 -3.2824
# 5 3.1425 1.5783 -8.0310 0.0000 55.2406 0.0000
# 6 0.0000 0.0000 0.0000 -3.2824 0.0000 48.5346
#
#
#
# Elastic Compliance Matrix: (Units=1/GPa)
#
#
# Indices 1 2 3 4 5 6 
#
# 1 0.008677 -0.002141 -0.003389 0.000000 -0.000925 0.000000
# 2 -0.002141 0.009665 -0.001417 0.000000 -0.000360 0.000000
# 3 -0.003389 -0.001417 0.012132 0.000000 0.001997 0.000000
# 4 0.000000 0.000000 0.000000 0.035810 0.000000 0.002422
# 5 -0.000925 -0.000360 0.001997 0.000000 0.018456 0.000000
# 6 0.000000 0.000000 0.000000 0.002422 0.000000 0.020768
#
#
# Mechanical properties :
#
#
# Convention : Reuss Voigt Hill
#
# Bulk Modulus (GPa) = 60.30676 62.96914 61.63795
# Shear Modulus (GPa) = 40.02338 43.10109 41.56224
#
# Velocity S-wave (km/s) = 3.89012 4.03692 3.96420
# Velocity P-wave (km/s) = 6.55589 6.74818 6.65273
#
# Compressibility (1/GPa) = 0.01658189
#
# Stress axis : x y z
#
# Youngs Moduli (GPa) = 115.24260 103.47084 82.42570
#
# Poissons Ratio (x) = 0.22148 0.27933
# Poissons Ratio (y) = 0.24668 0.11677
# Poissons Ratio (z) = 0.39055 0.14658
#
# Static dielectric constant tensor:
#      x y z
#    x 4.986000 0.000000 0.100700 
#    y 0.000000 4.531270 0.000000 
#    z 0.100700 0.000000 5.182530 
# 
# 
# High freq. dielectric constant tensor:
#      x y z
#    x 2.090170 0.000000 0.004100 
#    y 0.000000 2.051310 0.000000 
#    z 0.004100 0.000000 2.082830 
# 
# From -- ./inp_files/67841.got.cif
#   From: 2010.03.12/outbox.cif.g09.slc.cpg/sg5_34_cif.got.tgz:67841.got - 2010.03.31 09:47:26.
