data_PCOD8052997
_publ_section_title
;
Structure prediction by ZEFSAII (Michael W. Deem and Ramdas Pophale) SiO2 
 PCOD8052997
Probable space group: C M
;
_chemical_formula_sum "Si O2"
_cell_formula_units_Z 32
_cell_length_a 18.608214
_cell_length_b 8.779042
_cell_length_c 13.565619
_cell_angle_alpha 90.000000
_cell_angle_beta 49.624161
_cell_angle_gamma 90.000000
_cell_volume 1688.258652
_symmetry_space_group_name_H-M "C M"
_symmetry_group_IT_number 8
_symmetry_cell_setting 'monoclinic'
loop_
_space_group_symop_operation_xyz
x,y,z
x,-y,z
1/2+x,1/2+y,z
1/2+x,1/2-y,z
loop_
_atom_site_type_symbol
_atom_site_label
_atom_site_fract_x
_atom_site_fract_y
_atom_site_fract_z
Si Si1 0.982280 0.824604 0.781920
Si Si2 0.853894 0.818299 0.538946
Si Si3 0.144539 0.817729 0.991492
Si Si4 0.661228 0.678032 0.753399
Si Si5 0.997831 0.320862 0.559082
Si Si6 0.275769 0.676743 0.033271
Si Si7 0.145753 0.831627 0.295867
Si Si8 0.491996 0.666273 0.263057
O O1 0.066857 0.781548 0.779553
O O2 0.989286 0.717220 0.681370
O O3 0.987932 0.000000 0.742172
O O4 0.887390 0.794348 0.928026
O O5 0.746044 0.769985 0.628673
O O6 0.902587 0.752044 0.394430
O O7 0.906439 0.750266 0.587124
O O8 0.864837 0.000000 0.533748
O O9 0.231759 0.751538 0.974682
O O10 0.044158 0.752279 0.124464
O O11 0.146080 0.000000 0.000836
O O12 0.150996 0.763192 0.874019
O O13 0.684886 0.500000 0.729629
O O14 0.995016 0.500000 0.545638
O O15 0.097694 0.258942 0.428927
O O16 0.249547 0.500000 0.056455
O O17 0.237724 0.747096 0.169851
O O18 0.070994 0.847725 0.276146
O O19 0.175545 0.000000 0.306902
O O20 0.458326 0.500000 0.257571
#
# Coordination Sequence:
#
# PCOD8052997 Si02
#       8
#     4   4   4   4   4   4   4   4
#     4  10  22  38  52  72 109 150 183 222 270 313
#     4  10  19  33  54  79 107 138 171 213 268 322
#     4   9  17  32  54  76  98 131 174 216 262 315
#     4  10  21  36  53  74 104 143 183 222 264 313
#     4  11  21  34  56  83 107 136 180 226 265 317
#     4  10  19  32  53  80 107 137 176 220 264 316
#     4   9  17  32  54  79 108 137 167 214 273 323
#     4   7  13  27  48  73  98 126 162 203 252 309
#
# _framework density 18.954440999999999
#
# number of rings (size 3 to 8) (size 9 to 14) (size 15 to 20)
#    0.000    2.500    0.000    4.500    0.000    4.000 
#    0.000    1.875    0.000    3.000    0.000    0.000 
#    0.000    0.000    0.000    0.000    0.000    0.000 
#
# Total GULP energy -198307.582437 kJ/mol
# GULP energy per Si atom -12394.223902 kJ/mol
# Density = 1.891130 g / cm^3
# Si number density = 18.954441 Si / 1000 Ang^3
#
#
#
# Elastic Constant Matrix: (Units=GPa)
#
#
# Indices 1 2 3 4 5 6 
#
# 1 69.0070 26.2519 45.3270 0.0001 -22.0536 0.0000
# 2 26.2519 79.9418 40.6905 0.0003 -11.0065 -0.0004
# 3 45.3270 40.6905 143.8876 0.0001 -28.5859 -0.0001
# 4 0.0001 0.0003 0.0001 32.3037 0.0000 -2.8569
# 5 -22.0536 -11.0065 -28.5859 0.0000 14.6531 0.0001
# 6 0.0000 -0.0004 -0.0001 -2.8569 0.0001 18.6065
#
#
#
# Elastic Compliance Matrix: (Units=1/GPa)
#
#
# Indices 1 2 3 4 5 6 
#
# 1 0.028981 -0.003944 0.000102 0.000000 0.040855 0.000000
# 2 -0.003944 0.015355 -0.003246 0.000000 -0.000734 0.000000
# 3 0.000102 -0.003246 0.012053 0.000000 0.021230 0.000000
# 4 0.000000 0.000000 0.000000 0.031382 0.000000 0.004819
# 5 0.040855 -0.000734 0.021230 0.000000 0.170598 0.000000
# 6 0.000000 0.000000 0.000000 0.004819 0.000000 0.054484
#
#
# Mechanical properties :
#
#
# Convention : Reuss Voigt Hill
#
# Bulk Modulus (GPa) = 23.68849 57.48610 40.58729
# Shear Modulus (GPa) = 14.65840 25.15047 19.90443
#
# Velocity S-wave (km/s) = 2.78393 3.64660 3.24407
# Velocity P-wave (km/s) = 4.78105 6.93720 5.95748
#
# Compressibility (1/GPa) = 0.04221460
#
# Stress axis : x y z
#
# Youngs Moduli (GPa) = 34.50526 65.12391 82.96528
#
# Poissons Ratio (x) = 0.25686 -0.00850
# Poissons Ratio (y) = 0.13610 0.26929
# Poissons Ratio (z) = -0.00354 0.21138
#
# Static dielectric constant tensor:
#      x y z
#    x 3.081180 0.000000 -0.035950 
#    y 0.000000 3.403790 0.000000 
#    z -0.035950 0.000000 4.001170 
# 
# 
# High freq. dielectric constant tensor:
#      x y z
#    x 1.694380 0.000000 -0.004200 
#    y 0.000000 1.725210 0.000000 
#    z -0.004200 0.000000 1.762940 
# 
# From -- ./inp_files/27748.got.cif
#   From: 2010.03.12/outbox.cif.g09.slc.cpg/sg8_14_cif.got.tgz:27748.got - 2010.03.31 10:45:26.
