data_PCOD8052315
_publ_section_title
;
Structure prediction by ZEFSAII (Michael W. Deem and Ramdas Pophale) SiO2 
 PCOD8052315
Probable space group: P M
;
_chemical_formula_sum "Si O2"
_cell_formula_units_Z 16
_cell_length_a 12.189037
_cell_length_b 9.032404
_cell_length_c 10.287714
_cell_angle_alpha 90.000000
_cell_angle_beta 128.342652
_cell_angle_gamma 90.000000
_cell_volume 888.345753
_symmetry_space_group_name_H-M "P M"
_symmetry_group_IT_number 6
_symmetry_cell_setting 'monoclinic'
loop_
_space_group_symop_operation_xyz
x,y,z
x,-y,z
loop_
_atom_site_type_symbol
_atom_site_label
_atom_site_fract_x
_atom_site_fract_y
_atom_site_fract_z
Si Si1 0.769940 0.328574 0.218940
Si Si2 0.059436 0.330152 0.324811
Si Si3 0.618979 0.826980 0.873513
Si Si4 0.370846 0.324833 0.569071
Si Si5 0.636338 0.673743 0.392416
Si Si6 0.786288 0.170758 0.735562
Si Si7 0.377760 0.174854 0.299569
Si Si8 0.065217 0.829304 0.065965
O O1 0.737001 0.500000 0.164342
O O2 0.718651 0.282205 0.323254
O O3 0.937404 0.298396 0.339483
O O4 0.693665 0.228121 0.057822
O O5 0.067191 0.500000 0.291607
O O6 0.211375 0.281788 0.491429
O O7 0.019241 0.249996 0.162999
O O8 0.471593 0.741288 0.753084
O O9 0.714667 0.790662 0.819776
O O10 0.588731 0.000000 0.864599
O O11 0.393354 0.500000 0.573213
O O12 0.409936 0.248268 0.461819
O O13 0.609162 0.500000 0.382522
O O14 0.727846 0.724088 0.581805
O O15 0.487350 0.757450 0.278101
O O16 0.758902 0.000000 0.677440
O O17 0.952470 0.205069 0.870605
O O18 0.221555 0.216166 0.135490
O O19 0.400648 0.000000 0.329296
O O20 0.061690 0.000000 0.100626
#
# Coordination Sequence:
#
# PCOD8052315 Si02
#       8
#     2   2   2   2   2   2   2   2
#     4  10  22  39  56  78 110 146 183 223 269 321
#     4   9  18  33  54  79 107 139 177 220 268 317
#     4  11  21  34  56  84 110 141 182 224 267 319
#     4  10  19  32  54  82 110 140 176 223 271 318
#     4  11  23  37  55  79 110 148 184 220 268 324
#     4  10  20  35  55  81 110 139 178 226 269 317
#     4  10  19  33  54  79 109 143 178 223 271 317
#     4   9  18  33  54  80 108 136 174 223 271 317
#
# _framework density 18.011004
#
# number of rings (size 3 to 8) (size 9 to 14) (size 15 to 20)
#    0.000    2.000    2.500    1.500    0.000    3.000 
#    0.000    1.250    0.000    4.500    0.000    0.000 
#    0.000    0.000    0.000    0.000    0.000    0.000 
#
# Total GULP energy -198396.941622 kJ/mol
# GULP energy per Si atom -12399.808851 kJ/mol
# Density = 1.797001 g / cm^3
# Si number density = 18.011004 Si / 1000 Ang^3
#
#
#
# Elastic Constant Matrix: (Units=GPa)
#
#
# Indices 1 2 3 4 5 6 
#
# 1 134.3963 51.7682 55.5041 0.0000 6.7715 0.0000
# 2 51.7682 77.4120 41.6493 0.0000 -0.2487 0.0000
# 3 55.5041 41.6493 83.6553 0.0000 7.7861 0.0000
# 4 0.0000 0.0000 0.0000 22.1845 0.0000 14.2549
# 5 6.7715 -0.2487 7.7861 0.0000 28.9417 0.0000
# 6 0.0000 0.0000 0.0000 14.2549 0.0000 5.3369
#
#
#
# Elastic Compliance Matrix: (Units=1/GPa)
#
#
# Indices 1 2 3 4 5 6 
#
# 1 0.011509 -0.005002 -0.005017 0.000000 -0.001386 0.000000
# 2 -0.005002 0.020008 -0.006941 0.000000 0.003210 0.000000
# 3 -0.005017 -0.006941 0.019113 0.000000 -0.004028 0.000000
# 4 0.000000 0.000000 0.000000 -0.062931 0.000000 0.168089
# 5 -0.001386 0.003210 -0.004028 0.000000 0.035988 0.000000
# 6 0.000000 0.000000 0.000000 0.168089 0.000000 -0.261592
#
#
# Mechanical properties :
#
#
# Convention : Reuss Voigt Hill
#
# Bulk Modulus (GPa) = 59.84438 65.92296 62.88367
# Shear Modulus (GPa) = -25.19965 21.06208 -2.06878
#
# Velocity S-wave (km/s) = -3.74455 3.42336 -1.07290
# Velocity P-wave (km/s) = 3.82141 7.23234 5.78403
#
# Compressibility (1/GPa) = 0.01671001
#
# Stress axis : x y z
#
# Youngs Moduli (GPa) = 86.88800 49.98090 52.31997
#
# Poissons Ratio (x) = 0.24999 0.26248
# Poissons Ratio (y) = 0.43460 0.36317
# Poissons Ratio (z) = 0.43591 0.34693
#
# Static dielectric constant tensor:
#      x y z
#    x 3.646960 0.000000 0.341180 
#    y 0.000000 3.466440 0.000000 
#    z 0.341180 0.000000 3.221570 
# 
# 
# High freq. dielectric constant tensor:
#      x y z
#    x 1.698790 0.000000 0.028240 
#    y 0.000000 1.705020 0.000000 
#    z 0.028240 0.000000 1.679780 
# 
# From -- ./inp_files/3486.got.cif
#   From: 2010.03.12/outbox.cif.g09.slc.cpg/sg6_2_cif.got.tgz:3486.got - 2010.03.30 10:24:59.
