data_PCOD8052767
_publ_section_title
;
Structure prediction by ZEFSAII (Michael W. Deem and Ramdas Pophale) SiO2 
 PCOD8052767
Probable space group: C M
;
_chemical_formula_sum "Si O2"
_cell_formula_units_Z 32
_cell_length_a 23.016614
_cell_length_b 8.878476
_cell_length_c 21.853111
_cell_angle_alpha 90.000000
_cell_angle_beta 24.660261
_cell_angle_gamma 90.000000
_cell_volume 1863.270005
_symmetry_space_group_name_H-M "C M"
_symmetry_group_IT_number 8
_symmetry_cell_setting 'monoclinic'
loop_
_space_group_symop_operation_xyz
x,y,z
x,-y,z
1/2+x,1/2+y,z
1/2+x,1/2-y,z
loop_
_atom_site_type_symbol
_atom_site_label
_atom_site_fract_x
_atom_site_fract_y
_atom_site_fract_z
Si Si1 0.129730 0.328615 0.778910
Si Si2 0.188452 0.177258 0.849344
Si Si3 0.675206 0.677843 0.615749
Si Si4 0.199303 0.674526 0.471190
Si Si5 0.493386 0.327472 0.145030
Si Si6 0.412248 0.323499 0.713139
Si Si7 0.909522 0.328881 0.897629
Si Si8 0.204053 0.673892 0.022413
O O1 0.178177 0.500000 0.744313
O O2 0.145317 0.229696 0.823634
O O3 0.222576 0.256690 0.634455
O O4 0.966122 0.323513 0.913743
O O5 0.332553 0.256471 0.730478
O O6 0.212569 0.000000 0.825821
O O7 0.062110 0.225449 0.015365
O O8 0.697407 0.500000 0.598517
O O9 0.753158 0.746175 0.482334
O O10 0.512930 0.721718 0.758580
O O11 0.168805 0.500000 0.513604
O O12 0.327013 0.695738 0.301270
O O13 0.063849 0.749814 0.571704
O O14 0.532407 0.500000 0.120473
O O15 0.554999 0.232529 0.142774
O O16 0.432742 0.500000 0.684483
O O17 0.317619 0.286017 0.862108
O O18 0.915361 0.500000 0.867441
O O19 0.754958 0.260578 0.035620
O O20 0.191205 0.500000 0.050314
#
# Coordination Sequence:
#
# PCOD8052767 Si02
#       8
#     4   4   4   4   4   4   4   4
#     4   9  18  31  49  74 100 129 165 207 250 295
#     4  10  19  33  52  74 100 132 169 210 247 292
#     4  10  18  29  48  75 100 126 162 205 248 294
#     4  11  20  33  51  74 103 136 168 205 252 304
#     4   9  21  35  49  71 104 139 168 201 250 302
#     4  10  19  30  48  72  99 129 166 211 249 294
#     4   9  17  28  47  72  99 127 157 199 248 293
#     4  10  18  29  48  74 101 128 165 208 250 292
#
# _framework density 17.174109000000001
#
# number of rings (size 3 to 8) (size 9 to 14) (size 15 to 20)
#    0.750    1.500    1.250    3.000    0.000    2.500 
#    0.000    0.000    0.000    1.500    0.000    3.500 
#    0.000    0.000    0.000    0.000    0.000    0.000 
#
# Total GULP energy -198261.054663 kJ/mol
# GULP energy per Si atom -12391.315916 kJ/mol
# Density = 1.713502 g / cm^3
# Si number density = 17.174109 Si / 1000 Ang^3
#
#
#
# Elastic Constant Matrix: (Units=GPa)
#
#
# Indices 1 2 3 4 5 6 
#
# 1 90.9328 34.1810 35.9243 -0.0003 -4.5314 0.0000
# 2 34.1810 101.9832 35.9957 -0.0026 -7.0792 0.0007
# 3 35.9243 35.9957 72.2544 -0.0034 -8.0231 0.0010
# 4 -0.0003 -0.0026 -0.0034 19.0261 0.0008 -4.2605
# 5 -4.5314 -7.0792 -8.0231 0.0008 18.3904 0.0000
# 6 0.0000 0.0007 0.0010 -4.2605 0.0000 34.0282
#
#
#
# Elastic Compliance Matrix: (Units=1/GPa)
#
#
# Indices 1 2 3 4 5 6 
#
# 1 0.014303 -0.002773 -0.005735 -0.000001 -0.000045 0.000000
# 2 -0.002773 0.012512 -0.004620 0.000001 0.002118 0.000000
# 3 -0.005735 -0.004620 0.019587 0.000003 0.005354 0.000000
# 4 -0.000001 0.000001 0.000003 0.054076 -0.000001 0.006770
# 5 -0.000045 0.002118 0.005354 -0.000001 0.057516 0.000000
# 6 0.000000 0.000000 0.000000 0.006770 0.000000 0.030235
#
#
# Mechanical properties :
#
#
# Convention : Reuss Voigt Hill
#
# Bulk Modulus (GPa) = 49.63318 53.04140 51.33729
# Shear Modulus (GPa) = 22.60401 24.89356 23.74879
#
# Velocity S-wave (km/s) = 3.63184 3.81134 3.72267
# Velocity P-wave (km/s) = 6.82274 7.09366 6.95951
#
# Compressibility (1/GPa) = 0.02014781
#
# Stress axis : x y z
#
# Youngs Moduli (GPa) = 69.91644 79.92053 51.05354
#
# Poissons Ratio (x) = 0.22160 0.29279
# Poissons Ratio (y) = 0.19386 0.23585
# Poissons Ratio (z) = 0.40097 0.36921
#
# Static dielectric constant tensor:
#      x y z
#    x 3.116330 0.000000 -0.107170 
#    y 0.000000 3.249820 0.000000 
#    z -0.107170 0.000000 2.923420 
# 
# 
# High freq. dielectric constant tensor:
#      x y z
#    x 1.651000 0.000000 -0.016220 
#    y 0.000000 1.681180 0.000000 
#    z -0.016220 0.000000 1.621660 
# 
# From -- ./inp_files/32411.got.cif
#   From: 2010.03.12/outbox.cif.g09.slc.cpg/sg8_17_cif.got.tgz:32411.got - 2010.03.31 10:45:26.
