data_PCOD8052882
_publ_section_title
;
Structure prediction by ZEFSAII (Michael W. Deem and Ramdas Pophale) SiO2 
 PCOD8052882
Probable space group: C M
;
_chemical_formula_sum "Si O2"
_cell_formula_units_Z 32
_cell_length_a 24.449192
_cell_length_b 8.899859
_cell_length_c 20.306721
_cell_angle_alpha 90.000000
_cell_angle_beta 23.913687
_cell_angle_gamma 90.000000
_cell_volume 1791.134932
_symmetry_space_group_name_H-M "C M"
_symmetry_group_IT_number 8
_symmetry_cell_setting 'monoclinic'
loop_
_space_group_symop_operation_xyz
x,y,z
x,-y,z
1/2+x,1/2+y,z
1/2+x,1/2-y,z
loop_
_atom_site_type_symbol
_atom_site_label
_atom_site_fract_x
_atom_site_fract_y
_atom_site_fract_z
Si Si1 0.208150 0.823270 0.829540
Si Si2 0.435905 0.327908 0.076249
Si Si3 0.828859 0.822286 0.570356
Si Si4 0.394445 0.824756 0.742898
Si Si5 0.867891 0.822204 0.912056
Si Si6 0.102482 0.678658 0.279237
Si Si7 0.582194 0.673066 0.779346
Si Si8 0.643702 0.179328 0.382633
O O1 0.298708 0.739557 0.676336
O O2 0.264791 0.792326 0.839662
O O3 0.214718 0.000000 0.804135
O O4 0.053280 0.762227 0.995029
O O5 0.417652 0.500000 0.114972
O O6 0.288300 0.252590 0.247903
O O7 0.480422 0.307355 0.952077
O O8 0.716141 0.771276 0.641773
O O9 0.972352 0.756190 0.389429
O O10 0.834315 0.000000 0.565913
O O11 0.373514 0.735613 0.832207
O O12 0.528134 0.763481 0.559184
O O13 0.408260 0.000000 0.743473
O O14 0.001257 0.767538 0.804518
O O15 0.865201 0.000000 0.915172
O O16 0.732705 0.762793 0.096038
O O17 0.086964 0.500000 0.292405
O O18 0.114434 0.736109 0.341199
O O19 0.626085 0.500000 0.723631
O O20 0.647379 0.000000 0.376824
#
# Coordination Sequence:
#
# PCOD8052882 Si02
#       8
#     4   4   4   4   4   4   4   4
#     4   9  17  32  53  75 103 143 182 214 256 315
#     4   8  13  25  51  79  96 118 172 229 253 288
#     4  11  21  31  50  82 112 137 170 224 277 310
#     4  10  20  33  51  75 109 147 175 213 265 318
#     4  10  21  36  57  80 105 142 182 222 264 314
#     4  10  18  34  57  79 103 138 185 222 257 315
#     4   9  17  33  55  77 102 137 178 219 264 319
#     4   9  15  28  52  79 100 128 178 223 254 301
#
# _framework density 17.865766000000001
#
# number of rings (size 3 to 8) (size 9 to 14) (size 15 to 20)
#    0.000    2.500    2.500    1.875    0.000    1.500 
#    0.000    1.250    0.000    4.500    0.000    0.000 
#    0.000    0.000    0.000    0.000    0.000    0.000 
#
# Total GULP energy -198331.835079 kJ/mol
# GULP energy per Si atom -12395.739692 kJ/mol
# Density = 1.782510 g / cm^3
# Si number density = 17.865766 Si / 1000 Ang^3
#
#
#
# Elastic Constant Matrix: (Units=GPa)
#
#
# Indices 1 2 3 4 5 6 
#
# 1 114.9146 24.5447 65.2568 -0.0030 -15.4748 0.0015
# 2 24.5447 38.3746 26.0418 -0.0039 -7.3283 0.0021
# 3 65.2568 26.0418 119.6311 -0.0034 -15.9390 0.0020
# 4 -0.0030 -0.0039 -0.0034 13.6588 0.0021 6.3280
# 5 -15.4748 -7.3283 -15.9390 0.0021 32.1750 -0.0010
# 6 0.0015 0.0021 0.0020 6.3280 -0.0010 23.2275
#
#
#
# Elastic Compliance Matrix: (Units=1/GPa)
#
#
# Indices 1 2 3 4 5 6 
#
# 1 0.013332 -0.003919 -0.006086 0.000000 0.002505 0.000000
# 2 -0.003919 0.032198 -0.004438 0.000009 0.003250 -0.000005
# 3 -0.006086 -0.004438 0.012977 0.000000 0.002491 0.000000
# 4 0.000000 0.000009 0.000000 0.083789 -0.000004 -0.022827
# 5 0.002505 0.003250 0.002491 -0.000004 0.034259 0.000002
# 6 0.000000 -0.000005 0.000000 -0.022827 0.000002 0.049271
#
#
# Mechanical properties :
#
#
# Convention : Reuss Voigt Hill
#
# Bulk Modulus (GPa) = 33.75980 56.06743 44.91361
# Shear Modulus (GPa) = 18.89744 24.28405 21.59074
#
# Velocity S-wave (km/s) = 3.25583 3.69080 3.48012
# Velocity P-wave (km/s) = 5.75076 7.04368 6.42980
#
# Compressibility (1/GPa) = 0.02962103
#
# Stress axis : x y z
#
# Youngs Moduli (GPa) = 75.00474 31.05764 77.06147
#
# Poissons Ratio (x) = 0.12172 0.46898
# Poissons Ratio (y) = 0.29397 0.34201
# Poissons Ratio (z) = 0.45646 0.13784
#
# Static dielectric constant tensor:
#      x y z
#    x 3.400530 0.000000 -0.384020 
#    y 0.000000 2.920010 0.000000 
#    z -0.384020 0.000000 3.539370 
# 
# 
# High freq. dielectric constant tensor:
#      x y z
#    x 1.689930 0.000000 -0.028260 
#    y 0.000000 1.653040 0.000000 
#    z -0.028260 0.000000 1.688360 
# 
# From -- ./inp_files/31326.got.cif
#   From: 2010.03.12/outbox.cif.g09.slc.cpg/sg8_16_cif.got.tgz:31326.got - 2010.03.31 10:45:26.
