data_PCOD8052281
_publ_section_title
;
Structure prediction by ZEFSAII (Michael W. Deem and Ramdas Pophale) SiO2 
 PCOD8052281
Probable space group: P M
;
_chemical_formula_sum "Si O2"
_cell_formula_units_Z 16
_cell_length_a 12.611857
_cell_length_b 8.829893
_cell_length_c 12.678363
_cell_angle_alpha 90.000000
_cell_angle_beta 35.882389
_cell_angle_gamma 90.000000
_cell_volume 827.535592
_symmetry_space_group_name_H-M "P M"
_symmetry_group_IT_number 6
_symmetry_cell_setting 'monoclinic'
loop_
_space_group_symop_operation_xyz
x,y,z
x,-y,z
loop_
_atom_site_type_symbol
_atom_site_label
_atom_site_fract_x
_atom_site_fract_y
_atom_site_fract_z
Si Si1 0.460060 0.179046 0.926240
Si Si2 0.579727 0.320292 0.413119
Si Si3 0.351261 0.319800 0.794929
Si Si4 0.967180 0.324206 0.033362
Si Si5 0.819975 0.675476 0.931267
Si Si6 0.223358 0.823828 0.307385
Si Si7 0.852135 0.824009 0.692487
Si Si8 0.467078 0.822207 0.296326
O O1 0.417974 0.260022 0.851774
O O2 0.661838 0.226530 0.797389
O O3 0.442541 0.000000 0.924517
O O4 0.320077 0.246035 0.126119
O O5 0.581440 0.500000 0.403709
O O6 0.493351 0.262999 0.591915
O O7 0.455332 0.261634 0.417712
O O8 0.785449 0.255705 0.234736
O O9 0.345701 0.500000 0.800060
O O10 0.151402 0.251294 0.930839
O O11 0.971412 0.500000 0.056639
O O12 0.962688 0.296833 0.910833
O O13 0.760638 0.500000 0.976824
O O14 0.905124 0.725499 0.751904
O O15 0.648578 0.781854 0.087607
O O16 0.304966 0.762907 0.351938
O O17 0.008368 0.791597 0.479524
O O18 0.270246 0.000000 0.264942
O O19 0.850681 0.000000 0.725947
O O20 0.457884 0.000000 0.325007
#
# Coordination Sequence:
#
# PCOD8052281 Si02
#       8
#     2   2   2   2   2   2   2   2
#     4  10  21  39  56  76 110 145 183 230 275 321
#     4   9  19  35  54  78 110 144 177 224 278 323
#     4  10  21  37  57  77 105 147 186 223 272 324
#     4   8  17  34  52  75 107 141 174 215 270 323
#     4  10  19  33  55  83 115 145 180 224 273 331
#     4   9  19  35  55  80 108 144 182 222 276 328
#     4  10  20  36  57  79 109 147 181 226 281 324
#     4  10  18  33  56  82 114 147 181 222 273 330
#
# _framework density 19.334515
#
# number of rings (size 3 to 8) (size 9 to 14) (size 15 to 20)
#    0.000    2.500    1.250    1.500    1.750    2.000 
#    0.000    4.375    0.000    0.000    0.000    0.000 
#    0.000    0.000    0.000    0.000    0.000    0.000 
#
# Total GULP energy -198341.333390 kJ/mol
# GULP energy per Si atom -12396.333337 kJ/mol
# Density = 1.929051 g / cm^3
# Si number density = 19.334515 Si / 1000 Ang^3
#
#
#
# Elastic Constant Matrix: (Units=GPa)
#
#
# Indices 1 2 3 4 5 6 
#
# 1 130.3324 21.6141 90.0902 0.0000 11.0057 0.0000
# 2 21.6141 17.7590 21.3153 0.0000 1.9413 0.0000
# 3 90.0902 21.3153 155.9379 0.0000 7.9866 0.0000
# 4 0.0000 0.0000 0.0000 18.9651 0.0000 7.4630
# 5 11.0057 1.9413 7.9866 0.0000 30.0016 0.0000
# 6 0.0000 0.0000 0.0000 7.4630 0.0000 28.6408
#
#
#
# Elastic Compliance Matrix: (Units=1/GPa)
#
#
# Indices 1 2 3 4 5 6 
#
# 1 0.014026 -0.008627 -0.006781 0.000000 -0.002782 0.000000
# 2 -0.008627 0.072778 -0.004952 0.000000 -0.000226 0.000000
# 3 -0.006781 -0.004952 0.011014 0.000000 -0.000124 0.000000
# 4 0.000000 0.000000 0.000000 0.058753 0.000000 -0.015309
# 5 -0.002782 -0.000226 -0.000124 0.000000 0.034400 0.000000
# 6 0.000000 0.000000 0.000000 -0.015309 0.000000 0.038904
#
#
# Mechanical properties :
#
#
# Convention : Reuss Voigt Hill
#
# Bulk Modulus (GPa) = 17.51429 63.34092 40.42761
# Shear Modulus (GPa) = 17.26348 26.92215 22.09281
#
# Velocity S-wave (km/s) = 2.99136 3.73559 3.38400
# Velocity P-wave (km/s) = 4.58358 7.17202 6.01860
#
# Compressibility (1/GPa) = 0.05709623
#
# Stress axis : x y z
#
# Youngs Moduli (GPa) = 71.29691 13.74037 90.79369
#
# Poissons Ratio (x) = 0.11854 0.61572
# Poissons Ratio (y) = 0.61508 0.44965
# Poissons Ratio (z) = 0.48350 0.06805
#
# Static dielectric constant tensor:
#      x y z
#    x 3.579100 0.000000 -0.086140 
#    y 0.000000 3.201700 0.000000 
#    z -0.086140 0.000000 3.764230 
# 
# 
# High freq. dielectric constant tensor:
#      x y z
#    x 1.750170 0.000000 -0.001660 
#    y 0.000000 1.719480 0.000000 
#    z -0.001660 0.000000 1.760210 
# 
# From -- ./inp_files/3625.got.cif
#   From: 2010.03.12/outbox.cif.g09.slc.cpg/sg6_2_cif.got.tgz:3625.got - 2010.03.30 10:24:59.
