data_PCOD8052405
_publ_section_title
;
Structure prediction by ZEFSAII (Michael W. Deem and Ramdas Pophale) SiO2 
 PCOD8052405
Probable space group: P M
;
_chemical_formula_sum "Si O2"
_cell_formula_units_Z 16
_cell_length_a 21.707621
_cell_length_b 8.822831
_cell_length_c 9.312620
_cell_angle_alpha 90.000000
_cell_angle_beta 151.446900
_cell_angle_gamma 90.000000
_cell_volume 852.502090
_symmetry_space_group_name_H-M "P M"
_symmetry_group_IT_number 6
_symmetry_cell_setting 'monoclinic'
loop_
_space_group_symop_operation_xyz
x,y,z
x,-y,z
loop_
_atom_site_type_symbol
_atom_site_label
_atom_site_fract_x
_atom_site_fract_y
_atom_site_fract_z
Si Si1 0.739410 0.671822 0.202660
Si Si2 0.206203 0.819542 0.161417
Si Si3 0.709329 0.324106 0.806699
Si Si4 0.454760 0.324635 0.620779
Si Si5 0.173914 0.178165 0.770954
Si Si6 0.454266 0.824287 0.318268
Si Si7 0.960057 0.821369 0.830352
Si Si8 0.937596 0.180252 0.105417
O O1 0.787511 0.500000 0.318620
O O2 0.837636 0.779765 0.483944
O O3 0.734189 0.715938 0.023964
O O4 0.596940 0.691383 0.982202
O O5 0.338418 0.735221 0.484258
O O6 0.225230 0.000000 0.208270
O O7 0.171812 0.761059 0.930162
O O8 0.092075 0.760886 0.030329
O O9 0.726925 0.500000 0.810826
O O10 0.563710 0.275632 0.464595
O O11 0.804681 0.230539 0.902949
O O12 0.433833 0.500000 0.531377
O O13 0.451441 0.211545 0.480374
O O14 0.056647 0.250114 0.440376
O O15 0.154132 0.000000 0.738952
O O16 0.309308 0.215246 0.966513
O O17 0.487449 0.000000 0.362624
O O18 0.966085 0.000000 0.849082
O O19 0.946320 0.753557 0.962025
O O20 0.943425 0.000000 0.115283
#
# Coordination Sequence:
#
# PCOD8052405 Si02
#       8
#     2   2   2   2   2   2   2   2
#     4   9  19  34  52  74 102 133 167 205 251 301
#     4   9  17  31  50  74 100 130 166 205 250 301
#     4  10  20  34  52  77 104 133 168 207 250 301
#     4   9  17  30  49  76 103 127 161 208 254 300
#     4   8  15  29  51  74  98 127 162 203 249 296
#     4   9  16  29  51  77 101 129 163 205 254 299
#     4  10  21  34  51  75 102 133 173 212 250 295
#     4  10  20  35  52  73 102 136 170 209 252 297
#
# _framework density 18.768283
#
# number of rings (size 3 to 8) (size 9 to 14) (size 15 to 20)
#    0.000    2.750    0.000    3.375    0.000    5.000 
#    0.000    5.625    0.000    3.000    0.000    0.000 
#    0.000    0.000    0.000    0.000    0.000    0.000 
#
# Total GULP energy -198300.970965 kJ/mol
# GULP energy per Si atom -12393.810685 kJ/mol
# Density = 1.872557 g / cm^3
# Si number density = 18.768283 Si / 1000 Ang^3
#
#
#
# Elastic Constant Matrix: (Units=GPa)
#
#
# Indices 1 2 3 4 5 6 
#
# 1 108.8120 18.8894 70.4063 0.0000 21.0139 0.0000
# 2 18.8894 24.7702 20.2630 0.0000 3.9239 0.0000
# 3 70.4063 20.2630 73.6002 0.0000 32.9011 0.0000
# 4 0.0000 0.0000 0.0000 19.0769 0.0000 4.5591
# 5 21.0139 3.9239 32.9011 0.0000 27.9188 0.0000
# 6 0.0000 0.0000 0.0000 4.5591 0.0000 17.4538
#
#
#
# Elastic Compliance Matrix: (Units=1/GPa)
#
#
# Indices 1 2 3 4 5 6 
#
# 1 0.031278 0.008292 -0.044714 0.000000 0.027986 0.000000
# 2 0.008292 0.060351 -0.037967 0.000000 0.030019 0.000000
# 3 -0.044714 -0.037967 0.104360 0.000000 -0.083992 0.000000
# 4 0.000000 0.000000 0.000000 0.055909 0.000000 -0.014604
# 5 0.027986 0.030019 -0.083992 0.000000 0.109515 0.000000
# 6 0.000000 0.000000 0.000000 -0.014604 0.000000 0.061109
#
#
# Mechanical properties :
#
#
# Convention : Reuss Voigt Hill
#
# Bulk Modulus (GPa) = 21.18131 47.36665 34.27398
# Shear Modulus (GPa) = 8.51737 19.39815 13.95776
#
# Velocity S-wave (km/s) = 2.13261 3.21839 2.73002
# Velocity P-wave (km/s) = 4.16824 6.25325 5.31401
#
# Compressibility (1/GPa) = 0.04721144
#
# Stress axis : x y z
#
# Youngs Moduli (GPa) = 31.97140 16.56985 9.58225
#
# Poissons Ratio (x) = -0.13740 0.42846
# Poissons Ratio (y) = -0.26512 0.36381
# Poissons Ratio (z) = 1.42957 0.62910
#
# Static dielectric constant tensor:
#      x y z
#    x 3.499080 0.000000 0.302830 
#    y 0.000000 3.227850 0.000000 
#    z 0.302830 0.000000 3.678640 
# 
# 
# High freq. dielectric constant tensor:
#      x y z
#    x 1.710580 0.000000 0.033510 
#    y 0.000000 1.712180 0.000000 
#    z 0.033510 0.000000 1.727350 
# 
# From -- ./inp_files/3595.got.cif
#   From: 2010.03.12/outbox.cif.g09.slc.cpg/sg6_2_cif.got.tgz:3595.got - 2010.03.30 10:24:59.
