data_PCOD8052462
_publ_section_title
;
Structure prediction by ZEFSAII (Michael W. Deem and Ramdas Pophale) SiO2 
 PCOD8052462
Probable space group: P M
;
_chemical_formula_sum "Si O2"
_cell_formula_units_Z 16
_cell_length_a 9.981247
_cell_length_b 8.812441
_cell_length_c 12.237319
_cell_angle_alpha 90.000000
_cell_angle_beta 125.501765
_cell_angle_gamma 90.000000
_cell_volume 876.281810
_symmetry_space_group_name_H-M "P M"
_symmetry_group_IT_number 6
_symmetry_cell_setting 'monoclinic'
loop_
_space_group_symop_operation_xyz
x,y,z
x,-y,z
loop_
_atom_site_type_symbol
_atom_site_label
_atom_site_fract_x
_atom_site_fract_y
_atom_site_fract_z
Si Si1 0.588030 0.825137 0.745820
Si Si2 0.992920 0.677581 0.424297
Si Si3 0.802459 0.322651 0.674222
Si Si4 0.280287 0.827184 0.446392
Si Si5 0.541273 0.174414 0.400280
Si Si6 0.095102 0.180068 0.700769
Si Si7 0.649838 0.823320 0.214581
Si Si8 0.459699 0.179913 0.912968
O O1 0.729073 0.725692 0.756174
O O2 0.413640 0.801064 0.604379
O O3 0.569423 0.768448 0.861453
O O4 0.641978 0.000000 0.764548
O O5 0.993832 0.500000 0.447821
O O6 0.125951 0.717841 0.393713
O O7 0.035821 0.764021 0.555181
O O8 0.815277 0.727275 0.297850
O O9 0.833465 0.500000 0.687085
O O10 0.680762 0.279670 0.517995
O O11 0.975497 0.239139 0.739030
O O12 0.363291 0.786510 0.368481
O O13 0.216548 0.000000 0.417618
O O14 0.537543 0.201098 0.268993
O O15 0.586006 0.000000 0.451355
O O16 0.275670 0.245662 0.814029
O O17 0.092889 0.000000 0.697075
O O18 0.695321 0.000000 0.221410
O O19 0.544014 0.759605 0.063198
O O20 0.447383 0.000000 0.909070
#
# Coordination Sequence:
#
# PCOD8052462 Si02
#       8
#     2   2   2   2   2   2   2   2
#     4   9  17  34  56  80 109 142 182 227 276 323
#     4  12  23  34  52  83 114 144 184 227 275 331
#     4  11  21  32  51  83 115 142 181 226 274 330
#     4   9  17  32  54  79 107 141 182 229 273 319
#     4   9  18  33  55  80 108 143 183 224 276 325
#     4  11  20  36  58  81 109 143 185 234 274 317
#     4  10  20  37  60  83 109 144 183 230 280 326
#     4   9  19  36  60  85 107 139 188 233 274 325
#
# _framework density 18.258966999999998
#
# number of rings (size 3 to 8) (size 9 to 14) (size 15 to 20)
#    0.000    2.000    2.500    3.375    0.000    2.000 
#    0.000    3.125    0.000    4.500    0.000    0.000 
#    0.000    0.000    0.000    0.000    0.000    0.000 
#
# Total GULP energy -198417.787828 kJ/mol
# GULP energy per Si atom -12401.111739 kJ/mol
# Density = 1.821741 g / cm^3
# Si number density = 18.258967 Si / 1000 Ang^3
#
#
#
# Elastic Constant Matrix: (Units=GPa)
#
#
# Indices 1 2 3 4 5 6 
#
# 1 139.3618 42.4307 67.3082 0.0000 -8.5161 0.0000
# 2 42.4307 78.7691 29.6408 0.0000 2.1647 0.0000
# 3 67.3082 29.6408 110.8861 0.0000 -10.0258 0.0000
# 4 0.0000 0.0000 0.0000 5.7116 0.0000 -1.9641
# 5 -8.5161 2.1647 -10.0258 0.0000 28.6277 0.0000
# 6 0.0000 0.0000 0.0000 -1.9641 0.0000 10.4916
#
#
#
# Elastic Compliance Matrix: (Units=1/GPa)
#
#
# Indices 1 2 3 4 5 6 
#
# 1 0.011178 -0.003970 -0.005572 0.000000 0.001674 0.000000
# 2 -0.003970 0.015696 -0.002065 0.000000 -0.003091 0.000000
# 3 -0.005572 -0.002065 0.013236 0.000000 0.003134 0.000000
# 4 0.000000 0.000000 0.000000 0.187128 0.000000 0.035032
# 5 0.001674 -0.003091 0.003134 0.000000 0.036760 0.000000
# 6 0.000000 0.000000 0.000000 0.035032 0.000000 0.101873
#
#
# Mechanical properties :
#
#
# Convention : Reuss Voigt Hill
#
# Bulk Modulus (GPa) = 59.19145 67.53073 63.36109
# Shear Modulus (GPa) = 12.66722 21.60865 17.13794
#
# Velocity S-wave (km/s) = 2.63678 3.44387 3.06699
# Velocity P-wave (km/s) = 6.46206 7.27179 6.87885
#
# Compressibility (1/GPa) = 0.01689433
#
# Stress axis : x y z
#
# Youngs Moduli (GPa) = 89.46107 63.70991 75.55061
#
# Poissons Ratio (x) = 0.25295 0.42100
# Poissons Ratio (y) = 0.35520 0.15603
# Poissons Ratio (z) = 0.49852 0.13157
#
# Static dielectric constant tensor:
#      x y z
#    x 3.682390 0.000000 -0.103850 
#    y 0.000000 3.162160 0.000000 
#    z -0.103850 0.000000 3.248070 
# 
# 
# High freq. dielectric constant tensor:
#      x y z
#    x 1.726150 0.000000 -0.010760 
#    y 0.000000 1.689830 0.000000 
#    z -0.010760 0.000000 1.677270 
# 
# From -- ./inp_files/4654.got.cif
#   From: 2010.03.12/outbox.cif.g09.slc.cpg/sg6_3_cif.got.tgz:4654.got - 2010.03.30 10:24:59.
