data_PCOD8052193
_publ_section_title
;
Structure prediction by ZEFSAII (Michael W. Deem and Ramdas Pophale) SiO2 
 PCOD8052193
Probable space group: C 2
;
_chemical_formula_sum "Si O2"
_cell_formula_units_Z 22
_cell_length_a 7.540553
_cell_length_b 20.753983
_cell_length_c 4.991230
_cell_angle_alpha 90.000000
_cell_angle_beta 82.524064
_cell_angle_gamma 90.000000
_cell_volume 774.470317
_symmetry_space_group_name_H-M "C 2"
_symmetry_group_IT_number 5
_symmetry_cell_setting 'monoclinic'
loop_
_space_group_symop_operation_xyz
x,y,z
-x,y,-z
1/2+x,1/2+y,z
1/2-x,1/2+y,-z
loop_
_atom_site_type_symbol
_atom_site_label
_atom_site_fract_x
_atom_site_fract_y
_atom_site_fract_z
Si Si1 0.210915 0.135720 0.057488
Si Si2 0.500000 0.884435 0.000000
Si Si3 0.292706 0.053335 0.529690
Si Si4 0.724192 0.307238 0.394376
Si Si5 0.500000 0.240177 0.000000
Si Si6 0.000000 0.206024 0.500000
Si Si7 0.332110 0.426840 0.228830
O O1 0.258796 0.075774 0.234998
O O2 0.018201 0.162178 0.220102
O O3 0.232454 0.108906 0.751203
O O4 0.335625 0.195429 0.101087
O O5 0.390338 0.836691 0.206738
O O6 0.641238 0.930276 0.117600
O O7 0.500000 0.035858 0.500000
O O8 0.170002 0.989619 0.584081
O O9 0.445041 0.285065 0.757231
O O10 0.650882 0.360680 0.612489
O O11 0.814866 0.245972 0.519087
O O12 0.500000 0.429589 0.000000
#
# Coordination Sequence:
#
# PCOD8052193 Si02
#       7
#     4   2   4   4   2   2   4
#     4  12  29  52  88 130 173 247 295 375 450 541
#     4  12  26  55  84 130 173 234 296 358 470 526
#     4  12  27  57  88 126 178 236 310 374 454 533
#     4  12  28  58  85 134 177 238 289 382 452 547
#     4  12  28  53  92 132 177 234 306 362 458 554
#     4  12  28  52  86 124 190 226 306 360 464 542
#     4  12  32  56  93 130 181 237 307 377 458 540
#
# _framework density 28.406513
#
# number of rings (size 3 to 8) (size 9 to 14) (size 15 to 20)
#    0.000    0.000    3.636    3.273    8.909    3.636 
#    6.545    0.000    0.000    0.000    0.000    0.000 
#    0.000    0.000    0.000    0.000    0.000    0.000 
#
# Total GULP energy -136343.298472 kJ/mol
# GULP energy per Si atom -12394.845316 kJ/mol
# Density = 2.834186 g / cm^3
# Si number density = 28.406513 Si / 1000 Ang^3
#
#
#
# Elastic Constant Matrix: (Units=GPa)
#
#
# Indices 1 2 3 4 5 6 
#
# 1 151.5385 47.8935 3.8376 0.0000 -7.6196 0.0000
# 2 47.8935 109.7680 21.4835 0.0000 -37.2598 0.0000
# 3 3.8376 21.4835 100.7132 0.0000 -17.7501 0.0000
# 4 0.0000 0.0000 0.0000 79.6708 0.0000 -4.3990
# 5 -7.6196 -37.2598 -17.7501 0.0000 46.3953 0.0000
# 6 0.0000 0.0000 0.0000 -4.3990 0.0000 -26.9753
#
#
#
# Elastic Compliance Matrix: (Units=1/GPa)
#
#
# Indices 1 2 3 4 5 6 
#
# 1 0.007792 -0.004098 0.000239 0.000000 -0.001920 0.000000
# 2 -0.004098 0.014768 -0.001096 0.000000 0.010767 0.000000
# 3 0.000239 -0.001096 0.010729 0.000000 0.003264 0.000000
# 4 0.000000 0.000000 0.000000 0.012440 0.000000 -0.002029
# 5 -0.001920 0.010767 0.003264 0.000000 0.031134 0.000000
# 6 0.000000 0.000000 0.000000 -0.002029 0.000000 -0.036740
#
#
# Mechanical properties :
#
#
# Convention : Reuss Voigt Hill
#
# Bulk Modulus (GPa) = 42.77664 56.49433 49.63548
# Shear Modulus (GPa) = 86.46658 39.07182 62.76920
#
# Velocity S-wave (km/s) = 5.52314 3.71273 4.70582
# Velocity P-wave (km/s) = 7.46759 6.18952 6.85839
#
# Compressibility (1/GPa) = 0.02337725
#
# Stress axis : x y z
#
# Youngs Moduli (GPa) = 128.34344 67.71555 93.20426
#
# Poissons Ratio (x) = 0.27751 -0.02226
# Poissons Ratio (y) = 0.52597 0.10218
# Poissons Ratio (z) = -0.03066 0.07424
#
# Static dielectric constant tensor:
#      x y z
#    x 5.619990 0.000000 -0.044770 
#    y 0.000000 5.359110 0.000000 
#    z -0.044770 0.000000 5.506120 
# 
# 
# High freq. dielectric constant tensor:
#      x y z
#    x 2.183980 0.000000 -0.020550 
#    y 0.000000 2.165100 0.000000 
#    z -0.020550 0.000000 2.174750 
# 
# From -- ./inp_files/2922.got.cif
#   From: 2010.03.12/outbox.cif.g09.slc.cpg/sg5_2_cif.got.tgz:2922.got - 2010.03.31 09:47:26.
