data_PCOD8052596
_publ_section_title
;
Structure prediction by ZEFSAII (Michael W. Deem and Ramdas Pophale) SiO2 
 PCOD8052596
Probable space group: P C
;
_chemical_formula_sum "Si O2"
_cell_formula_units_Z 14
_cell_length_a 8.715790
_cell_length_b 16.155429
_cell_length_c 5.131153
_cell_angle_alpha 90.000000
_cell_angle_beta 87.267061
_cell_angle_gamma 90.000000
_cell_volume 721.682181
_symmetry_space_group_name_H-M "P C"
_symmetry_group_IT_number 7
_symmetry_cell_setting 'monoclinic'
loop_
_space_group_symop_operation_xyz
x,y,z
x,-y,1/2+z
loop_
_atom_site_type_symbol
_atom_site_label
_atom_site_fract_x
_atom_site_fract_y
_atom_site_fract_z
Si Si1 0.067990 0.038236 0.360710
Si Si2 0.729401 0.968099 0.501997
Si Si3 0.071671 0.229526 0.267455
Si Si4 0.570985 0.715588 0.136679
Si Si5 0.408597 0.445299 0.639649
Si Si6 0.737202 0.776752 0.622869
Si Si7 0.235146 0.290479 0.752673
O O1 0.087241 0.131066 0.261821
O O2 0.147192 0.019864 0.632172
O O3 0.889421 0.012220 0.399332
O O4 0.746989 0.874701 0.590197
O O5 0.640033 0.021493 0.733107
O O6 0.109812 0.258807 0.556317
O O7 0.901110 0.257834 0.202804
O O8 0.185152 0.271414 0.051177
O O9 0.693341 0.739556 0.346814
O O10 0.401290 0.754095 0.203523
O O11 0.557866 0.615112 0.140900
O O12 0.615939 0.750077 0.850491
O O13 0.410965 0.517584 0.850595
O O14 0.256235 0.389407 0.704316
#
# Coordination Sequence:
#
# PCOD8052596 Si02
#       7
#     2   2   2   2   2   2   2
#     4  10  19  32  52  86 112 162 217 244 279 346
#     4  10  19  32  52  86 112 162 217 244 279 346
#     4  12  21  36  64  91 127 158 207 265 294 356
#     4  10  24  39  61  96 120 159 201 248 316 368
#     4  10  20  42  72  88 112 164 212 232 286 408
#     4  12  21  36  64  91 127 158 207 265 294 356
#     4  10  24  39  61  96 120 159 201 248 316 368
#
# _framework density 19.399124
#
# number of rings (size 3 to 8) (size 9 to 14) (size 15 to 20)
#    0.857    0.571    2.857    5.143    4.000    0.000 
#    0.000    0.000    0.000   34.286    0.000    0.000 
#    0.000    0.000    0.000    0.000    0.000    0.000 
#
# Total GULP energy -173458.379173 kJ/mol
# GULP energy per Si atom -12389.884227 kJ/mol
# Density = 1.935497 g / cm^3
# Si number density = 19.399124 Si / 1000 Ang^3
#
#
#
# Elastic Constant Matrix: (Units=GPa)
#
#
# Indices 1 2 3 4 5 6 
#
# 1 50.4859 22.2650 6.7752 0.0000 2.1470 0.0000
# 2 22.2650 89.7019 22.2981 0.0000 0.0526 0.0000
# 3 6.7752 22.2981 126.0977 0.0000 1.3530 0.0000
# 4 0.0000 0.0000 0.0000 23.4403 0.0000 -14.3964
# 5 2.1470 0.0526 1.3530 0.0000 31.4705 0.0000
# 6 0.0000 0.0000 0.0000 -14.3964 0.0000 20.6754
#
#
#
# Elastic Compliance Matrix: (Units=1/GPa)
#
#
# Indices 1 2 3 4 5 6 
#
# 1 0.022320 -0.005486 -0.000213 0.000000 -0.001504 0.000000
# 2 -0.005486 0.013009 -0.002010 0.000000 0.000439 0.000000
# 3 -0.000213 -0.002010 0.008301 0.000000 -0.000339 0.000000
# 4 0.000000 0.000000 0.000000 0.074538 0.000000 0.051901
# 5 -0.001504 0.000439 -0.000339 0.000000 0.031892 0.000000
# 6 0.000000 0.000000 0.000000 0.051901 0.000000 0.084506
#
#
# Mechanical properties :
#
#
# Convention : Reuss Voigt Hill
#
# Bulk Modulus (GPa) = 35.44748 40.99578 38.22163
# Shear Modulus (GPa) = 19.27615 29.44707 24.36161
#
# Velocity S-wave (km/s) = 3.15566 3.90033 3.54759
# Velocity P-wave (km/s) = 5.62049 6.43910 6.04368
#
# Compressibility (1/GPa) = 0.02821075
#
# Stress axis : x y z
#
# Youngs Moduli (GPa) = 44.80384 76.86846 120.46831
#
# Poissons Ratio (x) = 0.42171 0.02565
# Poissons Ratio (y) = 0.24580 0.24219
# Poissons Ratio (z) = 0.00954 0.15454
#
# Static dielectric constant tensor:
#      x y z
#    x 3.269670 0.000000 0.099200 
#    y 0.000000 3.429320 0.000000 
#    z 0.099200 0.000000 4.526750 
# 
# 
# High freq. dielectric constant tensor:
#      x y z
#    x 1.713850 0.000000 0.002000 
#    y 0.000000 1.745990 0.000000 
#    z 0.002000 0.000000 1.792220 
# 
# From -- ./inp_files/717.got.cif
#   From: 2010.03.12/outbox.cif.g09.slc.cpg/sg7_cif.got.tgz:717.got - 2010.03.30 08:40:41.
