data_PCOD8052131
_publ_section_title
;
Structure prediction by ZEFSAII (Michael W. Deem and Ramdas Pophale) SiO2 
 PCOD8052131
Probable space group: C 2
;
_chemical_formula_sum "Si O2"
_cell_formula_units_Z 28
_cell_length_a 14.533564
_cell_length_b 6.497823
_cell_length_c 16.111786
_cell_angle_alpha 90.000000
_cell_angle_beta 125.508865
_cell_angle_gamma 90.000000
_cell_volume 1238.573502
_symmetry_space_group_name_H-M "C 2"
_symmetry_group_IT_number 5
_symmetry_cell_setting 'monoclinic'
loop_
_space_group_symop_operation_xyz
x,y,z
-x,y,-z
1/2+x,1/2+y,z
1/2-x,1/2+y,-z
loop_
_atom_site_type_symbol
_atom_site_label
_atom_site_fract_x
_atom_site_fract_y
_atom_site_fract_z
Si Si1 0.000000 0.725920 0.500000
Si Si2 0.104739 0.962687 0.925139
Si Si3 0.663444 0.962404 0.178830
Si Si4 0.016851 0.342956 0.786408
Si Si5 0.647474 0.604101 0.612292
Si Si6 0.500000 0.208796 0.000000
Si Si7 0.279578 0.153892 0.129070
Si Si8 0.941387 0.347654 0.573653
O O1 0.047397 0.583779 0.450187
O O2 0.895460 0.869409 0.418014
O O3 0.192366 0.816997 0.926286
O O4 0.065927 0.119271 0.833248
O O5 0.002898 0.837302 0.915004
O O6 0.165503 0.050643 0.038164
O O7 0.734144 0.109803 0.277530
O O8 0.616685 0.076602 0.071423
O O9 0.547041 0.906455 0.163893
O O10 0.744045 0.769669 0.195967
O O11 0.115699 0.496534 0.806410
O O12 0.923350 0.334602 0.663328
O O13 0.559956 0.734947 0.619925
O O14 0.656718 0.719952 0.526993
#
# Coordination Sequence:
#
# PCOD8052131 Si02
#       8
#     2   4   4   4   4   2   4   4
#     4   8  16  40  68  96 122 172 220 268 342 414
#     4  12  24  45  66  99 138 180 227 285 346 407
#     4  12  25  45  68 101 140 183 231 282 351 412
#     4  12  25  44  66 106 134 179 234 288 344 419
#     4   9  20  41  66  96 129 174 219 280 339 411
#     4  12  26  46  68 104 144 182 234 290 338 434
#     4  12  24  43  72  96 137 187 227 284 349 416
#     4   9  20  40  69  94 132 167 225 280 336 413
#
# _framework density 22.606652
#
# number of rings (size 3 to 8) (size 9 to 14) (size 15 to 20)
#    0.000    1.429    2.857    4.286    2.000    1.143 
#    7.714    0.000    0.000    0.000    0.000    0.000 
#    0.000    0.000    0.000    0.000    0.000    0.000 
#
# Total GULP energy -173519.745827 kJ/mol
# GULP energy per Si atom -12394.267559 kJ/mol
# Density = 2.255520 g / cm^3
# Si number density = 22.606652 Si / 1000 Ang^3
#
#
#
# Elastic Constant Matrix: (Units=GPa)
#
#
# Indices 1 2 3 4 5 6 
#
# 1 75.1546 31.6608 15.9209 0.0000 -5.5073 0.0000
# 2 31.6608 121.3193 40.9957 0.0000 -0.9384 0.0000
# 3 15.9209 40.9957 137.3197 0.0000 1.0470 0.0000
# 4 0.0000 0.0000 0.0000 29.2111 0.0000 -4.1083
# 5 -5.5073 -0.9384 1.0470 0.0000 34.7391 0.0000
# 6 0.0000 0.0000 0.0000 -4.1083 0.0000 29.0813
#
#
#
# Elastic Compliance Matrix: (Units=1/GPa)
#
#
# Indices 1 2 3 4 5 6 
#
# 1 0.015185 -0.003719 -0.000668 0.000000 0.002327 0.000000
# 2 -0.003719 0.010082 -0.002577 0.000000 -0.000240 0.000000
# 3 -0.000668 -0.002577 0.008132 0.000000 -0.000421 0.000000
# 4 0.000000 0.000000 0.000000 0.034928 0.000000 0.004934
# 5 0.002327 -0.000240 -0.000421 0.000000 0.029161 0.000000
# 6 0.000000 0.000000 0.000000 0.004934 0.000000 0.035083
#
#
# Mechanical properties :
#
#
# Convention : Reuss Voigt Hill
#
# Bulk Modulus (GPa) = 51.35786 56.77205 54.06495
# Shear Modulus (GPa) = 32.68196 34.95403 33.81799
#
# Velocity S-wave (km/s) = 3.80633 3.93642 3.87192
# Velocity P-wave (km/s) = 6.48729 6.76964 6.62997
#
# Compressibility (1/GPa) = 0.01947122
#
# Stress axis : x y z
#
# Youngs Moduli (GPa) = 65.85586 99.18460 122.96709
#
# Poissons Ratio (x) = 0.36887 0.08214
# Poissons Ratio (y) = 0.24492 0.31688
# Poissons Ratio (z) = 0.04399 0.25559
#
# Static dielectric constant tensor:
#      x y z
#    x 3.727960 0.000000 -0.108060 
#    y 0.000000 4.339160 0.000000 
#    z -0.108060 0.000000 4.072660 
# 
# 
# High freq. dielectric constant tensor:
#      x y z
#    x 1.868420 0.000000 -0.006990 
#    y 0.000000 1.900680 0.000000 
#    z -0.006990 0.000000 1.896020 
# 
# From -- ./inp_files/61156.got.cif
#   From: 2010.03.12/outbox.cif.g09.slc.cpg/sg5_31_cif.got.tgz:61156.got - 2010.03.31 09:47:26.
