data_PCOD8052947
_publ_section_title
;
Structure prediction by ZEFSAII (Michael W. Deem and Ramdas Pophale) SiO2 
 PCOD8052947
Probable space group: C M
;
_chemical_formula_sum "Si O2"
_cell_formula_units_Z 32
_cell_length_a 20.868993
_cell_length_b 8.962658
_cell_length_c 23.147953
_cell_angle_alpha 90.000000
_cell_angle_beta 23.946864
_cell_angle_gamma 90.000000
_cell_volume 1757.350774
_symmetry_space_group_name_H-M "C M"
_symmetry_group_IT_number 8
_symmetry_cell_setting 'monoclinic'
loop_
_space_group_symop_operation_xyz
x,y,z
x,-y,z
1/2+x,1/2+y,z
1/2+x,1/2-y,z
loop_
_atom_site_type_symbol
_atom_site_label
_atom_site_fract_x
_atom_site_fract_y
_atom_site_fract_z
Si Si1 0.326120 0.829382 0.213830
Si Si2 0.573218 0.677987 0.710313
Si Si3 0.219388 0.323447 0.195773
Si Si4 0.266348 0.322709 0.028777
Si Si5 0.945160 0.675115 0.235362
Si Si6 0.137601 0.328289 0.539375
Si Si7 0.536003 0.169105 0.501882
Si Si8 0.381731 0.828053 0.517477
O O1 0.347005 0.734023 0.137948
O O2 0.454789 0.795575 0.158022
O O3 0.160465 0.792039 0.380092
O O4 0.329861 0.000000 0.191771
O O5 0.572438 0.500000 0.710647
O O6 0.419543 0.740820 0.869854
O O7 0.568737 0.734725 0.648734
O O8 0.726850 0.746165 0.616739
O O9 0.222958 0.500000 0.193927
O O10 0.043982 0.262715 0.356638
O O11 0.266251 0.261198 0.094376
O O12 0.269643 0.500000 0.026390
O O13 0.109492 0.266571 0.125753
O O14 0.915881 0.500000 0.272228
O O15 0.807027 0.767400 0.379858
O O16 0.157517 0.500000 0.541165
O O17 0.009110 0.311907 0.592740
O O18 0.382114 0.193589 0.587513
O O19 0.600824 0.000000 0.436346
O O20 0.373359 0.000000 0.507338
#
# Coordination Sequence:
#
# PCOD8052947 Si02
#       8
#     4   4   4   4   4   4   4   4
#     4   9  16  26  45  72  95 115 146 191 237 276
#     4  10  19  32  50  70  94 125 161 197 231 273
#     4   9  16  29  48  68  92 121 154 192 231 274
#     4   9  18  32  50  70  92 125 166 198 225 268
#     4   9  17  32  52  71  93 123 160 196 228 272
#     4  10  19  31  49  73  98 123 153 192 239 284
#     4   8  15  29  47  66  91 121 152 188 229 275
#     4   8  14  27  49  70  87 115 154 192 228 268
#
# _framework density 18.209228
#
# number of rings (size 3 to 8) (size 9 to 14) (size 15 to 20)
#    0.000    3.000    0.000    2.250    0.000    3.000 
#    0.000    8.125    0.000    1.500    0.000    0.000 
#    0.000    0.000    0.000    0.000    0.000    0.000 
#
# Total GULP energy -198239.257576 kJ/mol
# GULP energy per Si atom -12389.953599 kJ/mol
# Density = 1.816778 g / cm^3
# Si number density = 18.209228 Si / 1000 Ang^3
#
#
#
# Elastic Constant Matrix: (Units=GPa)
#
#
# Indices 1 2 3 4 5 6 
#
# 1 149.0652 27.1730 67.9951 -0.0021 32.3605 0.0009
# 2 27.1730 26.6265 18.9129 0.0002 3.4616 0.0004
# 3 67.9951 18.9129 95.9375 -0.0047 16.0401 0.0017
# 4 -0.0021 0.0002 -0.0047 13.8519 0.0027 7.3590
# 5 32.3605 3.4616 16.0401 0.0027 15.1943 -0.0009
# 6 0.0009 0.0004 0.0017 7.3590 -0.0009 25.8501
#
#
#
# Elastic Compliance Matrix: (Units=1/GPa)
#
#
# Indices 1 2 3 4 5 6 
#
# 1 0.017251 -0.009998 -0.005457 0.000008 -0.028703 -0.000003
# 2 -0.009998 0.049480 -0.005275 -0.000008 0.015589 0.000003
# 3 -0.005457 -0.005275 0.016013 0.000007 -0.004081 -0.000003
# 4 0.000008 -0.000008 0.000007 0.085056 -0.000039 -0.024214
# 5 -0.028703 0.015589 -0.004081 -0.000039 0.127702 0.000017
# 6 -0.000003 0.000003 -0.000003 -0.024214 0.000017 0.045578
#
#
# Mechanical properties :
#
#
# Convention : Reuss Voigt Hill
#
# Bulk Modulus (GPa) = 24.22172 55.53234 39.87703
# Shear Modulus (GPa) = 12.61670 21.48247 17.04958
#
# Velocity S-wave (km/s) = 2.63511 3.43849 3.06325
# Velocity P-wave (km/s) = 4.75280 6.80641 5.87011
#
# Compressibility (1/GPa) = 0.04128526
#
# Stress axis : x y z
#
# Youngs Moduli (GPa) = 57.96722 20.21037 62.44888
#
# Poissons Ratio (x) = 0.20206 0.34077
# Poissons Ratio (y) = 0.57954 0.32941
# Poissons Ratio (z) = 0.31632 0.10661
#
# Static dielectric constant tensor:
#      x y z
#    x 3.886160 0.000000 0.096260 
#    y 0.000000 3.074130 0.000000 
#    z 0.096260 0.000000 3.152880 
# 
# 
# High freq. dielectric constant tensor:
#      x y z
#    x 1.730710 0.000000 0.015460 
#    y 0.000000 1.675380 0.000000 
#    z 0.015460 0.000000 1.661850 
# 
# From -- ./inp_files/16781.got.cif
#   From: 2010.03.12/outbox.cif.g09.slc.cpg/sg8_9_cif.got.tgz:16781.got - 2010.03.31 10:45:26.
