data_PCOD8052171
_publ_section_title
;
Structure prediction by ZEFSAII (Michael W. Deem and Ramdas Pophale) SiO2 
 PCOD8052171
Probable space group: C 2
;
_chemical_formula_sum "Si O2"
_cell_formula_units_Z 24
_cell_length_a 17.230796
_cell_length_b 9.662694
_cell_length_c 13.015669
_cell_angle_alpha 90.000000
_cell_angle_beta 151.639532
_cell_angle_gamma 90.000000
_cell_volume 1029.388640
_symmetry_space_group_name_H-M "C 2"
_symmetry_group_IT_number 5
_symmetry_cell_setting 'monoclinic'
loop_
_space_group_symop_operation_xyz
x,y,z
-x,y,-z
1/2+x,1/2+y,z
1/2-x,1/2+y,-z
loop_
_atom_site_type_symbol
_atom_site_label
_atom_site_fract_x
_atom_site_fract_y
_atom_site_fract_z
Si Si1 0.182013 0.732650 0.703984
Si Si2 0.161182 0.717598 0.122238
Si Si3 0.662843 0.830884 0.322517
Si Si4 0.330863 0.953093 0.987875
Si Si5 0.326375 0.491250 0.995932
Si Si6 0.150239 0.107860 0.474163
O O1 0.257103 0.749967 0.678715
O O2 0.000000 0.671159 0.500000
O O3 0.172692 0.880953 0.751794
O O4 0.295884 0.625955 0.895206
O O5 0.320271 0.673076 0.376752
O O6 0.155411 0.614268 0.019751
O O7 0.152042 0.870108 0.062715
O O8 0.000000 0.693968 0.000000
O O9 0.468699 0.856806 0.094220
O O10 0.702923 0.736762 0.466145
O O11 0.727588 0.985089 0.409699
O O12 0.321113 0.942738 0.100555
O O13 0.474107 0.538122 0.244710
#
# Coordination Sequence:
#
# PCOD8052171 Si02
#       6
#     4   4   4   4   4   4
#     4  12  27  50  77 107 153 200 256 320 394 462
#     4  12  26  49  78 112 155 204 261 321 392 470
#     4  12  27  49  77 110 151 201 254 322 390 467
#     4  12  25  52  73 109 150 199 253 318 390 467
#     4  12  30  47  77 115 156 198 264 322 390 473
#     4  12  27  47  79 111 154 206 261 322 394 466
#
# _framework density 23.314810000000001
#
# number of rings (size 3 to 8) (size 9 to 14) (size 15 to 20)
#    0.000    0.000    5.000    3.500    7.000    0.000 
#    0.000    0.000    0.000    0.000    0.000    0.000 
#    0.000    0.000    0.000    0.000    0.000    0.000 
#
# Total GULP energy -148678.137488 kJ/mol
# GULP energy per Si atom -12389.844791 kJ/mol
# Density = 2.326174 g / cm^3
# Si number density = 23.314810 Si / 1000 Ang^3
#
#
#
# Elastic Constant Matrix: (Units=GPa)
#
#
# Indices 1 2 3 4 5 6 
#
# 1 107.2934 55.9502 31.3138 0.0000 -9.5399 0.0000
# 2 55.9502 87.0509 50.3691 0.0000 -1.7843 0.0000
# 3 31.3138 50.3691 105.2081 0.0000 -8.6076 0.0000
# 4 0.0000 0.0000 0.0000 27.3248 0.0000 -16.6263
# 5 -9.5399 -1.7843 -8.6076 0.0000 22.4708 0.0000
# 6 0.0000 0.0000 0.0000 -16.6263 0.0000 44.1240
#
#
#
# Elastic Compliance Matrix: (Units=1/GPa)
#
#
# Indices 1 2 3 4 5 6 
#
# 1 0.014709 -0.009786 0.000779 0.000000 0.005766 0.000000
# 2 -0.009786 0.022464 -0.008296 0.000000 -0.005549 0.000000
# 3 0.000779 -0.008296 0.013646 0.000000 0.004899 0.000000
# 4 0.000000 0.000000 0.000000 0.047484 0.000000 0.017892
# 5 0.005766 -0.005549 0.004899 0.000000 0.048386 0.000000
# 6 0.000000 0.000000 0.000000 0.017892 0.000000 0.029405
#
#
# Mechanical properties :
#
#
# Convention : Reuss Voigt Hill
#
# Bulk Modulus (GPa) = 61.68274 63.86874 62.77574
# Shear Modulus (GPa) = 23.13699 29.57854 26.35777
#
# Velocity S-wave (km/s) = 3.15361 3.56569 3.36596
# Velocity P-wave (km/s) = 6.30668 6.66376 6.48768
#
# Compressibility (1/GPa) = 0.01621199
#
# Stress axis : x y z
#
# Youngs Moduli (GPa) = 67.98624 44.51560 73.28358
#
# Poissons Ratio (x) = 0.43565 -0.05710
# Poissons Ratio (y) = 0.66535 0.60796
# Poissons Ratio (z) = -0.05297 0.36930
#
# Static dielectric constant tensor:
#      x y z
#    x 4.173000 0.000000 -0.003170 
#    y 0.000000 4.298080 0.000000 
#    z -0.003170 0.000000 4.553720 
# 
# 
# High freq. dielectric constant tensor:
#      x y z
#    x 1.928390 0.000000 -0.001670 
#    y 0.000000 1.943290 0.000000 
#    z -0.001670 0.000000 1.919940 
# 
# From -- ./inp_files/55802.got.cif
#   From: 2010.03.12/outbox.cif.g09.slc.cpg/sg5_28_cif.got.tgz:55802.got - 2010.03.31 09:47:26.
