data_PCOD8052647
_publ_section_title
;
Structure prediction by ZEFSAII (Michael W. Deem and Ramdas Pophale) SiO2 
 PCOD8052647
Probable space group: P C
;
_chemical_formula_sum "Si O2"
_cell_formula_units_Z 10
_cell_length_a 11.054165
_cell_length_b 7.660686
_cell_length_c 5.228251
_cell_angle_alpha 90.000000
_cell_angle_beta 103.625618
_cell_angle_gamma 90.000000
_cell_volume 430.280683
_symmetry_space_group_name_H-M "P C"
_symmetry_group_IT_number 7
_symmetry_cell_setting 'monoclinic'
loop_
_space_group_symop_operation_xyz
x,y,z
x,-y,1/2+z
loop_
_atom_site_type_symbol
_atom_site_label
_atom_site_fract_x
_atom_site_fract_y
_atom_site_fract_z
Si Si1 0.070960 0.112962 0.030010
Si Si2 0.653583 0.573742 0.903772
Si Si3 0.513987 0.887073 0.750769
Si Si4 0.930505 0.425834 0.042582
Si Si5 0.292447 0.615464 0.639015
O O1 0.173342 0.261519 0.116244
O O2 0.082758 0.968445 0.255216
O O3 0.938903 0.216810 0.996789
O O4 0.584677 0.472773 0.636535
O O5 0.645854 0.782773 0.849414
O O6 0.791860 0.499203 0.017663
O O7 0.411337 0.738882 0.734985
O O8 0.502412 0.968234 0.464137
O O9 0.999189 0.526918 0.843770
O O10 0.292515 0.530925 0.358274
#
# Coordination Sequence:
#
# PCOD8052647 Si02
#       5
#     2   2   2   2   2
#     4  12  24  41  64  97 130 161 206 267 315 360
#     4  10  21  41  63  86 122 168 212 252 304 378
#     4  12  24  41  64  97 130 161 206 267 315 360
#     4  10  21  41  63  86 122 168 212 252 304 378
#     4  12  24  42  68  94 126 172 208 246 312 390
#
# _framework density 23.240639999999999
#
# number of rings (size 3 to 8) (size 9 to 14) (size 15 to 20)
#    0.000    0.800    0.000    8.400    0.000    0.000 
#    0.000   24.000    0.000    0.000    0.000    0.000 
#    0.000    0.000    0.000    0.000    0.000    0.000 
#
# Total GULP energy -123924.392204 kJ/mol
# GULP energy per Si atom -12392.439220 kJ/mol
# Density = 2.318774 g / cm^3
# Si number density = 23.240640 Si / 1000 Ang^3
#
#
#
# Elastic Constant Matrix: (Units=GPa)
#
#
# Indices 1 2 3 4 5 6 
#
# 1 58.9619 28.3089 -7.0215 0.0000 13.6983 0.0000
# 2 28.3089 106.2887 13.5261 0.0000 3.5696 0.0000
# 3 -7.0215 13.5261 141.2642 0.0000 -32.1472 0.0000
# 4 0.0000 0.0000 0.0000 67.7509 0.0000 -2.5418
# 5 13.6983 3.5696 -32.1472 0.0000 13.4535 0.0000
# 6 0.0000 0.0000 0.0000 -2.5418 0.0000 56.5569
#
#
#
# Elastic Compliance Matrix: (Units=1/GPa)
#
#
# Indices 1 2 3 4 5 6 
#
# 1 0.031075 -0.005045 -0.010670 0.000000 -0.055798 0.000000
# 2 -0.005045 0.011045 -0.001767 0.000000 -0.002017 0.000000
# 3 -0.010670 -0.001767 0.020378 0.000000 0.060026 0.000000
# 4 0.000000 0.000000 0.000000 0.014785 0.000000 0.000664
# 5 -0.055798 -0.002017 0.060026 0.000000 0.275111 0.000000
# 6 0.000000 0.000000 0.000000 0.000664 0.000000 0.017711
#
#
# Mechanical properties :
#
#
# Convention : Reuss Voigt Hill
#
# Bulk Modulus (GPa) = 36.32038 41.79354 39.05696
# Shear Modulus (GPa) = 12.07011 45.66567 28.86789
#
# Velocity S-wave (km/s) = 2.28141 4.43753 3.52821
# Velocity P-wave (km/s) = 4.75412 6.65414 5.78270
#
# Compressibility (1/GPa) = 0.02753275
#
# Stress axis : x y z
#
# Youngs Moduli (GPa) = 32.18041 90.54248 49.07294
#
# Poissons Ratio (x) = 0.45675 0.52363
# Poissons Ratio (y) = 0.16234 0.08672
# Poissons Ratio (z) = 0.34338 0.16001
#
# Static dielectric constant tensor:
#      x y z
#    x 4.546190 0.000000 -0.154510 
#    y 0.000000 4.339090 0.000000 
#    z -0.154510 0.000000 5.240480 
# 
# 
# High freq. dielectric constant tensor:
#      x y z
#    x 1.907960 0.000000 -0.010830 
#    y 0.000000 1.923140 0.000000 
#    z -0.010830 0.000000 1.955920 
# 
# From -- ./inp_files/992.got.cif
#   From: 2010.03.12/outbox.cif.g09.slc.cpg/sg7_cif.got.tgz:992.got - 2010.03.30 08:40:41.
