data_PCOD8052258
_publ_section_title
;
Structure prediction by ZEFSAII (Michael W. Deem and Ramdas Pophale) SiO2 
 PCOD8052258
Probable space group: P M
;
_chemical_formula_sum "Si O2"
_cell_formula_units_Z 16
_cell_length_a 9.220735
_cell_length_b 8.863332
_cell_length_c 21.213469
_cell_angle_alpha 90.000000
_cell_angle_beta 29.275011
_cell_angle_gamma 90.000000
_cell_volume 847.783463
_symmetry_space_group_name_H-M "P M"
_symmetry_group_IT_number 6
_symmetry_cell_setting 'monoclinic'
loop_
_space_group_symop_operation_xyz
x,y,z
x,-y,z
loop_
_atom_site_type_symbol
_atom_site_label
_atom_site_fract_x
_atom_site_fract_y
_atom_site_fract_z
Si Si1 0.026930 0.323769 0.019130
Si Si2 0.023146 0.177057 0.777150
Si Si3 0.537968 0.676729 0.514908
Si Si4 0.755669 0.169508 0.239820
Si Si5 0.708049 0.320688 0.015311
Si Si6 0.643326 0.829781 0.797574
Si Si7 0.234859 0.828465 0.518025
Si Si8 0.071898 0.175903 0.252586
O O1 0.018278 0.500000 0.018231
O O2 0.855488 0.279180 0.147240
O O3 0.861283 0.257901 0.020853
O O4 0.368290 0.277152 0.890508
O O5 0.345378 0.253004 0.644881
O O6 0.807382 0.212386 0.800277
O O7 0.067419 0.000000 0.769716
O O8 0.880299 0.247568 0.892555
O O9 0.587013 0.500000 0.507699
O O10 0.359841 0.704107 0.518011
O O11 0.854978 0.760224 0.389231
O O12 0.401489 0.192326 0.387792
O O13 0.932910 0.204653 0.236540
O O14 0.822199 0.000000 0.191933
O O15 0.722714 0.500000 0.003795
O O16 0.371235 0.268773 0.143128
O O17 0.878046 0.809632 0.650442
O O18 0.522663 0.000000 0.846434
O O19 0.306839 0.000000 0.516342
O O20 0.132454 0.000000 0.241604
#
# Coordination Sequence:
#
# PCOD8052258 Si02
#       8
#     2   2   2   2   2   2   2   2
#     4  11  24  37  50  74 110 145 178 217 264 316
#     4  10  20  36  58  83 108 139 179 223 267 317
#     4  10  18  30  53  84 113 140 170 214 268 320
#     4   9  18  34  57  81 105 134 173 218 264 314
#     4  11  24  39  52  74 108 145 184 227 270 316
#     4   9  18  34  57  81 105 134 173 218 264 314
#     4   8  16  32  53  80 109 134 170 222 266 310
#     4  10  20  36  58  83 108 139 179 223 267 317
#
# _framework density 18.872744000000001
#
# number of rings (size 3 to 8) (size 9 to 14) (size 15 to 20)
#    0.000    2.250    0.000    4.875    0.000   10.000 
#    0.000    1.250    0.000    6.000    0.000    0.000 
#    0.000    0.000    0.000    0.000    0.000    0.000 
#
# Total GULP energy -198350.092968 kJ/mol
# GULP energy per Si atom -12396.880810 kJ/mol
# Density = 1.882979 g / cm^3
# Si number density = 18.872744 Si / 1000 Ang^3
#
#
#
# Elastic Constant Matrix: (Units=GPa)
#
#
# Indices 1 2 3 4 5 6 
#
# 1 60.4938 26.0737 48.0185 0.0000 -0.6723 0.0000
# 2 26.0737 56.4011 21.3584 0.0000 -10.1543 0.0000
# 3 48.0185 21.3584 145.7381 0.0000 -6.7664 0.0000
# 4 0.0000 0.0000 0.0000 33.3198 0.0000 0.1278
# 5 -0.6723 -10.1543 -6.7664 0.0000 -19.7787 0.0000
# 6 0.0000 0.0000 0.0000 0.1278 0.0000 20.3958
#
#
#
# Elastic Compliance Matrix: (Units=1/GPa)
#
#
# Indices 1 2 3 4 5 6 
#
# 1 0.025676 -0.008191 -0.006994 0.000000 0.005725 0.000000
# 2 -0.008191 0.020019 -0.000689 0.000000 -0.009764 0.000000
# 3 -0.006994 -0.000689 0.009149 0.000000 -0.002539 0.000000
# 4 0.000000 0.000000 0.000000 0.030013 0.000000 -0.000188
# 5 0.005725 -0.009764 -0.002539 0.000000 -0.044873 0.000000
# 6 0.000000 0.000000 0.000000 -0.000188 0.000000 0.049031
#
#
# Mechanical properties :
#
#
# Convention : Reuss Voigt Hill
#
# Bulk Modulus (GPa) = 43.29251 50.39265 46.84258
# Shear Modulus (GPa) = 38.92240 17.93287 28.42763
#
# Velocity S-wave (km/s) = 4.54625 3.08587 3.88529
# Velocity P-wave (km/s) = 7.10963 6.28141 6.70831
#
# Compressibility (1/GPa) = 0.02309868
#
# Stress axis : x y z
#
# Youngs Moduli (GPa) = 38.94698 49.95132 109.30190
#
# Poissons Ratio (x) = 0.40913 0.76442
# Poissons Ratio (y) = 0.31900 0.07526
# Poissons Ratio (z) = 0.27238 0.03439
#
# Static dielectric constant tensor:
#      x y z
#    x 3.207420 0.000000 -0.009800 
#    y 0.000000 3.429310 0.000000 
#    z -0.009800 0.000000 3.873670 
# 
# 
# High freq. dielectric constant tensor:
#      x y z
#    x 1.688390 0.000000 0.001480 
#    y 0.000000 1.737410 0.000000 
#    z 0.001480 0.000000 1.761000 
# 
# From -- ./inp_files/4128.got.cif
#   From: 2010.03.12/outbox.cif.g09.slc.cpg/sg6_3_cif.got.tgz:4128.got - 2010.03.30 10:24:59.
