data_PCOD8052107
_publ_section_title
;
Structure prediction by ZEFSAII (Michael W. Deem and Ramdas Pophale) SiO2 
 PCOD8052107
Probable space group: C 2
;
_chemical_formula_sum "Si O2"
_cell_formula_units_Z 32
_cell_length_a 19.366153
_cell_length_b 14.811284
_cell_length_c 13.404016
_cell_angle_alpha 90.000000
_cell_angle_beta 22.759159
_cell_angle_gamma 90.000000
_cell_volume 1487.383669
_symmetry_space_group_name_H-M "C 2"
_symmetry_group_IT_number 5
_symmetry_cell_setting 'monoclinic'
loop_
_space_group_symop_operation_xyz
x,y,z
-x,y,-z
1/2+x,1/2+y,z
1/2-x,1/2+y,-z
loop_
_atom_site_type_symbol
_atom_site_label
_atom_site_fract_x
_atom_site_fract_y
_atom_site_fract_z
Si Si1 0.796165 0.981020 0.753831
Si Si2 0.707667 0.533734 0.747377
Si Si3 0.440219 0.796772 0.691501
Si Si4 0.584217 0.205514 0.497445
Si Si5 0.934296 0.411538 0.313946
Si Si6 0.749018 0.620609 0.034711
Si Si7 0.820978 0.949784 0.010785
Si Si8 0.807217 0.890369 0.543936
O O1 0.756175 0.970331 0.689703
O O2 0.000000 0.944820 0.500000
O O3 0.777266 0.085008 0.816015
O O4 0.646043 0.926775 0.016413
O O5 0.750663 0.635911 0.723854
O O6 0.830741 0.501232 0.490551
O O7 0.500000 0.527807 0.000000
O O8 0.753744 0.468400 0.779208
O O9 0.500000 0.783644 0.500000
O O10 0.589163 0.835343 0.569087
O O11 0.388647 0.700161 0.804884
O O12 0.275727 0.865847 0.910916
O O13 0.500000 0.217937 0.500000
O O14 0.655163 0.300447 0.442971
O O15 0.445030 0.160893 0.759290
O O16 0.854992 0.375165 0.315854
O O17 0.707689 0.538398 0.016785
O O18 0.027596 0.923512 0.742095
#
# Coordination Sequence:
#
# PCOD8052107 Si02
#       8
#     4   4   4   4   4   4   4   4
#     4  12  24  45  73 101 139 189 239 290 351 431
#     4  12  25  45  76 107 142 189 241 305 365 423
#     4  12  25  43  74 104 136 193 246 296 352 431
#     4  12  26  45  73 107 141 188 250 308 346 432
#     4  12  26  46  73 107 147 186 236 299 367 429
#     4  12  25  43  73 107 140 180 253 294 350 416
#     4  12  23  45  72 102 142 190 240 296 359 427
#     4  12  27  46  70 104 152 191 234 291 377 430
#
# _framework density 21.514289000000002
#
# number of rings (size 3 to 8) (size 9 to 14) (size 15 to 20)
#    0.000    0.000    8.750    1.125    1.750    2.000 
#    0.000    0.000    0.000    0.000    0.000    0.000 
#    0.000    0.000    0.000    0.000    0.000    0.000 
#
# Total GULP energy -198361.872403 kJ/mol
# GULP energy per Si atom -12397.617025 kJ/mol
# Density = 2.146532 g / cm^3
# Si number density = 21.514289 Si / 1000 Ang^3
#
#
#
# Elastic Constant Matrix: (Units=GPa)
#
#
# Indices 1 2 3 4 5 6 
#
# 1 137.2881 53.1300 39.3912 0.0000 -2.7013 0.0000
# 2 53.1300 117.0231 30.6829 -0.0032 -1.1681 -0.0004
# 3 39.3912 30.6829 111.1989 -0.0038 4.2366 0.0000
# 4 0.0000 -0.0032 -0.0038 35.4534 0.0012 4.6951
# 5 -2.7013 -1.1681 4.2366 0.0012 28.6796 0.0000
# 6 0.0000 -0.0004 0.0000 4.6951 0.0000 33.0009
#
#
#
# Elastic Compliance Matrix: (Units=1/GPa)
#
#
# Indices 1 2 3 4 5 6 
#
# 1 0.009390 -0.003632 -0.002365 -0.000001 0.001086 0.000000
# 2 -0.003632 0.010633 -0.001660 0.000001 0.000336 0.000000
# 3 -0.002365 -0.001660 0.010358 0.000001 -0.001821 0.000000
# 4 -0.000001 0.000001 0.000001 0.028748 -0.000001 -0.004090
# 5 0.001086 0.000336 -0.001821 -0.000001 0.035253 0.000000
# 6 0.000000 0.000000 0.000000 -0.004090 0.000000 0.030884
#
#
# Mechanical properties :
#
#
# Convention : Reuss Voigt Hill
#
# Bulk Modulus (GPa) = 66.37560 67.99090 67.18325
# Shear Modulus (GPa) = 34.34013 35.58052 34.96032
#
# Velocity S-wave (km/s) = 3.99952 4.07112 4.03548
# Velocity P-wave (km/s) = 7.22822 7.33280 7.28069
#
# Compressibility (1/GPa) = 0.01506578
#
# Stress axis : x y z
#
# Youngs Moduli (GPa) = 106.50134 94.04769 96.54140
#
# Poissons Ratio (x) = 0.34158 0.22836
# Poissons Ratio (y) = 0.38681 0.16027
# Poissons Ratio (z) = 0.25192 0.15613
#
# Static dielectric constant tensor:
#      x y z
#    x 4.063430 0.000000 0.244430 
#    y 0.000000 4.023030 0.000000 
#    z 0.244430 0.000000 4.108730 
# 
# 
# High freq. dielectric constant tensor:
#      x y z
#    x 1.843930 0.000000 0.012800 
#    y 0.000000 1.840850 0.000000 
#    z 0.012800 0.000000 1.852410 
# 
# From -- ./inp_files/57165.got.cif
#   From: 2010.03.12/outbox.cif.g09.slc.cpg/sg5_29_cif.got.tgz:57165.got - 2010.03.31 09:47:26.
