data_PCOD8052990
_publ_section_title
;
Structure prediction by ZEFSAII (Michael W. Deem and Ramdas Pophale) SiO2 
 PCOD8052990
Probable space group: C M
;
_chemical_formula_sum "Si O2"
_cell_formula_units_Z 32
_cell_length_a 28.352073
_cell_length_b 8.579524
_cell_length_c 21.619166
_cell_angle_alpha 90.000000
_cell_angle_beta 161.570832
_cell_angle_gamma 90.000000
_cell_volume 1662.476337
_symmetry_space_group_name_H-M "C M"
_symmetry_group_IT_number 8
_symmetry_cell_setting 'monoclinic'
loop_
_space_group_symop_operation_xyz
x,y,z
x,-y,z
1/2+x,1/2+y,z
1/2+x,1/2-y,z
loop_
_atom_site_type_symbol
_atom_site_label
_atom_site_fract_x
_atom_site_fract_y
_atom_site_fract_z
Si Si1 0.445060 0.321992 0.685490
Si Si2 0.154879 0.680961 0.542297
Si Si3 0.627484 0.817318 0.024086
Si Si4 0.412124 0.321931 0.311248
Si Si5 0.128527 0.817341 0.274748
Si Si6 0.237484 0.179142 0.985530
Si Si7 0.495503 0.684563 0.981501
Si Si8 0.972481 0.816096 0.203168
O O1 0.393175 0.500000 0.627052
O O2 0.522592 0.275900 0.846284
O O3 0.303146 0.217663 0.495176
O O4 0.558925 0.300838 0.768916
O O5 0.144540 0.500000 0.513525
O O6 0.323630 0.734395 0.762585
O O7 0.087133 0.777121 0.401044
O O8 0.061361 0.717422 0.489170
O O9 0.589760 0.770000 0.046367
O O10 0.601025 0.000000 0.979888
O O11 0.803624 0.775140 0.233341
O O12 0.463640 0.500000 0.380268
O O13 0.311043 0.297940 0.125065
O O14 0.041938 0.747801 0.226278
O O15 0.106538 0.000000 0.247955
O O16 0.057393 0.749949 0.123470
O O17 0.281476 0.000000 0.055227
O O18 0.310655 0.231197 0.011178
O O19 0.516414 0.500000 0.001036
O O20 0.948212 0.000000 0.169495
#
# Coordination Sequence:
#
# PCOD8052990 Si02
#       8
#     4   4   4   4   4   4   4   4
#     4  10  20  34  55  81 106 135 172 213 257 307
#     4  10  19  32  53  78 103 132 169 211 255 305
#     4  10  20  34  55  81 106 135 172 213 257 307
#     4   9  17  30  50  77 105 130 163 208 255 303
#     4  10  22  38  53  73 104 140 177 216 257 304
#     4   9  17  30  50  77 105 130 163 208 255 303
#     4  10  22  38  53  73 104 140 177 216 257 304
#     4  10  19  32  53  78 103 132 169 211 255 305
#
# _framework density 19.248394000000001
#
# number of rings (size 3 to 8) (size 9 to 14) (size 15 to 20)
#    0.000    2.250    0.000    4.500    0.000    7.500 
#    0.000    1.250    0.000    4.500    0.000    0.000 
#    0.000    0.000    0.000    0.000    0.000    0.000 
#
# Total GULP energy -198324.425490 kJ/mol
# GULP energy per Si atom -12395.276593 kJ/mol
# Density = 1.920458 g / cm^3
# Si number density = 19.248394 Si / 1000 Ang^3
#
#
#
# Elastic Constant Matrix: (Units=GPa)
#
#
# Indices 1 2 3 4 5 6 
#
# 1 141.3392 26.8251 81.3309 0.0001 28.7242 0.0001
# 2 26.8251 35.9696 12.6754 0.0000 7.3845 0.0000
# 3 81.3309 12.6754 56.0565 0.0000 17.0944 0.0000
# 4 0.0001 0.0000 0.0000 24.2754 0.0000 6.4655
# 5 28.7242 7.3845 17.0944 0.0000 31.7335 0.0001
# 6 0.0001 0.0000 0.0000 6.4655 0.0001 28.0104
#
#
#
# Elastic Compliance Matrix: (Units=1/GPa)
#
#
# Indices 1 2 3 4 5 6 
#
# 1 0.047986 -0.011636 -0.065298 0.000000 -0.005553 0.000000
# 2 -0.011636 0.033462 0.010146 0.000000 -0.002719 0.000000
# 3 -0.065298 0.010146 0.111255 0.000000 -0.003187 0.000000
# 4 0.000000 0.000000 0.000000 0.043892 0.000000 -0.010131
# 5 -0.005553 -0.002719 -0.003187 0.000000 0.038889 0.000000
# 6 0.000000 0.000000 0.000000 -0.010131 0.000000 0.038040
#
#
# Mechanical properties :
#
#
# Convention : Reuss Voigt Hill
#
# Bulk Modulus (GPa) = 16.91255 52.78091 34.84673
# Shear Modulus (GPa) = 10.71098 24.30613 17.50856
#
# Velocity S-wave (km/s) = 2.36150 3.55739 3.01925
# Velocity P-wave (km/s) = 4.03003 6.65987 5.50432
#
# Compressibility (1/GPa) = 0.05912770
#
# Stress axis : x y z
#
# Youngs Moduli (GPa) = 20.83920 29.88433 8.98833
#
# Poissons Ratio (x) = 0.34775 0.58692
# Poissons Ratio (y) = 0.24250 -0.09119
# Poissons Ratio (z) = 1.36075 -0.30320
#
# Static dielectric constant tensor:
#      x y z
#    x 3.901350 0.000000 0.454740 
#    y 0.000000 3.428160 0.000000 
#    z 0.454740 0.000000 3.461420 
# 
# 
# High freq. dielectric constant tensor:
#      x y z
#    x 1.747780 0.000000 0.038330 
#    y 0.000000 1.750660 0.000000 
#    z 0.038330 0.000000 1.728450 
# 
# From -- ./inp_files/30423.got.cif
#   From: 2010.03.12/outbox.cif.g09.slc.cpg/sg8_16_cif.got.tgz:30423.got - 2010.03.31 10:45:26.
