data_PCOD8052761
_publ_section_title
;
Structure prediction by ZEFSAII (Michael W. Deem and Ramdas Pophale) SiO2 
 PCOD8052761
Probable space group: C M
;
_chemical_formula_sum "Si O2"
_cell_formula_units_Z 32
_cell_length_a 24.801771
_cell_length_b 9.170690
_cell_length_c 22.002701
_cell_angle_alpha 90.000000
_cell_angle_beta 157.364449
_cell_angle_gamma 90.000000
_cell_volume 1926.072370
_symmetry_space_group_name_H-M "C M"
_symmetry_group_IT_number 8
_symmetry_cell_setting 'monoclinic'
loop_
_space_group_symop_operation_xyz
x,y,z
x,-y,z
1/2+x,1/2+y,z
1/2+x,1/2-y,z
loop_
_atom_site_type_symbol
_atom_site_label
_atom_site_fract_x
_atom_site_fract_y
_atom_site_fract_z
Si Si1 0.093020 0.669907 0.865750
Si Si2 0.093453 0.169230 0.240819
Si Si3 0.568237 0.839405 0.973990
Si Si4 0.898099 0.167486 0.147346
Si Si5 0.113416 0.330635 0.447825
Si Si6 0.815643 0.830517 0.546736
Si Si7 0.990485 0.171920 0.001772
Si Si8 0.273755 0.838090 0.709339
O O1 0.050806 0.500000 0.821245
O O2 0.124991 0.719754 0.968653
O O3 0.969558 0.762181 0.707631
O O4 0.232820 0.700502 0.972397
O O5 0.229199 0.259374 0.401800
O O6 0.962071 0.202966 0.147973
O O7 0.134072 0.000000 0.284743
O O8 0.050549 0.219487 0.129037
O O9 0.599294 0.728802 0.062538
O O10 0.399476 0.852372 0.791116
O O11 0.631806 0.000000 0.054924
O O12 0.968327 0.268113 0.271475
O O13 0.926445 0.000000 0.195207
O O14 0.094513 0.500000 0.442278
O O15 0.237111 0.301680 0.528407
O O16 0.147445 0.249374 0.546438
O O17 0.830629 0.000000 0.548430
O O18 0.837822 0.248752 0.833724
O O19 0.970980 0.000000 0.975548
O O20 0.222629 0.000000 0.676346
#
# Coordination Sequence:
#
# PCOD8052761 Si02
#       8
#     4   4   4   4   4   4   4   4
#     4  10  18  31  49  70  95 124 153 183 229 282
#     4   9  18  32  48  68  93 122 156 191 226 269
#     4   8  16  27  44  69  92 117 147 184 226 269
#     4   9  19  32  48  68  95 127 153 183 227 279
#     4  10  18  29  45  69  96 121 152 190 230 270
#     4  10  19  28  45  69  93 121 154 192 230 267
#     4   9  16  27  45  69  92 117 153 194 230 264
#     4   9  16  26  44  68  92 117 146 185 228 268
#
# _framework density 16.614121999999998
#
# number of rings (size 3 to 8) (size 9 to 14) (size 15 to 20)
#    0.750    2.000    1.250    1.125    0.000    3.000 
#    0.000    0.000    0.000    1.500    0.000    1.750 
#    0.000    0.000    0.000    0.000    0.000    0.000 
#
# Total GULP energy -198287.320783 kJ/mol
# GULP energy per Si atom -12392.957549 kJ/mol
# Density = 1.657631 g / cm^3
# Si number density = 16.614122 Si / 1000 Ang^3
#
#
#
# Elastic Constant Matrix: (Units=GPa)
#
#
# Indices 1 2 3 4 5 6 
#
# 1 70.7931 40.7581 52.2852 0.0001 -17.8053 0.0000
# 2 40.7581 101.5065 65.3725 0.0012 -20.1992 0.0006
# 3 52.2852 65.3725 106.0969 0.0010 -15.7189 0.0005
# 4 0.0001 0.0012 0.0010 28.5306 0.0005 -6.0357
# 5 -17.8053 -20.1992 -15.7189 0.0005 30.5070 0.0002
# 6 0.0000 0.0006 0.0005 -6.0357 0.0002 20.0201
#
#
#
# Elastic Compliance Matrix: (Units=1/GPa)
#
#
# Indices 1 2 3 4 5 6 
#
# 1 0.024369 -0.002037 -0.009578 0.000000 0.007939 0.000000
# 2 -0.002037 0.017621 -0.008987 -0.000001 0.005848 -0.000001
# 3 -0.009578 -0.008987 0.019459 0.000000 -0.001515 0.000000
# 4 0.000000 -0.000001 0.000000 0.037438 -0.000001 0.011287
# 5 0.007939 0.005848 -0.001515 -0.000001 0.040505 -0.000001
# 6 0.000000 -0.000001 0.000000 0.011287 -0.000001 0.053352
#
#
# Mechanical properties :
#
#
# Convention : Reuss Voigt Hill
#
# Bulk Modulus (GPa) = 49.39543 66.13646 57.76594
# Shear Modulus (GPa) = 20.77308 23.81026 22.29167
#
# Velocity S-wave (km/s) = 3.53983 3.78978 3.66694
# Velocity P-wave (km/s) = 6.81929 7.68399 7.26452
#
# Compressibility (1/GPa) = 0.02024479
#
# Stress axis : x y z
#
# Youngs Moduli (GPa) = 41.03563 56.75020 51.39081
#
# Poissons Ratio (x) = 0.11557 0.49223
# Poissons Ratio (y) = 0.08357 0.46187
# Poissons Ratio (z) = 0.39304 0.51004
#
# Static dielectric constant tensor:
#      x y z
#    x 2.872980 0.000000 -0.082940 
#    y 0.000000 3.141060 0.000000 
#    z -0.082940 0.000000 2.909500 
# 
# 
# High freq. dielectric constant tensor:
#      x y z
#    x 1.605850 0.000000 -0.014340 
#    y 0.000000 1.648150 0.000000 
#    z -0.014340 0.000000 1.620690 
# 
# From -- ./inp_files/32623.got.cif
#   From: 2010.03.12/outbox.cif.g09.slc.cpg/sg8_17_cif.got.tgz:32623.got - 2010.03.31 10:45:26.
