data_PCOD8052569
_publ_section_title
;
Structure prediction by ZEFSAII (Michael W. Deem and Ramdas Pophale) SiO2 
 PCOD8052569
Probable space group: P M
;
_chemical_formula_sum "Si O2"
_cell_formula_units_Z 13
_cell_length_a 9.339712
_cell_length_b 11.976551
_cell_length_c 11.687355
_cell_angle_alpha 90.000000
_cell_angle_beta 36.952941
_cell_angle_gamma 90.000000
_cell_volume 785.906264
_symmetry_space_group_name_H-M "P M"
_symmetry_group_IT_number 6
_symmetry_cell_setting 'monoclinic'
loop_
_space_group_symop_operation_xyz
x,y,z
x,-y,z
loop_
_atom_site_type_symbol
_atom_site_label
_atom_site_fract_x
_atom_site_fract_y
_atom_site_fract_z
Si Si1 0.737440 0.500000 0.305900
Si Si2 0.268107 0.500000 0.033379
Si Si3 0.723064 0.500000 0.578422
Si Si4 0.814288 0.870513 0.021571
Si Si5 0.282625 0.872284 0.305900
Si Si6 0.711741 0.259892 0.305901
Si Si7 0.043320 0.311937 0.305901
Si Si8 0.245629 0.129487 0.590230
O O1 0.500494 0.500000 0.805901
O O2 0.645129 0.386324 0.305900
O O3 0.025668 0.500000 0.114296
O O4 0.259067 0.388168 0.117736
O O5 0.642458 0.500000 0.497505
O O6 0.882737 0.388168 0.494066
O O7 0.563400 0.847053 0.120714
O O8 0.846431 0.802300 0.117557
O O9 0.836839 0.000000 0.039807
O O10 0.016064 0.830605 0.805900
O O11 0.146734 0.793024 0.305901
O O12 0.193027 0.847053 0.491087
O O13 0.227966 0.000000 0.305900
O O14 0.469743 0.197700 0.494244
O O15 0.882738 0.263499 0.305901
O O16 0.304652 0.000000 0.571994
#
# Coordination Sequence:
#
# PCOD8052569 Si02
#       8
#     1   1   1   2   2   2   2   2
#     4   8  18  30  46  72  96 124 160 188 230 290
#     4   8  16  32  49  66  96 130 154 188 237 283
#     4   8  16  32  49  66  96 130 154 188 237 283
#     4   9  18  33  51  69  93 129 163 189 231 286
#     4   9  18  33  50  68  97 129 156 193 235 279
#     4   9  17  31  50  72  97 122 151 200 241 273
#     4   9  19  31  50  77  95 118 161 198 234 283
#     4   9  18  33  51  69  93 129 163 189 231 286
#
# _framework density 16.541412000000001
#
# number of rings (size 3 to 8) (size 9 to 14) (size 15 to 20)
#    0.000    3.692    0.000    1.385    0.000    7.385 
#    0.000    6.154    0.000    3.692    0.000    0.000 
#    0.000    0.000    0.000    0.000    0.000    0.000 
#
# Total GULP energy -161105.768958 kJ/mol
# GULP energy per Si atom -12392.751458 kJ/mol
# Density = 1.650376 g / cm^3
# Si number density = 16.541412 Si / 1000 Ang^3
#
#
#
# Elastic Constant Matrix: (Units=GPa)
#
#
# Indices 1 2 3 4 5 6 
#
# 1 88.3844 70.0749 47.4256 0.0000 -0.3229 0.0000
# 2 70.0749 116.0326 61.8982 0.0000 -0.1088 0.0000
# 3 47.4256 61.8982 170.7097 0.0000 1.4173 0.0000
# 4 0.0000 0.0000 0.0000 17.8116 0.0000 0.1053
# 5 -0.3229 -0.1088 1.4173 0.0000 8.3612 0.0000
# 6 0.0000 0.0000 0.0000 0.1053 0.0000 9.8877
#
#
#
# Elastic Compliance Matrix: (Units=1/GPa)
#
#
# Indices 1 2 3 4 5 6 
#
# 1 0.022067 -0.012462 -0.001620 0.000000 0.000965 0.000000
# 2 -0.012462 0.017728 -0.002968 0.000000 0.000252 0.000000
# 3 -0.001620 -0.002968 0.007395 0.000000 -0.001355 0.000000
# 4 0.000000 0.000000 0.000000 0.056147 0.000000 -0.000598
# 5 0.000965 0.000252 -0.001355 0.000000 0.119871 0.000000
# 6 0.000000 0.000000 0.000000 -0.000598 0.000000 0.101142
#
#
# Mechanical properties :
#
#
# Convention : Reuss Voigt Hill
#
# Bulk Modulus (GPa) = 76.38997 81.54713 78.96855
# Shear Modulus (GPa) = 13.78121 20.26064 17.02093
#
# Velocity S-wave (km/s) = 2.88954 3.50357 3.21127
# Velocity P-wave (km/s) = 7.57719 8.11002 7.84813
#
# Compressibility (1/GPa) = 0.01309072
#
# Stress axis : x y z
#
# Youngs Moduli (GPa) = 45.31594 56.40858 135.21928
#
# Poissons Ratio (x) = 0.70295 0.21906
# Poissons Ratio (y) = 0.56472 0.40133
# Poissons Ratio (z) = 0.07341 0.16742
#
# Static dielectric constant tensor:
#      x y z
#    x 2.742630 0.000000 0.007070 
#    y 0.000000 3.329620 0.000000 
#    z 0.007070 0.000000 3.274580 
# 
# 
# High freq. dielectric constant tensor:
#      x y z
#    x 1.605400 0.000000 0.000430 
#    y 0.000000 1.649160 0.000000 
#    z 0.000430 0.000000 1.637550 
# 
# From -- ./inp_files/4750.got.cif
#   From: 2010.03.12/outbox.cif.g09.slc.cpg/sg6_3_cif.got.tgz:4750.got - 2010.03.30 10:24:59.
