data_PCOD8052679
_publ_section_title
;
Structure prediction by ZEFSAII (Michael W. Deem and Ramdas Pophale) SiO2 
 PCOD8052679
Probable space group: P C
;
_chemical_formula_sum "Si O2"
_cell_formula_units_Z 16
_cell_length_a 11.640038
_cell_length_b 8.635562
_cell_length_c 5.300408
_cell_angle_alpha 90.000000
_cell_angle_beta 85.538976
_cell_angle_gamma 90.000000
_cell_volume 531.173748
_symmetry_space_group_name_H-M "P C"
_symmetry_group_IT_number 7
_symmetry_cell_setting 'monoclinic'
loop_
_space_group_symop_operation_xyz
x,y,z
x,-y,1/2+z
loop_
_atom_site_type_symbol
_atom_site_label
_atom_site_fract_x
_atom_site_fract_y
_atom_site_fract_z
Si Si1 0.387510 0.093475 0.419360
Si Si2 0.795003 0.145011 0.647714
Si Si3 0.140240 0.645011 0.236890
Si Si4 0.888418 0.584046 0.413635
Si Si5 0.288193 0.660521 0.623811
Si Si6 0.046825 0.084046 0.470968
Si Si7 0.647050 0.839478 0.760792
Si Si8 0.547733 0.593475 0.465242
O O1 0.304187 0.244065 0.384992
O O2 0.520078 0.141820 0.399570
O O3 0.358128 0.020919 0.692549
O O4 0.837976 0.241562 0.886345
O O5 0.723702 0.251186 0.457771
O O6 0.908374 0.084317 0.481466
O O7 0.709501 0.005178 0.733100
O O8 0.211541 0.751186 0.426833
O O9 0.225741 0.505177 0.151508
O O10 0.097266 0.741562 0.998258
O O11 0.026868 0.584318 0.403139
O O12 0.842852 0.515937 0.683443
O O13 0.415165 0.641820 0.485032
O O14 0.092391 0.015937 0.201160
O O15 0.631056 0.744064 0.499611
O O16 0.577115 0.520919 0.192053
#
# Coordination Sequence:
#
# PCOD8052679 Si02
#       8
#     2   2   2   2   2   2   2   2
#     4  11  26  48  74 113 153 195 254 310 368 453
#     4  11  24  45  78 111 152 202 247 311 380 442
#     4  11  24  45  78 111 152 202 247 311 380 442
#     4  11  26  48  74 113 153 195 254 310 368 453
#     4  11  24  45  78 111 152 202 247 311 380 442
#     4  11  26  48  74 113 153 195 254 310 368 453
#     4  11  24  45  78 111 152 202 247 311 380 442
#     4  11  26  48  74 113 153 195 254 310 368 453
#
# _framework density 30.121974000000002
#
# number of rings (size 3 to 8) (size 9 to 14) (size 15 to 20)
#    0.000    1.000    5.000    0.000    0.000   14.000 
#    0.000    0.000    0.000    0.000    0.000    0.000 
#    0.000    0.000    0.000    0.000    0.000    0.000 
#
# Total GULP energy -198316.460977 kJ/mol
# GULP energy per Si atom -12394.778811 kJ/mol
# Density = 3.005342 g / cm^3
# Si number density = 30.121974 Si / 1000 Ang^3
#
#
#
# Elastic Constant Matrix: (Units=GPa)
#
#
# Indices 1 2 3 4 5 6 
#
# 1 107.5568 12.2205 9.3418 0.0000 18.3849 0.0000
# 2 12.2205 110.3769 11.5878 0.0000 21.8661 0.0000
# 3 9.3418 11.5878 109.0260 0.0000 43.2482 0.0000
# 4 0.0000 0.0000 0.0000 46.5868 0.0000 1.6495
# 5 18.3849 21.8661 43.2482 0.0000 38.4691 0.0000
# 6 0.0000 0.0000 0.0000 1.6495 0.0000 54.6372
#
#
#
# Elastic Compliance Matrix: (Units=1/GPa)
#
#
# Indices 1 2 3 4 5 6 
#
# 1 0.010348 0.000072 0.001956 0.000000 -0.007185 0.000000
# 2 0.000072 0.010510 0.002275 0.000000 -0.008566 0.000000
# 3 0.001956 0.002275 0.017411 0.000000 -0.021802 0.000000
# 4 0.000000 0.000000 0.000000 0.021488 0.000000 -0.000649
# 5 -0.007185 -0.008566 -0.021802 0.000000 0.058808 0.000000
# 6 0.000000 0.000000 0.000000 -0.000649 0.000000 0.018322
#
#
# Mechanical properties :
#
#
# Convention : Reuss Voigt Hill
#
# Bulk Modulus (GPa) = 21.33362 43.69555 32.51459
# Shear Modulus (GPa) = 34.74505 47.52592 41.13548
#
# Velocity S-wave (km/s) = 3.39997 3.97644 3.69945
# Velocity P-wave (km/s) = 4.74456 5.96829 5.39126
#
# Compressibility (1/GPa) = 0.04687437
#
# Stress axis : x y z
#
# Youngs Moduli (GPa) = 96.64168 95.14796 57.43498
#
# Poissons Ratio (x) = -0.00690 -0.11234
# Poissons Ratio (y) = -0.00700 -0.13064
# Poissons Ratio (z) = -0.18903 -0.21642
#
# Static dielectric constant tensor:
#      x y z
#    x 6.352800 0.000000 1.175830 
#    y 0.000000 5.672600 0.000000 
#    z 1.175830 0.000000 7.319820 
# 
# 
# High freq. dielectric constant tensor:
#      x y z
#    x 2.268570 0.000000 0.016020 
#    y 0.000000 2.220120 0.000000 
#    z 0.016020 0.000000 2.244380 
# 
# From -- ./inp_files/1058.got.cif
#   From: 2010.03.12/outbox.cif.g09.slc.cpg/sg7_cif.got.tgz:1058.got - 2010.03.30 08:40:41.
