data_PCOD8052497
_publ_section_title
;
Structure prediction by ZEFSAII (Michael W. Deem and Ramdas Pophale) SiO2 
 PCOD8052497
Probable space group: P M
;
_chemical_formula_sum "Si O2"
_cell_formula_units_Z 16
_cell_length_a 12.043091
_cell_length_b 8.411028
_cell_length_c 9.677142
_cell_angle_alpha 90.000000
_cell_angle_beta 52.267941
_cell_angle_gamma 90.000000
_cell_volume 775.256531
_symmetry_space_group_name_H-M "P M"
_symmetry_group_IT_number 6
_symmetry_cell_setting 'monoclinic'
loop_
_space_group_symop_operation_xyz
x,y,z
x,-y,z
loop_
_atom_site_type_symbol
_atom_site_label
_atom_site_fract_x
_atom_site_fract_y
_atom_site_fract_z
Si Si1 0.570280 0.681493 0.782980
Si Si2 0.551910 0.316825 0.277138
Si Si3 0.844441 0.811534 0.942394
Si Si4 0.398995 0.183540 0.145417
Si Si5 0.857550 0.187564 0.613574
Si Si6 0.102019 0.187561 0.929725
Si Si7 0.416160 0.183731 0.645612
Si Si8 0.112708 0.811179 0.232078
O O1 0.554177 0.500000 0.843421
O O2 0.731614 0.723571 0.631394
O O3 0.478282 0.707810 0.718045
O O4 0.524495 0.798706 0.940718
O O5 0.552703 0.500000 0.320346
O O6 0.704478 0.268010 0.107012
O O7 0.433456 0.287806 0.252540
O O8 0.508389 0.210355 0.439970
O O9 0.828441 0.000000 0.968088
O O10 0.869116 0.761181 0.764825
O O11 0.977082 0.744760 0.928862
O O12 0.258986 0.252891 0.181767
O O13 0.384829 0.000000 0.200816
O O14 0.993895 0.247370 0.427592
O O15 0.838116 0.000000 0.612970
O O16 0.252998 0.233004 0.748587
O O17 0.085167 0.000000 0.948434
O O18 0.089188 0.257733 0.095396
O O19 0.426439 0.000000 0.682919
O O20 0.120217 0.000000 0.218155
#
# Coordination Sequence:
#
# PCOD8052497 Si02
#       8
#     2   2   2   2   2   2   2   2
#     4  12  24  40  62  91 129 164 202 256 310 363
#     4  12  26  42  60  91 130 165 204 255 312 366
#     4  10  21  38  62  90 122 162 208 253 302 362
#     4  11  21  40  68  93 119 160 212 257 304 364
#     4  10  21  37  62  92 122 160 208 254 301 360
#     4   9  19  37  62  93 121 152 203 261 305 353
#     4  11  23  42  68  93 120 161 210 257 305 368
#     4   9  19  36  62  95 121 150 203 263 303 352
#
# _framework density 20.638331999999998
#
# number of rings (size 3 to 8) (size 9 to 14) (size 15 to 20)
#    0.000    1.500    2.500    3.000    3.500    0.000 
#    0.000    2.500    0.000    0.000    0.000    0.000 
#    0.000    0.000    0.000    0.000    0.000    0.000 
#
# Total GULP energy -198441.442171 kJ/mol
# GULP energy per Si atom -12402.590136 kJ/mol
# Density = 2.059136 g / cm^3
# Si number density = 20.638332 Si / 1000 Ang^3
#
#
#
# Elastic Constant Matrix: (Units=GPa)
#
#
# Indices 1 2 3 4 5 6 
#
# 1 111.4601 35.0709 20.7723 0.0000 -5.7170 0.0000
# 2 35.0709 42.9184 26.5074 0.0000 -8.4934 0.0000
# 3 20.7723 26.5074 113.0218 0.0000 -4.3264 0.0000
# 4 0.0000 0.0000 0.0000 43.5946 0.0000 11.3938
# 5 -5.7170 -8.4934 -4.3264 0.0000 32.9742 0.0000
# 6 0.0000 0.0000 0.0000 11.3938 0.0000 18.0762
#
#
#
# Elastic Compliance Matrix: (Units=1/GPa)
#
#
# Indices 1 2 3 4 5 6 
#
# 1 0.012085 -0.010041 0.000116 0.000000 -0.000476 0.000000
# 2 -0.010041 0.036917 -0.006548 0.000000 0.006909 0.000000
# 3 0.000116 -0.006548 0.010351 0.000000 -0.000309 0.000000
# 4 0.000000 0.000000 0.000000 0.027463 0.000000 -0.017310
# 5 -0.000476 0.006909 -0.000309 0.000000 0.031983 0.000000
# 6 0.000000 0.000000 0.000000 -0.017310 0.000000 0.066233
#
#
# Mechanical properties :
#
#
# Convention : Reuss Voigt Hill
#
# Bulk Modulus (GPa) = 37.87154 48.01127 42.94141
# Shear Modulus (GPa) = 22.04772 31.26563 26.65668
#
# Velocity S-wave (km/s) = 3.27202 3.89643 3.59780
# Velocity P-wave (km/s) = 5.71531 6.59974 6.17338
#
# Compressibility (1/GPa) = 0.02640505
#
# Stress axis : x y z
#
# Youngs Moduli (GPa) = 82.74504 27.08793 96.61292
#
# Poissons Ratio (x) = 0.27199 -0.01117
# Poissons Ratio (y) = 0.83085 0.63265
# Poissons Ratio (z) = -0.00957 0.17738
#
# Static dielectric constant tensor:
#      x y z
#    x 4.017670 0.000000 0.052620 
#    y 0.000000 2.438420 0.000000 
#    z 0.052620 0.000000 3.923830 
# 
# 
# High freq. dielectric constant tensor:
#      x y z
#    x 1.821420 0.000000 -0.002330 
#    y 0.000000 1.775510 0.000000 
#    z -0.002330 0.000000 1.813890 
# 
# From -- ./inp_files/3737.got.cif
#   From: 2010.03.12/outbox.cif.g09.slc.cpg/sg6_2_cif.got.tgz:3737.got - 2010.03.30 10:24:59.
