data_PCOD8052872
_publ_section_title
;
Structure prediction by ZEFSAII (Michael W. Deem and Ramdas Pophale) SiO2 
 PCOD8052872
Probable space group: C M
;
_chemical_formula_sum "Si O2"
_cell_formula_units_Z 32
_cell_length_a 12.902054
_cell_length_b 13.667592
_cell_length_c 8.883579
_cell_angle_alpha 90.000000
_cell_angle_beta 82.001311
_cell_angle_gamma 90.000000
_cell_volume 1551.290032
_symmetry_space_group_name_H-M "C M"
_symmetry_group_IT_number 8
_symmetry_cell_setting 'monoclinic'
loop_
_space_group_symop_operation_xyz
x,y,z
x,-y,z
1/2+x,1/2+y,z
1/2+x,1/2-y,z
loop_
_atom_site_type_symbol
_atom_site_label
_atom_site_fract_x
_atom_site_fract_y
_atom_site_fract_z
Si Si1 0.764160 0.231719 0.481860
Si Si2 0.207577 0.886671 0.724117
Si Si3 0.804173 0.885161 0.759845
Si Si4 0.100878 0.385742 0.962579
Si Si5 0.365600 0.722673 0.166934
Si Si6 0.370576 0.112711 0.943176
Si Si7 0.497393 0.385688 0.931745
Si Si8 0.671443 0.112481 0.257760
O O1 0.717627 0.329613 0.565093
O O2 0.815132 0.160392 0.593200
O O3 0.859489 0.253725 0.344667
O O4 0.667560 0.179280 0.409761
O O5 0.312265 0.865811 0.798702
O O6 0.107288 0.851441 0.840202
O O7 0.194796 0.000000 0.684827
O O8 0.699310 0.837551 0.855490
O O9 0.905124 0.855753 0.836179
O O10 0.797121 0.000000 0.739395
O O11 0.126770 0.500000 0.960136
O O12 0.993840 0.362780 0.895899
O O13 0.089173 0.355331 0.142881
O O14 0.284998 0.631719 0.156183
O O15 0.326778 0.818209 0.083232
O O16 0.477623 0.679854 0.086464
O O17 0.353546 0.000000 0.995898
O O18 0.499227 0.500000 0.971578
O O19 0.657773 0.000000 0.308542
#
# Coordination Sequence:
#
# PCOD8052872 Si02
#       8
#     4   4   4   4   4   4   4   4
#     4  10  22  36  56  90 123 160 188 239 313 363
#     4  10  23  42  61  86 123 164 209 250 292 356
#     4  10  18  33  58  89 119 148 194 247 309 359
#     4   9  18  35  62  87 115 155 198 251 293 350
#     4  10  21  35  60  88 116 159 197 249 298 361
#     4  10  22  40  60  85 117 163 213 244 284 353
#     4  10  20  37  63  88 117 158 201 258 302 351
#     4   9  18  36  59  91 122 147 191 248 310 359
#
# _framework density 20.627993
#
# number of rings (size 3 to 8) (size 9 to 14) (size 15 to 20)
#    0.750    1.500    1.250    1.500    1.750    0.500 
#    2.250    0.000    0.000    9.000    0.000    0.000 
#    0.000    0.000    0.000    0.000    0.000    0.000 
#
# Total GULP energy -198264.524828 kJ/mol
# GULP energy per Si atom -12391.532802 kJ/mol
# Density = 2.058104 g / cm^3
# Si number density = 20.627993 Si / 1000 Ang^3
#
#
#
# Elastic Constant Matrix: (Units=GPa)
#
#
# Indices 1 2 3 4 5 6 
#
# 1 100.9686 41.6949 54.1273 0.0000 1.3267 0.0000
# 2 41.6949 73.9924 59.6241 0.0000 -7.1932 0.0000
# 3 54.1273 59.6241 142.6924 0.0000 -13.6703 0.0000
# 4 0.0000 0.0000 0.0000 43.0819 0.0000 -0.8287
# 5 1.3267 -7.1932 -13.6703 0.0000 26.1094 0.0000
# 6 0.0000 0.0000 0.0000 -0.8287 0.0000 21.6877
#
#
#
# Elastic Compliance Matrix: (Units=1/GPa)
#
#
# Indices 1 2 3 4 5 6 
#
# 1 0.014086 -0.005597 -0.003391 0.000000 -0.004033 0.000000
# 2 -0.005597 0.022637 -0.007065 0.000000 0.002822 0.000000
# 3 -0.003391 -0.007065 0.011661 0.000000 0.004332 0.000000
# 4 0.000000 0.000000 0.000000 0.023229 0.000000 0.000888
# 5 -0.004033 0.002822 0.004332 0.000000 0.041551 0.000000
# 6 0.000000 0.000000 0.000000 0.000888 0.000000 0.046143
#
#
# Mechanical properties :
#
#
# Convention : Reuss Voigt Hill
#
# Bulk Modulus (GPa) = 61.43414 69.83846 65.63630
# Shear Modulus (GPa) = 25.40144 28.98958 27.19551
#
# Velocity S-wave (km/s) = 3.51295 3.75287 3.63489
# Velocity P-wave (km/s) = 6.80448 7.26005 7.03596
#
# Compressibility (1/GPa) = 0.01627759
#
# Stress axis : x y z
#
# Youngs Moduli (GPa) = 70.99117 44.17640 85.75241
#
# Poissons Ratio (x) = 0.24727 0.29078
# Poissons Ratio (y) = 0.39736 0.60585
# Poissons Ratio (z) = 0.24072 0.31211
#
# Static dielectric constant tensor:
#      x y z
#    x 3.562660 0.000000 0.037090 
#    y 0.000000 3.806460 0.000000 
#    z 0.037090 0.000000 3.629320 
# 
# 
# High freq. dielectric constant tensor:
#      x y z
#    x 1.786620 0.000000 0.005260 
#    y 0.000000 1.822070 0.000000 
#    z 0.005260 0.000000 1.792280 
# 
# From -- ./inp_files/10740.got.cif
#   From: 2010.03.12/outbox.cif.g09.slc.cpg/sg8_6_cif.got.tgz:10740.got - 2010.03.31 10:45:26.
