data_PCOD8052053
_publ_section_title
;
Structure prediction by ZEFSAII (Michael W. Deem and Ramdas Pophale) SiO2 
 PCOD8052053
Probable space group: C 2
;
_chemical_formula_sum "Si O2"
_cell_formula_units_Z 22
_cell_length_a 10.556290
_cell_length_b 14.115931
_cell_length_c 12.497924
_cell_angle_alpha 90.000000
_cell_angle_beta 147.635068
_cell_angle_gamma 90.000000
_cell_volume 996.928500
_symmetry_space_group_name_H-M "C 2"
_symmetry_group_IT_number 5
_symmetry_cell_setting 'monoclinic'
loop_
_space_group_symop_operation_xyz
x,y,z
-x,y,-z
1/2+x,1/2+y,z
1/2-x,1/2+y,-z
loop_
_atom_site_type_symbol
_atom_site_label
_atom_site_fract_x
_atom_site_fract_y
_atom_site_fract_z
Si Si1 0.000000 0.227080 0.000000
Si Si2 0.000000 0.486778 0.500000
Si Si3 0.510768 0.142743 0.338506
Si Si4 0.000000 0.967182 0.500000
Si Si5 0.232808 0.326153 0.774704
Si Si6 0.316674 0.127821 0.774731
Si Si7 0.833753 0.311264 0.661452
O O1 0.769367 0.163019 0.855656
O O2 0.942011 0.291126 0.855687
O O3 0.075523 0.551006 0.454241
O O4 0.214118 0.415171 0.681190
O O5 0.562339 0.116558 0.253729
O O6 0.672107 0.226952 0.500101
O O7 0.166820 0.902941 0.545502
O O8 0.148405 0.038778 0.681235
O O9 0.173518 0.226982 0.673507
O O10 0.054823 0.337459 0.746157
O O11 0.500000 0.324821 0.000000
O O12 0.500000 0.129166 0.000000
#
# Coordination Sequence:
#
# PCOD8052053 Si02
#       7
#     2   2   4   2   4   4   4
#     4  12  22  44  74 102 146 188 258 278 376 418
#     4  12  24  46  70 108 142 186 240 300 360 414
#     4  12  25  47  74 105 147 191 238 305 356 433
#     4  12  24  46  70 108 142 186 240 300 360 414
#     4  11  26  48  70 103 143 194 240 293 358 427
#     4  11  26  48  70 103 143 194 240 293 358 427
#     4  12  25  47  74 105 147 191 238 305 356 433
#
# _framework density 22.067781
#
# number of rings (size 3 to 8) (size 9 to 14) (size 15 to 20)
#    0.000    0.364    3.636    6.000    2.545    0.000 
#    6.545    0.000    0.000    0.000    0.000    0.000 
#    0.000    0.000    0.000    0.000    0.000    0.000 
#
# Total GULP energy -136375.002473 kJ/mol
# GULP energy per Si atom -12397.727498 kJ/mol
# Density = 2.201755 g / cm^3
# Si number density = 22.067781 Si / 1000 Ang^3
#
#
#
# Elastic Constant Matrix: (Units=GPa)
#
#
# Indices 1 2 3 4 5 6 
#
# 1 169.4231 74.8179 75.9135 0.0028 -0.6151 0.0032
# 2 74.8179 192.3420 71.5931 -0.0209 0.2013 0.0016
# 3 75.9135 71.5931 151.1276 -0.0303 1.7940 0.0060
# 4 0.0028 -0.0209 -0.0303 40.0532 -0.0046 -0.8753
# 5 -0.6151 0.2013 1.7940 -0.0046 51.2225 0.0064
# 6 0.0032 0.0016 0.0060 -0.8753 0.0064 26.5806
#
#
#
# Elastic Compliance Matrix: (Units=1/GPa)
#
#
# Indices 1 2 3 4 5 6 
#
# 1 0.008215 -0.002014 -0.003175 -0.000004 0.000218 0.000000
# 2 -0.002014 0.006806 -0.002213 0.000002 0.000027 0.000000
# 3 -0.003175 -0.002213 0.009264 0.000006 -0.000354 -0.000001
# 4 -0.000004 0.000002 0.000006 0.024985 0.000002 0.000823
# 5 0.000218 0.000027 -0.000354 0.000002 0.019538 -0.000005
# 6 0.000000 0.000000 -0.000001 0.000823 -0.000005 0.037649
#
#
# Mechanical properties :
#
#
# Convention : Reuss Voigt Hill
#
# Bulk Modulus (GPa) = 105.46663 106.39354 105.93008
# Shear Modulus (GPa) = 40.18604 42.94245 41.56425
#
# Velocity S-wave (km/s) = 4.27198 4.41606 4.34462
# Velocity P-wave (km/s) = 8.49876 8.62084 8.56002
#
# Compressibility (1/GPa) = 0.00948167
#
# Stress axis : x y z
#
# Youngs Moduli (GPa) = 121.72495 146.92629 107.94055
#
# Poissons Ratio (x) = 0.29591 0.34273
# Poissons Ratio (y) = 0.24515 0.23886
# Poissons Ratio (z) = 0.38649 0.32513
#
# Static dielectric constant tensor:
#      x y z
#    x 3.827540 0.000020 -0.022120 
#    y 0.000020 4.408670 0.000080 
#    z -0.022120 0.000080 4.165370 
# 
# 
# High freq. dielectric constant tensor:
#      x y z
#    x 1.869830 0.000000 -0.001020 
#    y 0.000000 1.885270 0.000000 
#    z -0.001020 0.000000 1.885160 
# 
# From -- ./inp_files/52927.got.cif
#   From: 2010.03.12/outbox.cif.g09.slc.cpg/sg5_27_cif.got.tgz:52927.got - 2010.03.31 09:47:26.
