data_PCOD8052890
_publ_section_title
;
Structure prediction by ZEFSAII (Michael W. Deem and Ramdas Pophale) SiO2 
 PCOD8052890
Probable space group: C M
;
_chemical_formula_sum "Si O2"
_cell_formula_units_Z 32
_cell_length_a 28.775691
_cell_length_b 8.953920
_cell_length_c 11.952672
_cell_angle_alpha 90.000000
_cell_angle_beta 147.533071
_cell_angle_gamma 90.000000
_cell_volume 1653.205217
_symmetry_space_group_name_H-M "C M"
_symmetry_group_IT_number 8
_symmetry_cell_setting 'monoclinic'
loop_
_space_group_symop_operation_xyz
x,y,z
x,-y,z
1/2+x,1/2+y,z
1/2+x,1/2-y,z
loop_
_atom_site_type_symbol
_atom_site_label
_atom_site_fract_x
_atom_site_fract_y
_atom_site_fract_z
Si Si1 0.918790 0.323323 0.284220
Si Si2 0.243112 0.828548 0.416837
Si Si3 0.978988 0.324477 0.652483
Si Si4 0.065513 0.177769 0.439430
Si Si5 0.225404 0.823253 0.909897
Si Si6 0.658448 0.328493 0.011527
Si Si7 0.075966 0.822604 0.207222
Si Si8 0.914484 0.823256 0.735862
O O1 0.927310 0.500000 0.285419
O O2 0.948051 0.274711 0.467211
O O3 0.978455 0.242511 0.315339
O O4 0.820174 0.266381 0.064742
O O5 0.163542 0.763331 0.327440
O O6 0.326665 0.730767 0.617060
O O7 0.261345 0.000000 0.486136
O O8 0.224501 0.813112 0.247458
O O9 0.969688 0.500000 0.650561
O O10 0.918364 0.244998 0.619886
O O11 0.077071 0.275183 0.870762
O O12 0.150496 0.239762 0.676463
O O13 0.071451 0.236072 0.324719
O O14 0.061031 0.000000 0.437071
O O15 0.206440 0.770593 0.997818
O O16 0.225946 0.000000 0.906820
O O17 0.626590 0.500000 0.934137
O O18 0.075425 0.000000 0.202135
O O19 0.993999 0.761686 0.971634
O O20 0.915911 0.000000 0.729982
#
# Coordination Sequence:
#
# PCOD8052890 Si02
#       8
#     4   4   4   4   4   4   4   4
#     4  10  21  37  56  83 116 146 178 230 285 328
#     4  10  20  37  59  83 113 148 185 232 283 334
#     4  11  21  34  56  85 117 148 184 230 281 336
#     4  10  20  37  60  82 106 146 196 233 268 329
#     4   9  18  33  56  81 108 143 182 220 274 338
#     4  10  18  34  59  83 110 147 185 227 284 340
#     4   9  20  38  58  80 111 149 188 233 281 325
#     4  11  22  38  58  83 115 151 188 229 280 336
#
# _framework density 19.356338999999998
#
# number of rings (size 3 to 8) (size 9 to 14) (size 15 to 20)
#    0.000    2.000    2.500    1.500    0.000    4.000 
#    0.000    4.375    0.000    0.000    0.000    0.000 
#    0.000    0.000    0.000    0.000    0.000    0.000 
#
# Total GULP energy -198432.513505 kJ/mol
# GULP energy per Si atom -12402.032094 kJ/mol
# Density = 1.931228 g / cm^3
# Si number density = 19.356339 Si / 1000 Ang^3
#
#
#
# Elastic Constant Matrix: (Units=GPa)
#
#
# Indices 1 2 3 4 5 6 
#
# 1 159.6504 34.7585 84.0046 0.0000 4.6705 0.0000
# 2 34.7585 38.6136 26.1906 0.0000 2.9135 0.0000
# 3 84.0046 26.1906 98.6535 0.0000 19.0882 0.0000
# 4 0.0000 0.0000 0.0000 20.9396 0.0000 11.1515
# 5 4.6705 2.9135 19.0882 0.0000 39.8873 0.0000
# 6 0.0000 0.0000 0.0000 11.1515 0.0000 28.4617
#
#
#
# Elastic Compliance Matrix: (Units=1/GPa)
#
#
# Indices 1 2 3 4 5 6 
#
# 1 0.012497 -0.004664 -0.010123 0.000000 0.003722 0.000000
# 2 -0.004664 0.033454 -0.005007 0.000000 0.000498 0.000000
# 3 -0.010123 -0.005007 0.021804 0.000000 -0.008884 0.000000
# 4 0.000000 0.000000 0.000000 0.060349 0.000000 -0.023645
# 5 0.003722 0.000498 -0.008884 0.000000 0.028850 0.000000
# 6 0.000000 0.000000 0.000000 -0.023645 0.000000 0.044399
#
#
# Mechanical properties :
#
#
# Convention : Reuss Voigt Hill
#
# Bulk Modulus (GPa) = 35.50099 65.20279 50.35189
# Shear Modulus (GPa) = 19.97369 27.98864 23.98116
#
# Velocity S-wave (km/s) = 3.21580 3.80671 3.52366
# Velocity P-wave (km/s) = 5.67177 7.28561 6.52875
#
# Compressibility (1/GPa) = 0.02816823
#
# Stress axis : x y z
#
# Youngs Moduli (GPa) = 80.02094 29.89189 45.86210
#
# Poissons Ratio (x) = 0.13940 0.46427
# Poissons Ratio (y) = 0.37319 0.22962
# Poissons Ratio (z) = 0.81006 0.14966
#
# Static dielectric constant tensor:
#      x y z
#    x 3.680030 0.000000 0.015200 
#    y 0.000000 3.196760 0.000000 
#    z 0.015200 0.000000 3.724460 
# 
# 
# High freq. dielectric constant tensor:
#      x y z
#    x 1.761910 0.000000 0.007680 
#    y 0.000000 1.719360 0.000000 
#    z 0.007680 0.000000 1.760150 
# 
# From -- ./inp_files/21367.got.cif
#   From: 2010.03.12/outbox.cif.g09.slc.cpg/sg8_11_cif.got.tgz:21367.got - 2010.03.31 10:45:26.
