data_PCOD8052519
_publ_section_title
;
Structure prediction by ZEFSAII (Michael W. Deem and Ramdas Pophale) SiO2 
 PCOD8052519
Probable space group: P M
;
_chemical_formula_sum "Si O2"
_cell_formula_units_Z 16
_cell_length_a 9.456914
_cell_length_b 9.072704
_cell_length_c 11.877270
_cell_angle_alpha 90.000000
_cell_angle_beta 127.649027
_cell_angle_gamma 90.000000
_cell_volume 806.864024
_symmetry_space_group_name_H-M "P M"
_symmetry_group_IT_number 6
_symmetry_cell_setting 'monoclinic'
loop_
_space_group_symop_operation_xyz
x,y,z
x,-y,z
loop_
_atom_site_type_symbol
_atom_site_label
_atom_site_fract_x
_atom_site_fract_y
_atom_site_fract_z
Si Si1 0.595100 0.164336 0.607210
Si Si2 0.192042 0.832408 0.420347
Si Si3 0.360381 0.174180 0.899391
Si Si4 0.114650 0.328028 0.607924
Si Si5 0.689842 0.827830 0.902129
Si Si6 0.710791 0.330881 0.456597
Si Si7 0.381552 0.326498 0.148705
Si Si8 0.045066 0.672491 0.141696
O O1 0.390843 0.171828 0.467326
O O2 0.608908 0.217439 0.742396
O O3 0.712500 0.261537 0.581232
O O4 0.671014 0.000000 0.634392
O O5 0.199124 0.747364 0.540834
O O6 0.062770 0.753207 0.269779
O O7 0.126902 0.000000 0.408235
O O8 0.193889 0.252276 0.757633
O O9 0.544505 0.213659 0.925677
O O10 0.326075 0.000000 0.882961
O O11 0.370422 0.233860 0.029993
O O12 0.163282 0.500000 0.634059
O O13 0.902828 0.302606 0.495888
O O14 0.740132 0.000000 0.933478
O O15 0.864093 0.729010 0.998995
O O16 0.668072 0.500000 0.455802
O O17 0.557537 0.267890 0.299741
O O18 0.394196 0.500000 0.126797
O O19 0.208065 0.289984 0.138449
O O20 0.032817 0.500000 0.159984
#
# Coordination Sequence:
#
# PCOD8052519 Si02
#       8
#     2   2   2   2   2   2   2   2
#     4  10  21  40  65  90 120 157 204 255 307 361
#     4  11  22  41  66  92 123 158 204 259 306 362
#     4  11  24  43  64  89 124 166 207 252 308 366
#     4  11  24  41  64  94 125 162 205 253 308 365
#     4  10  23  43  62  90 125 160 205 256 306 364
#     4  10  23  42  63  90 124 159 203 253 305 364
#     4  10  23  43  62  88 126 163 203 253 304 366
#     4  11  24  41  64  93 123 163 207 251 308 366
#
# _framework density 19.829858000000002
#
# number of rings (size 3 to 8) (size 9 to 14) (size 15 to 20)
#    0.000    1.500    2.500    1.500    3.500    4.500 
#    0.000    0.000    0.000    0.000    0.000    0.000 
#    0.000    0.000    0.000    0.000    0.000    0.000 
#
# Total GULP energy -198466.706502 kJ/mol
# GULP energy per Si atom -12404.169156 kJ/mol
# Density = 1.978472 g / cm^3
# Si number density = 19.829858 Si / 1000 Ang^3
#
#
#
# Elastic Constant Matrix: (Units=GPa)
#
#
# Indices 1 2 3 4 5 6 
#
# 1 72.9798 53.8077 46.5037 0.0000 -5.2900 0.0000
# 2 53.8077 99.2801 58.9489 0.0000 -2.4407 0.0000
# 3 46.5037 58.9489 122.3705 0.0000 -1.9593 0.0000
# 4 0.0000 0.0000 0.0000 39.2800 0.0000 -5.3015
# 5 -5.2900 -2.4407 -1.9593 0.0000 37.9543 0.0000
# 6 0.0000 0.0000 0.0000 -5.3015 0.0000 34.9766
#
#
#
# Elastic Compliance Matrix: (Units=1/GPa)
#
#
# Indices 1 2 3 4 5 6 
#
# 1 0.024393 -0.010755 -0.004049 0.000000 0.002499 0.000000
# 2 -0.010755 0.018861 -0.005008 0.000000 -0.000545 0.000000
# 3 -0.004049 -0.005008 0.012119 0.000000 -0.000261 0.000000
# 4 0.000000 0.000000 0.000000 0.025990 0.000000 0.003939
# 5 0.002499 -0.000545 -0.000261 0.000000 0.026647 0.000000
# 6 0.000000 0.000000 0.000000 0.003939 0.000000 0.029188
#
#
# Mechanical properties :
#
#
# Convention : Reuss Voigt Hill
#
# Bulk Modulus (GPa) = 63.49138 68.12790 65.80964
# Shear Modulus (GPa) = 27.46170 31.46687 29.46428
#
# Velocity S-wave (km/s) = 3.72542 3.98784 3.85886
# Velocity P-wave (km/s) = 7.11284 7.45886 7.28791
#
# Compressibility (1/GPa) = 0.01575017
#
# Stress axis : x y z
#
# Youngs Moduli (GPa) = 40.99478 53.01825 82.51672
#
# Poissons Ratio (x) = 0.57021 0.33412
# Poissons Ratio (y) = 0.44090 0.41321
# Poissons Ratio (z) = 0.16599 0.26549
#
# Static dielectric constant tensor:
#      x y z
#    x 3.519800 0.000000 0.055260 
#    y 0.000000 3.671520 0.000000 
#    z 0.055260 0.000000 3.708350 
# 
# 
# High freq. dielectric constant tensor:
#      x y z
#    x 1.775160 0.000000 -0.000950 
#    y 0.000000 1.775890 0.000000 
#    z -0.000950 0.000000 1.784180 
# 
# From -- ./inp_files/2719.got.cif
#   From: 2010.03.12/outbox.cif.g09.slc.cpg/sg6_2_cif.got.tgz:2719.got - 2010.03.30 10:24:59.
