data_PCOD8052268
_publ_section_title
;
Structure prediction by ZEFSAII (Michael W. Deem and Ramdas Pophale) SiO2 
 PCOD8052268
Probable space group: P M
;
_chemical_formula_sum "Si O2"
_cell_formula_units_Z 13
_cell_length_a 9.621553
_cell_length_b 7.570975
_cell_length_c 11.508177
_cell_angle_alpha 90.000000
_cell_angle_beta 119.122713
_cell_angle_gamma 90.000000
_cell_volume 732.328418
_symmetry_space_group_name_H-M "P M"
_symmetry_group_IT_number 6
_symmetry_cell_setting 'monoclinic'
loop_
_space_group_symop_operation_xyz
x,y,z
x,-y,z
loop_
_atom_site_type_symbol
_atom_site_label
_atom_site_fract_x
_atom_site_fract_y
_atom_site_fract_z
Si Si1 0.221501 0.000000 0.246341
Si Si2 0.881364 0.000000 0.042559
Si Si3 0.368676 0.707290 0.632795
Si Si4 0.016715 0.296357 0.523162
Si Si5 0.702632 0.299556 0.836609
Si Si6 0.430418 0.297299 0.398995
Si Si7 0.969607 0.000000 0.326979
Si Si8 0.766232 0.207668 0.604614
O O1 0.330815 0.173830 0.270148
O O2 0.148009 0.000000 0.347414
O O3 0.072779 0.000000 0.095964
O O4 0.811123 0.177160 0.959911
O O5 0.846712 0.000000 0.167752
O O6 0.390288 0.500000 0.637330
O O7 0.520722 0.777026 0.768210
O O8 0.380618 0.773509 0.505690
O O9 0.200225 0.763934 0.619531
O O10 0.009812 0.500000 0.478759
O O11 0.927423 0.269234 0.607916
O O12 0.939394 0.174716 0.391952
O O13 0.715335 0.500000 0.889176
O O14 0.760636 0.301013 0.726816
O O15 0.383949 0.500000 0.355503
O O16 0.619864 0.269626 0.463195
O O17 0.763559 0.000000 0.622373
#
# Coordination Sequence:
#
# PCOD8052268 Si02
#       8
#     1   1   2   2   2   2   1   2
#     4  10  20  32  51  78 103 135 181 219 256 305
#     4  10  22  35  53  79 105 141 188 220 257 295
#     4   8  16  29  51  77 102 132 169 211 264 314
#     4  11  20  34  54  82 113 138 168 215 273 330
#     4  10  20  36  55  79 107 139 179 221 262 312
#     4  10  18  32  52  78 106 136 170 217 269 318
#     4  10  22  33  50  81 106 138 181 213 263 306
#     4  11  20  33  56  83 113 138 167 221 278 323
#
# _framework density 17.751597
#
# number of rings (size 3 to 8) (size 9 to 14) (size 15 to 20)
#    0.462    1.538    3.846    2.308    0.000    1.846 
#    0.000    0.000    0.000    3.692    0.000    2.154 
#    0.000    0.000    0.000    0.000    0.000    0.000 
#
# Total GULP energy -161119.889718 kJ/mol
# GULP energy per Si atom -12393.837671 kJ/mol
# Density = 1.771119 g / cm^3
# Si number density = 17.751597 Si / 1000 Ang^3
#
#
#
# Elastic Constant Matrix: (Units=GPa)
#
#
# Indices 1 2 3 4 5 6 
#
# 1 109.9638 20.2658 38.2376 0.0000 14.6935 0.0000
# 2 20.2658 120.1720 47.5588 0.0000 15.6940 0.0000
# 3 38.2376 47.5588 102.0736 0.0000 23.1697 0.0000
# 4 0.0000 0.0000 0.0000 20.0376 0.0000 2.5153
# 5 14.6935 15.6940 23.1697 0.0000 24.7029 0.0000
# 6 0.0000 0.0000 0.0000 2.5153 0.0000 23.9744
#
#
#
# Elastic Compliance Matrix: (Units=1/GPa)
#
#
# Indices 1 2 3 4 5 6 
#
# 1 0.010664 -0.000103 -0.003204 0.000000 -0.003273 0.000000
# 2 -0.000103 0.010334 -0.004192 0.000000 -0.002572 0.000000
# 3 -0.003204 -0.004192 0.015136 0.000000 -0.009627 0.000000
# 4 0.000000 0.000000 0.000000 0.050572 0.000000 -0.005306
# 5 -0.003273 -0.002572 -0.009627 0.000000 0.053091 0.000000
# 6 0.000000 0.000000 0.000000 -0.005306 0.000000 0.042268
#
#
# Mechanical properties :
#
#
# Convention : Reuss Voigt Hill
#
# Bulk Modulus (GPa) = 47.31550 60.48154 53.89852
# Shear Modulus (GPa) = 24.49674 28.81947 26.65811
#
# Velocity S-wave (km/s) = 3.71883 4.03362 3.87942
# Velocity P-wave (km/s) = 6.71950 7.47252 7.10599
#
# Compressibility (1/GPa) = 0.02113472
#
# Stress axis : x y z
#
# Youngs Moduli (GPa) = 93.77053 96.76965 66.06875
#
# Poissons Ratio (x) = 0.00997 0.21169
# Poissons Ratio (y) = 0.00966 0.27699
# Poissons Ratio (z) = 0.30045 0.40570
#
# Static dielectric constant tensor:
#      x y z
#    x 3.328390 0.000000 0.255860 
#    y 0.000000 3.328760 0.000000 
#    z 0.255860 0.000000 2.966770 
# 
# 
# High freq. dielectric constant tensor:
#      x y z
#    x 1.677800 0.000000 0.025080 
#    y 0.000000 1.703200 0.000000 
#    z 0.025080 0.000000 1.642320 
# 
# From -- ./inp_files/3439.got.cif
#   From: 2010.03.12/outbox.cif.g09.slc.cpg/sg6_2_cif.got.tgz:3439.got - 2010.03.30 10:24:59.
