data_PCOD8052247
_publ_section_title
;
Structure prediction by ZEFSAII (Michael W. Deem and Ramdas Pophale) SiO2 
 PCOD8052247
Probable space group: P M
;
_chemical_formula_sum "Si O2"
_cell_formula_units_Z 16
_cell_length_a 9.563812
_cell_length_b 9.020643
_cell_length_c 11.464281
_cell_angle_alpha 90.000000
_cell_angle_beta 108.145105
_cell_angle_gamma 90.000000
_cell_volume 939.859124
_symmetry_space_group_name_H-M "P M"
_symmetry_group_IT_number 6
_symmetry_cell_setting 'monoclinic'
loop_
_space_group_symop_operation_xyz
x,y,z
x,-y,z
loop_
_atom_site_type_symbol
_atom_site_label
_atom_site_fract_x
_atom_site_fract_y
_atom_site_fract_z
Si Si1 0.282830 0.327642 0.914750
Si Si2 0.725843 0.170858 0.792250
Si Si3 0.582716 0.826811 0.993642
Si Si4 0.923731 0.174923 0.430445
Si Si5 0.103563 0.664396 0.648767
Si Si6 0.855439 0.670803 0.176913
Si Si7 0.779382 0.336062 0.587665
Si Si8 0.990843 0.331906 0.969306
O O1 0.328034 0.500000 0.923096
O O2 0.224257 0.277302 0.771638
O O3 0.159462 0.298556 0.980566
O O4 0.420771 0.227607 0.984978
O O5 0.681655 0.259415 0.663138
O O6 0.886764 0.215666 0.877960
O O7 0.729726 0.000000 0.759272
O O8 0.607994 0.205670 0.862775
O O9 0.697837 0.737033 0.101136
O O10 0.600331 0.000000 0.026406
O O11 0.922622 0.238997 0.301206
O O12 0.784784 0.241006 0.468551
O O13 0.078533 0.224803 0.532468
O O14 0.912252 0.000000 0.424142
O O15 0.145779 0.500000 0.613097
O O16 0.948097 0.653253 0.678686
O O17 0.832862 0.500000 0.206600
O O18 0.972761 0.688379 0.103394
O O19 0.715070 0.500000 0.545205
O O20 0.946039 0.500000 0.922014
#
# Coordination Sequence:
#
# PCOD8052247 Si02
#       8
#     2   2   2   2   2   2   2   2
#     4  10  18  32  51  74 100 129 162 200 247 296
#     4  10  18  29  46  71 100 127 160 201 247 291
#     4  10  22  34  46  71 106 136 162 199 245 295
#     4  10  18  29  48  74 101 127 160 203 248 289
#     4   8  16  29  48  73  98 123 158 202 239 285
#     4  10  19  33  52  73  97 131 169 205 243 286
#     4   9  16  28  47  71  96 122 156 199 239 282
#     4   9  17  30  50  71  94 125 165 207 242 284
#
# _framework density 17.023827000000001
#
# number of rings (size 3 to 8) (size 9 to 14) (size 15 to 20)
#    0.750    1.750    1.250    2.250    0.000    3.000 
#    0.000    0.000    0.000    1.500    0.000    5.250 
#    0.000    0.000    0.000    0.000    0.000    0.000 
#
# Total GULP energy -198289.737972 kJ/mol
# GULP energy per Si atom -12393.108623 kJ/mol
# Density = 1.698508 g / cm^3
# Si number density = 17.023827 Si / 1000 Ang^3
#
#
#
# Elastic Constant Matrix: (Units=GPa)
#
#
# Indices 1 2 3 4 5 6 
#
# 1 71.4136 32.6889 28.1807 0.0000 -1.9849 0.0000
# 2 32.6889 116.8299 51.8496 0.0000 -5.5598 0.0000
# 3 28.1807 51.8496 91.7261 0.0000 -6.4523 0.0000
# 4 0.0000 0.0000 0.0000 29.7086 0.0000 -3.8281
# 5 -1.9849 -5.5598 -6.4523 0.0000 17.0369 0.0000
# 6 0.0000 0.0000 0.0000 -3.8281 0.0000 18.5112
#
#
#
# Elastic Compliance Matrix: (Units=1/GPa)
#
#
# Indices 1 2 3 4 5 6 
#
# 1 0.016796 -0.003224 -0.003364 0.000000 -0.000369 0.000000
# 2 -0.003224 0.012074 -0.005736 0.000000 0.001392 0.000000
# 3 -0.003364 -0.005736 0.015430 0.000000 0.003580 0.000000
# 4 0.000000 0.000000 0.000000 0.034582 0.000000 0.007152
# 5 -0.000369 0.001392 0.003580 0.000000 0.060463 0.000000
# 6 0.000000 0.000000 0.000000 0.007152 0.000000 0.055500
#
#
# Mechanical properties :
#
#
# Convention : Reuss Voigt Hill
#
# Bulk Modulus (GPa) = 50.88804 56.15643 53.52224
# Shear Modulus (GPa) = 22.11969 24.20138 23.16054
#
# Velocity S-wave (km/s) = 3.60854 3.77453 3.69247
# Velocity P-wave (km/s) = 6.87890 7.21489 7.04890
#
# Compressibility (1/GPa) = 0.01965098
#
# Stress axis : x y z
#
# Youngs Moduli (GPa) = 59.53853 82.82498 64.80988
#
# Poissons Ratio (x) = 0.26705 0.21799
# Poissons Ratio (y) = 0.19197 0.37177
# Poissons Ratio (z) = 0.20026 0.47511
#
# Static dielectric constant tensor:
#      x y z
#    x 2.865920 0.000000 -0.183740 
#    y 0.000000 3.209530 0.000000 
#    z -0.183740 0.000000 3.046400 
# 
# 
# High freq. dielectric constant tensor:
#      x y z
#    x 1.616270 0.000000 -0.017610 
#    y 0.000000 1.666440 0.000000 
#    z -0.017610 0.000000 1.644890 
# 
# From -- ./inp_files/4549.got.cif
#   From: 2010.03.12/outbox.cif.g09.slc.cpg/sg6_3_cif.got.tgz:4549.got - 2010.03.30 10:24:59.
