data_PCOD8052479
_publ_section_title
;
Structure prediction by ZEFSAII (Michael W. Deem and Ramdas Pophale) SiO2 
 PCOD8052479
Probable space group: P M
;
_chemical_formula_sum "Si O2"
_cell_formula_units_Z 16
_cell_length_a 9.582701
_cell_length_b 8.765573
_cell_length_c 11.901421
_cell_angle_alpha 90.000000
_cell_angle_beta 52.677760
_cell_angle_gamma 90.000000
_cell_volume 794.994822
_symmetry_space_group_name_H-M "P M"
_symmetry_group_IT_number 6
_symmetry_cell_setting 'monoclinic'
loop_
_space_group_symop_operation_xyz
x,y,z
x,-y,z
loop_
_atom_site_type_symbol
_atom_site_label
_atom_site_fract_x
_atom_site_fract_y
_atom_site_fract_z
Si Si1 0.303640 0.678992 0.237860
Si Si2 0.022583 0.820015 0.532344
Si Si3 0.596501 0.177953 0.245463
Si Si4 0.302108 0.678892 0.978138
Si Si5 0.629935 0.825645 0.701155
Si Si6 0.467496 0.826375 0.550522
Si Si7 0.120523 0.322841 0.714401
Si Si8 0.987858 0.821376 0.991924
O O1 0.292881 0.500000 0.259724
O O2 0.129758 0.750647 0.376720
O O3 0.482210 0.735630 0.208679
O O4 0.307287 0.725821 0.105903
O O5 0.111411 0.771045 0.604367
O O6 0.822800 0.760349 0.633374
O O7 0.028530 0.000000 0.515584
O O8 0.543718 0.231845 0.395552
O O9 0.561509 0.000000 0.244838
O O10 0.800884 0.218114 0.136553
O O11 0.271979 0.500000 0.975881
O O12 0.487596 0.724161 0.834071
O O13 0.141421 0.765486 0.998455
O O14 0.615213 0.815911 0.573584
O O15 0.608341 0.000000 0.753219
O O16 0.314161 0.713196 0.666923
O O17 0.396767 0.000000 0.575231
O O18 0.090240 0.500000 0.706001
O O19 0.984777 0.264012 0.873597
O O20 0.014168 0.000000 0.957927
#
# Coordination Sequence:
#
# PCOD8052479 Si02
#       8
#     2   2   2   2   2   2   2   2
#     4  11  25  43  62  91 130 168 207 256 316 378
#     4  11  24  42  66  95 124 164 214 262 310 372
#     4  10  23  41  66  94 123 162 212 261 310 369
#     4  11  25  43  62  91 130 168 207 256 316 378
#     4  10  23  41  66  94 123 162 212 261 310 369
#     4  10  20  40  66  93 122 157 206 267 312 366
#     4  12  24  40  64  93 126 167 206 257 320 374
#     4  11  24  42  66  95 124 164 214 262 310 372
#
# _framework density 20.125917999999999
#
# number of rings (size 3 to 8) (size 9 to 14) (size 15 to 20)
#    0.000    1.250    2.500    2.625    3.500    4.000 
#    0.000    0.000    0.000    0.000    0.000    0.000 
#    0.000    0.000    0.000    0.000    0.000    0.000 
#
# Total GULP energy -198465.806822 kJ/mol
# GULP energy per Si atom -12404.112926 kJ/mol
# Density = 2.008011 g / cm^3
# Si number density = 20.125918 Si / 1000 Ang^3
#
#
#
# Elastic Constant Matrix: (Units=GPa)
#
#
# Indices 1 2 3 4 5 6 
#
# 1 87.5060 34.9990 51.1802 0.0000 -8.6732 0.0000
# 2 34.9990 66.7077 44.6189 0.0000 -1.6867 0.0000
# 3 51.1802 44.6189 128.8650 0.0000 -0.5865 0.0000
# 4 0.0000 0.0000 0.0000 28.6410 0.0000 8.5679
# 5 -8.6732 -1.6867 -0.5865 0.0000 39.9956 0.0000
# 6 0.0000 0.0000 0.0000 8.5679 0.0000 13.9293
#
#
#
# Elastic Compliance Matrix: (Units=1/GPa)
#
#
# Indices 1 2 3 4 5 6 
#
# 1 0.016729 -0.005543 -0.004710 0.000000 0.003325 0.000000
# 2 -0.005543 0.021366 -0.005198 0.000000 -0.000377 0.000000
# 3 -0.004710 -0.005198 0.011426 0.000000 -0.001073 0.000000
# 4 0.000000 0.000000 0.000000 0.042788 0.000000 -0.026319
# 5 0.003325 -0.000377 -0.001073 0.000000 0.025692 0.000000
# 6 0.000000 0.000000 0.000000 -0.026319 0.000000 0.087980
#
#
# Mechanical properties :
#
#
# Convention : Reuss Voigt Hill
#
# Bulk Modulus (GPa) = 53.70822 60.51944 57.11383
# Shear Modulus (GPa) = 20.56858 26.66522 23.61690
#
# Velocity S-wave (km/s) = 3.20033 3.64389 3.42929
# Velocity P-wave (km/s) = 6.35612 6.91662 6.64228
#
# Compressibility (1/GPa) = 0.01861912
#
# Stress axis : x y z
#
# Youngs Moduli (GPa) = 59.77707 46.80271 87.52253
#
# Poissons Ratio (x) = 0.25941 0.41221
# Poissons Ratio (y) = 0.33132 0.45497
# Poissons Ratio (z) = 0.28154 0.24330
#
# Static dielectric constant tensor:
#      x y z
#    x 3.700020 0.000000 0.014670 
#    y 0.000000 3.617230 0.000000 
#    z 0.014670 0.000000 3.808370 
# 
# 
# High freq. dielectric constant tensor:
#      x y z
#    x 1.793870 0.000000 0.002780 
#    y 0.000000 1.784660 0.000000 
#    z 0.002780 0.000000 1.798480 
# 
# From -- ./inp_files/3798.got.cif
#   From: 2010.03.12/outbox.cif.g09.slc.cpg/sg6_2_cif.got.tgz:3798.got - 2010.03.30 10:24:59.
