data_PCOD8052153
_publ_section_title
;
Structure prediction by ZEFSAII (Michael W. Deem and Ramdas Pophale) SiO2 
 PCOD8052153
Probable space group: C 2
;
_chemical_formula_sum "Si O2"
_cell_formula_units_Z 18
_cell_length_a 12.179025
_cell_length_b 7.688167
_cell_length_c 9.008739
_cell_angle_alpha 90.000000
_cell_angle_beta 61.771849
_cell_angle_gamma 90.000000
_cell_volume 743.207913
_symmetry_space_group_name_H-M "C 2"
_symmetry_group_IT_number 5
_symmetry_cell_setting 'monoclinic'
loop_
_space_group_symop_operation_xyz
x,y,z
-x,y,-z
1/2+x,1/2+y,z
1/2-x,1/2+y,-z
loop_
_atom_site_type_symbol
_atom_site_label
_atom_site_fract_x
_atom_site_fract_y
_atom_site_fract_z
Si Si1 0.874297 0.274960 0.352650
Si Si2 0.684959 0.372042 0.075064
Si Si3 0.000000 0.079144 0.000000
Si Si4 0.365535 0.461075 0.578879
Si Si5 0.438800 0.011425 0.877668
O O1 0.730084 0.331836 0.440775
O O2 0.884586 0.144653 0.483126
O O3 0.927166 0.194409 0.166388
O O4 0.958311 0.450591 0.310584
O O5 0.607102 0.456548 0.994178
O O6 0.677407 0.495743 0.225534
O O7 0.630385 0.181449 0.140773
O O8 0.832753 0.359665 0.947690
O O9 0.500000 0.367117 0.500000
O O10 0.500000 0.045078 0.000000
#
# Coordination Sequence:
#
# PCOD8052153 Si02
#       5
#     4   4   2   4   4
#     4  12  27  50  76 110 158 195 260 308 385 451
#     4  12  26  48  82 113 155 197 258 316 385 446
#     4  12  24  52  80 116 146 208 262 314 366 476
#     4  12  28  49  71 113 157 197 246 317 386 451
#     4  12  25  49  83 114 146 206 260 318 372 460
#
# _framework density 24.219332999999999
#
# number of rings (size 3 to 8) (size 9 to 14) (size 15 to 20)
#    0.000    0.000    6.667    2.667    3.111    1.778 
#    4.000    0.000    0.000    0.000    0.000    0.000 
#    0.000    0.000    0.000    0.000    0.000    0.000 
#
# Total GULP energy -111574.248089 kJ/mol
# GULP energy per Si atom -12397.138677 kJ/mol
# Density = 2.416421 g / cm^3
# Si number density = 24.219333 Si / 1000 Ang^3
#
#
#
# Elastic Constant Matrix: (Units=GPa)
#
#
# Indices 1 2 3 4 5 6 
#
# 1 167.2501 56.5440 52.3899 0.0000 -30.3578 0.0000
# 2 56.5440 116.2038 41.7751 0.0000 -10.7825 0.0000
# 3 52.3899 41.7751 90.0874 0.0000 -8.4455 0.0000
# 4 0.0000 0.0000 0.0000 36.5492 0.0000 -1.4242
# 5 -30.3578 -10.7825 -8.4455 0.0000 49.9074 0.0000
# 6 0.0000 0.0000 0.0000 -1.4242 0.0000 39.6871
#
#
#
# Elastic Compliance Matrix: (Units=1/GPa)
#
#
# Indices 1 2 3 4 5 6 
#
# 1 0.008695 -0.002602 -0.003462 0.000000 0.004141 0.000000
# 2 -0.002602 0.011209 -0.003664 0.000000 0.000219 0.000000
# 3 -0.003462 -0.003664 0.014775 0.000000 -0.000397 0.000000
# 4 0.000000 0.000000 0.000000 0.027399 0.000000 0.000983
# 5 0.004141 0.000219 -0.000397 0.000000 0.022536 0.000000
# 6 0.000000 0.000000 0.000000 0.000983 0.000000 0.025232
#
#
# Mechanical properties :
#
#
# Convention : Reuss Voigt Hill
#
# Bulk Modulus (GPa) = 65.68723 74.99549 70.34136
# Shear Modulus (GPa) = 37.20883 40.08423 38.64653
#
# Velocity S-wave (km/s) = 3.92385 4.07265 3.99894
# Velocity P-wave (km/s) = 6.90721 7.29024 7.10131
#
# Compressibility (1/GPa) = 0.01522366
#
# Stress axis : x y z
#
# Youngs Moduli (GPa) = 115.01237 89.21131 67.68053
#
# Poissons Ratio (x) = 0.23214 0.23428
# Poissons Ratio (y) = 0.29928 0.24799
# Poissons Ratio (z) = 0.39812 0.32689
#
# Static dielectric constant tensor:
#      x y z
#    x 4.856060 0.000000 -0.412340 
#    y 0.000000 4.388750 0.000000 
#    z -0.412340 0.000000 4.634360 
# 
# 
# High freq. dielectric constant tensor:
#      x y z
#    x 1.993140 0.000000 -0.017330 
#    y 0.000000 1.958310 0.000000 
#    z -0.017330 0.000000 1.946990 
# 
# From -- ./inp_files/18213.got.cif
#   From: 2010.03.12/outbox.cif.g09.slc.cpg/sg5_10_cif.got.tgz:18213.got - 2010.03.31 09:47:26.
