data_PCOD8052503
_publ_section_title
;
Structure prediction by ZEFSAII (Michael W. Deem and Ramdas Pophale) SiO2 
 PCOD8052503
Probable space group: P M
;
_chemical_formula_sum "Si O2"
_cell_formula_units_Z 16
_cell_length_a 11.049703
_cell_length_b 8.556420
_cell_length_c 9.194547
_cell_angle_alpha 90.000000
_cell_angle_beta 65.296383
_cell_angle_gamma 90.000000
_cell_volume 789.749330
_symmetry_space_group_name_H-M "P M"
_symmetry_group_IT_number 6
_symmetry_cell_setting 'monoclinic'
loop_
_space_group_symop_operation_xyz
x,y,z
x,-y,z
loop_
_atom_site_type_symbol
_atom_site_label
_atom_site_fract_x
_atom_site_fract_y
_atom_site_fract_z
Si Si1 0.359360 0.679433 0.314250
Si Si2 0.828488 0.320000 0.095420
Si Si3 0.056643 0.681360 0.481926
Si Si4 0.595778 0.179903 0.032214
Si Si5 0.053220 0.819315 0.791875
Si Si6 0.573558 0.817776 0.707648
Si Si7 0.335980 0.679925 0.656096
Si Si8 0.834049 0.818332 0.403679
O O1 0.389228 0.500000 0.259161
O O2 0.206379 0.723237 0.357581
O O3 0.449720 0.790799 0.170830
O O4 0.392414 0.712580 0.466555
O O5 0.828412 0.500000 0.142629
O O6 0.703029 0.288789 0.055514
O O7 0.814563 0.213557 0.244205
O O8 0.964429 0.282088 0.944655
O O9 0.048112 0.500000 0.528217
O O10 0.015765 0.778708 0.644767
O O11 0.960073 0.721682 0.398009
O O12 0.635607 0.000000 0.035071
O O13 0.596221 0.224234 0.863329
O O14 0.206657 0.784662 0.750312
O O15 0.021759 0.000000 0.834695
O O16 0.447390 0.720525 0.717010
O O17 0.702849 0.762388 0.554499
O O18 0.544450 0.000000 0.697393
O O19 0.292838 0.500000 0.692381
O O20 0.861178 0.000000 0.417218
#
# Coordination Sequence:
#
# PCOD8052503 Si02
#       8
#     2   2   2   2   2   2   2   2
#     4   9  20  38  59  86 119 155 194 237 287 345
#     4  12  25  41  61  86 118 154 196 246 300 355
#     4  10  21  39  62  89 122 158 198 242 292 348
#     4  11  23  39  60  87 118 153 196 243 293 351
#     4  11  22  39  63  89 119 155 197 242 293 353
#     4  10  23  40  58  84 118 155 195 241 292 349
#     4  10  21  38  61  88 118 153 195 241 292 349
#     4  11  23  40  62  87 118 157 201 246 295 350
#
# _framework density 20.259594
#
# number of rings (size 3 to 8) (size 9 to 14) (size 15 to 20)
#    0.000    1.500    0.000    6.000    0.000    9.000 
#    0.000    2.500    0.000    0.000    0.000    0.000 
#    0.000    0.000    0.000    0.000    0.000    0.000 
#
# Total GULP energy -198524.230545 kJ/mol
# GULP energy per Si atom -12407.764409 kJ/mol
# Density = 2.021348 g / cm^3
# Si number density = 20.259594 Si / 1000 Ang^3
#
#
#
# Elastic Constant Matrix: (Units=GPa)
#
#
# Indices 1 2 3 4 5 6 
#
# 1 112.8460 25.1769 46.6228 0.0000 8.0253 0.0000
# 2 25.1769 57.8612 16.6043 0.0000 -2.6493 0.0000
# 3 46.6228 16.6043 118.7094 0.0000 -6.0215 0.0000
# 4 0.0000 0.0000 0.0000 31.6596 0.0000 -0.2065
# 5 8.0253 -2.6493 -6.0215 0.0000 27.8155 0.0000
# 6 0.0000 0.0000 0.0000 -0.2065 0.0000 36.3841
#
#
#
# Elastic Compliance Matrix: (Units=1/GPa)
#
#
# Indices 1 2 3 4 5 6 
#
# 1 0.011924 -0.004161 -0.004344 0.000000 -0.004777 0.000000
# 2 -0.004161 0.019496 -0.000948 0.000000 0.002852 0.000000
# 3 -0.004344 -0.000948 0.010436 0.000000 0.003422 0.000000
# 4 0.000000 0.000000 0.000000 0.031587 0.000000 0.000179
# 5 -0.004777 0.002852 0.003422 0.000000 0.038342 0.000000
# 6 0.000000 0.000000 0.000000 0.000179 0.000000 0.027486
#
#
# Mechanical properties :
#
#
# Convention : Reuss Voigt Hill
#
# Bulk Modulus (GPa) = 43.57068 51.80272 47.68670
# Shear Modulus (GPa) = 30.15208 32.57269 31.36239
#
# Velocity S-wave (km/s) = 3.86202 4.01405 3.93877
# Velocity P-wave (km/s) = 6.43737 6.86356 6.65388
#
# Compressibility (1/GPa) = 0.02295121
#
# Stress axis : x y z
#
# Youngs Moduli (GPa) = 83.86298 51.29288 95.82172
#
# Poissons Ratio (x) = 0.21342 0.41620
# Poissons Ratio (y) = 0.34894 0.09085
# Poissons Ratio (z) = 0.36426 0.04863
#
# Static dielectric constant tensor:
#      x y z
#    x 3.633570 0.000000 -0.054590 
#    y 0.000000 3.592910 0.000000 
#    z -0.054590 0.000000 3.660660 
# 
# 
# High freq. dielectric constant tensor:
#      x y z
#    x 1.799490 0.000000 -0.004030 
#    y 0.000000 1.796010 0.000000 
#    z -0.004030 0.000000 1.793680 
# 
# From -- ./inp_files/3743.got.cif
#   From: 2010.03.12/outbox.cif.g09.slc.cpg/sg6_2_cif.got.tgz:3743.got - 2010.03.30 10:24:59.
