data_PCOD8052686
_publ_section_title
;
Structure prediction by ZEFSAII (Michael W. Deem and Ramdas Pophale) SiO2 
 PCOD8052686
Probable space group: P C
;
_chemical_formula_sum "Si O2"
_cell_formula_units_Z 10
_cell_length_a 5.241810
_cell_length_b 17.693262
_cell_length_c 4.755005
_cell_angle_alpha 90.000000
_cell_angle_beta 122.784946
_cell_angle_gamma 90.000000
_cell_volume 370.753969
_symmetry_space_group_name_H-M "P C"
_symmetry_group_IT_number 7
_symmetry_cell_setting 'monoclinic'
loop_
_space_group_symop_operation_xyz
x,y,z
x,-y,1/2+z
loop_
_atom_site_type_symbol
_atom_site_label
_atom_site_fract_x
_atom_site_fract_y
_atom_site_fract_z
Si Si1 0.300490 0.751133 0.446390
Si Si2 0.253612 0.147920 0.411298
Si Si3 0.799067 0.950049 0.322430
Si Si4 0.786501 0.346083 0.915059
Si Si5 0.264895 0.552288 0.966440
O O1 0.422112 0.793091 0.801420
O O2 0.596282 0.713370 0.485929
O O3 0.958557 0.598738 0.733081
O O4 0.034111 0.692586 0.361078
O O5 0.153078 0.190452 0.633704
O O6 0.448972 0.074996 0.617018
O O7 0.973309 0.121363 0.051281
O O8 0.867451 0.026546 0.541716
O O9 0.556292 0.394301 0.582930
O O10 0.271813 0.475103 0.792311
#
# Coordination Sequence:
#
# PCOD8052686 Si02
#       5
#     2   2   2   2   2
#     4  12  29  51  78 115 155 202 254 316 382 454
#     4  12  27  47  76 111 151 198 252 312 376 450
#     4  12  25  46  74 108 149 198 250 310 374 446
#     4  12  29  52  80 114 155 202 254 316 382 454
#     4  12  28  50  78 112 152 200 254 314 378 452
#
# _framework density 26.972069000000001
#
# number of rings (size 3 to 8) (size 9 to 14) (size 15 to 20)
#    0.000    0.000    0.000    8.400    0.000   19.200 
#    0.000    0.000    0.000    0.000    0.000    0.000 
#    0.000    0.000    0.000    0.000    0.000    0.000 
#
# Total GULP energy -124041.918951 kJ/mol
# GULP energy per Si atom -12404.191895 kJ/mol
# Density = 2.691068 g / cm^3
# Si number density = 26.972069 Si / 1000 Ang^3
#
#
#
# Elastic Constant Matrix: (Units=GPa)
#
#
# Indices 1 2 3 4 5 6 
#
# 1 84.2015 6.0692 22.3667 0.0000 4.4599 0.0000
# 2 6.0692 67.3838 15.9590 0.0000 4.1960 0.0000
# 3 22.3667 15.9590 121.8039 0.0000 3.2597 0.0000
# 4 0.0000 0.0000 0.0000 0.4512 0.0000 11.2901
# 5 4.4599 4.1960 3.2597 0.0000 46.1822 0.0000
# 6 0.0000 0.0000 0.0000 11.2901 0.0000 19.3946
#
#
#
# Elastic Compliance Matrix: (Units=1/GPa)
#
#
# Indices 1 2 3 4 5 6 
#
# 1 0.012555 -0.000545 -0.002207 0.000000 -0.001007 0.000000
# 2 -0.000545 0.015412 -0.001887 0.000000 -0.001214 0.000000
# 3 -0.002207 -0.001887 0.008869 0.000000 -0.000241 0.000000
# 4 0.000000 0.000000 0.000000 -0.163369 0.000000 0.095102
# 5 -0.001007 -0.001214 -0.000241 0.000000 0.021878 0.000000
# 6 0.000000 0.000000 0.000000 0.095102 0.000000 -0.003801
#
#
# Mechanical properties :
#
#
# Convention : Reuss Voigt Hill
#
# Bulk Modulus (GPa) = 36.28747 40.24211 38.26479
# Shear Modulus (GPa) = -55.56056 28.47190 -13.54433
#
# Velocity S-wave (km/s) = -4.54357 3.25253 -2.24333
# Velocity P-wave (km/s) = 3.74732 5.39051 2.74000
#
# Compressibility (1/GPa) = 0.02755772
#
# Stress axis : x y z
#
# Youngs Moduli (GPa) = 79.64824 64.88481 112.75407
#
# Poissons Ratio (x) = 0.03539 0.24886
# Poissons Ratio (y) = 0.04344 0.21273
# Poissons Ratio (z) = 0.17579 0.12241
#
# Static dielectric constant tensor:
#      x y z
#    x 4.556490 0.000000 -0.017660 
#    y 0.000000 5.142650 0.000000 
#    z -0.017660 0.000000 5.037870 
# 
# 
# High freq. dielectric constant tensor:
#      x y z
#    x 2.073820 0.000000 -0.002320 
#    y 0.000000 2.101650 0.000000 
#    z -0.002320 0.000000 2.105570 
# 
# From -- ./inp_files/128.got.cif
#   From: 2010.03.12/outbox.cif.g09.slc.cpg/sg7_cif.got.tgz:128.got - 2010.03.30 08:40:41.
