data_PCOD8052700
_publ_section_title
;
Structure prediction by ZEFSAII (Michael W. Deem and Ramdas Pophale) SiO2 
 PCOD8052700
Probable space group: C M
;
_chemical_formula_sum "Si O2"
_cell_formula_units_Z 32
_cell_length_a 19.059047
_cell_length_b 8.731226
_cell_length_c 11.547609
_cell_angle_alpha 90.000000
_cell_angle_beta 65.293067
_cell_angle_gamma 90.000000
_cell_volume 1745.714210
_symmetry_space_group_name_H-M "C M"
_symmetry_group_IT_number 8
_symmetry_cell_setting 'monoclinic'
loop_
_space_group_symop_operation_xyz
x,y,z
x,-y,z
1/2+x,1/2+y,z
1/2+x,1/2-y,z
loop_
_atom_site_type_symbol
_atom_site_label
_atom_site_fract_x
_atom_site_fract_y
_atom_site_fract_z
Si Si1 0.351410 0.822590 0.844880
Si Si2 0.541657 0.820704 0.064282
Si Si3 0.999489 0.819862 0.852964
Si Si4 0.400973 0.328723 0.593253
Si Si5 0.691341 0.679543 0.073884
Si Si6 0.973722 0.820099 0.317526
Si Si7 0.073218 0.169938 0.571483
Si Si8 0.123576 0.321222 0.324773
O O1 0.414155 0.720674 0.867563
O O2 0.350289 0.784116 0.707740
O O3 0.371747 0.000000 0.847953
O O4 0.268476 0.779041 0.951870
O O5 0.619755 0.734010 0.045231
O O6 0.470231 0.769914 0.197766
O O7 0.555584 0.000000 0.066963
O O8 0.519023 0.779898 0.950313
O O9 0.064058 0.776508 0.711203
O O10 0.002007 0.000000 0.879373
O O11 0.366362 0.500000 0.625989
O O12 0.404357 0.275356 0.455162
O O13 0.488182 0.328495 0.577360
O O14 0.684174 0.500000 0.101862
O O15 0.695847 0.767855 0.195493
O O16 0.054419 0.777377 0.320237
O O17 0.971726 0.000000 0.293927
O O18 0.130325 0.279581 0.457073
O O19 0.108670 0.000000 0.541985
O O20 0.108316 0.500000 0.321211
#
# Coordination Sequence:
#
# PCOD8052700 Si02
#       8
#     4   4   4   4   4   4   4   4
#     4  10  20  32  50  75 100 128 163 203 241 282
#     4  11  21  32  50  75 100 127 163 205 243 282
#     4  10  20  34  52  72  99 133 162 194 242 295
#     4   8  15  27  45  68  94 125 158 195 239 285
#     4  10  20  34  50  70 100 134 164 196 241 292
#     4   9  16  28  45  66  94 126 159 195 239 287
#     4   8  15  28  45  66  92 124 158 192 236 288
#     4  10  17  25  43  70  95 121 157 202 243 277
#
# _framework density 18.330604999999998
#
# number of rings (size 3 to 8) (size 9 to 14) (size 15 to 20)
#    0.000    2.500    0.000    6.750    0.000    7.500 
#    0.000    0.000    0.000    1.500    0.000    8.750 
#    0.000    0.000    0.000    0.000    0.000    0.000 
#
# Total GULP energy -198256.656016 kJ/mol
# GULP energy per Si atom -12391.041001 kJ/mol
# Density = 1.828888 g / cm^3
# Si number density = 18.330605 Si / 1000 Ang^3
#
#
#
# Elastic Constant Matrix: (Units=GPa)
#
#
# Indices 1 2 3 4 5 6 
#
# 1 27.6584 11.8011 32.5933 0.0000 0.4954 0.0000
# 2 11.8011 54.7128 45.5006 0.0000 -1.4040 0.0000
# 3 32.5933 45.5006 171.3378 0.0000 3.6632 0.0000
# 4 0.0000 0.0000 0.0000 35.9923 0.0000 1.3252
# 5 0.4954 -1.4040 3.6632 0.0000 23.1817 0.0000
# 6 0.0000 0.0000 0.0000 1.3252 0.0000 17.3958
#
#
#
# Elastic Compliance Matrix: (Units=1/GPa)
#
#
# Indices 1 2 3 4 5 6 
#
# 1 0.047112 -0.003473 -0.008041 0.000000 0.000054 0.000000
# 2 -0.003473 0.023849 -0.005724 0.000000 0.002423 0.000000
# 3 -0.008041 -0.005724 0.008920 0.000000 -0.001584 0.000000
# 4 0.000000 0.000000 0.000000 0.027862 0.000000 -0.002123
# 5 0.000054 0.002423 -0.001584 0.000000 0.043533 0.000000
# 6 0.000000 0.000000 0.000000 -0.002123 0.000000 0.057647
#
#
# Mechanical properties :
#
#
# Convention : Reuss Voigt Hill
#
# Bulk Modulus (GPa) = 22.02453 48.16655 35.09554
# Shear Modulus (GPa) = 19.33972 26.23490 22.78731
#
# Velocity S-wave (km/s) = 3.25168 3.78723 3.52963
# Velocity P-wave (km/s) = 5.11264 6.74224 5.98318
#
# Compressibility (1/GPa) = 0.04540392
#
# Stress axis : x y z
#
# Youngs Moduli (GPa) = 21.22608 41.93000 112.10658
#
# Poissons Ratio (x) = 0.14564 0.90142
# Poissons Ratio (y) = 0.07373 0.64175
# Poissons Ratio (z) = 0.17067 0.24003
#
# Static dielectric constant tensor:
#      x y z
#    x 2.729390 0.000000 0.115920 
#    y 0.000000 3.391800 0.000000 
#    z 0.115920 0.000000 4.462780 
# 
# 
# High freq. dielectric constant tensor:
#      x y z
#    x 1.631630 0.000000 0.006180 
#    y 0.000000 1.718540 0.000000 
#    z 0.006180 0.000000 1.743630 
# 
# From -- ./inp_files/23732.got.cif
#   From: 2010.03.12/outbox.cif.g09.slc.cpg/sg8_12_cif.got.tgz:23732.got - 2010.03.31 10:45:26.
