data_PCOD8052307
_publ_section_title
;
Structure prediction by ZEFSAII (Michael W. Deem and Ramdas Pophale) SiO2 
 PCOD8052307
Probable space group: P M
;
_chemical_formula_sum "Si O2"
_cell_formula_units_Z 16
_cell_length_a 9.358734
_cell_length_b 8.700052
_cell_length_c 11.307881
_cell_angle_alpha 90.000000
_cell_angle_beta 65.407972
_cell_angle_gamma 90.000000
_cell_volume 837.190934
_symmetry_space_group_name_H-M "P M"
_symmetry_group_IT_number 6
_symmetry_cell_setting 'monoclinic'
loop_
_space_group_symop_operation_xyz
x,y,z
x,-y,z
loop_
_atom_site_type_symbol
_atom_site_label
_atom_site_fract_x
_atom_site_fract_y
_atom_site_fract_z
Si Si1 0.533040 0.183395 0.948690
Si Si2 0.212826 0.183035 0.944247
Si Si3 0.984135 0.182964 0.422094
Si Si4 0.581465 0.817341 0.198999
Si Si5 0.287809 0.680521 0.422799
Si Si6 0.831021 0.179070 0.709881
Si Si7 0.162455 0.820544 0.697365
Si Si8 0.912010 0.182637 0.186710
O O1 0.369197 0.246534 0.953640
O O2 0.674709 0.253794 0.820295
O O3 0.538471 0.000000 0.944149
O O4 0.552446 0.241211 0.075891
O O5 0.212308 0.239277 0.809081
O O6 0.208416 0.000000 0.949624
O O7 0.061030 0.250324 0.064244
O O8 0.160078 0.243379 0.380347
O O9 0.870256 0.246614 0.565831
O O10 0.918206 0.242259 0.319796
O O11 0.994484 0.000000 0.423952
O O12 0.458593 0.739223 0.328365
O O13 0.753200 0.759552 0.179914
O O14 0.565718 0.000000 0.214511
O O15 0.276734 0.500000 0.412426
O O16 0.261347 0.726268 0.567941
O O17 0.976768 0.210359 0.746921
O O18 0.799624 0.000000 0.706602
O O19 0.200222 0.000000 0.666242
O O20 0.919370 0.000000 0.182495
#
# Coordination Sequence:
#
# PCOD8052307 Si02
#       8
#     2   2   2   2   2   2   2   2
#     4   9  16  26  46  77 107 130 159 205 254 297
#     4   9  16  26  45  75 105 130 162 207 253 296
#     4   9  17  32  54  78 105 134 167 206 248 298
#     4  10  19  32  52  76 103 135 170 208 251 299
#     4  11  22  35  51  72 101 135 172 212 255 302
#     4   8  14  25  43  69  98 127 157 195 244 293
#     4   9  17  31  51  72  97 130 168 208 251 300
#     4   9  17  29  50  81 108 131 165 209 252 295
#
# _framework density 19.111529999999998
#
# number of rings (size 3 to 8) (size 9 to 14) (size 15 to 20)
#    0.000    2.750    0.000    3.375    0.000    6.000 
#    0.000    4.375    0.000    9.750    0.000    0.000 
#    0.000    0.000    0.000    0.000    0.000    0.000 
#
# Total GULP energy -198374.625686 kJ/mol
# GULP energy per Si atom -12398.414105 kJ/mol
# Density = 1.906803 g / cm^3
# Si number density = 19.111530 Si / 1000 Ang^3
#
#
#
# Elastic Constant Matrix: (Units=GPa)
#
#
# Indices 1 2 3 4 5 6 
#
# 1 159.4970 14.7333 93.1820 0.0000 7.2435 0.0000
# 2 14.7333 22.9809 18.4014 0.0000 0.0811 0.0000
# 3 93.1820 18.4014 135.3731 0.0000 -2.4994 0.0000
# 4 0.0000 0.0000 0.0000 3.1411 0.0000 1.3094
# 5 7.2435 0.0811 -2.4994 0.0000 44.2058 0.0000
# 6 0.0000 0.0000 0.0000 1.3094 0.0000 3.7820
#
#
#
# Elastic Compliance Matrix: (Units=1/GPa)
#
#
# Indices 1 2 3 4 5 6 
#
# 1 0.010713 -0.001037 -0.007273 0.000000 -0.002165 0.000000
# 2 -0.001037 0.048939 -0.005943 0.000000 -0.000256 0.000000
# 3 -0.007273 -0.005943 0.013237 0.000000 0.001951 0.000000
# 4 0.000000 0.000000 0.000000 0.372058 0.000000 -0.128811
# 5 -0.002165 -0.000256 0.001951 0.000000 0.023087 0.000000
# 6 0.000000 0.000000 0.000000 -0.128811 0.000000 0.309007
#
#
# Mechanical properties :
#
#
# Convention : Reuss Voigt Hill
#
# Bulk Modulus (GPa) = 22.53135 63.38715 42.95925
# Shear Modulus (GPa) = 6.09502 22.99472 14.54487
#
# Velocity S-wave (km/s) = 1.78777 3.47246 2.76171
# Velocity P-wave (km/s) = 4.00955 7.02255 5.71807
#
# Compressibility (1/GPa) = 0.04438261
#
# Stress axis : x y z
#
# Youngs Moduli (GPa) = 93.34533 20.43360 75.54450
#
# Poissons Ratio (x) = 0.02118 0.54944
# Poissons Ratio (y) = 0.09678 0.44899
# Poissons Ratio (z) = 0.67891 0.12145
#
# Static dielectric constant tensor:
#      x y z
#    x 3.639120 0.000000 0.019440 
#    y 0.000000 2.826910 0.000000 
#    z 0.019440 0.000000 3.822080 
# 
# 
# High freq. dielectric constant tensor:
#      x y z
#    x 1.747770 0.000000 0.000830 
#    y 0.000000 1.675030 0.000000 
#    z 0.000830 0.000000 1.760720 
# 
# From -- ./inp_files/3497.got.cif
#   From: 2010.03.12/outbox.cif.g09.slc.cpg/sg6_2_cif.got.tgz:3497.got - 2010.03.30 10:24:59.
