data_PCOD8052729
_publ_section_title
;
Structure prediction by ZEFSAII (Michael W. Deem and Ramdas Pophale) SiO2 
 PCOD8052729
Probable space group: C M
;
_chemical_formula_sum "Si O2"
_cell_formula_units_Z 32
_cell_length_a 20.248833
_cell_length_b 9.233959
_cell_length_c 19.969781
_cell_angle_alpha 90.000000
_cell_angle_beta 149.898925
_cell_angle_gamma 90.000000
_cell_volume 1872.645342
_symmetry_space_group_name_H-M "C M"
_symmetry_group_IT_number 8
_symmetry_cell_setting 'monoclinic'
loop_
_space_group_symop_operation_xyz
x,y,z
x,-y,z
1/2+x,1/2+y,z
1/2+x,1/2-y,z
loop_
_atom_site_type_symbol
_atom_site_label
_atom_site_fract_x
_atom_site_fract_y
_atom_site_fract_z
Si Si1 0.212220 0.671985 0.132920
Si Si2 0.958513 0.168307 0.087907
Si Si3 0.254853 0.831837 0.392402
Si Si4 0.197186 0.827873 0.629787
Si Si5 0.665335 0.671991 0.454931
Si Si6 0.409878 0.671826 0.420969
Si Si7 0.384738 0.671891 0.166407
Si Si8 0.928476 0.327451 0.927507
O O1 0.210107 0.500000 0.132552
O O2 0.312188 0.728882 0.277332
O O3 0.261750 0.727572 0.103285
O O4 0.066274 0.732130 0.018600
O O5 0.873493 0.217081 0.078609
O O6 0.111763 0.200484 0.235713
O O7 0.936512 0.000000 0.052160
O O8 0.904982 0.263731 0.980303
O O9 0.257028 0.782990 0.472543
O O10 0.365669 0.739050 0.452603
O O11 0.290188 0.000000 0.416061
O O12 0.221332 0.770397 0.574983
O O13 0.313341 0.767733 0.778519
O O14 0.056657 0.772670 0.533609
O O15 0.199130 0.000000 0.631805
O O16 0.654538 0.500000 0.446923
O O17 0.518752 0.735969 0.315855
O O18 0.404654 0.500000 0.422426
O O19 0.393973 0.500000 0.178071
O O20 0.927555 0.500000 0.931889
#
# Coordination Sequence:
#
# PCOD8052729 Si02
#       8
#     4   4   4   4   4   4   4   4
#     4   9  15  25  44  69  90 111 149 194 222 249
#     4   9  17  29  46  68  94 124 150 179 227 276
#     4   9  17  28  46  71  95 117 147 190 230 265
#     4   9  17  29  46  68  93 121 152 186 226 268
#     4   8  13  25  44  66  90 116 148 186 227 265
#     4  10  17  28  48  70  91 118 152 188 225 266
#     4   8  13  24  44  68  89 112 150 192 223 259
#     4  10  19  30  46  70  96 119 148 189 228 264
#
# _framework density 17.088125999999999
#
# number of rings (size 3 to 8) (size 9 to 14) (size 15 to 20)
#    0.000    3.000    2.500    1.500    0.000    0.000 
#    0.000    1.875    0.000    6.000    0.000    0.000 
#    0.000    0.000    0.000    0.000    0.000    0.000 
#
# Total GULP energy -198291.316678 kJ/mol
# GULP energy per Si atom -12393.207292 kJ/mol
# Density = 1.704923 g / cm^3
# Si number density = 17.088126 Si / 1000 Ang^3
#
#
#
# Elastic Constant Matrix: (Units=GPa)
#
#
# Indices 1 2 3 4 5 6 
#
# 1 173.5341 24.8767 80.3777 0.0000 -11.9802 0.0000
# 2 24.8767 15.9786 18.8956 0.0000 -3.3301 0.0000
# 3 80.3777 18.8956 121.2508 0.0000 -7.3268 0.0000
# 4 0.0000 0.0000 0.0000 11.9449 0.0000 -3.1583
# 5 -11.9802 -3.3301 -7.3268 0.0000 27.5861 0.0000
# 6 0.0000 0.0000 0.0000 -3.1583 0.0000 24.8028
#
#
#
# Elastic Compliance Matrix: (Units=1/GPa)
#
#
# Indices 1 2 3 4 5 6 
#
# 1 0.009294 -0.008513 -0.004729 0.000000 0.001753 0.000000
# 2 -0.008513 0.085572 -0.007411 0.000000 0.004665 0.000000
# 3 -0.004729 -0.007411 0.012560 0.000000 0.000388 0.000000
# 4 0.000000 0.000000 0.000000 0.086635 0.000000 0.011032
# 5 0.001753 0.004665 0.000388 0.000000 0.037677 0.000000
# 6 0.000000 0.000000 0.000000 0.011032 0.000000 0.041723
#
#
# Mechanical properties :
#
#
# Convention : Reuss Voigt Hill
#
# Bulk Modulus (GPa) = 15.12334 62.11817 38.62076
# Shear Modulus (GPa) = 14.84536 25.30766 20.07651
#
# Velocity S-wave (km/s) = 2.95066 3.85256 3.43137
# Velocity P-wave (km/s) = 4.52526 7.49801 6.19266
#
# Compressibility (1/GPa) = 0.06612295
#
# Stress axis : x y z
#
# Youngs Moduli (GPa) = 107.59579 11.68606 79.61625
#
# Poissons Ratio (x) = 0.09948 0.37647
# Poissons Ratio (y) = 0.91592 0.59000
# Poissons Ratio (z) = 0.50877 0.08660
#
# Static dielectric constant tensor:
#      x y z
#    x 3.565950 0.000000 -0.049750 
#    y 0.000000 2.636850 0.000000 
#    z -0.049750 0.000000 3.193740 
# 
# 
# High freq. dielectric constant tensor:
#      x y z
#    x 1.679360 0.000000 -0.006070 
#    y 0.000000 1.600970 0.000000 
#    z -0.006070 0.000000 1.636480 
# 
# From -- ./inp_files/14834.got.cif
#   From: 2010.03.12/outbox.cif.g09.slc.cpg/sg8_8_cif.got.tgz:14834.got - 2010.03.31 10:45:26.
