data_PCOD8052662
_publ_section_title
;
Structure prediction by ZEFSAII (Michael W. Deem and Ramdas Pophale) SiO2 
 PCOD8052662
Probable space group: P C
;
_chemical_formula_sum "Si O2"
_cell_formula_units_Z 14
_cell_length_a 7.244397
_cell_length_b 16.212869
_cell_length_c 5.518546
_cell_angle_alpha 90.000000
_cell_angle_beta 59.081726
_cell_angle_gamma 90.000000
_cell_volume 556.062994
_symmetry_space_group_name_H-M "P C"
_symmetry_group_IT_number 7
_symmetry_cell_setting 'monoclinic'
loop_
_space_group_symop_operation_xyz
x,y,z
x,-y,1/2+z
loop_
_atom_site_type_symbol
_atom_site_label
_atom_site_fract_x
_atom_site_fract_y
_atom_site_fract_z
Si Si1 0.062420 0.823545 0.826520
Si Si2 0.475116 0.540387 0.215785
Si Si3 0.351031 0.272357 0.792256
Si Si4 0.948284 0.521149 0.305778
Si Si5 0.377388 0.948965 0.788511
Si Si6 0.683688 0.178270 0.270341
Si Si7 0.925035 0.706078 0.292788
O O1 0.258596 0.767431 0.599182
O O2 0.157192 0.895763 0.931675
O O3 0.907132 0.861044 0.722932
O O4 0.900007 0.762277 0.073830
O O5 0.377963 0.490842 0.519416
O O6 0.450018 0.637967 0.277823
O O7 0.732094 0.526234 0.029651
O O8 0.515953 0.203200 0.589722
O O9 0.166468 0.281574 0.719393
O O10 0.072825 0.522776 0.488639
O O11 0.885441 0.611506 0.260117
O O12 0.584945 0.889440 0.655314
O O13 0.383568 0.998742 0.532034
O O14 0.740891 0.264261 0.099990
#
# Coordination Sequence:
#
# PCOD8052662 Si02
#       7
#     2   2   2   2   2   2   2
#     4  11  28  48  79 115 154 201 263 313 389 473
#     4  10  23  39  65 101 145 200 258 316 378 431
#     4  11  25  47  74 108 153 208 261 322 380 464
#     4  10  23  41  64 101 147 196 254 319 375 431
#     4  12  29  53  81 117 160 195 251 322 394 481
#     4  11  26  49  80 112 149 207 255 311 393 469
#     4  11  26  45  77 108 152 203 264 321 375 465
#
# _framework density 25.177002999999999
#
# number of rings (size 3 to 8) (size 9 to 14) (size 15 to 20)
#    0.000    1.143    1.429    2.571   16.000    2.286 
#    0.000    0.000    0.000    0.000    0.000    0.000 
#    0.000    0.000    0.000    0.000    0.000    0.000 
#
# Total GULP energy -173566.680549 kJ/mol
# GULP energy per Si atom -12397.620039 kJ/mol
# Density = 2.511970 g / cm^3
# Si number density = 25.177003 Si / 1000 Ang^3
#
#
#
# Elastic Constant Matrix: (Units=GPa)
#
#
# Indices 1 2 3 4 5 6 
#
# 1 106.4446 63.4148 41.5809 0.0000 21.7495 0.0000
# 2 63.4148 134.7428 30.0148 0.0000 13.0277 0.0000
# 3 41.5809 30.0148 129.5217 0.0000 20.7368 0.0000
# 4 0.0000 0.0000 0.0000 37.7229 0.0000 11.6562
# 5 21.7495 13.0277 20.7368 0.0000 36.7369 0.0000
# 6 0.0000 0.0000 0.0000 11.6562 0.0000 37.9770
#
#
#
# Elastic Compliance Matrix: (Units=1/GPa)
#
#
# Indices 1 2 3 4 5 6 
#
# 1 0.015072 -0.006000 -0.002595 0.000000 -0.005331 0.000000
# 2 -0.006000 0.010340 -0.000496 0.000000 0.000166 0.000000
# 3 -0.002595 -0.000496 0.009229 0.000000 -0.003497 0.000000
# 4 0.000000 0.000000 0.000000 0.029287 0.000000 -0.008989
# 5 -0.005331 0.000166 -0.003497 0.000000 0.032292 0.000000
# 6 0.000000 0.000000 0.000000 -0.008989 0.000000 0.029091
#
#
# Mechanical properties :
#
#
# Convention : Reuss Voigt Hill
#
# Bulk Modulus (GPa) = 60.76020 71.19225 65.97622
# Shear Modulus (GPa) = 33.56205 38.20060 35.88132
#
# Velocity S-wave (km/s) = 3.65505 3.89946 3.77923
# Velocity P-wave (km/s) = 6.48059 6.97226 6.73092
#
# Compressibility (1/GPa) = 0.01645814
#
# Stress axis : x y z
#
# Youngs Moduli (GPa) = 66.34878 96.71252 108.35826
#
# Poissons Ratio (x) = 0.58027 0.28116
# Poissons Ratio (y) = 0.39809 0.05379
# Poissons Ratio (z) = 0.17216 0.04801
#
# Static dielectric constant tensor:
#      x y z
#    x 4.938030 0.000000 0.242250 
#    y 0.000000 4.498670 0.000000 
#    z 0.242250 0.000000 4.657230 
# 
# 
# High freq. dielectric constant tensor:
#      x y z
#    x 2.038090 0.000000 0.004720 
#    y 0.000000 1.990170 0.000000 
#    z 0.004720 0.000000 2.013300 
# 
# From -- ./inp_files/701.got.cif
#   From: 2010.03.12/outbox.cif.g09.slc.cpg/sg7_cif.got.tgz:701.got - 2010.03.30 08:40:41.
