data_PCOD8052608
_publ_section_title
;
Structure prediction by ZEFSAII (Michael W. Deem and Ramdas Pophale) SiO2 
 PCOD8052608
Probable space group: P C
;
_chemical_formula_sum "Si O2"
_cell_formula_units_Z 16
_cell_length_a 8.639101
_cell_length_b 17.379082
_cell_length_c 5.353409
_cell_angle_alpha 90.000000
_cell_angle_beta 57.998575
_cell_angle_gamma 90.000000
_cell_volume 681.615633
_symmetry_space_group_name_H-M "P C"
_symmetry_group_IT_number 7
_symmetry_cell_setting 'monoclinic'
loop_
_space_group_symop_operation_xyz
x,y,z
x,-y,1/2+z
loop_
_atom_site_type_symbol
_atom_site_label
_atom_site_fract_x
_atom_site_fract_y
_atom_site_fract_z
Si Si1 0.028050 0.045907 0.449110
Si Si2 0.916725 0.462983 0.789171
Si Si3 0.763950 0.177225 0.808571
Si Si4 0.648776 0.686403 0.055724
Si Si5 0.952717 0.696458 0.440042
Si Si6 0.517892 0.524329 0.222753
Si Si7 0.319594 0.768354 0.176921
Si Si8 0.365307 0.859044 0.651212
O O1 0.907317 0.123749 0.538958
O O2 0.974586 0.003409 0.751782
O O3 0.245715 0.062793 0.254552
O O4 0.005749 0.502813 0.467920
O O5 0.951822 0.370401 0.729918
O O6 0.700040 0.477860 0.982674
O O7 0.689846 0.248289 0.716952
O O8 0.580861 0.127287 0.031713
O O9 0.867353 0.219173 0.948412
O O10 0.833130 0.659475 0.763902
O O11 0.558010 0.612529 0.262027
O O12 0.505262 0.720850 0.978501
O O13 0.155030 0.709743 0.369349
O O14 0.409930 0.484039 0.547619
O O15 0.335928 0.823666 0.402384
O O16 0.277386 0.810072 0.951735
#
# Coordination Sequence:
#
# PCOD8052608 Si02
#       8
#     2   2   2   2   2   2   2   2
#     4  12  28  47  72 102 141 174 212 269 340 404
#     4  10  20  34  56  88 126 174 220 269 334 385
#     4  11  25  42  75 101 130 176 230 269 325 407
#     4  11  23  40  68  98 132 179 229 282 331 390
#     4  12  22  39  70  93 133 177 226 284 327 387
#     4  10  19  35  58  87 130 177 221 270 336 387
#     4  11  25  40  66 102 128 169 227 278 332 385
#     4  11  24  47  67  97 138 168 215 275 329 389
#
# _framework density 23.473638999999999
#
# number of rings (size 3 to 8) (size 9 to 14) (size 15 to 20)
#    0.000    1.000    5.000    3.000    1.750    1.000 
#    0.000    1.250    0.000    0.000    0.000    0.000 
#    0.000    0.000    0.000    0.000    0.000    0.000 
#
# Total GULP energy -198286.491446 kJ/mol
# GULP energy per Si atom -12392.905715 kJ/mol
# Density = 2.342021 g / cm^3
# Si number density = 23.473639 Si / 1000 Ang^3
#
#
#
# Elastic Constant Matrix: (Units=GPa)
#
#
# Indices 1 2 3 4 5 6 
#
# 1 48.3219 7.1522 42.0344 0.0000 9.1980 0.0000
# 2 7.1522 81.3389 27.5856 0.0000 7.3904 0.0000
# 3 42.0344 27.5856 100.3497 0.0000 19.1083 0.0000
# 4 0.0000 0.0000 0.0000 28.1487 0.0000 7.5334
# 5 9.1980 7.3904 19.1083 0.0000 46.0074 0.0000
# 6 0.0000 0.0000 0.0000 7.5334 0.0000 15.4634
#
#
#
# Elastic Compliance Matrix: (Units=1/GPa)
#
#
# Indices 1 2 3 4 5 6 
#
# 1 0.032883 0.001993 -0.014126 0.000000 -0.001027 0.000000
# 2 0.001993 0.013699 -0.004458 0.000000 -0.000747 0.000000
# 3 -0.014126 -0.004458 0.017845 0.000000 -0.003871 0.000000
# 4 0.000000 0.000000 0.000000 0.040852 0.000000 -0.019902
# 5 -0.001027 -0.000747 -0.003871 0.000000 0.023669 0.000000
# 6 0.000000 0.000000 0.000000 -0.019902 0.000000 0.074365
#
#
# Mechanical properties :
#
#
# Convention : Reuss Voigt Hill
#
# Bulk Modulus (GPa) = 32.00636 42.61722 37.31179
# Shear Modulus (GPa) = 20.25016 28.13976 24.19496
#
# Velocity S-wave (km/s) = 2.94032 3.46610 3.21398
# Velocity P-wave (km/s) = 5.01916 5.84921 5.45001
#
# Compressibility (1/GPa) = 0.03124379
#
# Stress axis : x y z
#
# Youngs Moduli (GPa) = 30.41040 72.99866 56.03776
#
# Poissons Ratio (x) = -0.14547 0.79161
# Poissons Ratio (y) = -0.06060 0.24983
# Poissons Ratio (z) = 0.42959 0.32544
#
# Static dielectric constant tensor:
#      x y z
#    x 4.501700 0.000000 0.160180 
#    y 0.000000 4.198780 0.000000 
#    z 0.160180 0.000000 4.318170 
# 
# 
# High freq. dielectric constant tensor:
#      x y z
#    x 1.931140 0.000000 0.010670 
#    y 0.000000 1.919890 0.000000 
#    z 0.010670 0.000000 1.919970 
# 
# From -- ./inp_files/754.got.cif
#   From: 2010.03.12/outbox.cif.g09.slc.cpg/sg7_cif.got.tgz:754.got - 2010.03.30 08:40:41.
