data_PCOD8052710
_publ_section_title
;
Structure prediction by ZEFSAII (Michael W. Deem and Ramdas Pophale) SiO2 
 PCOD8052710
Probable space group: C M
;
_chemical_formula_sum "Si O2"
_cell_formula_units_Z 32
_cell_length_a 19.226940
_cell_length_b 8.581019
_cell_length_c 17.933003
_cell_angle_alpha 90.000000
_cell_angle_beta 144.023020
_cell_angle_gamma 90.000000
_cell_volume 1738.122881
_symmetry_space_group_name_H-M "C M"
_symmetry_group_IT_number 8
_symmetry_cell_setting 'monoclinic'
loop_
_space_group_symop_operation_xyz
x,y,z
x,-y,z
1/2+x,1/2+y,z
1/2+x,1/2-y,z
loop_
_atom_site_type_symbol
_atom_site_label
_atom_site_fract_x
_atom_site_fract_y
_atom_site_fract_z
Si Si1 0.577230 0.182416 0.291800
Si Si2 0.774847 0.320721 0.539917
Si Si3 0.229847 0.818414 0.291363
Si Si4 0.389468 0.318310 0.033681
Si Si5 0.482934 0.820121 0.818851
Si Si6 0.543234 0.816219 0.036016
Si Si7 0.423821 0.679333 0.539757
Si Si8 0.135304 0.181768 0.821062
O O1 0.638395 0.258852 0.419245
O O2 0.660047 0.220958 0.293265
O O3 0.448810 0.255694 0.162143
O O4 0.562818 0.000000 0.291796
O O5 0.777886 0.500000 0.515839
O O6 0.845461 0.213483 0.543929
O O7 0.842026 0.301425 0.677358
O O8 0.370099 0.776662 0.422497
O O9 0.171844 0.763375 0.163097
O O10 0.209092 0.000000 0.284604
O O11 0.414499 0.500000 0.047870
O O12 0.444485 0.234060 0.009633
O O13 0.250922 0.286494 0.917178
O O14 0.563758 0.719489 0.834025
O O15 0.520957 0.000000 0.843041
O O16 0.500920 0.759666 0.918160
O O17 0.558474 0.000000 0.052577
O O18 0.414843 0.500000 0.510104
O O19 0.558094 0.723006 0.679715
O O20 0.168829 0.000000 0.850934
#
# Coordination Sequence:
#
# PCOD8052710 Si02
#       8
#     4   4   4   4   4   4   4   4
#     4  10  17  27  44  67  94 123 158 199 242 283
#     4   9  15  26  44  68  95 121 155 196 238 282
#     4  10  17  26  43  68  95 123 158 200 242 280
#     4  11  21  33  50  72  99 130 164 201 243 288
#     4   9  19  33  51  74 100 131 162 197 240 288
#     4  10  19  33  51  72 100 131 164 199 240 288
#     4   9  16  27  44  67  93 122 156 195 239 284
#     4  10  20  33  51  74 100 129 161 199 242 289
#
# _framework density 18.410668000000001
#
# number of rings (size 3 to 8) (size 9 to 14) (size 15 to 20)
#    0.000    2.250    0.000    7.875    0.000    3.000 
#    0.000    0.000    0.000    1.500    0.000    7.000 
#    0.000    0.000    0.000    0.000    0.000    0.000 
#
# Total GULP energy -198252.041074 kJ/mol
# GULP energy per Si atom -12390.752567 kJ/mol
# Density = 1.836876 g / cm^3
# Si number density = 18.410668 Si / 1000 Ang^3
#
#
#
# Elastic Constant Matrix: (Units=GPa)
#
#
# Indices 1 2 3 4 5 6 
#
# 1 30.7388 13.0529 37.9377 0.0000 -2.9810 0.0000
# 2 13.0529 60.9779 49.9061 0.0000 -1.2443 0.0000
# 3 37.9377 49.9061 188.4489 0.0000 -6.8743 0.0000
# 4 0.0000 0.0000 0.0000 33.4732 0.0000 2.0977
# 5 -2.9810 -1.2443 -6.8743 0.0000 25.2863 0.0000
# 6 0.0000 0.0000 0.0000 2.0977 0.0000 16.5330
#
#
#
# Elastic Compliance Matrix: (Units=1/GPa)
#
#
# Indices 1 2 3 4 5 6 
#
# 1 0.043849 -0.002794 -0.007983 0.000000 0.002862 0.000000
# 2 -0.002794 0.021121 -0.005055 0.000000 -0.000664 0.000000
# 3 -0.007983 -0.005055 0.008291 0.000000 0.001064 0.000000
# 4 0.000000 0.000000 0.000000 0.030114 0.000000 -0.003821
# 5 0.002862 -0.000664 0.001064 0.000000 0.040141 0.000000
# 6 0.000000 0.000000 0.000000 -0.003821 0.000000 0.060970
#
#
# Mechanical properties :
#
#
# Convention : Reuss Voigt Hill
#
# Bulk Modulus (GPa) = 24.04062 53.55100 38.79581
# Shear Modulus (GPa) = 19.99865 27.00976 23.50420
#
# Velocity S-wave (km/s) = 3.29941 3.83439 3.57692
# Velocity P-wave (km/s) = 5.25368 6.98237 6.17878
#
# Compressibility (1/GPa) = 0.04159626
#
# Stress axis : x y z
#
# Youngs Moduli (GPa) = 22.80559 47.34573 120.61052
#
# Poissons Ratio (x) = 0.13230 0.96285
# Poissons Ratio (y) = 0.06373 0.60970
# Poissons Ratio (z) = 0.18206 0.23934
#
# Static dielectric constant tensor:
#      x y z
#    x 2.707460 0.000000 -0.044610 
#    y 0.000000 3.403450 0.000000 
#    z -0.044610 0.000000 4.646480 
# 
# 
# High freq. dielectric constant tensor:
#      x y z
#    x 1.627040 0.000000 -0.000890 
#    y 0.000000 1.728420 0.000000 
#    z -0.000890 0.000000 1.752020 
# 
# From -- ./inp_files/23721.got.cif
#   From: 2010.03.12/outbox.cif.g09.slc.cpg/sg8_12_cif.got.tgz:23721.got - 2010.03.31 10:45:26.
