data_PCOD8052353
_publ_section_title
;
Structure prediction by ZEFSAII (Michael W. Deem and Ramdas Pophale) SiO2 
 PCOD8052353
Probable space group: P M
;
_chemical_formula_sum "Si O2"
_cell_formula_units_Z 16
_cell_length_a 12.099530
_cell_length_b 8.607341
_cell_length_c 10.139045
_cell_angle_alpha 90.000000
_cell_angle_beta 52.171940
_cell_angle_gamma 90.000000
_cell_volume 834.030237
_symmetry_space_group_name_H-M "P M"
_symmetry_group_IT_number 6
_symmetry_cell_setting 'monoclinic'
loop_
_space_group_symop_operation_xyz
x,y,z
x,-y,z
loop_
_atom_site_type_symbol
_atom_site_label
_atom_site_fract_x
_atom_site_fract_y
_atom_site_fract_z
Si Si1 0.801860 0.179449 0.925450
Si Si2 0.073228 0.679243 0.822673
Si Si3 0.666957 0.678324 0.274127
Si Si4 0.674148 0.678940 0.765697
Si Si5 0.808658 0.822528 0.417239
Si Si6 0.384581 0.321743 0.608378
Si Si7 0.402857 0.179302 0.872702
Si Si8 0.090674 0.821429 0.087596
O O1 0.751921 0.216354 0.815354
O O2 0.966102 0.219985 0.815063
O O3 0.779000 0.000000 0.973042
O O4 0.710124 0.277838 0.095184
O O5 0.039861 0.500000 0.820480
O O6 0.231682 0.723743 0.663804
O O7 0.051827 0.712781 0.993097
O O8 0.707542 0.500000 0.271946
O O9 0.746715 0.786588 0.319044
O O10 0.499473 0.702864 0.410361
O O11 0.691906 0.500000 0.790356
O O12 0.743655 0.709365 0.572873
O O13 0.509590 0.720213 0.881941
O O14 0.976583 0.796763 0.286239
O O15 0.773064 0.000000 0.480700
O O16 0.381388 0.500000 0.660930
O O17 0.425256 0.214592 0.701906
O O18 0.437265 0.000000 0.872349
O O19 0.244140 0.222015 0.031616
O O20 0.090623 0.000000 0.037817
#
# Coordination Sequence:
#
# PCOD8052353 Si02
#       8
#     2   2   2   2   2   2   2   2
#     4  12  25  41  59  83 116 155 196 240 291 349
#     4  10  19  34  57  85 116 151 190 235 287 342
#     4  11  21  36  59  89 119 151 192 239 285 339
#     4  12  25  41  59  83 116 155 196 240 291 349
#     4  11  21  36  59  89 119 151 192 239 285 339
#     4   9  19  34  56  86 118 149 188 236 285 339
#     4  10  19  34  57  85 116 151 190 235 287 342
#     4   9  19  34  56  86 118 149 188 236 285 339
#
# _framework density 19.183956999999999
#
# number of rings (size 3 to 8) (size 9 to 14) (size 15 to 20)
#    0.000    1.500    2.500    3.750    0.000    2.000 
#    0.000    1.250    0.000    0.000    0.000    0.000 
#    0.000    0.000    0.000    0.000    0.000    0.000 
#
# Total GULP energy -198451.439943 kJ/mol
# GULP energy per Si atom -12403.214996 kJ/mol
# Density = 1.914029 g / cm^3
# Si number density = 19.183957 Si / 1000 Ang^3
#
#
#
# Elastic Constant Matrix: (Units=GPa)
#
#
# Indices 1 2 3 4 5 6 
#
# 1 119.3259 29.5971 39.4651 0.0000 -16.9661 0.0000
# 2 29.5971 70.0137 14.5315 0.0000 -9.1503 0.0000
# 3 39.4651 14.5315 65.1016 0.0000 -14.5849 0.0000
# 4 0.0000 0.0000 0.0000 26.8500 0.0000 1.5880
# 5 -16.9661 -9.1503 -14.5849 0.0000 28.5833 0.0000
# 6 0.0000 0.0000 0.0000 1.5880 0.0000 30.7694
#
#
#
# Elastic Compliance Matrix: (Units=1/GPa)
#
#
# Indices 1 2 3 4 5 6 
#
# 1 0.011450 -0.003308 -0.005552 0.000000 0.002904 0.000000
# 2 -0.003308 0.016247 -0.001011 0.000000 0.002721 0.000000
# 3 -0.005552 -0.001011 0.020483 0.000000 0.006832 0.000000
# 4 0.000000 0.000000 0.000000 0.037358 0.000000 -0.001928
# 5 0.002904 0.002721 0.006832 0.000000 0.041067 0.000000
# 6 0.000000 0.000000 0.000000 -0.001928 0.000000 0.032599
#
#
# Mechanical properties :
#
#
# Convention : Reuss Voigt Hill
#
# Bulk Modulus (GPa) = 35.16618 46.84763 41.00690
# Shear Modulus (GPa) = 26.53554 28.63037 27.58296
#
# Velocity S-wave (km/s) = 3.72320 3.86737 3.79597
# Velocity P-wave (km/s) = 6.07073 6.66448 6.37452
#
# Compressibility (1/GPa) = 0.02843641
#
# Stress axis : x y z
#
# Youngs Moduli (GPa) = 87.33450 61.54952 48.82174
#
# Poissons Ratio (x) = 0.20363 0.27106
# Poissons Ratio (y) = 0.28894 0.04937
# Poissons Ratio (z) = 0.48489 0.06224
#
# Static dielectric constant tensor:
#      x y z
#    x 3.618890 0.000000 -0.408500 
#    y 0.000000 3.529920 0.000000 
#    z -0.408500 0.000000 3.350790 
# 
# 
# High freq. dielectric constant tensor:
#      x y z
#    x 1.744210 0.000000 -0.031650 
#    y 0.000000 1.755500 0.000000 
#    z -0.031650 0.000000 1.725480 
# 
# From -- ./inp_files/3756.got.cif
#   From: 2010.03.12/outbox.cif.g09.slc.cpg/sg6_2_cif.got.tgz:3756.got - 2010.03.30 10:24:59.
