data_PCOD8052847
_publ_section_title
;
Structure prediction by ZEFSAII (Michael W. Deem and Ramdas Pophale) SiO2 
 PCOD8052847
Probable space group: C M
;
_chemical_formula_sum "Si O2"
_cell_formula_units_Z 32
_cell_length_a 15.343310
_cell_length_b 8.990142
_cell_length_c 22.809713
_cell_angle_alpha 90.000000
_cell_angle_beta 31.703064
_cell_angle_gamma 90.000000
_cell_volume 1653.454791
_symmetry_space_group_name_H-M "C M"
_symmetry_group_IT_number 8
_symmetry_cell_setting 'monoclinic'
loop_
_space_group_symop_operation_xyz
x,y,z
x,-y,z
1/2+x,1/2+y,z
1/2+x,1/2-y,z
loop_
_atom_site_type_symbol
_atom_site_label
_atom_site_fract_x
_atom_site_fract_y
_atom_site_fract_z
Si Si1 0.859960 0.670407 0.991180
Si Si2 0.683712 0.324522 0.849969
Si Si3 0.799287 0.829883 0.475508
Si Si4 0.979998 0.823993 0.611778
Si Si5 0.637573 0.674316 0.008846
Si Si6 0.001240 0.175320 0.468459
Si Si7 0.358964 0.825522 0.234483
Si Si8 0.529190 0.332556 0.239042
O O1 0.920900 0.500000 0.952332
O O2 0.776821 0.720468 0.976942
O O3 0.015730 0.774085 0.914485
O O4 0.727353 0.691484 0.120010
O O5 0.698309 0.500000 0.835548
O O6 0.691067 0.273691 0.913593
O O7 0.839337 0.250500 0.730452
O O8 0.658877 0.718903 0.534493
O O9 0.967121 0.813484 0.340977
O O10 0.848381 0.783749 0.513539
O O11 0.734040 0.000000 0.510519
O O12 0.965389 0.761165 0.553772
O O13 0.958889 0.000000 0.626655
O O14 0.607859 0.500000 0.028366
O O15 0.461464 0.749319 0.123798
O O16 0.171820 0.238716 0.343442
O O17 0.024138 0.000000 0.460692
O O18 0.437346 0.788823 0.252533
O O19 0.364319 0.000000 0.220327
O O20 0.488490 0.500000 0.239144
#
# Coordination Sequence:
#
# PCOD8052847 Si02
#       8
#     4   4   4   4   4   4   4   4
#     4   9  19  37  59  85 115 152 191 232 287 344
#     4  11  24  41  61  85 114 153 199 242 288 342
#     4  10  20  37  60  85 114 154 196 235 284 344
#     4  11  23  42  60  82 118 154 195 243 289 339
#     4   9  21  40  58  82 118 155 190 233 291 349
#     4   9  20  36  57  85 116 152 189 232 288 345
#     4  10  18  32  58  87 119 151 190 236 283 341
#     4   9  18  33  57  85 120 155 188 231 288 346
#
# _framework density 19.353417
#
# number of rings (size 3 to 8) (size 9 to 14) (size 15 to 20)
#    0.000    2.250    1.250    1.875    1.750    4.000 
#    0.000    7.500    0.000    0.000    0.000    0.000 
#    0.000    0.000    0.000    0.000    0.000    0.000 
#
# Total GULP energy -198380.409682 kJ/mol
# GULP energy per Si atom -12398.775605 kJ/mol
# Density = 1.930937 g / cm^3
# Si number density = 19.353417 Si / 1000 Ang^3
#
#
#
# Elastic Constant Matrix: (Units=GPa)
#
#
# Indices 1 2 3 4 5 6 
#
# 1 117.3318 30.4032 64.5251 -0.0002 19.9776 0.0000
# 2 30.4032 45.2518 36.6702 0.0001 10.7810 0.0000
# 3 64.5251 36.6702 130.2700 -0.0006 23.6257 0.0001
# 4 -0.0002 0.0001 -0.0006 33.1602 -0.0001 -2.5897
# 5 19.9776 10.7810 23.6257 -0.0001 20.8519 0.0000
# 6 0.0000 0.0000 0.0001 -2.5897 0.0000 27.7421
#
#
#
# Elastic Compliance Matrix: (Units=1/GPa)
#
#
# Indices 1 2 3 4 5 6 
#
# 1 0.012791 -0.003840 -0.004269 0.000000 -0.005432 0.000000
# 2 -0.003840 0.030652 -0.005688 0.000000 -0.005724 0.000000
# 3 -0.004269 -0.005688 0.012734 0.000000 -0.007396 0.000000
# 4 0.000000 0.000000 0.000000 0.030378 0.000000 0.002836
# 5 -0.005432 -0.005724 -0.007396 0.000000 0.064501 0.000000
# 6 0.000000 0.000000 0.000000 0.002836 0.000000 0.036311
#
#
# Mechanical properties :
#
#
# Convention : Reuss Voigt Hill
#
# Bulk Modulus (GPa) = 34.98824 61.78338 48.38581
# Shear Modulus (GPa) = 22.27296 27.10118 24.68707
#
# Velocity S-wave (km/s) = 3.39610 3.74616 3.57542
# Velocity P-wave (km/s) = 5.78756 7.12072 6.48847
#
# Compressibility (1/GPa) = 0.02858104
#
# Stress axis : x y z
#
# Youngs Moduli (GPa) = 78.18278 32.62476 78.53191
#
# Poissons Ratio (x) = 0.12527 0.33529
# Poissons Ratio (y) = 0.30020 0.44671
# Poissons Ratio (z) = 0.33380 0.18558
#
# Static dielectric constant tensor:
#      x y z
#    x 3.595530 0.000000 0.175210 
#    y 0.000000 3.375430 0.000000 
#    z 0.175210 0.000000 3.689880 
# 
# 
# High freq. dielectric constant tensor:
#      x y z
#    x 1.752510 0.000000 0.006580 
#    y 0.000000 1.738020 0.000000 
#    z 0.006580 0.000000 1.757260 
# 
# From -- ./inp_files/24786.got.cif
#   From: 2010.03.12/outbox.cif.g09.slc.cpg/sg8_13_cif.got.tgz:24786.got - 2010.03.31 10:45:26.
