data_PCOD8052703
_publ_section_title
;
Structure prediction by ZEFSAII (Michael W. Deem and Ramdas Pophale) SiO2 
 PCOD8052703
Probable space group: C M
;
_chemical_formula_sum "Si O2"
_cell_formula_units_Z 32
_cell_length_a 24.671016
_cell_length_b 8.959588
_cell_length_c 18.949587
_cell_angle_alpha 90.000000
_cell_angle_beta 153.341443
_cell_angle_gamma 90.000000
_cell_volume 1879.336115
_symmetry_space_group_name_H-M "C M"
_symmetry_group_IT_number 8
_symmetry_cell_setting 'monoclinic'
loop_
_space_group_symop_operation_xyz
x,y,z
x,-y,z
1/2+x,1/2+y,z
1/2+x,1/2-y,z
loop_
_atom_site_type_symbol
_atom_site_label
_atom_site_fract_x
_atom_site_fract_y
_atom_site_fract_z
Si Si1 0.968460 0.823955 0.822650
Si Si2 0.162671 0.830299 0.594241
Si Si3 0.930975 0.324347 0.925715
Si Si4 0.013505 0.171825 0.157428
Si Si5 0.430659 0.173340 0.323896
Si Si6 0.375602 0.668417 0.128974
Si Si7 0.196723 0.331042 0.032203
Si Si8 0.729053 0.330101 0.511999
O O1 0.983218 0.754461 0.917305
O O2 0.845492 0.775402 0.640865
O O3 0.079088 0.769045 0.903435
O O4 0.972219 0.000000 0.833525
O O5 0.291350 0.777605 0.775564
O O6 0.166337 0.809149 0.514349
O O7 0.055325 0.731565 0.504412
O O8 0.136176 0.000000 0.584460
O O9 0.942176 0.500000 0.926517
O O10 0.008736 0.275043 0.083389
O O11 0.895967 0.206072 0.070363
O O12 0.134078 0.213230 0.340804
O O13 0.014069 0.000000 0.133906
O O14 0.448103 0.211048 0.260752
O O15 0.413486 0.000000 0.319238
O O16 0.309855 0.261810 0.209290
O O17 0.429128 0.500000 0.204708
O O18 0.235847 0.671466 0.993972
O O19 0.172590 0.500000 0.030022
O O20 0.773831 0.500000 0.555196
#
# Coordination Sequence:
#
# PCOD8052703 Si02
#       8
#     4   4   4   4   4   4   4   4
#     4  11  21  33  50  76 102 129 170 216 249 290
#     4   9  16  31  48  67  98 133 167 199 245 302
#     4  10  22  35  49  71 104 141 169 202 252 303
#     4  10  18  33  53  76 103 132 167 205 250 302
#     4  10  17  25  45  76 100 120 156 207 246 282
#     4   8  16  30  49  72  98 130 158 194 247 299
#     4   9  17  32  51  71  98 132 166 203 249 300
#     4   9  17  31  51  71  97 133 167 204 250 298
#
# _framework density 17.027290000000001
#
# number of rings (size 3 to 8) (size 9 to 14) (size 15 to 20)
#    0.750    1.750    1.250    3.375    0.000    3.500 
#    0.000    0.000    0.000    1.500    0.000    1.750 
#    0.000    0.000    0.000    0.000    0.000    0.000 
#
# Total GULP energy -198221.001670 kJ/mol
# GULP energy per Si atom -12388.812604 kJ/mol
# Density = 1.698854 g / cm^3
# Si number density = 17.027290 Si / 1000 Ang^3
#
#
#
# Elastic Constant Matrix: (Units=GPa)
#
#
# Indices 1 2 3 4 5 6 
#
# 1 63.9073 34.1304 40.8584 0.0000 9.7655 0.0000
# 2 34.1304 99.4147 39.9103 0.0000 7.1151 0.0000
# 3 40.8584 39.9103 85.2650 0.0000 1.9013 0.0000
# 4 0.0000 0.0000 0.0000 26.1739 0.0000 1.4902
# 5 9.7655 7.1151 1.9013 0.0000 27.8941 0.0000
# 6 0.0000 0.0000 0.0000 1.4902 0.0000 22.0717
#
#
#
# Elastic Compliance Matrix: (Units=1/GPa)
#
#
# Indices 1 2 3 4 5 6 
#
# 1 0.025397 -0.004170 -0.010059 0.000000 -0.007142 0.000000
# 2 -0.004170 0.013288 -0.004185 0.000000 -0.001644 0.000000
# 3 -0.010059 -0.004185 0.018433 0.000000 0.003333 0.000000
# 4 0.000000 0.000000 0.000000 0.038353 0.000000 -0.002590
# 5 -0.007142 -0.001644 0.003333 0.000000 0.038542 0.000000
# 6 0.000000 0.000000 0.000000 -0.002590 0.000000 0.045482
#
#
# Mechanical properties :
#
#
# Convention : Reuss Voigt Hill
#
# Bulk Modulus (GPa) = 49.28428 53.15390 51.21909
# Shear Modulus (GPa) = 22.41276 24.14047 23.27661
#
# Velocity S-wave (km/s) = 3.63200 3.76939 3.70133
# Velocity P-wave (km/s) = 6.82610 7.08725 6.95790
#
# Compressibility (1/GPa) = 0.02029045
#
# Stress axis : x y z
#
# Youngs Moduli (GPa) = 39.37464 75.25469 54.25053
#
# Poissons Ratio (x) = 0.31379 0.54571
# Poissons Ratio (y) = 0.16418 0.22704
# Poissons Ratio (z) = 0.39607 0.31495
#
# Static dielectric constant tensor:
#      x y z
#    x 2.912500 0.000000 0.197650 
#    y 0.000000 3.110830 0.000000 
#    z 0.197650 0.000000 3.093250 
# 
# 
# High freq. dielectric constant tensor:
#      x y z
#    x 1.623270 0.000000 0.024250 
#    y 0.000000 1.659500 0.000000 
#    z 0.024250 0.000000 1.640260 
# 
# From -- ./inp_files/24545.got.cif
#   From: 2010.03.12/outbox.cif.g09.slc.cpg/sg8_13_cif.got.tgz:24545.got - 2010.03.31 10:45:26.
