data_PCOD8052641
_publ_section_title
;
Structure prediction by ZEFSAII (Michael W. Deem and Ramdas Pophale) SiO2 
 PCOD8052641
Probable space group: P C
;
_chemical_formula_sum "Si O2"
_cell_formula_units_Z 16
_cell_length_a 19.131857
_cell_length_b 7.584150
_cell_length_c 5.293199
_cell_angle_alpha 90.000000
_cell_angle_beta 56.396387
_cell_angle_gamma 90.000000
_cell_volume 639.687704
_symmetry_space_group_name_H-M "P C"
_symmetry_group_IT_number 7
_symmetry_cell_setting 'monoclinic'
loop_
_space_group_symop_operation_xyz
x,y,z
x,-y,1/2+z
loop_
_atom_site_type_symbol
_atom_site_label
_atom_site_fract_x
_atom_site_fract_y
_atom_site_fract_z
Si Si1 0.631990 0.116821 0.572340
Si Si2 0.050821 0.408966 0.681319
Si Si3 0.785172 0.383137 0.265562
Si Si4 0.482654 0.613071 0.377568
Si Si5 0.366389 0.091003 0.050127
Si Si6 0.183750 0.050239 0.880744
Si Si7 0.233452 0.550220 0.281290
Si Si8 0.934506 0.886885 0.473406
O O1 0.708675 0.249727 0.397732
O O2 0.546893 0.226590 0.721312
O O3 0.636681 0.981163 0.331135
O O4 0.013189 0.479504 0.492228
O O5 0.151601 0.425331 0.482307
O O6 0.026406 0.204228 0.769571
O O7 0.780327 0.481561 0.543057
O O8 0.870392 0.273729 0.074290
O O9 0.495034 0.523982 0.625189
O O10 0.390790 0.295702 0.041029
O O11 0.404030 0.020647 0.710360
O O12 0.265612 0.074612 0.254281
O O13 0.208582 0.250018 0.790816
O O14 0.131274 0.976190 0.745159
O O15 0.285933 0.523810 0.435751
O O16 0.922049 0.976340 0.770417
#
# Coordination Sequence:
#
# PCOD8052641 Si02
#       8
#     2   2   2   2   2   2   2   2
#     4  12  24  42  66  95 132 172 214 263 312 370
#     4  10  21  41  62  88 122 161 205 255 315 373
#     4  12  24  42  66  95 132 172 214 263 312 370
#     4  12  24  41  64  94 127 167 214 262 315 376
#     4  10  21  41  62  88 122 161 205 255 315 373
#     4  10  21  40  63  89 121 158 202 254 313 379
#     4  10  21  40  63  89 121 158 202 254 313 379
#     4  12  24  41  64  94 127 167 214 262 315 376
#
# _framework density 25.012204000000001
#
# number of rings (size 3 to 8) (size 9 to 14) (size 15 to 20)
#    0.000    1.000    0.000    7.500    0.000    0.000 
#    0.000   30.000    0.000    0.000    0.000    0.000 
#    0.000    0.000    0.000    0.000    0.000    0.000 
#
# Total GULP energy -198344.686973 kJ/mol
# GULP energy per Si atom -12396.542936 kJ/mol
# Density = 2.495528 g / cm^3
# Si number density = 25.012204 Si / 1000 Ang^3
#
#
#
# Elastic Constant Matrix: (Units=GPa)
#
#
# Indices 1 2 3 4 5 6 
#
# 1 44.0707 20.8698 22.7249 0.0000 8.9359 0.0000
# 2 20.8698 91.9842 25.4635 0.0000 6.1014 0.0000
# 3 22.7249 25.4635 88.9887 0.0000 50.2170 0.0000
# 4 0.0000 0.0000 0.0000 67.2473 0.0000 4.2585
# 5 8.9359 6.1014 50.2170 0.0000 68.4041 0.0000
# 6 0.0000 0.0000 0.0000 4.2585 0.0000 63.9644
#
#
#
# Elastic Compliance Matrix: (Units=1/GPa)
#
#
# Indices 1 2 3 4 5 6 
#
# 1 0.028032 -0.004582 -0.006849 0.000000 0.001775 0.000000
# 2 -0.004582 0.012798 -0.003731 0.000000 0.002196 0.000000
# 3 -0.006849 -0.003731 0.022812 0.000000 -0.015519 0.000000
# 4 0.000000 0.000000 0.000000 0.014933 0.000000 -0.000994
# 5 0.001775 0.002196 -0.015519 0.000000 0.025584 0.000000
# 6 0.000000 0.000000 0.000000 -0.000994 0.000000 0.015700
#
#
# Mechanical properties :
#
#
# Convention : Reuss Voigt Hill
#
# Bulk Modulus (GPa) = 30.01422 40.35111 35.18266
# Shear Modulus (GPa) = 31.00002 50.32218 40.66110
#
# Velocity S-wave (km/s) = 3.52432 4.49029 4.03631
# Velocity P-wave (km/s) = 5.34668 6.56134 5.98491
#
# Compressibility (1/GPa) = 0.03331754
#
# Stress axis : x y z
#
# Youngs Moduli (GPa) = 35.67305 78.13554 43.83734
#
# Poissons Ratio (x) = 0.35801 0.30024
# Poissons Ratio (y) = 0.16345 0.16358
# Poissons Ratio (z) = 0.24432 0.29156
#
# Static dielectric constant tensor:
#      x y z
#    x 5.157150 0.000000 0.896570 
#    y 0.000000 4.501580 0.000000 
#    z 0.896570 0.000000 5.836490 
# 
# 
# High freq. dielectric constant tensor:
#      x y z
#    x 1.993690 0.000000 0.031010 
#    y 0.000000 2.013510 0.000000 
#    z 0.031010 0.000000 2.017160 
# 
# From -- ./inp_files/1463.got.cif
#   From: 2010.03.12/outbox.cif.g09.slc.cpg/sg7_cif.got.tgz:1463.got - 2010.03.30 08:40:41.
