data_PCOD8052933
_publ_section_title
;
Structure prediction by ZEFSAII (Michael W. Deem and Ramdas Pophale) SiO2 
 PCOD8052933
Probable space group: C M
;
_chemical_formula_sum "Si O2"
_cell_formula_units_Z 32
_cell_length_a 19.952430
_cell_length_b 9.175860
_cell_length_c 12.324464
_cell_angle_alpha 90.000000
_cell_angle_beta 125.532101
_cell_angle_gamma 90.000000
_cell_volume 1836.212696
_symmetry_space_group_name_H-M "C M"
_symmetry_group_IT_number 8
_symmetry_cell_setting 'monoclinic'
loop_
_space_group_symop_operation_xyz
x,y,z
x,-y,z
1/2+x,1/2+y,z
1/2+x,1/2-y,z
loop_
_atom_site_type_symbol
_atom_site_label
_atom_site_fract_x
_atom_site_fract_y
_atom_site_fract_z
Si Si1 0.750000 0.832404 0.814320
Si Si2 0.679325 0.671622 0.360836
Si Si3 0.001587 0.833984 0.599933
Si Si4 0.156028 0.168403 0.897932
Si Si5 0.093226 0.173253 0.067210
Si Si6 0.912067 0.168424 0.845208
Si Si7 0.362359 0.826967 0.580178
Si Si8 0.128875 0.169419 0.546142
O O1 0.729135 0.758164 0.909781
O O2 0.846795 0.813592 0.881249
O O3 0.700611 0.760524 0.669497
O O4 0.723965 0.000000 0.796640
O O5 0.682676 0.500000 0.348120
O O6 0.635922 0.742151 0.214323
O O7 0.772076 0.730426 0.461450
O O8 0.625324 0.712296 0.416195
O O9 0.070161 0.805278 0.755761
O O10 0.040623 0.798599 0.518574
O O11 0.925301 0.726932 0.546989
O O12 0.970251 0.000000 0.576258
O O13 0.181329 0.000000 0.917183
O O14 0.144904 0.224302 0.010489
O O15 0.092829 0.000000 0.072673
O O16 0.999153 0.228188 0.971226
O O17 0.885541 0.261586 0.717452
O O18 0.919013 0.000000 0.814430
O O19 0.365605 0.000000 0.591586
O O20 0.152507 0.000000 0.584352
#
# Coordination Sequence:
#
# PCOD8052933 Si02
#       8
#     4   4   4   4   4   4   4   4
#     4  10  19  29  48  77 104 127 158 208 258 293
#     4   9  18  32  52  76  99 129 172 211 243 290
#     4   9  17  30  49  73 100 130 167 204 245 293
#     4   9  17  31  52  73  97 132 169 203 242 294
#     4   9  17  33  54  73  97 133 174 207 240 294
#     4  10  19  33  52  74  99 131 169 206 247 295
#     4  11  20  30  50  78 103 126 162 213 254 288
#     4   9  17  32  51  72  99 132 169 204 241 293
#
# _framework density 17.427175999999999
#
# number of rings (size 3 to 8) (size 9 to 14) (size 15 to 20)
#    0.000    2.500    2.500    1.500    0.000    2.500 
#    0.000    1.250    0.000    6.000    0.000    0.000 
#    0.000    0.000    0.000    0.000    0.000    0.000 
#
# Total GULP energy -198370.529488 kJ/mol
# GULP energy per Si atom -12398.158093 kJ/mol
# Density = 1.738751 g / cm^3
# Si number density = 17.427176 Si / 1000 Ang^3
#
#
#
# Elastic Constant Matrix: (Units=GPa)
#
#
# Indices 1 2 3 4 5 6 
#
# 1 148.2440 47.2870 79.2313 0.0000 -13.1381 0.0000
# 2 47.2870 56.3637 32.8227 0.0000 -0.6542 0.0000
# 3 79.2313 32.8227 126.9570 0.0000 -10.8776 0.0000
# 4 0.0000 0.0000 0.0000 13.4191 0.0000 0.0543
# 5 -13.1381 -0.6542 -10.8776 0.0000 28.6362 0.0000
# 6 0.0000 0.0000 0.0000 0.0543 0.0000 28.9779
#
#
#
# Elastic Compliance Matrix: (Units=1/GPa)
#
#
# Indices 1 2 3 4 5 6 
#
# 1 0.012236 -0.007001 -0.005539 0.000000 0.003350 0.000000
# 2 -0.007001 0.024966 -0.002389 0.000000 -0.003549 0.000000
# 3 -0.005539 -0.002389 0.012124 0.000000 0.002009 0.000000
# 4 0.000000 0.000000 0.000000 0.074521 0.000000 -0.000140
# 5 0.003350 -0.003549 0.002009 0.000000 0.037140 0.000000
# 6 0.000000 0.000000 0.000000 -0.000140 0.000000 0.034509
#
#
# Mechanical properties :
#
#
# Convention : Reuss Voigt Hill
#
# Bulk Modulus (GPa) = 51.37178 72.24965 61.81071
# Shear Modulus (GPa) = 21.56618 25.68824 23.62721
#
# Velocity S-wave (km/s) = 3.52163 3.84348 3.68607
# Velocity P-wave (km/s) = 6.78806 7.82589 7.32538
#
# Compressibility (1/GPa) = 0.01946594
#
# Stress axis : x y z
#
# Youngs Moduli (GPa) = 81.72358 40.05478 82.48381
#
# Poissons Ratio (x) = 0.28043 0.45691
# Poissons Ratio (y) = 0.57216 0.19708
# Poissons Ratio (z) = 0.45270 0.09570
#
# Static dielectric constant tensor:
#      x y z
#    x 3.540220 0.000000 -0.099430 
#    y 0.000000 3.037600 0.000000 
#    z -0.099430 0.000000 3.249230 
# 
# 
# High freq. dielectric constant tensor:
#      x y z
#    x 1.690900 0.000000 -0.010160 
#    y 0.000000 1.648770 0.000000 
#    z -0.010160 0.000000 1.645540 
# 
# From -- ./inp_files/23717.got.cif
#   From: 2010.03.12/outbox.cif.g09.slc.cpg/sg8_12_cif.got.tgz:23717.got - 2010.03.31 10:45:26.
