data_PCOD8052905
_publ_section_title
;
Structure prediction by ZEFSAII (Michael W. Deem and Ramdas Pophale) SiO2 
 PCOD8052905
Probable space group: C M
;
_chemical_formula_sum "Si O2"
_cell_formula_units_Z 32
_cell_length_a 20.076638
_cell_length_b 9.001366
_cell_length_c 25.081137
_cell_angle_alpha 90.000000
_cell_angle_beta 23.094038
_cell_angle_gamma 90.000000
_cell_volume 1777.870243
_symmetry_space_group_name_H-M "C M"
_symmetry_group_IT_number 8
_symmetry_cell_setting 'monoclinic'
loop_
_space_group_symop_operation_xyz
x,y,z
x,-y,z
1/2+x,1/2+y,z
1/2+x,1/2-y,z
loop_
_atom_site_type_symbol
_atom_site_label
_atom_site_fract_x
_atom_site_fract_y
_atom_site_fract_z
Si Si1 0.436400 0.176323 0.053710
Si Si2 0.435618 0.671606 0.833032
Si Si3 0.939770 0.676085 0.561622
Si Si4 0.051615 0.673420 0.592423
Si Si5 0.558961 0.673801 0.856993
Si Si6 0.729212 0.325757 0.900687
Si Si7 0.090262 0.675746 0.340110
Si Si8 0.251471 0.172235 0.530191
O O1 0.248396 0.229554 0.205086
O O2 0.446881 0.000000 0.047433
O O3 0.482826 0.233109 0.961068
O O4 0.559504 0.242697 0.008019
O O5 0.398233 0.500000 0.847925
O O6 0.440725 0.700173 0.892482
O O7 0.285519 0.769402 0.917733
O O8 0.616914 0.719603 0.674719
O O9 0.928847 0.500000 0.567241
O O10 0.746979 0.735052 0.705690
O O11 0.041589 0.730671 0.538973
O O12 0.037261 0.733597 0.437781
O O13 0.082943 0.500000 0.571625
O O14 0.211187 0.747888 0.504037
O O15 0.875245 0.715622 0.750881
O O16 0.563916 0.500000 0.869446
O O17 0.692248 0.500000 0.930281
O O18 0.130794 0.500000 0.309992
O O19 0.938588 0.715379 0.411398
O O20 0.237373 0.000000 0.529121
#
# Coordination Sequence:
#
# PCOD8052905 Si02
#       8
#     4   4   4   4   4   4   4   4
#     4  12  25  38  53  79 115 150 188 234 275 323
#     4   9  17  31  56  87 114 138 174 229 279 325
#     4   9  16  32  58  84 106 135 184 229 265 323
#     4   9  17  30  53  82 110 137 172 222 272 323
#     4  10  18  35  60  84 111 144 184 227 276 333
#     4  10  19  34  56  80 111 148 184 223 275 335
#     4  10  20  37  59  79 105 147 187 222 273 336
#     4   9  17  31  53  81 110 139 175 218 269 328
#
# _framework density 17.999063
#
# number of rings (size 3 to 8) (size 9 to 14) (size 15 to 20)
#    0.000    2.250    2.500    1.500    0.000    1.500 
#    0.000    2.500    0.000    3.000    0.000    0.000 
#    0.000    0.000    0.000    0.000    0.000    0.000 
#
# Total GULP energy -198404.283940 kJ/mol
# GULP energy per Si atom -12400.267746 kJ/mol
# Density = 1.795810 g / cm^3
# Si number density = 17.999063 Si / 1000 Ang^3
#
#
#
# Elastic Constant Matrix: (Units=GPa)
#
#
# Indices 1 2 3 4 5 6 
#
# 1 133.7895 51.4798 59.5955 0.0003 -13.7149 0.0007
# 2 51.4798 71.4714 47.6746 0.0210 -10.1646 -0.0002
# 3 59.5955 47.6746 97.8207 0.0322 -6.7491 -0.0004
# 4 0.0003 0.0210 0.0322 18.9850 0.0019 -5.6209
# 5 -13.7149 -10.1646 -6.7491 0.0019 26.6203 -0.0012
# 6 0.0007 -0.0002 -0.0004 -5.6209 -0.0012 32.1050
#
#
#
# Elastic Compliance Matrix: (Units=1/GPa)
#
#
# Indices 1 2 3 4 5 6 
#
# 1 0.011707 -0.005020 -0.004480 0.000013 0.002979 0.000002
# 2 -0.005020 0.023691 -0.008185 -0.000013 0.004384 -0.000002
# 3 -0.004480 -0.008185 0.016861 -0.000020 -0.001159 -0.000003
# 4 0.000013 -0.000013 -0.000020 0.055553 -0.000007 0.009726
# 5 0.002979 0.004384 -0.001159 -0.000007 0.040480 0.000000
# 6 0.000002 -0.000002 -0.000003 0.009726 0.000000 0.032851
#
#
# Mechanical properties :
#
#
# Convention : Reuss Voigt Hill
#
# Bulk Modulus (GPa) = 59.21232 68.95351 64.08292
# Shear Modulus (GPa) = 22.50785 25.16415 23.83600
#
# Velocity S-wave (km/s) = 3.54008 3.74315 3.64303
# Velocity P-wave (km/s) = 7.04829 7.55475 7.30591
#
# Compressibility (1/GPa) = 0.01688838
#
# Stress axis : x y z
#
# Youngs Moduli (GPa) = 85.41762 42.20975 59.30695
#
# Poissons Ratio (x) = 0.21191 0.26570
# Poissons Ratio (y) = 0.42884 0.48544
# Poissons Ratio (z) = 0.38268 0.34549
#
# Static dielectric constant tensor:
#      x y z
#    x 3.586560 0.000000 -0.045220 
#    y 0.000000 3.140010 0.000000 
#    z -0.045220 0.000000 3.169420 
# 
# 
# High freq. dielectric constant tensor:
#      x y z
#    x 1.713080 0.000000 -0.009460 
#    y 0.000000 1.678220 0.000000 
#    z -0.009460 0.000000 1.672770 
# 
# From -- ./inp_files/24303.got.cif
#   From: 2010.03.12/outbox.cif.g09.slc.cpg/sg8_13_cif.got.tgz:24303.got - 2010.03.31 10:45:26.
