data_PCOD8052748
_publ_section_title
;
Structure prediction by ZEFSAII (Michael W. Deem and Ramdas Pophale) SiO2 
 PCOD8052748
Probable space group: C M
;
_chemical_formula_sum "Si O2"
_cell_formula_units_Z 32
_cell_length_a 23.955657
_cell_length_b 8.747956
_cell_length_c 25.129686
_cell_angle_alpha 90.000000
_cell_angle_beta 18.016684
_cell_angle_gamma 90.000000
_cell_volume 1628.820105
_symmetry_space_group_name_H-M "C M"
_symmetry_group_IT_number 8
_symmetry_cell_setting 'monoclinic'
loop_
_space_group_symop_operation_xyz
x,y,z
x,-y,z
1/2+x,1/2+y,z
1/2+x,1/2-y,z
loop_
_atom_site_type_symbol
_atom_site_label
_atom_site_fract_x
_atom_site_fract_y
_atom_site_fract_z
Si Si1 0.947900 0.681640 0.680750
Si Si2 0.429295 0.180313 0.880101
Si Si3 0.026315 0.180597 0.217748
Si Si4 0.556537 0.318691 0.070907
Si Si5 0.671193 0.680038 0.568777
Si Si6 0.321817 0.681534 0.186935
Si Si7 0.054915 0.182132 0.876047
Si Si8 0.439298 0.818941 0.568136
O O1 0.973252 0.500000 0.661676
O O2 0.960589 0.741412 0.608886
O O3 0.105623 0.760507 0.571024
O O4 0.758259 0.737895 0.876315
O O5 0.550530 0.252970 0.724798
O O6 0.496201 0.236249 0.876043
O O7 0.448008 0.000000 0.858092
O O8 0.222575 0.231767 0.060240
O O9 0.877884 0.264924 0.388565
O O10 0.000296 0.236617 0.180409
O O11 0.000134 0.000000 0.246612
O O12 0.553810 0.500000 0.070460
O O13 0.421373 0.250641 0.148977
O O14 0.661873 0.500000 0.580489
O O15 0.333867 0.500000 0.178490
O O16 0.112918 0.735932 0.376550
O O17 0.419883 0.739247 0.044808
O O18 0.255937 0.242055 0.707715
O O19 0.048776 0.000000 0.874537
O O20 0.427490 0.000000 0.581327
#
# Coordination Sequence:
#
# PCOD8052748 Si02
#       8
#     4   4   4   4   4   4   4   4
#     4  10  17  33  60  88 118 155 198 236 279 342
#     4  11  24  43  64  84 111 155 206 249 293 347
#     4  10  21  39  63  87 114 151 200 247 289 347
#     4   9  15  29  57  88 113 146 191 239 282 332
#     4  12  25  39  59  89 123 155 190 240 305 358
#     4   9  16  28  51  84 115 144 183 234 286 333
#     4  10  20  35  55  82 115 150 194 244 290 336
#     4   9  17  30  55  86 117 152 190 233 280 339
#
# _framework density 19.646122999999999
#
# number of rings (size 3 to 8) (size 9 to 14) (size 15 to 20)
#    0.000    2.000    2.500    2.250    0.000    4.000 
#    0.000    1.875    0.000    3.000    0.000    0.000 
#    0.000    0.000    0.000    0.000    0.000    0.000 
#
# Total GULP energy -198398.211556 kJ/mol
# GULP energy per Si atom -12399.888222 kJ/mol
# Density = 1.960141 g / cm^3
# Si number density = 19.646123 Si / 1000 Ang^3
#
#
#
# Elastic Constant Matrix: (Units=GPa)
#
#
# Indices 1 2 3 4 5 6 
#
# 1 145.6521 40.2154 78.4676 0.0047 -7.3112 0.0062
# 2 40.2154 51.2870 45.1010 -0.0761 -3.2794 0.0065
# 3 78.4676 45.1010 174.6576 -0.0583 -21.7522 0.0144
# 4 0.0047 -0.0761 -0.0583 10.5506 0.0120 0.9431
# 5 -7.3112 -3.2794 -21.7522 0.0120 13.6885 0.0009
# 6 0.0062 0.0065 0.0144 0.9431 0.0009 25.8205
#
#
#
# Elastic Compliance Matrix: (Units=1/GPa)
#
#
# Indices 1 2 3 4 5 6 
#
# 1 0.009980 -0.004954 -0.003352 -0.000058 -0.001183 0.000003
# 2 -0.004954 0.028006 -0.005611 0.000180 -0.004852 -0.000009
# 3 -0.003352 -0.005611 0.010335 0.000003 0.013289 -0.000004
# 4 -0.000058 0.000180 0.000003 0.095093 -0.000066 -0.003473
# 5 -0.001183 -0.004852 0.013289 -0.000066 0.092378 -0.000007
# 6 0.000003 -0.000009 -0.000004 -0.003473 -0.000007 0.038856
#
#
# Mechanical properties :
#
#
# Convention : Reuss Voigt Hill
#
# Bulk Modulus (GPa) = 48.80618 77.68495 63.24556
# Shear Modulus (GPa) = 16.16503 23.86610 20.01556
#
# Velocity S-wave (km/s) = 2.87158 3.48918 3.19533
# Velocity P-wave (km/s) = 5.99093 7.47399 6.77317
#
# Compressibility (1/GPa) = 0.02048921
#
# Stress axis : x y z
#
# Youngs Moduli (GPa) = 100.20348 35.70614 96.75695
#
# Poissons Ratio (x) = 0.17687 0.32430
# Poissons Ratio (y) = 0.49637 0.54288
# Poissons Ratio (z) = 0.33585 0.20034
#
# Static dielectric constant tensor:
#      x y z
#    x 3.679050 -0.000030 -0.067040 
#    y -0.000030 3.074210 0.000060 
#    z -0.067040 0.000060 3.911710 
# 
# 
# High freq. dielectric constant tensor:
#      x y z
#    x 1.767700 0.000000 -0.003340 
#    y 0.000000 1.714310 0.000010 
#    z -0.003340 0.000010 1.786820 
# 
# From -- ./inp_files/32366.got.cif
#   From: 2010.03.12/outbox.cif.g09.slc.cpg/sg8_17_cif.got.tgz:32366.got - 2010.03.31 10:45:26.
