data_PCOD8052238
_publ_section_title
;
Structure prediction by ZEFSAII (Michael W. Deem and Ramdas Pophale) SiO2 
 PCOD8052238
Probable space group: P M
;
_chemical_formula_sum "Si O2"
_cell_formula_units_Z 16
_cell_length_a 19.737633
_cell_length_b 8.325765
_cell_length_c 7.776804
_cell_angle_alpha 90.000000
_cell_angle_beta 37.999335
_cell_angle_gamma 90.000000
_cell_volume 786.784686
_symmetry_space_group_name_H-M "P M"
_symmetry_group_IT_number 6
_symmetry_cell_setting 'monoclinic'
loop_
_space_group_symop_operation_xyz
x,y,z
x,-y,z
loop_
_atom_site_type_symbol
_atom_site_label
_atom_site_fract_x
_atom_site_fract_y
_atom_site_fract_z
Si Si1 0.825350 0.691315 0.190180
Si Si2 0.202199 0.314234 0.631428
Si Si3 0.202199 0.815952 0.260852
Si Si4 0.433638 0.310722 0.283461
Si Si5 0.424313 0.311255 0.685526
Si Si6 0.970760 0.310722 0.209215
Si Si7 0.980085 0.688745 0.573981
Si Si8 0.579048 0.691315 0.682785
O O1 0.820823 0.500000 0.201083
O O2 0.883267 0.759515 0.247226
O O3 0.702199 0.762591 0.427277
O O4 0.892868 0.751645 0.888690
O O5 0.202198 0.500000 0.680876
O O6 0.202199 0.296819 0.426830
O O7 0.312697 0.234565 0.489367
O O8 0.091701 0.234564 0.931358
O O9 0.095279 0.779390 0.361432
O O10 0.202198 0.000000 0.319681
O O11 0.309119 0.779390 0.933751
O O12 0.426445 0.500000 0.266557
O O13 0.471996 0.270767 0.400556
O O14 0.521131 0.240485 0.971498
O O15 0.402541 0.500000 0.750681
O O16 0.511530 0.248356 0.651366
O O17 0.977953 0.500000 0.163539
O O18 0.932402 0.270768 0.479743
O O19 0.001857 0.500000 0.552051
O O20 0.583575 0.500000 0.675579
#
# Coordination Sequence:
#
# PCOD8052238 Si02
#       8
#     2   2   2   2   2   2   2   2
#     4   9  17  29  49  81 113 136 168 216 258 297
#     4  10  17  32  54  75 101 136 176 214 261 317
#     4  12  23  34  52  79 107 136 174 220 265 309
#     4   9  17  29  51  79 104 134 173 212 254 309
#     4  10  19  34  56  78 106 142 173 207 260 316
#     4   9  17  29  51  79 104 134 173 212 254 309
#     4  10  19  34  56  78 106 142 173 207 260 316
#     4   9  17  29  49  81 113 136 168 216 258 297
#
# _framework density 20.335933000000001
#
# number of rings (size 3 to 8) (size 9 to 14) (size 15 to 20)
#    0.000    2.250    2.500    1.875    0.000    3.000 
#    0.000    7.500    0.000    0.750    0.000    0.000 
#    0.000    0.000    0.000    0.000    0.000    0.000 
#
# Total GULP energy -198368.210519 kJ/mol
# GULP energy per Si atom -12398.013157 kJ/mol
# Density = 2.028965 g / cm^3
# Si number density = 20.335933 Si / 1000 Ang^3
#
#
#
# Elastic Constant Matrix: (Units=GPa)
#
#
# Indices 1 2 3 4 5 6 
#
# 1 163.9008 7.7641 112.7882 0.0000 8.8655 0.0000
# 2 7.7641 16.9543 11.1398 0.0000 -3.0282 0.0000
# 3 112.7882 11.1398 167.6645 0.0000 -12.2409 0.0000
# 4 0.0000 0.0000 0.0000 1.7606 0.0000 0.6154
# 5 8.8655 -3.0282 -12.2409 0.0000 39.5530 0.0000
# 6 0.0000 0.0000 0.0000 0.6154 0.0000 2.4438
#
#
#
# Elastic Compliance Matrix: (Units=1/GPa)
#
#
# Indices 1 2 3 4 5 6 
#
# 1 0.012443 -0.000967 -0.008712 0.000000 -0.005559 0.000000
# 2 -0.000967 0.062236 -0.003193 0.000000 0.003993 0.000000
# 3 -0.008712 -0.003193 0.012443 0.000000 0.005559 0.000000
# 4 0.000000 0.000000 0.000000 0.622795 0.000000 -0.156820
# 5 -0.005559 0.003993 0.005559 0.000000 0.028555 0.000000
# 6 0.000000 0.000000 0.000000 -0.156820 0.000000 0.448681
#
#
# Mechanical properties :
#
#
# Convention : Reuss Voigt Hill
#
# Bulk Modulus (GPa) = 16.29247 67.98930 42.14089
# Shear Modulus (GPa) = 4.05398 23.20666 13.63032
#
# Velocity S-wave (km/s) = 1.41345 3.38178 2.59174
# Velocity P-wave (km/s) = 3.26999 6.98242 5.45193
#
# Compressibility (1/GPa) = 0.06137806
#
# Stress axis : x y z
#
# Youngs Moduli (GPa) = 80.36721 16.06784 80.36737
#
# Poissons Ratio (x) = 0.01554 0.70016
# Poissons Ratio (y) = 0.07770 0.25662
# Poissons Ratio (z) = 0.70016 0.05131
#
# Static dielectric constant tensor:
#      x y z
#    x 3.832430 0.000000 -0.068170 
#    y 0.000000 2.969780 0.000000 
#    z -0.068170 0.000000 3.908400 
# 
# 
# High freq. dielectric constant tensor:
#      x y z
#    x 1.804380 0.000000 0.005740 
#    y 0.000000 1.725020 0.000000 
#    z 0.005740 0.000000 1.797980 
# 
# From -- ./inp_files/3537.got.cif
#   From: 2010.03.12/outbox.cif.g09.slc.cpg/sg6_2_cif.got.tgz:3537.got - 2010.03.30 10:24:59.
