data_PCOD8052313
_publ_section_title
;
Structure prediction by ZEFSAII (Michael W. Deem and Ramdas Pophale) SiO2 
 PCOD8052313
Probable space group: P M
;
_chemical_formula_sum "Si O2"
_cell_formula_units_Z 14
_cell_length_a 19.572296
_cell_length_b 9.330345
_cell_length_c 8.988793
_cell_angle_alpha 90.000000
_cell_angle_beta 151.310215
_cell_angle_gamma 90.000000
_cell_volume 788.030102
_symmetry_space_group_name_H-M "P M"
_symmetry_group_IT_number 6
_symmetry_cell_setting 'monoclinic'
loop_
_space_group_symop_operation_xyz
x,y,z
x,-y,z
loop_
_atom_site_type_symbol
_atom_site_label
_atom_site_fract_x
_atom_site_fract_y
_atom_site_fract_z
Si Si1 0.280650 0.163187 0.357530
Si Si2 0.573303 0.250320 0.994218
Si Si3 0.449238 0.658962 0.472485
Si Si4 0.673333 0.167810 0.733346
Si Si5 0.750652 0.659915 0.599415
Si Si6 0.012239 0.665618 0.886974
Si Si7 0.836884 0.156799 0.337927
O O1 0.423398 0.166598 0.733456
O O2 0.312310 0.245757 0.261012
O O3 0.236321 0.000000 0.241067
O O4 0.153638 0.245882 0.199031
O O5 0.550204 0.360224 0.811692
O O6 0.620445 0.330430 0.233783
O O7 0.698061 0.143884 0.178961
O O8 0.404705 0.500000 0.331749
O O9 0.530320 0.743358 0.496407
O O10 0.735338 0.220731 0.695805
O O11 0.634625 0.000000 0.650330
O O12 0.792884 0.197152 0.086079
O O13 0.747071 0.500000 0.661468
O O14 0.901042 0.687780 0.807361
O O15 0.051206 0.500000 0.937863
O O16 0.947159 0.725272 0.608238
O O17 0.909889 0.000000 0.480208
#
# Coordination Sequence:
#
# PCOD8052313 Si02
#       7
#     2   2   2   2   2   2   2
#     4  10  19  32  54  80 106 135 169 214 261 307
#     4   8  18  30  55  78 102 131 172 214 252 304
#     4   9  17  31  53  76 102 133 167 211 255 299
#     4  10  20  32  51  78 107 136 172 215 259 305
#     4  10  20  34  52  77 106 138 174 213 257 307
#     4  10  21  34  52  78 105 135 174 214 257 310
#     4   9  17  33  53  75 102 132 170 215 257 304
#
# _framework density 17.765817999999999
#
# number of rings (size 3 to 8) (size 9 to 14) (size 15 to 20)
#    0.857    1.714    0.000    2.571    0.000    7.429 
#    0.000    0.000    3.143    0.000    0.000    0.000 
#    0.000    0.000    0.000    0.000    0.000    0.000 
#
# Total GULP energy -173470.756796 kJ/mol
# GULP energy per Si atom -12390.768343 kJ/mol
# Density = 1.772538 g / cm^3
# Si number density = 17.765818 Si / 1000 Ang^3
#
#
#
# Elastic Constant Matrix: (Units=GPa)
#
#
# Indices 1 2 3 4 5 6 
#
# 1 77.5599 48.2992 29.4384 0.0000 1.4128 0.0000
# 2 48.2992 138.6278 30.6419 0.0000 11.5229 0.0000
# 3 29.4384 30.6419 70.2611 0.0000 13.1829 0.0000
# 4 0.0000 0.0000 0.0000 23.1112 0.0000 3.3992
# 5 1.4128 11.5229 13.1829 0.0000 22.7322 0.0000
# 6 0.0000 0.0000 0.0000 3.3992 0.0000 26.9769
#
#
#
# Elastic Compliance Matrix: (Units=1/GPa)
#
#
# Indices 1 2 3 4 5 6 
#
# 1 0.018679 -0.005535 -0.006419 0.000000 0.005368 0.000000
# 2 -0.005535 0.009730 -0.001193 0.000000 -0.003896 0.000000
# 3 -0.006419 -0.001193 0.019361 0.000000 -0.010224 0.000000
# 4 0.000000 0.000000 0.000000 0.044086 0.000000 -0.005555
# 5 0.005368 -0.003896 -0.010224 0.000000 0.051561 0.000000
# 6 0.000000 0.000000 0.000000 -0.005555 0.000000 0.037769
#
#
# Mechanical properties :
#
#
# Convention : Reuss Voigt Hill
#
# Bulk Modulus (GPa) = 46.56742 55.91197 51.23970
# Shear Modulus (GPa) = 23.29500 26.43535 24.86517
#
# Velocity S-wave (km/s) = 3.62501 3.86163 3.74519
# Velocity P-wave (km/s) = 6.61738 7.17098 6.89973
#
# Compressibility (1/GPa) = 0.02147424
#
# Stress axis : x y z
#
# Youngs Moduli (GPa) = 53.53633 102.77901 51.65063
#
# Poissons Ratio (x) = 0.56890 0.33156
# Poissons Ratio (y) = 0.29633 0.06162
# Poissons Ratio (z) = 0.34367 0.12262
#
# Static dielectric constant tensor:
#      x y z
#    x 3.035990 0.000000 0.108920 
#    y 0.000000 3.259490 0.000000 
#    z 0.108920 0.000000 3.071500 
# 
# 
# High freq. dielectric constant tensor:
#      x y z
#    x 1.661100 0.000000 0.014130 
#    y 0.000000 1.698310 0.000000 
#    z 0.014130 0.000000 1.660930 
# 
# From -- ./inp_files/4223.got.cif
#   From: 2010.03.12/outbox.cif.g09.slc.cpg/sg6_3_cif.got.tgz:4223.got - 2010.03.30 10:24:59.
