data_PCOD8052474
_publ_section_title
;
Structure prediction by ZEFSAII (Michael W. Deem and Ramdas Pophale) SiO2 
 PCOD8052474
Probable space group: P M
;
_chemical_formula_sum "Si O2"
_cell_formula_units_Z 10
_cell_length_a 8.514334
_cell_length_b 11.236509
_cell_length_c 4.868954
_cell_angle_alpha 90.000000
_cell_angle_beta 90.185123
_cell_angle_gamma 90.000000
_cell_volume 465.817169
_symmetry_space_group_name_H-M "P M"
_symmetry_group_IT_number 6
_symmetry_cell_setting 'monoclinic'
loop_
_space_group_symop_operation_xyz
x,y,z
x,-y,z
loop_
_atom_site_type_symbol
_atom_site_label
_atom_site_fract_x
_atom_site_fract_y
_atom_site_fract_z
Si Si1 0.354880 0.863227 0.329800
Si Si2 0.850366 0.751993 0.050311
Si Si3 0.128900 0.500000 0.744267
Si Si4 0.697454 0.137153 0.544618
Si Si5 0.916711 0.500000 0.235022
Si Si6 0.199804 0.754224 0.823855
O O1 0.526146 0.827487 0.436597
O O2 0.227726 0.842138 0.569130
O O3 0.346923 0.000000 0.236307
O O4 0.321427 0.781846 0.066336
O O5 0.728185 0.781326 0.809309
O O6 0.024393 0.771320 0.934810
O O7 0.824778 0.839866 0.306589
O O8 0.818148 0.618074 0.160072
O O9 0.972181 0.500000 0.552630
O O10 0.228889 0.620454 0.704924
O O11 0.076342 0.500000 0.060883
O O12 0.706368 0.000000 0.635789
#
# Coordination Sequence:
#
# PCOD8052474 Si02
#       6
#     2   2   1   2   1   2
#     4  11  24  41  59  85 125 162 192 240 303 351
#     4  11  22  39  64  90 115 154 204 245 287 350
#     4  10  20  38  61  88 121 152 187 244 307 344
#     4  11  24  41  59  85 125 162 192 240 303 351
#     4  10  20  38  61  88 121 152 187 244 307 344
#     4  11  22  39  64  90 115 154 204 245 287 350
#
# _framework density 21.467649999999999
#
# number of rings (size 3 to 8) (size 9 to 14) (size 15 to 20)
#    0.000    1.200    0.000    8.400    0.000    8.000 
#    0.000    6.000    0.000    0.000    0.000    0.000 
#    0.000    0.000    0.000    0.000    0.000    0.000 
#
# Total GULP energy -124028.759231 kJ/mol
# GULP energy per Si atom -12402.875923 kJ/mol
# Density = 2.141879 g / cm^3
# Si number density = 21.467650 Si / 1000 Ang^3
#
#
#
# Elastic Constant Matrix: (Units=GPa)
#
#
# Indices 1 2 3 4 5 6 
#
# 1 63.1205 64.0234 24.9175 0.0000 17.2800 0.0000
# 2 64.0234 127.6185 54.4766 0.0000 33.5088 0.0000
# 3 24.9175 54.4766 122.8772 0.0000 25.5158 0.0000
# 4 0.0000 0.0000 0.0000 32.6875 0.0000 16.9543
# 5 17.2800 33.5088 25.5158 0.0000 45.3876 0.0000
# 6 0.0000 0.0000 0.0000 16.9543 0.0000 26.8015
#
#
#
# Elastic Compliance Matrix: (Units=1/GPa)
#
#
# Indices 1 2 3 4 5 6 
#
# 1 0.032334 -0.016410 0.000859 0.000000 -0.000678 0.000000
# 2 -0.016410 0.019296 -0.004038 0.000000 -0.005728 0.000000
# 3 0.000859 -0.004038 0.010419 0.000000 -0.003204 0.000000
# 4 0.000000 0.000000 0.000000 0.045532 0.000000 -0.028803
# 5 -0.000678 -0.005728 -0.003204 0.000000 0.028321 0.000000
# 6 0.000000 0.000000 0.000000 -0.028803 0.000000 0.055532
#
#
# Mechanical properties :
#
#
# Convention : Reuss Voigt Hill
#
# Bulk Modulus (GPa) = 43.72037 66.71679 55.21858
# Shear Modulus (GPa) = 20.98771 32.32189 26.65480
#
# Velocity S-wave (km/s) = 3.13012 3.88443 3.52749
# Velocity P-wave (km/s) = 5.78563 7.15986 6.50911
#
# Compressibility (1/GPa) = 0.02287263
#
# Stress axis : x y z
#
# Youngs Moduli (GPa) = 30.92739 51.82429 95.97632
#
# Poissons Ratio (x) = 0.85043 -0.08247
# Poissons Ratio (y) = 0.50752 0.38751
# Poissons Ratio (z) = -0.02657 0.20924
#
# Static dielectric constant tensor:
#      x y z
#    x 3.645860 0.000000 0.004980 
#    y 0.000000 4.158350 0.000000 
#    z 0.004980 0.000000 4.054170 
# 
# 
# High freq. dielectric constant tensor:
#      x y z
#    x 1.817260 0.000000 0.005400 
#    y 0.000000 1.848290 0.000000 
#    z 0.005400 0.000000 1.864210 
# 
# From -- ./inp_files/880.got.cif
#   From: 2010.03.12/outbox.cif.g09.slc.cpg/sg6_1_cif.got.tgz:880.got - 2010.03.30 10:24:59.
