data_PCOD8052731
_publ_section_title
;
Structure prediction by ZEFSAII (Michael W. Deem and Ramdas Pophale) SiO2 
 PCOD8052731
Probable space group: C M
;
_chemical_formula_sum "Si O2"
_cell_formula_units_Z 32
_cell_length_a 19.310689
_cell_length_b 8.947298
_cell_length_c 11.700782
_cell_angle_alpha 90.000000
_cell_angle_beta 109.258311
_cell_angle_gamma 90.000000
_cell_volume 1908.514669
_symmetry_space_group_name_H-M "C M"
_symmetry_group_IT_number 8
_symmetry_cell_setting 'monoclinic'
loop_
_space_group_symop_operation_xyz
x,y,z
x,-y,z
1/2+x,1/2+y,z
1/2+x,1/2-y,z
loop_
_atom_site_type_symbol
_atom_site_label
_atom_site_fract_x
_atom_site_fract_y
_atom_site_fract_z
Si Si1 0.850270 0.173198 0.028770
Si Si2 0.925128 0.324138 0.393603
Si Si3 0.283838 0.672775 0.224129
Si Si4 0.887077 0.334840 0.614784
Si Si5 0.813870 0.176342 0.761260
Si Si6 0.145326 0.324736 0.295295
Si Si7 0.224980 0.833605 0.538072
Si Si8 0.496463 0.677541 0.229317
O O1 0.786742 0.200837 0.088653
O O2 0.928035 0.237297 0.116400
O O3 0.862522 0.000000 0.012151
O O4 0.826415 0.244477 0.894840
O O5 0.934098 0.500000 0.377712
O O6 0.843691 0.275673 0.315466
O O7 0.937495 0.284005 0.535205
O O8 0.985819 0.236159 0.353319
O O9 0.303484 0.500000 0.261964
O O10 0.203708 0.713701 0.227897
O O11 0.911119 0.500000 0.671051
O O12 0.885389 0.220774 0.721732
O O13 0.803951 0.343843 0.518360
O O14 0.740021 0.252206 0.668933
O O15 0.803179 0.000000 0.754650
O O16 0.132739 0.500000 0.301242
O O17 0.169900 0.262216 0.431480
O O18 0.070177 0.245829 0.216342
O O19 0.192118 0.000000 0.539590
O O20 0.501218 0.500000 0.233878
#
# Coordination Sequence:
#
# PCOD8052731 Si02
#       8
#     4   4   4   4   4   4   4   4
#     4   8  16  31  48  69  93 124 160 196 237 278
#     4  10  17  29  47  70  96 121 157 198 235 280
#     4   9  17  29  47  68  94 124 157 196 237 280
#     4   8  16  27  43  68  96 120 146 190 238 274
#     4   9  15  26  47  71  92 119 161 202 231 273
#     4  11  20  31  49  74  98 125 161 196 235 287
#     4   9  17  29  45  69  97 123 150 190 240 279
#     4  10  21  34  48  67 100 134 156 190 241 289
#
# _framework density 16.766967000000001
#
# number of rings (size 3 to 8) (size 9 to 14) (size 15 to 20)
#    0.750    2.000    1.250    2.250    0.000    1.500 
#    0.000    6.250    0.000    1.500    0.000    5.250 
#    0.000    0.000    0.000    0.000    0.000    0.000 
#
# Total GULP energy -198212.510559 kJ/mol
# GULP energy per Si atom -12388.281910 kJ/mol
# Density = 1.672880 g / cm^3
# Si number density = 16.766967 Si / 1000 Ang^3
#
#
#
# Elastic Constant Matrix: (Units=GPa)
#
#
# Indices 1 2 3 4 5 6 
#
# 1 83.4363 29.9180 39.6402 0.0000 -7.1567 0.0000
# 2 29.9180 74.5753 34.5086 0.0000 -5.3752 0.0000
# 3 39.6402 34.5086 112.4785 0.0000 -7.2496 0.0000
# 4 0.0000 0.0000 0.0000 17.1862 0.0000 -1.0360
# 5 -7.1567 -5.3752 -7.2496 0.0000 16.7005 0.0000
# 6 0.0000 0.0000 0.0000 -1.0360 0.0000 25.0101
#
#
#
# Elastic Compliance Matrix: (Units=1/GPa)
#
#
# Indices 1 2 3 4 5 6 
#
# 1 0.015705 -0.004179 -0.004018 0.000000 0.003641 0.000000
# 2 -0.004179 0.016891 -0.003574 0.000000 0.002094 0.000000
# 3 -0.004018 -0.003574 0.011541 0.000000 0.002138 0.000000
# 4 0.000000 0.000000 0.000000 0.058332 0.000000 0.002416
# 5 0.003641 0.002094 0.002138 0.000000 0.063041 0.000000
# 6 0.000000 0.000000 0.000000 0.002416 0.000000 0.040084
#
#
# Mechanical properties :
#
#
# Convention : Reuss Voigt Hill
#
# Bulk Modulus (GPa) = 48.55758 53.18040 50.86899
# Shear Modulus (GPa) = 21.18643 22.87423 22.03033
#
# Velocity S-wave (km/s) = 3.55855 3.69757 3.62873
# Velocity P-wave (km/s) = 6.77550 7.07217 6.92543
#
# Compressibility (1/GPa) = 0.02059411
#
# Stress axis : x y z
#
# Youngs Moduli (GPa) = 63.67467 59.20445 86.64704
#
# Poissons Ratio (x) = 0.24740 0.34815
# Poissons Ratio (y) = 0.26608 0.30971
# Poissons Ratio (z) = 0.25585 0.21162
#
# Static dielectric constant tensor:
#      x y z
#    x 2.936700 0.000000 -0.147710 
#    y 0.000000 3.080260 0.000000 
#    z -0.147710 0.000000 3.202670 
# 
# 
# High freq. dielectric constant tensor:
#      x y z
#    x 1.611740 0.000000 -0.017010 
#    y 0.000000 1.647530 0.000000 
#    z -0.017010 0.000000 1.633140 
# 
# From -- ./inp_files/22762.got.cif
#   From: 2010.03.12/outbox.cif.g09.slc.cpg/sg8_12_cif.got.tgz:22762.got - 2010.03.31 10:45:26.
