data_PCOD8052815
_publ_section_title
;
Structure prediction by ZEFSAII (Michael W. Deem and Ramdas Pophale) SiO2 
 PCOD8052815
Probable space group: C M
;
_chemical_formula_sum "Si O2"
_cell_formula_units_Z 32
_cell_length_a 20.822319
_cell_length_b 8.604223
_cell_length_c 20.319702
_cell_angle_alpha 90.000000
_cell_angle_beta 28.355483
_cell_angle_gamma 90.000000
_cell_volume 1729.009543
_symmetry_space_group_name_H-M "C M"
_symmetry_group_IT_number 8
_symmetry_cell_setting 'monoclinic'
loop_
_space_group_symop_operation_xyz
x,y,z
x,-y,z
1/2+x,1/2+y,z
1/2+x,1/2-y,z
loop_
_atom_site_type_symbol
_atom_site_label
_atom_site_fract_x
_atom_site_fract_y
_atom_site_fract_z
Si Si1 0.351710 0.318626 0.788370
Si Si2 0.937887 0.318302 0.465458
Si Si3 0.881825 0.184686 0.909674
Si Si4 0.106418 0.183114 0.932370
Si Si5 0.640750 0.315724 0.755052
Si Si6 0.048223 0.818842 0.496670
Si Si7 0.694126 0.318144 0.182852
Si Si8 0.304684 0.317547 0.215680
O O1 0.323466 0.500000 0.813353
O O2 0.384165 0.259141 0.832213
O O3 0.216164 0.239598 0.885023
O O4 0.481182 0.276532 0.626833
O O5 0.958485 0.500000 0.433642
O O6 0.974335 0.282857 0.508142
O O7 0.034347 0.222590 0.329096
O O8 0.782749 0.266533 0.593609
O O9 0.018693 0.247909 0.820416
O O10 0.869476 0.000000 0.926877
O O11 0.752978 0.264035 0.060091
O O12 0.131071 0.255708 0.837433
O O13 0.115609 0.000000 0.918319
O O14 0.958397 0.233116 0.091932
O O15 0.631642 0.500000 0.767993
O O16 0.206924 0.773554 0.354576
O O17 0.032213 0.000000 0.493865
O O18 0.715204 0.500000 0.174654
O O19 0.770496 0.224771 0.171287
O O20 0.283117 0.500000 0.244569
#
# Coordination Sequence:
#
# PCOD8052815 Si02
#       8
#     4   4   4   4   4   4   4   4
#     4  10  22  36  55  80 110 146 176 219 271 318
#     4  10  18  31  54  80 103 137 180 221 266 317
#     4  10  20  39  58  76 107 145 185 217 261 326
#     4  10  19  34  56  81 107 139 181 226 263 310
#     4   9  17  32  56  81 102 135 183 226 257 306
#     4  10  19  32  49  78 112 139 172 220 273 315
#     4  11  21  33  51  80 112 141 173 222 275 313
#     4  10  19  33  55  80 105 142 182 219 264 315
#
# _framework density 18.507704
#
# number of rings (size 3 to 8) (size 9 to 14) (size 15 to 20)
#    0.000    2.000    2.500    3.750    0.000    2.000 
#    0.000    2.500    0.000    3.000    0.000    0.000 
#    0.000    0.000    0.000    0.000    0.000    0.000 
#
# Total GULP energy -198396.966433 kJ/mol
# GULP energy per Si atom -12399.810402 kJ/mol
# Density = 1.846558 g / cm^3
# Si number density = 18.507704 Si / 1000 Ang^3
#
#
#
# Elastic Constant Matrix: (Units=GPa)
#
#
# Indices 1 2 3 4 5 6 
#
# 1 90.8987 4.5254 71.8227 0.0000 -8.1889 0.0000
# 2 4.5254 24.5693 30.3313 0.0006 -5.3674 -0.0003
# 3 71.8227 30.3313 164.8840 0.0006 -1.3739 -0.0003
# 4 0.0000 0.0006 0.0006 27.0886 -0.0002 1.5056
# 5 -8.1889 -5.3674 -1.3739 -0.0002 26.5132 0.0001
# 6 0.0000 -0.0003 -0.0003 1.5056 0.0001 19.8103
#
#
#
# Elastic Compliance Matrix: (Units=1/GPa)
#
#
# Indices 1 2 3 4 5 6 
#
# 1 0.019337 0.010904 -0.010365 0.000000 0.007643 0.000000
# 2 0.010904 0.061696 -0.015974 -0.000001 0.015030 0.000001
# 3 -0.010365 -0.015974 0.013471 0.000000 -0.005737 0.000000
# 4 0.000000 -0.000001 0.000000 0.037072 0.000000 -0.002817
# 5 0.007643 0.015030 -0.005737 0.000000 0.042823 0.000000
# 6 0.000000 0.000001 0.000000 -0.002817 0.000000 0.050693
#
#
# Mechanical properties :
#
#
# Convention : Reuss Voigt Hill
#
# Bulk Modulus (GPa) = 15.71491 54.85675 35.28583
# Shear Modulus (GPa) = 18.03921 26.26059 22.14990
#
# Velocity S-wave (km/s) = 3.12538 3.77092 3.46322
# Velocity P-wave (km/s) = 4.64042 6.97596 5.92442
#
# Compressibility (1/GPa) = 0.06363383
#
# Stress axis : x y z
#
# Youngs Moduli (GPa) = 51.71441 16.20840 74.23556
#
# Poissons Ratio (x) = -0.17674 0.76947
# Poissons Ratio (y) = -0.56390 1.18583
# Poissons Ratio (z) = 0.53604 0.25891
#
# Static dielectric constant tensor:
#      x y z
#    x 3.250250 0.000000 -0.064980 
#    y 0.000000 3.224670 0.000000 
#    z -0.064980 0.000000 3.808680 
# 
# 
# High freq. dielectric constant tensor:
#      x y z
#    x 1.683420 0.000000 -0.006810 
#    y 0.000000 1.707200 0.000000 
#    z -0.006810 0.000000 1.738500 
# 
# From -- ./inp_files/31322.got.cif
#   From: 2010.03.12/outbox.cif.g09.slc.cpg/sg8_16_cif.got.tgz:31322.got - 2010.03.31 10:45:26.
