data_PCOD8052149
_publ_section_title
;
Structure prediction by ZEFSAII (Michael W. Deem and Ramdas Pophale) SiO2 
 PCOD8052149
Probable space group: C 2
;
_chemical_formula_sum "Si O2"
_cell_formula_units_Z 20
_cell_length_a 14.612789
_cell_length_b 11.609650
_cell_length_c 11.759152
_cell_angle_alpha 90.000000
_cell_angle_beta 153.516664
_cell_angle_gamma 90.000000
_cell_volume 889.615312
_symmetry_space_group_name_H-M "C 2"
_symmetry_group_IT_number 5
_symmetry_cell_setting 'monoclinic'
loop_
_space_group_symop_operation_xyz
x,y,z
-x,y,-z
1/2+x,1/2+y,z
1/2-x,1/2+y,-z
loop_
_atom_site_type_symbol
_atom_site_label
_atom_site_fract_x
_atom_site_fract_y
_atom_site_fract_z
Si Si1 0.204832 0.119740 0.352160
Si Si2 0.812524 0.980482 0.212463
Si Si3 0.886933 0.922156 0.047038
Si Si4 0.500000 0.821072 0.000000
Si Si5 0.000000 0.515617 0.500000
Si Si6 0.006978 0.665480 0.878854
O O1 0.381336 0.096362 0.456442
O O2 0.301114 0.126515 0.584982
O O3 0.031213 0.021849 0.156554
O O4 0.107196 0.242572 0.214653
O O5 0.892945 0.916196 0.189867
O O6 0.000000 0.017089 0.500000
O O7 0.662671 0.897631 0.114674
O O8 0.701736 0.097092 0.043671
O O9 0.973284 0.801659 0.100784
O O10 0.656725 0.935440 0.743885
O O11 0.000000 0.620990 0.000000
#
# Coordination Sequence:
#
# PCOD8052149 Si02
#       6
#     4   4   4   2   2   4
#     4  12  27  49  78 108 145 195 250 295 364 441
#     4  12  28  48  72 108 149 195 245 296 371 431
#     4  12  28  47  77 109 145 194 245 304 363 434
#     4  12  28  48  78 104 148 200 244 298 356 452
#     4  12  24  50  74 110 144 190 252 292 370 434
#     4  12  27  48  73 107 150 186 240 310 362 425
#
# _framework density 22.481625999999999
#
# number of rings (size 3 to 8) (size 9 to 14) (size 15 to 20)
#    0.000    0.000    5.000    3.600   11.200    1.600 
#    0.000    0.000    0.000    0.000    0.000    0.000 
#    0.000    0.000    0.000    0.000    0.000    0.000 
#
# Total GULP energy -124071.082136 kJ/mol
# GULP energy per Si atom -12407.108214 kJ/mol
# Density = 2.243046 g / cm^3
# Si number density = 22.481626 Si / 1000 Ang^3
#
#
#
# Elastic Constant Matrix: (Units=GPa)
#
#
# Indices 1 2 3 4 5 6 
#
# 1 106.1254 25.7829 29.9654 0.0000 -2.1109 0.0000
# 2 25.7829 119.1097 36.6596 0.0001 12.6519 0.0001
# 3 29.9654 36.6596 173.1073 0.0002 -14.4712 0.0002
# 4 0.0000 0.0001 0.0002 25.2115 0.0002 -10.1785
# 5 -2.1109 12.6519 -14.4712 0.0002 44.7379 0.0001
# 6 0.0000 0.0001 0.0002 -10.1785 0.0001 23.3446
#
#
#
# Elastic Compliance Matrix: (Units=1/GPa)
#
#
# Indices 1 2 3 4 5 6 
#
# 1 0.010266 -0.001874 -0.001331 0.000000 0.000584 0.000000
# 2 -0.001874 0.009806 -0.002047 0.000000 -0.003523 0.000000
# 3 -0.001331 -0.002047 0.006664 0.000000 0.002672 0.000000
# 4 0.000000 0.000000 0.000000 0.048138 0.000000 0.020989
# 5 0.000584 -0.003523 0.002672 0.000000 0.024241 0.000000
# 6 0.000000 0.000000 0.000000 0.020989 0.000000 0.051988
#
#
# Mechanical properties :
#
#
# Convention : Reuss Voigt Hill
#
# Bulk Modulus (GPa) = 61.61218 64.79536 63.20377
# Shear Modulus (GPa) = 29.93720 39.05444 34.49582
#
# Velocity S-wave (km/s) = 3.65311 4.17246 3.92139
# Velocity P-wave (km/s) = 6.72746 7.21780 6.97694
#
# Compressibility (1/GPa) = 0.01623056
#
# Stress axis : x y z
#
# Youngs Moduli (GPa) = 97.41165 101.98303 150.06083
#
# Poissons Ratio (x) = 0.19116 0.19977
# Poissons Ratio (y) = 0.18259 0.30712
# Poissons Ratio (z) = 0.12968 0.20872
#
# Static dielectric constant tensor:
#      x y z
#    x 4.295340 0.000000 -0.131440 
#    y 0.000000 3.922130 0.000000 
#    z -0.131440 0.000000 4.426930 
# 
# 
# High freq. dielectric constant tensor:
#      x y z
#    x 1.895080 0.000000 -0.009130 
#    y 0.000000 1.889470 0.000000 
#    z -0.009130 0.000000 1.906990 
# 
# From -- ./inp_files/38991.got.cif
#   From: 2010.03.12/outbox.cif.g09.slc.cpg/sg5_20_cif.got.tgz:38991.got - 2010.03.31 09:47:26.
