data_PCOD8052239
_publ_section_title
;
Structure prediction by ZEFSAII (Michael W. Deem and Ramdas Pophale) SiO2 
 PCOD8052239
Probable space group: P M
;
_chemical_formula_sum "Si O2"
_cell_formula_units_Z 16
_cell_length_a 19.757065
_cell_length_b 8.793188
_cell_length_c 14.381497
_cell_angle_alpha 90.000000
_cell_angle_beta 19.224908
_cell_angle_gamma 90.000000
_cell_volume 822.686728
_symmetry_space_group_name_H-M "P M"
_symmetry_group_IT_number 6
_symmetry_cell_setting 'monoclinic'
loop_
_space_group_symop_operation_xyz
x,y,z
x,-y,z
loop_
_atom_site_type_symbol
_atom_site_label
_atom_site_fract_x
_atom_site_fract_y
_atom_site_fract_z
Si Si1 0.437600 0.181245 0.839390
Si Si2 0.595033 0.679258 0.142082
Si Si3 0.898990 0.181240 0.227796
Si Si4 0.935242 0.179405 0.810866
Si Si5 0.316398 0.819630 0.197693
Si Si6 0.060408 0.819543 0.213442
Si Si7 0.703696 0.180564 0.812510
Si Si8 0.146810 0.820238 0.727567
O O1 0.666002 0.244742 0.524371
O O2 0.442383 0.000000 0.838383
O O3 0.350721 0.246234 0.049762
O O4 0.286506 0.235799 0.952502
O O5 0.585917 0.500000 0.152822
O O6 0.366286 0.742469 0.440909
O O7 0.718202 0.740660 0.893245
O O8 0.720144 0.736395 0.070372
O O9 0.008167 0.246309 0.179212
O O10 0.893896 0.000000 0.236355
O O11 0.024617 0.239681 0.976113
O O12 0.100725 0.235649 0.519569
O O13 0.014474 0.227276 0.809690
O O14 0.898581 0.000000 0.852768
O O15 0.323162 0.000000 0.185788
O O16 0.497390 0.762392 0.029912
O O17 0.894788 0.762395 0.503246
O O18 0.049490 0.000000 0.223066
O O19 0.707604 0.000000 0.822317
O O20 0.182998 0.000000 0.682721
#
# Coordination Sequence:
#
# PCOD8052239 Si02
#       8
#     2   2   2   2   2   2   2   2
#     4   9  15  24  41  73 112 142 166 207 271 329
#     4  12  25  38  55  81 114 150 186 234 285 334
#     4   9  17  29  47  78 113 139 174 224 273 321
#     4  10  20  36  58  82 108 146 191 233 277 331
#     4   9  15  27  51  80 110 141 176 219 271 327
#     4   9  16  26  48  80 115 144 167 213 276 331
#     4  10  17  32  57  83 112 147 183 221 271 334
#     4  10  21  38  60  83 110 147 191 237 278 323
#
# _framework density 19.448471000000001
#
# number of rings (size 3 to 8) (size 9 to 14) (size 15 to 20)
#    0.000    2.250    2.500    1.875    0.000    3.500 
#    0.000    3.750    0.000    0.750    0.000    0.875 
#    0.000    0.000    0.000    0.000    0.000    0.000 
#
# Total GULP energy -198381.535478 kJ/mol
# GULP energy per Si atom -12398.845967 kJ/mol
# Density = 1.940421 g / cm^3
# Si number density = 19.448471 Si / 1000 Ang^3
#
#
#
# Elastic Constant Matrix: (Units=GPa)
#
#
# Indices 1 2 3 4 5 6 
#
# 1 171.7110 35.2889 101.6550 0.0000 -9.6672 0.0000
# 2 35.2889 33.5805 29.8614 0.0000 -2.7116 0.0000
# 3 101.6550 29.8614 104.8648 0.0000 8.7652 0.0000
# 4 0.0000 0.0000 0.0000 4.4316 0.0000 -1.7319
# 5 -9.6672 -2.7116 8.7652 0.0000 40.5774 0.0000
# 6 0.0000 0.0000 0.0000 -1.7319 0.0000 3.4231
#
#
#
# Elastic Compliance Matrix: (Units=1/GPa)
#
#
# Indices 1 2 3 4 5 6 
#
# 1 0.015566 -0.002531 -0.014934 0.000000 0.006765 0.000000
# 2 -0.002531 0.041401 -0.009691 0.000000 0.004257 0.000000
# 3 -0.014934 -0.009691 0.027623 0.000000 -0.010173 0.000000
# 4 0.000000 0.000000 0.000000 0.281263 0.000000 0.142304
# 5 0.006765 0.004257 -0.010173 0.000000 0.028738 0.000000
# 6 0.000000 0.000000 0.000000 0.142304 0.000000 0.364128
#
#
# Mechanical properties :
#
#
# Convention : Reuss Voigt Hill
#
# Bulk Modulus (GPa) = 33.02899 71.52968 52.27933
# Shear Modulus (GPa) = 6.07440 19.24315 12.65878
#
# Velocity S-wave (km/s) = 1.76921 3.14895 2.55402
# Velocity P-wave (km/s) = 4.60360 7.07673 5.96964
#
# Compressibility (1/GPa) = 0.03027643
#
# Stress axis : x y z
#
# Youngs Moduli (GPa) = 64.24178 24.15391 36.20128
#
# Poissons Ratio (x) = 0.06114 0.54064
# Poissons Ratio (y) = 0.16262 0.35084
# Poissons Ratio (z) = 0.95941 0.23408
#
# Static dielectric constant tensor:
#      x y z
#    x 3.854340 0.000000 -0.028430 
#    y 0.000000 2.856390 0.000000 
#    z -0.028430 0.000000 3.705620 
# 
# 
# High freq. dielectric constant tensor:
#      x y z
#    x 1.773960 0.000000 -0.008760 
#    y 0.000000 1.683810 0.000000 
#    z -0.008760 0.000000 1.763800 
# 
# From -- ./inp_files/5664.got.cif
#   From: 2010.03.12/outbox.cif.g09.slc.cpg/sg6_3_cif.got.tgz:5664.got - 2010.03.30 10:24:59.
