data_PCOD8052150
_publ_section_title
;
Structure prediction by ZEFSAII (Michael W. Deem and Ramdas Pophale) SiO2 
 PCOD8052150
Probable space group: C 2
;
_chemical_formula_sum "Si O2"
_cell_formula_units_Z 24
_cell_length_a 13.296207
_cell_length_b 6.538093
_cell_length_c 19.091966
_cell_angle_alpha 90.000000
_cell_angle_beta 36.606174
_cell_angle_gamma 90.000000
_cell_volume 989.697815
_symmetry_space_group_name_H-M "C 2"
_symmetry_group_IT_number 5
_symmetry_cell_setting 'monoclinic'
loop_
_space_group_symop_operation_xyz
x,y,z
-x,y,-z
1/2+x,1/2+y,z
1/2-x,1/2+y,-z
loop_
_atom_site_type_symbol
_atom_site_label
_atom_site_fract_x
_atom_site_fract_y
_atom_site_fract_z
Si Si1 0.471135 0.437800 0.900367
Si Si2 0.731644 0.776006 0.923179
Si Si3 0.507001 0.080990 0.324040
Si Si4 0.657119 0.777211 0.505319
Si Si5 0.500000 0.454465 0.500000
Si Si6 0.711270 0.087824 0.351501
Si Si7 0.000000 0.613231 0.000000
O O1 0.303999 0.356784 0.955850
O O2 0.597458 0.520047 0.770041
O O3 0.427449 0.630625 0.973450
O O4 0.541996 0.253571 0.908944
O O5 0.872841 0.634209 0.807446
O O6 0.666076 0.970983 0.915810
O O7 0.353857 0.241031 0.409941
O O8 0.417617 0.855822 0.377572
O O9 0.617046 0.064155 0.331436
O O10 0.542946 0.588128 0.544431
O O11 0.641392 0.951782 0.454187
O O12 0.671996 0.324204 0.392442
#
# Coordination Sequence:
#
# PCOD8052150 Si02
#       7
#     4   4   4   4   2   4   2
#     4  12  27  53  80 118 154 200 266 316 387 462
#     4  12  27  52  81 116 153 207 259 319 390 459
#     4  12  25  50  75 110 157 198 258 314 382 459
#     4  12  26  49  75 116 153 207 260 309 392 455
#     4  12  24  50  78 110 158 206 246 326 382 446
#     4  12  25  50  75 111 159 197 254 325 373 463
#     4  12  26  54  86 110 156 210 246 324 394 454
#
# _framework density 24.249828000000001
#
# number of rings (size 3 to 8) (size 9 to 14) (size 15 to 20)
#    0.000    0.000    6.667    3.500    0.000    4.000 
#   15.000    0.000    0.000    0.000    0.000    0.000 
#    0.000    0.000    0.000    0.000    0.000    0.000 
#
# Total GULP energy -148678.762681 kJ/mol
# GULP energy per Si atom -12389.896890 kJ/mol
# Density = 2.419463 g / cm^3
# Si number density = 24.249828 Si / 1000 Ang^3
#
#
#
# Elastic Constant Matrix: (Units=GPa)
#
#
# Indices 1 2 3 4 5 6 
#
# 1 63.5649 23.3889 -1.3505 0.0000 -5.3798 0.0000
# 2 23.3889 143.1220 64.2883 0.0001 2.6630 -0.0001
# 3 -1.3505 64.2883 112.0440 0.0000 -1.7490 0.0000
# 4 0.0000 0.0001 0.0000 34.4085 0.0000 -5.0865
# 5 -5.3798 2.6630 -1.7490 0.0000 24.5900 0.0000
# 6 0.0000 -0.0001 0.0000 -5.0865 0.0000 49.7652
#
#
#
# Elastic Compliance Matrix: (Units=1/GPa)
#
#
# Indices 1 2 3 4 5 6 
#
# 1 0.017711 -0.004184 0.002685 0.000000 0.004519 0.000000
# 2 -0.004184 0.010450 -0.006085 0.000000 -0.002480 0.000000
# 3 0.002685 -0.006085 0.012482 0.000000 0.002134 0.000000
# 4 0.000000 0.000000 0.000000 0.029508 0.000000 0.003016
# 5 0.004519 -0.002480 0.002134 0.000000 0.042076 0.000000
# 6 0.000000 0.000000 0.000000 0.003016 0.000000 0.020403
#
#
# Mechanical properties :
#
#
# Convention : Reuss Voigt Hill
#
# Bulk Modulus (GPa) = 39.25532 54.59826 46.92679
# Shear Modulus (GPa) = 31.99134 37.24636 34.61885
#
# Velocity S-wave (km/s) = 3.63607 3.92336 3.78245
# Velocity P-wave (km/s) = 5.81817 6.56411 6.20236
#
# Compressibility (1/GPa) = 0.02547426
#
# Stress axis : x y z
#
# Youngs Moduli (GPa) = 56.46156 95.68929 80.11274
#
# Poissons Ratio (x) = 0.40041 -0.21510
# Poissons Ratio (y) = 0.23626 0.48752
# Poissons Ratio (z) = -0.15160 0.58231
#
# Static dielectric constant tensor:
#      x y z
#    x 4.593270 0.000000 -0.117620 
#    y 0.000000 4.879600 0.000000 
#    z -0.117620 0.000000 4.861780 
# 
# 
# High freq. dielectric constant tensor:
#      x y z
#    x 1.986810 0.000000 -0.006670 
#    y 0.000000 1.972220 0.000000 
#    z -0.006670 0.000000 1.946560 
# 
# From -- ./inp_files/65644.got.cif
#   From: 2010.03.12/outbox.cif.g09.slc.cpg/sg5_33_cif.got.tgz:65644.got - 2010.03.31 09:47:26.
