data_PCOD8052873
_publ_section_title
;
Structure prediction by ZEFSAII (Michael W. Deem and Ramdas Pophale) SiO2 
 PCOD8052873
Probable space group: C M
;
_chemical_formula_sum "Si O2"
_cell_formula_units_Z 24
_cell_length_a 19.213537
_cell_length_b 7.448628
_cell_length_c 13.123667
_cell_angle_alpha 90.000000
_cell_angle_beta 43.110596
_cell_angle_gamma 90.000000
_cell_volume 1283.569449
_symmetry_space_group_name_H-M "C M"
_symmetry_group_IT_number 8
_symmetry_cell_setting 'monoclinic'
loop_
_space_group_symop_operation_xyz
x,y,z
x,-y,z
1/2+x,1/2+y,z
1/2+x,1/2-y,z
loop_
_atom_site_type_symbol
_atom_site_label
_atom_site_fract_x
_atom_site_fract_y
_atom_site_fract_z
Si Si1 0.332870 0.000000 0.716051
Si Si2 0.173805 0.000000 0.724091
Si Si3 0.675727 0.792109 0.222854
Si Si4 0.063771 0.291290 0.729667
Si Si5 0.501401 0.500000 0.075775
Si Si6 0.393254 0.793425 0.076724
Si Si7 0.524347 0.802174 0.549136
Si Si8 0.160490 0.000000 0.070428
O O1 0.286215 0.000000 0.652364
O O2 0.403724 0.821451 0.652024
O O3 0.249063 0.000000 0.892683
O O4 0.158392 0.821116 0.673124
O O5 0.095335 0.000000 0.899560
O O6 0.780962 0.769659 0.169506
O O7 0.586911 0.708628 0.390977
O O8 0.674450 0.679182 0.121003
O O9 0.656466 0.000000 0.214547
O O10 0.094296 0.500000 0.697684
O O11 0.039252 0.211277 0.643561
O O12 0.962584 0.258342 0.903740
O O13 0.433420 0.677557 0.129524
O O14 0.548121 0.500000 0.139500
O O15 0.395360 0.000000 0.108410
O O16 0.574281 0.000000 0.505531
#
# Coordination Sequence:
#
# PCOD8052873 Si02
#       8
#     2   2   4   4   2   4   4   2
#     4   9  18  39  58  78 114 153 176 231 284 322
#     4   9  18  31  58  80 105 139 184 229 275 324
#     4  11  21  35  58  83 117 147 189 233 279 329
#     4   9  17  33  56  82 107 139 184 232 272 323
#     4   9  20  35  52  84 115 137 182 239 281 318
#     4  10  18  33  59  84 108 143 188 233 276 329
#     4   8  18  34  56  74 113 148 174 225 281 317
#     4  11  22  37  62  84 110 153 192 227 278 340
#
# _framework density 18.697858
#
# number of rings (size 3 to 8) (size 9 to 14) (size 15 to 20)
#    0.500    2.000    1.667    1.000    0.000    1.333 
#    0.000    4.167    5.500    0.000    0.000    0.000 
#    0.000    0.000    0.000    0.000    0.000    0.000 
#
# Total GULP energy -148714.844976 kJ/mol
# GULP energy per Si atom -12392.903748 kJ/mol
# Density = 1.865530 g / cm^3
# Si number density = 18.697858 Si / 1000 Ang^3
#
#
#
# Elastic Constant Matrix: (Units=GPa)
#
#
# Indices 1 2 3 4 5 6 
#
# 1 175.2289 51.0311 50.2915 0.0000 -2.4106 -0.0003
# 2 51.0311 95.8657 28.2635 -0.0003 -1.9206 -0.0019
# 3 50.2915 28.2635 81.3418 -0.0001 -6.6794 -0.0005
# 4 0.0000 -0.0003 -0.0001 7.3744 0.0003 -1.7548
# 5 -2.4106 -1.9206 -6.6794 0.0003 5.8174 0.0001
# 6 -0.0003 -0.0019 -0.0005 -1.7548 0.0001 23.1200
#
#
#
# Elastic Compliance Matrix: (Units=1/GPa)
#
#
# Indices 1 2 3 4 5 6 
#
# 1 0.007658 -0.002976 -0.003887 0.000000 -0.002273 0.000000
# 2 -0.002976 0.012782 -0.002602 0.000001 0.000000 0.000001
# 3 -0.003887 -0.002602 0.017001 0.000000 0.017051 0.000000
# 4 0.000000 0.000001 0.000000 0.138098 -0.000007 0.010482
# 5 -0.002273 0.000000 0.017051 -0.000007 0.190534 -0.000001
# 6 0.000000 0.000001 0.000000 0.010482 -0.000001 0.044048
#
#
# Mechanical properties :
#
#
# Convention : Reuss Voigt Hill
#
# Bulk Modulus (GPa) = 54.01860 67.95653 60.98756
# Shear Modulus (GPa) = 11.48840 22.11904 16.80372
#
# Velocity S-wave (km/s) = 2.48145 3.44317 3.00108
# Velocity P-wave (km/s) = 6.09615 7.22708 6.68557
#
# Compressibility (1/GPa) = 0.01851214
#
# Stress axis : x y z
#
# Youngs Moduli (GPa) = 130.58447 78.23262 58.81923
#
# Poissons Ratio (x) = 0.23281 0.22864
# Poissons Ratio (y) = 0.38861 0.15302
# Poissons Ratio (z) = 0.50761 0.20352
#
# Static dielectric constant tensor:
#      x y z
#    x 3.574910 0.000000 0.054990 
#    y 0.000000 3.359630 0.000000 
#    z 0.054990 0.000000 3.367660 
# 
# 
# High freq. dielectric constant tensor:
#      x y z
#    x 1.721210 0.000000 0.001230 
#    y 0.000000 1.716050 0.000000 
#    z 0.001230 0.000000 1.713610 
# 
# From -- ./inp_files/22709.got.cif
#   From: 2010.03.12/outbox.cif.g09.slc.cpg/sg8_12_cif.got.tgz:22709.got - 2010.03.31 10:45:26.
