data_PCOD8052380
_publ_section_title
;
Structure prediction by ZEFSAII (Michael W. Deem and Ramdas Pophale) SiO2 
 PCOD8052380
Probable space group: P M
;
_chemical_formula_sum "Si O2"
_cell_formula_units_Z 16
_cell_length_a 12.527239
_cell_length_b 9.004444
_cell_length_c 12.299823
_cell_angle_alpha 90.000000
_cell_angle_beta 144.540491
_cell_angle_gamma 90.000000
_cell_volume 804.886346
_symmetry_space_group_name_H-M "P M"
_symmetry_group_IT_number 6
_symmetry_cell_setting 'monoclinic'
loop_
_space_group_symop_operation_xyz
x,y,z
x,-y,z
loop_
_atom_site_type_symbol
_atom_site_label
_atom_site_fract_x
_atom_site_fract_y
_atom_site_fract_z
Si Si1 0.461970 0.328395 0.724160
Si Si2 0.063762 0.673828 0.318584
Si Si3 0.790459 0.675898 0.605530
Si Si4 0.186180 0.829145 0.213999
Si Si5 0.594534 0.171946 0.631029
Si Si6 0.561187 0.826156 0.229248
Si Si7 0.148849 0.826583 0.936822
Si Si8 0.691907 0.327189 0.123680
O O1 0.485224 0.500000 0.710453
O O2 0.248245 0.279290 0.537178
O O3 0.589204 0.232575 0.749331
O O4 0.529617 0.299665 0.902321
O O5 0.051111 0.500000 0.291146
O O6 0.060295 0.742314 0.195273
O O7 0.886708 0.729031 0.238091
O O8 0.782164 0.500000 0.597531
O O9 0.745499 0.738327 0.688060
O O10 0.646354 0.738303 0.400060
O O11 0.995597 0.731942 0.745305
O O12 0.399640 0.800180 0.413155
O O13 0.135401 0.000000 0.185253
O O14 0.147596 0.773029 0.060838
O O15 0.651418 0.000000 0.680013
O O16 0.653147 0.773641 0.194738
O O17 0.597483 0.000000 0.278049
O O18 0.344475 0.791414 0.044420
O O19 0.101782 0.000000 0.888746
O O20 0.700944 0.500000 0.165257
#
# Coordination Sequence:
#
# PCOD8052380 Si02
#       8
#     2   2   2   2   2   2   2   2
#     4   9  19  36  56  83 119 158 197 245 301 355
#     4   9  19  35  55  83 120 157 193 241 297 352
#     4  12  25  39  61  92 123 160 204 249 307 369
#     4   9  18  35  59  86 120 157 196 245 300 355
#     4  10  19  36  60  88 124 160 198 248 303 358
#     4  11  24  45  66  87 121 162 208 256 304 359
#     4  10  22  41  62  88 122 160 203 253 306 359
#     4  10  22  39  59  85 119 158 203 249 296 357
#
# _framework density 19.878582999999999
#
# number of rings (size 3 to 8) (size 9 to 14) (size 15 to 20)
#    0.000    2.000    1.250    1.875    1.750    4.000 
#    0.000    1.250    0.000    0.000    0.000    0.000 
#    0.000    0.000    0.000    0.000    0.000    0.000 
#
# Total GULP energy -198453.598201 kJ/mol
# GULP energy per Si atom -12403.349888 kJ/mol
# Density = 1.983334 g / cm^3
# Si number density = 19.878583 Si / 1000 Ang^3
#
#
#
# Elastic Constant Matrix: (Units=GPa)
#
#
# Indices 1 2 3 4 5 6 
#
# 1 123.1813 47.0596 23.9523 0.0000 10.9399 0.0000
# 2 47.0596 89.6219 24.6338 0.0000 6.5834 0.0000
# 3 23.9523 24.6338 46.9536 0.0000 10.6032 0.0000
# 4 0.0000 0.0000 0.0000 26.0553 0.0000 -4.2474
# 5 10.9399 6.5834 10.6032 0.0000 27.5870 0.0000
# 6 0.0000 0.0000 0.0000 -4.2474 0.0000 33.8441
#
#
#
# Elastic Compliance Matrix: (Units=1/GPa)
#
#
# Indices 1 2 3 4 5 6 
#
# 1 0.010590 -0.004734 -0.002437 0.000000 -0.002133 0.000000
# 2 -0.004734 0.015162 -0.005635 0.000000 0.000425 0.000000
# 3 -0.002437 -0.005635 0.027349 0.000000 -0.008201 0.000000
# 4 0.000000 0.000000 0.000000 0.039181 0.000000 0.004917
# 5 -0.002133 0.000425 -0.008201 0.000000 0.040145 0.000000
# 6 0.000000 0.000000 0.000000 0.004917 0.000000 0.030164
#
#
# Mechanical properties :
#
#
# Convention : Reuss Voigt Hill
#
# Bulk Modulus (GPa) = 36.37945 50.11644 43.24794
# Shear Modulus (GPa) = 25.33346 28.43802 26.88574
#
# Velocity S-wave (km/s) = 3.57376 3.78641 3.68162
# Velocity P-wave (km/s) = 5.94723 6.66197 6.31472
#
# Compressibility (1/GPa) = 0.02748805
#
# Stress axis : x y z
#
# Youngs Moduli (GPa) = 94.42833 65.95605 36.56425
#
# Poissons Ratio (x) = 0.31225 0.08910
# Poissons Ratio (y) = 0.44705 0.20605
# Poissons Ratio (z) = 0.23010 0.37169
#
# Static dielectric constant tensor:
#      x y z
#    x 3.637590 0.000000 0.137750 
#    y 0.000000 3.533880 0.000000 
#    z 0.137750 0.000000 3.740570 
# 
# 
# High freq. dielectric constant tensor:
#      x y z
#    x 1.773340 0.000000 0.009240 
#    y 0.000000 1.768820 0.000000 
#    z 0.009240 0.000000 1.780710 
# 
# From -- ./inp_files/5080.got.cif
#   From: 2010.03.12/outbox.cif.g09.slc.cpg/sg6_3_cif.got.tgz:5080.got - 2010.03.30 10:24:59.
