data_PCOD8052915
_publ_section_title
;
Structure prediction by ZEFSAII (Michael W. Deem and Ramdas Pophale) SiO2 
 PCOD8052915
Probable space group: C M
;
_chemical_formula_sum "Si O2"
_cell_formula_units_Z 32
_cell_length_a 15.371130
_cell_length_b 9.032714
_cell_length_c 25.559258
_cell_angle_alpha 90.000000
_cell_angle_beta 27.524086
_cell_angle_gamma 90.000000
_cell_volume 1639.941772
_symmetry_space_group_name_H-M "C M"
_symmetry_group_IT_number 8
_symmetry_cell_setting 'monoclinic'
loop_
_space_group_symop_operation_xyz
x,y,z
x,-y,z
1/2+x,1/2+y,z
1/2+x,1/2-y,z
loop_
_atom_site_type_symbol
_atom_site_label
_atom_site_fract_x
_atom_site_fract_y
_atom_site_fract_z
Si Si1 0.237540 0.327341 0.590470
Si Si2 0.657226 0.172751 0.752888
Si Si3 0.215377 0.675108 0.144165
Si Si4 0.286478 0.324155 0.989521
Si Si5 0.118388 0.325778 0.379732
Si Si6 0.024541 0.831057 0.621007
Si Si7 0.793005 0.670788 0.383193
Si Si8 0.432589 0.324825 0.128769
O O1 0.263791 0.500000 0.567968
O O2 0.208971 0.287541 0.666085
O O3 0.420522 0.246408 0.469882
O O4 0.055992 0.270978 0.654981
O O5 0.485224 0.273448 0.861738
O O6 0.833184 0.217989 0.694857
O O7 0.605732 0.000000 0.786023
O O8 0.219312 0.500000 0.141619
O O9 0.365282 0.730793 0.107329
O O10 0.007142 0.728162 0.271593
O O11 0.265814 0.737227 0.059874
O O12 0.271356 0.500000 0.995930
O O13 0.125195 0.257392 0.038952
O O14 0.090072 0.500000 0.395111
O O15 0.178427 0.271070 0.404469
O O16 0.274283 0.277133 0.254651
O O17 0.201879 0.809592 0.488290
O O18 0.009195 0.000000 0.647776
O O19 0.779962 0.500000 0.371394
O O20 0.468106 0.500000 0.111170
#
# Coordination Sequence:
#
# PCOD8052915 Si02
#       8
#     4   4   4   4   4   4   4   4
#     4  11  23  40  62  88 119 158 198 240 295 355
#     4  10  23  43  62  81 115 160 198 239 298 355
#     4   9  19  36  60  85 115 154 190 229 288 355
#     4  11  23  39  61  87 114 150 200 252 291 336
#     4  11  21  34  59  92 123 155 195 241 291 348
#     4  10  21  39  63  89 118 155 195 240 297 353
#     4  10  18  36  62  86 121 158 189 233 298 361
#     4  10  21  39  61  86 119 158 193 232 292 357
#
# _framework density 19.512889000000001
#
# number of rings (size 3 to 8) (size 9 to 14) (size 15 to 20)
#    0.000    1.750    2.500    1.875    0.000    5.500 
#    0.000    5.625    0.000    0.000    0.000    0.000 
#    0.000    0.000    0.000    0.000    0.000    0.000 
#
# Total GULP energy -198454.376269 kJ/mol
# GULP energy per Si atom -12403.398517 kJ/mol
# Density = 1.946848 g / cm^3
# Si number density = 19.512889 Si / 1000 Ang^3
#
#
#
# Elastic Constant Matrix: (Units=GPa)
#
#
# Indices 1 2 3 4 5 6 
#
# 1 146.6071 39.8027 41.7690 0.0021 -21.5235 -0.0007
# 2 39.8027 50.4685 40.2572 0.0009 -8.5354 -0.0003
# 3 41.7690 40.2572 96.5000 0.0007 -27.6024 -0.0015
# 4 0.0021 0.0009 0.0007 26.6944 -0.0001 -2.1180
# 5 -21.5235 -8.5354 -27.6024 -0.0001 17.9050 0.0001
# 6 -0.0007 -0.0003 -0.0015 -2.1180 0.0001 35.7217
#
#
#
# Elastic Compliance Matrix: (Units=1/GPa)
#
#
# Indices 1 2 3 4 5 6 
#
# 1 0.010005 -0.007698 0.002274 -0.000001 0.011863 0.000000
# 2 -0.007698 0.036423 -0.017070 0.000000 -0.018206 -0.000001
# 3 0.002274 -0.017070 0.026749 0.000000 0.035832 0.000001
# 4 -0.000001 0.000000 0.000000 0.037638 -0.000001 0.002232
# 5 0.011863 -0.018206 0.035832 -0.000001 0.116670 0.000001
# 6 0.000000 -0.000001 0.000001 0.002232 0.000001 0.028127
#
#
# Mechanical properties :
#
#
# Convention : Reuss Voigt Hill
#
# Bulk Modulus (GPa) = 35.47613 59.69261 47.58437
# Shear Modulus (GPa) = 16.12927 27.51399 21.82163
#
# Velocity S-wave (km/s) = 2.87818 3.75913 3.34776
# Velocity P-wave (km/s) = 5.40976 7.03556 6.27554
#
# Compressibility (1/GPa) = 0.02818797
#
# Stress axis : x y z
#
# Youngs Moduli (GPa) = 99.95458 27.45529 37.38469
#
# Poissons Ratio (x) = 0.21135 -0.08502
# Poissons Ratio (y) = 0.76945 0.63817
# Poissons Ratio (z) = -0.22731 0.46867
#
# Static dielectric constant tensor:
#      x y z
#    x 3.776370 0.000000 -0.001400 
#    y 0.000000 3.376270 0.000000 
#    z -0.001400 0.000000 3.574520 
# 
# 
# High freq. dielectric constant tensor:
#      x y z
#    x 1.775650 0.000000 -0.004490 
#    y 0.000000 1.743980 0.000000 
#    z -0.004490 0.000000 1.758430 
# 
# From -- ./inp_files/26544.got.cif
#   From: 2010.03.12/outbox.cif.g09.slc.cpg/sg8_14_cif.got.tgz:26544.got - 2010.03.31 10:45:26.
