data_PCOD8052009
_publ_section_title
;
Structure prediction by ZEFSAII (Michael W. Deem and Ramdas Pophale) SiO2 
 PCOD8052009
Probable space group: C 2
;
_chemical_formula_sum "Si O2"
_cell_formula_units_Z 28
_cell_length_a 8.682714
_cell_length_b 17.504520
_cell_length_c 13.375845
_cell_angle_alpha 90.000000
_cell_angle_beta 39.517937
_cell_angle_gamma 90.000000
_cell_volume 1293.606935
_symmetry_space_group_name_H-M "C 2"
_symmetry_group_IT_number 5
_symmetry_cell_setting 'monoclinic'
loop_
_space_group_symop_operation_xyz
x,y,z
-x,y,-z
1/2+x,1/2+y,z
1/2-x,1/2+y,-z
loop_
_atom_site_type_symbol
_atom_site_label
_atom_site_fract_x
_atom_site_fract_y
_atom_site_fract_z
Si Si1 0.128034 0.573820 0.042016
Si Si2 0.228864 0.400447 0.025907
Si Si3 0.637250 0.612902 0.714279
Si Si4 0.500000 0.992253 0.500000
Si Si5 0.430042 0.718766 0.434360
Si Si6 0.731535 0.871949 0.254017
Si Si7 0.927101 0.681833 0.746402
Si Si8 0.000000 0.291897 0.000000
O O1 0.115941 0.484380 0.071402
O O2 0.411710 0.591027 0.895089
O O3 0.013391 0.623245 0.191036
O O4 0.000000 0.593244 0.000000
O O5 0.493668 0.385678 0.841023
O O6 0.252539 0.376206 0.126618
O O7 0.023358 0.345351 0.084595
O O8 0.538651 0.674341 0.684639
O O9 0.842344 0.638760 0.689095
O O10 0.760445 0.542349 0.593806
O O11 0.555673 0.939622 0.377085
O O12 0.500000 0.670447 0.500000
O O13 0.606680 0.792258 0.347324
O O14 0.147133 0.734430 0.596632
O O15 0.732978 0.740142 0.882712
#
# Coordination Sequence:
#
# PCOD8052009 Si02
#       8
#     4   4   4   2   4   4   4   2
#     4  12  25  46  71 107 140 181 241 304 350 417
#     4  11  25  44  72 100 142 185 234 295 349 426
#     4  12  24  44  72 102 139 186 238 286 354 428
#     4  12  22  44  72  98 132 186 238 282 346 426
#     4  12  25  45  67 109 143 183 231 296 350 418
#     4  11  25  44  72 101 142 187 236 283 364 421
#     4  12  25  44  75 100 141 187 237 288 351 428
#     4  12  24  44  68 104 134 178 238 284 350 416
#
# _framework density 21.644905000000001
#
# number of rings (size 3 to 8) (size 9 to 14) (size 15 to 20)
#    0.000    0.286    5.714    3.429    2.000    0.000 
#    0.000    0.000    0.000    0.000    0.000    0.000 
#    0.000    0.000    0.000    0.000    0.000    0.000 
#
# Total GULP energy -173483.836412 kJ/mol
# GULP energy per Si atom -12391.702601 kJ/mol
# Density = 2.159564 g / cm^3
# Si number density = 21.644905 Si / 1000 Ang^3
#
#
#
# Elastic Constant Matrix: (Units=GPa)
#
#
# Indices 1 2 3 4 5 6 
#
# 1 112.3601 29.8406 4.3188 -0.0027 18.2167 0.0009
# 2 29.8406 115.2675 27.4598 -0.0014 6.8774 -0.0002
# 3 4.3188 27.4598 81.3339 -0.0070 2.0666 0.0000
# 4 -0.0027 -0.0014 -0.0070 29.7938 0.0022 2.7718
# 5 18.2167 6.8774 2.0666 0.0022 31.9690 -0.0003
# 6 0.0009 -0.0002 0.0000 2.7718 -0.0003 34.4269
#
#
#
# Elastic Compliance Matrix: (Units=1/GPa)
#
#
# Indices 1 2 3 4 5 6 
#
# 1 0.010422 -0.002474 0.000420 0.000001 -0.005434 0.000000
# 2 -0.002474 0.010129 -0.003274 0.000000 -0.000558 0.000000
# 3 0.000420 -0.003274 0.013388 0.000003 -0.000400 0.000000
# 4 0.000001 0.000000 0.000003 0.033817 -0.000003 -0.002723
# 5 -0.005434 -0.000558 -0.000400 -0.000003 0.034522 0.000001
# 6 0.000000 0.000000 0.000000 -0.002723 0.000001 0.029266
#
#
# Mechanical properties :
#
#
# Convention : Reuss Voigt Hill
#
# Bulk Modulus (GPa) = 42.95011 48.02221 45.48616
# Shear Modulus (GPa) = 33.34167 35.72743 34.53455
#
# Velocity S-wave (km/s) = 3.92904 4.06719 3.99871
# Velocity P-wave (km/s) = 6.36155 6.65511 6.50999
#
# Compressibility (1/GPa) = 0.02328283
#
# Stress axis : x y z
#
# Youngs Moduli (GPa) = 95.95329 98.72450 74.69191
#
# Poissons Ratio (x) = 0.24423 -0.03136
# Poissons Ratio (y) = 0.23737 0.24456
# Poissons Ratio (z) = -0.04029 0.32325
#
# Static dielectric constant tensor:
#      x y z
#    x 3.970140 0.000000 -0.035270 
#    y 0.000000 4.011970 0.000010 
#    z -0.035270 0.000010 4.119210 
# 
# 
# High freq. dielectric constant tensor:
#      x y z
#    x 1.853290 0.000000 -0.000070 
#    y 0.000000 1.848660 0.000000 
#    z -0.000070 0.000000 1.865180 
# 
# From -- ./inp_files/51376.got.cif
#   From: 2010.03.12/outbox.cif.g09.slc.cpg/sg5_26_cif.got.tgz:51376.got - 2010.03.31 09:47:26.
