data_PCOD8052176
_publ_section_title
;
Structure prediction by ZEFSAII (Michael W. Deem and Ramdas Pophale) SiO2 
 PCOD8052176
Probable space group: C 2
;
_chemical_formula_sum "Si O2"
_cell_formula_units_Z 24
_cell_length_a 21.817987
_cell_length_b 8.347869
_cell_length_c 10.500642
_cell_angle_alpha 90.000000
_cell_angle_beta 148.831086
_cell_angle_gamma 90.000000
_cell_volume 989.849696
_symmetry_space_group_name_H-M "C 2"
_symmetry_group_IT_number 5
_symmetry_cell_setting 'monoclinic'
loop_
_space_group_symop_operation_xyz
x,y,z
-x,y,-z
1/2+x,1/2+y,z
1/2-x,1/2+y,-z
loop_
_atom_site_type_symbol
_atom_site_label
_atom_site_fract_x
_atom_site_fract_y
_atom_site_fract_z
Si Si1 0.229436 0.579440 0.626799
Si Si2 0.791207 0.511430 0.910904
Si Si3 0.379790 0.302965 0.223354
Si Si4 0.468597 0.887169 0.590210
Si Si5 0.819010 0.928131 0.538841
Si Si6 0.035282 0.068605 0.819037
O O1 0.149201 0.487741 0.587750
O O2 0.170168 0.739221 0.468046
O O3 0.253680 0.455241 0.556158
O O4 0.348693 0.639585 0.907634
O O5 0.704962 0.381058 0.822238
O O6 0.747588 0.530596 0.689057
O O7 0.796110 0.676639 0.000071
O O8 0.924980 0.451694 0.135006
O O9 0.500000 0.224871 0.500000
O O10 0.427330 0.434772 0.213087
O O11 0.500000 0.909672 0.500000
O O12 0.457168 0.699820 0.603892
O O13 0.953156 0.992898 0.782884
#
# Coordination Sequence:
#
# PCOD8052176 Si02
#       6
#     4   4   4   4   4   4
#     4  12  29  54  74 111 156 199 259 314 379 457
#     4  12  27  46  76 114 151 200 252 314 382 452
#     4  12  26  46  75 112 160 195 253 312 380 454
#     4  12  27  48  81 113 153 199 246 315 389 449
#     4  12  28  52  78 109 151 204 256 315 381 455
#     4  12  26  49  77 112 149 199 254 313 376 453
#
# _framework density 24.246106000000001
#
# number of rings (size 3 to 8) (size 9 to 14) (size 15 to 20)
#    0.000    0.000    3.333    5.500    9.333    0.667 
#    3.000    0.000    0.000    0.000    0.000    0.000 
#    0.000    0.000    0.000    0.000    0.000    0.000 
#
# Total GULP energy -148849.379615 kJ/mol
# GULP energy per Si atom -12404.114968 kJ/mol
# Density = 2.419092 g / cm^3
# Si number density = 24.246106 Si / 1000 Ang^3
#
#
#
# Elastic Constant Matrix: (Units=GPa)
#
#
# Indices 1 2 3 4 5 6 
#
# 1 150.2044 42.2348 35.6026 0.0000 5.5634 0.0000
# 2 42.2348 122.9182 26.4254 0.0000 6.6523 0.0000
# 3 35.6026 26.4254 99.3234 0.0000 13.4460 0.0000
# 4 0.0000 0.0000 0.0000 39.2745 0.0000 4.4682
# 5 5.5634 6.6523 13.4460 0.0000 41.2019 0.0000
# 6 0.0000 0.0000 0.0000 4.4682 0.0000 40.7669
#
#
#
# Elastic Compliance Matrix: (Units=1/GPa)
#
#
# Indices 1 2 3 4 5 6 
#
# 1 0.007802 -0.002206 -0.002213 0.000000 0.000025 0.000000
# 2 -0.002206 0.009271 -0.001583 0.000000 -0.000682 0.000000
# 3 -0.002213 -0.001583 0.011726 0.000000 -0.003272 0.000000
# 4 0.000000 0.000000 0.000000 0.025783 0.000000 -0.002826
# 5 0.000025 -0.000682 -0.003272 0.000000 0.025445 0.000000
# 6 0.000000 0.000000 0.000000 -0.002826 0.000000 0.024839
#
#
# Mechanical properties :
#
#
# Convention : Reuss Voigt Hill
#
# Bulk Modulus (GPa) = 59.54856 64.55238 62.05047
# Shear Modulus (GPa) = 40.82677 42.12754 41.47716
#
# Velocity S-wave (km/s) = 4.10792 4.17285 4.14052
# Velocity P-wave (km/s) = 6.86392 7.06389 6.96462
#
# Compressibility (1/GPa) = 0.01679302
#
# Stress axis : x y z
#
# Youngs Moduli (GPa) = 128.17993 107.86465 85.28378
#
# Poissons Ratio (x) = 0.23797 0.18872
# Poissons Ratio (y) = 0.28279 0.13504
# Poissons Ratio (z) = 0.28365 0.17079
#
# Static dielectric constant tensor:
#      x y z
#    x 4.437080 0.000000 0.161700 
#    y 0.000000 4.425620 0.000000 
#    z 0.161700 0.000000 4.828110 
# 
# 
# High freq. dielectric constant tensor:
#      x y z
#    x 1.964420 0.000000 0.007680 
#    y 0.000000 1.975820 0.000000 
#    z 0.007680 0.000000 1.973400 
# 
# From -- ./inp_files/47356.got.cif
#   From: 2010.03.12/outbox.cif.g09.slc.cpg/sg5_24_cif.got.tgz:47356.got - 2010.03.31 09:47:26.
