data_PCOD8052251
_publ_section_title
;
Structure prediction by ZEFSAII (Michael W. Deem and Ramdas Pophale) SiO2 
 PCOD8052251
Probable space group: P M
;
_chemical_formula_sum "Si O2"
_cell_formula_units_Z 16
_cell_length_a 17.104017
_cell_length_b 8.912447
_cell_length_c 11.481065
_cell_angle_alpha 90.000000
_cell_angle_beta 147.987370
_cell_angle_gamma 90.000000
_cell_volume 927.769586
_symmetry_space_group_name_H-M "P M"
_symmetry_group_IT_number 6
_symmetry_cell_setting 'monoclinic'
loop_
_space_group_symop_operation_xyz
x,y,z
x,-y,z
loop_
_atom_site_type_symbol
_atom_site_label
_atom_site_fract_x
_atom_site_fract_y
_atom_site_fract_z
Si Si1 0.932170 0.828757 0.896660
Si Si2 0.028216 0.176953 0.673757
Si Si3 0.505807 0.672417 0.468034
Si Si4 0.774125 0.174967 0.927187
Si Si5 0.743830 0.671091 0.356958
Si Si6 0.869996 0.670735 0.281764
Si Si7 0.175011 0.671873 0.057676
Si Si8 0.613944 0.173403 0.386885
O O1 0.903294 0.793603 0.996694
O O2 0.778063 0.795759 0.639701
O O3 0.980757 0.000000 0.937802
O O4 0.065314 0.726451 0.020296
O O5 0.886179 0.226811 0.572261
O O6 0.014179 0.258418 0.529406
O O7 0.035884 0.000000 0.664890
O O8 0.164645 0.234522 0.923322
O O9 0.549660 0.500000 0.505456
O O10 0.621091 0.744564 0.702833
O O11 0.342232 0.689861 0.315090
O O12 0.503251 0.752525 0.338734
O O13 0.737647 0.000000 0.886970
O O14 0.831239 0.230919 0.122673
O O15 0.766552 0.500000 0.427650
O O16 0.732360 0.676465 0.200783
O O17 0.603987 0.744779 0.247279
O O18 0.904535 0.500000 0.288410
O O19 0.138308 0.500000 0.982155
O O20 0.573153 0.000000 0.321608
#
# Coordination Sequence:
#
# PCOD8052251 Si02
#       8
#     2   2   2   2   2   2   2   2
#     4   9  18  30  48  72  98 128 164 208 251 296
#     4  10  18  29  49  75 101 129 162 206 250 293
#     4  10  22  35  49  71 105 140 169 205 252 305
#     4  10  20  34  52  75 101 131 170 211 251 298
#     4   9  17  28  47  74 100 127 159 201 246 292
#     4   9  18  31  50  75 101 130 166 207 250 296
#     4  11  21  33  50  75 103 136 171 205 253 306
#     4  10  18  30  49  75 101 129 167 207 251 300
#
# _framework density 17.245660000000001
#
# number of rings (size 3 to 8) (size 9 to 14) (size 15 to 20)
#    0.750    1.500    1.250    3.750    0.000    4.500 
#    0.000    0.000    0.000    1.500    0.000    8.750 
#    0.000    0.000    0.000    0.000    0.000    0.000 
#
# Total GULP energy -198256.021234 kJ/mol
# GULP energy per Si atom -12391.001327 kJ/mol
# Density = 1.720641 g / cm^3
# Si number density = 17.245660 Si / 1000 Ang^3
#
#
#
# Elastic Constant Matrix: (Units=GPa)
#
#
# Indices 1 2 3 4 5 6 
#
# 1 74.4297 41.3426 33.8769 0.0000 -5.0949 0.0000
# 2 41.3426 121.8675 35.1074 0.0000 2.8360 0.0000
# 3 33.8769 35.1074 60.1209 0.0000 -3.8485 0.0000
# 4 0.0000 0.0000 0.0000 23.5607 0.0000 -6.3335
# 5 -5.0949 2.8360 -3.8485 0.0000 23.3271 0.0000
# 6 0.0000 0.0000 0.0000 -6.3335 0.0000 30.5803
#
#
#
# Elastic Compliance Matrix: (Units=1/GPa)
#
#
# Indices 1 2 3 4 5 6 
#
# 1 0.019979 -0.004425 -0.008449 0.000000 0.003508 0.000000
# 2 -0.004425 0.010956 -0.004094 0.000000 -0.002974 0.000000
# 3 -0.008449 -0.004094 0.023952 0.000000 0.002604 0.000000
# 4 0.000000 0.000000 0.000000 0.044946 0.000000 0.009309
# 5 0.003508 -0.002974 0.002604 0.000000 0.044426 0.000000
# 6 0.000000 0.000000 0.000000 0.009309 0.000000 0.034629
#
#
# Mechanical properties :
#
#
# Convention : Reuss Voigt Hill
#
# Bulk Modulus (GPa) = 47.73529 53.00799 50.37164
# Shear Modulus (GPa) = 22.74714 25.23304 23.99009
#
# Velocity S-wave (km/s) = 3.63575 3.82927 3.73376
# Velocity P-wave (km/s) = 6.73533 7.09611 6.91807
#
# Compressibility (1/GPa) = 0.02094886
#
# Stress axis : x y z
#
# Youngs Moduli (GPa) = 50.05139 91.27750 41.75090
#
# Poissons Ratio (x) = 0.40395 0.35276
# Poissons Ratio (y) = 0.22150 0.17094
# Poissons Ratio (z) = 0.42290 0.37371
#
# Static dielectric constant tensor:
#      x y z
#    x 3.245470 0.000000 -0.088220 
#    y 0.000000 3.292790 0.000000 
#    z -0.088220 0.000000 2.818620 
# 
# 
# High freq. dielectric constant tensor:
#      x y z
#    x 1.658380 0.000000 -0.011170 
#    y 0.000000 1.685720 0.000000 
#    z -0.011170 0.000000 1.620110 
# 
# From -- ./inp_files/4179.got.cif
#   From: 2010.03.12/outbox.cif.g09.slc.cpg/sg6_3_cif.got.tgz:4179.got - 2010.03.30 10:24:59.
