data_PCOD8052879
_publ_section_title
;
Structure prediction by ZEFSAII (Michael W. Deem and Ramdas Pophale) SiO2 
 PCOD8052879
Probable space group: C M
;
_chemical_formula_sum "Si O2"
_cell_formula_units_Z 32
_cell_length_a 20.050483
_cell_length_b 8.993037
_cell_length_c 12.219899
_cell_angle_alpha 90.000000
_cell_angle_beta 54.003975
_cell_angle_gamma 90.000000
_cell_volume 1782.700430
_symmetry_space_group_name_H-M "C M"
_symmetry_group_IT_number 8
_symmetry_cell_setting 'monoclinic'
loop_
_space_group_symop_operation_xyz
x,y,z
x,-y,z
1/2+x,1/2+y,z
1/2+x,1/2-y,z
loop_
_atom_site_type_symbol
_atom_site_label
_atom_site_fract_x
_atom_site_fract_y
_atom_site_fract_z
Si Si1 0.795540 0.174046 0.061470
Si Si2 0.321386 0.675625 0.580846
Si Si3 0.511257 0.324786 0.370756
Si Si4 0.059271 0.326078 0.101157
Si Si5 0.757677 0.675617 0.431845
Si Si6 0.649285 0.824922 0.366324
Si Si7 0.242697 0.324317 0.879989
Si Si8 0.398946 0.171625 0.129350
O O1 0.713707 0.214820 0.208276
O O2 0.876342 0.243168 0.039840
O O3 0.809667 0.000000 0.044657
O O4 0.784542 0.240629 0.950063
O O5 0.307795 0.500000 0.581019
O O6 0.416413 0.720017 0.477513
O O7 0.266484 0.758350 0.543960
O O8 0.289976 0.736272 0.728284
O O9 0.525019 0.500000 0.367217
O O10 0.541828 0.270353 0.224202
O O11 0.561544 0.243719 0.418321
O O12 0.056912 0.500000 0.137308
O O13 0.992178 0.290019 0.072708
O O14 0.146851 0.278330 0.966984
O O15 0.744988 0.500000 0.450428
O O16 0.678351 0.749498 0.451171
O O17 0.839467 0.721153 0.285722
O O18 0.640604 0.000000 0.392741
O O19 0.249986 0.500000 0.877835
O O20 0.386482 0.000000 0.115987
#
# Coordination Sequence:
#
# PCOD8052879 Si02
#       8
#     4   4   4   4   4   4   4   4
#     4   9  17  31  53  76 100 133 172 214 258 309
#     4  10  21  36  54  77 109 147 180 212 261 322
#     4  11  21  32  51  81 111 138 176 223 265 310
#     4  10  18  34  56  77 102 138 181 221 263 310
#     4  10  19  33  53  79 110 139 174 220 269 313
#     4  10  19  33  55  80 105 137 180 221 265 315
#     4   9  18  35  56  76 102 141 182 216 256 314
#     4   9  18  30  50  78 105 131 165 217 265 305
#
# _framework density 17.950295000000001
#
# number of rings (size 3 to 8) (size 9 to 14) (size 15 to 20)
#    0.000    2.250    2.500    1.125    0.000    2.000 
#    0.000    2.500    0.000    3.000    0.000    0.000 
#    0.000    0.000    0.000    0.000    0.000    0.000 
#
# Total GULP energy -198423.535390 kJ/mol
# GULP energy per Si atom -12401.470962 kJ/mol
# Density = 1.790944 g / cm^3
# Si number density = 17.950295 Si / 1000 Ang^3
#
#
#
# Elastic Constant Matrix: (Units=GPa)
#
#
# Indices 1 2 3 4 5 6 
#
# 1 149.9409 45.5533 55.8288 0.0000 20.9989 0.0000
# 2 45.5533 50.2515 25.0667 0.0000 7.6981 0.0000
# 3 55.8288 25.0667 85.4978 0.0000 13.5738 0.0000
# 4 0.0000 0.0000 0.0000 17.3541 0.0000 4.6493
# 5 20.9989 7.6981 13.5738 0.0000 28.5226 0.0000
# 6 0.0000 0.0000 0.0000 4.6493 0.0000 36.1708
#
#
#
# Elastic Compliance Matrix: (Units=1/GPa)
#
#
# Indices 1 2 3 4 5 6 
#
# 1 0.011100 -0.007196 -0.004488 0.000000 -0.004094 0.000000
# 2 -0.007196 0.028263 -0.003480 0.000000 -0.000674 0.000000
# 3 -0.004488 -0.003480 0.016197 0.000000 -0.003465 0.000000
# 4 0.000000 0.000000 0.000000 0.059678 0.000000 -0.007671
# 5 -0.004094 -0.000674 -0.003465 0.000000 0.039905 0.000000
# 6 0.000000 0.000000 0.000000 -0.007671 0.000000 0.028633
#
#
# Mechanical properties :
#
#
# Convention : Reuss Voigt Hill
#
# Bulk Modulus (GPa) = 39.63466 59.84309 49.73887
# Shear Modulus (GPa) = 22.47034 27.02558 24.74796
#
# Velocity S-wave (km/s) = 3.54193 3.88439 3.71711
# Velocity P-wave (km/s) = 6.23339 7.31632 6.79646
#
# Compressibility (1/GPa) = 0.02523044
#
# Stress axis : x y z
#
# Youngs Moduli (GPa) = 90.08908 35.38253 61.73802
#
# Poissons Ratio (x) = 0.25462 0.27711
# Poissons Ratio (y) = 0.64830 0.21486
# Poissons Ratio (z) = 0.40436 0.12314
#
# Static dielectric constant tensor:
#      x y z
#    x 3.568200 0.000000 0.066150 
#    y 0.000000 3.176520 0.000000 
#    z 0.066150 0.000000 3.234940 
# 
# 
# High freq. dielectric constant tensor:
#      x y z
#    x 1.712170 0.000000 0.007640 
#    y 0.000000 1.684010 0.000000 
#    z 0.007640 0.000000 1.665710 
# 
# From -- ./inp_files/23751.got.cif
#   From: 2010.03.12/outbox.cif.g09.slc.cpg/sg8_12_cif.got.tgz:23751.got - 2010.03.31 10:45:26.
