data_PCOD8052765
_publ_section_title
;
Structure prediction by ZEFSAII (Michael W. Deem and Ramdas Pophale) SiO2 
 PCOD8052765
Probable space group: C M
;
_chemical_formula_sum "Si O2"
_cell_formula_units_Z 24
_cell_length_a 18.518009
_cell_length_b 8.527081
_cell_length_c 16.572941
_cell_angle_alpha 90.000000
_cell_angle_beta 150.022781
_cell_angle_gamma 90.000000
_cell_volume 1307.570293
_symmetry_space_group_name_H-M "C M"
_symmetry_group_IT_number 8
_symmetry_cell_setting 'monoclinic'
loop_
_space_group_symop_operation_xyz
x,y,z
x,-y,z
1/2+x,1/2+y,z
1/2+x,1/2-y,z
loop_
_atom_site_type_symbol
_atom_site_label
_atom_site_fract_x
_atom_site_fract_y
_atom_site_fract_z
Si Si1 0.209680 0.185264 0.559090
Si Si2 0.464008 0.318493 0.720916
Si Si3 0.896054 0.181625 0.216311
Si Si4 0.727740 0.813984 0.897606
Si Si5 0.610533 0.818509 0.015272
Si Si6 0.367410 0.684957 0.867184
O O1 0.310339 0.228518 0.579547
O O2 0.266870 0.266242 0.695488
O O3 0.050278 0.257196 0.387435
O O4 0.207103 0.000000 0.570392
O O5 0.432890 0.500000 0.675879
O O6 0.564279 0.252514 0.745928
O O7 0.546892 0.292226 0.884685
O O8 0.784137 0.207041 0.183301
O O9 0.924178 0.000000 0.227715
O O10 0.826989 0.251640 0.067166
O O11 0.795197 0.753533 0.879452
O O12 0.717034 0.000000 0.891355
O O13 0.574850 0.000000 0.960778
O O14 0.527725 0.764993 0.016428
O O15 0.387256 0.500000 0.888472
#
# Coordination Sequence:
#
# PCOD8052765 Si02
#       6
#     4   4   4   4   4   4
#     4  10  18  31  51  71  96 127 157 191 233 281
#     4  10  18  29  47  71  96 122 158 196 231 278
#     4   8  16  31  51  71  90 122 163 195 228 276
#     4   9  18  34  52  69  93 125 160 196 234 277
#     4   9  16  30  50  69  93 125 160 192 228 279
#     4  10  19  31  49  73  98 123 156 196 234 277
#
# _framework density 18.354652999999999
#
# number of rings (size 3 to 8) (size 9 to 14) (size 15 to 20)
#    0.000    2.667    0.000    6.000    0.000    1.333 
#    0.000   10.000    0.000    6.000    0.000    0.000 
#    0.000    0.000    0.000    0.000    0.000    0.000 
#
# Total GULP energy -148696.045685 kJ/mol
# GULP energy per Si atom -12391.337140 kJ/mol
# Density = 1.831288 g / cm^3
# Si number density = 18.354653 Si / 1000 Ang^3
#
#
#
# Elastic Constant Matrix: (Units=GPa)
#
#
# Indices 1 2 3 4 5 6 
#
# 1 156.0931 24.5793 61.6639 0.0000 35.8487 0.0000
# 2 24.5793 42.4622 16.4415 0.0000 7.4496 0.0000
# 3 61.6639 16.4415 112.4732 0.0000 36.2333 0.0000
# 4 0.0000 0.0000 0.0000 13.3745 0.0000 3.9089
# 5 35.8487 7.4496 36.2333 0.0000 31.9794 0.0000
# 6 0.0000 0.0000 0.0000 3.9089 0.0000 27.8796
#
#
#
# Elastic Compliance Matrix: (Units=1/GPa)
#
#
# Indices 1 2 3 4 5 6 
#
# 1 0.009535 -0.003321 -0.002438 0.000000 -0.007153 0.000000
# 2 -0.003321 0.026263 -0.001964 0.000000 -0.000171 0.000000
# 3 -0.002438 -0.001964 0.014940 0.000000 -0.013737 0.000000
# 4 0.000000 0.000000 0.000000 0.077964 0.000000 -0.010931
# 5 -0.007153 -0.000171 -0.013737 0.000000 0.054893 0.000000
# 6 0.000000 0.000000 0.000000 -0.010931 0.000000 0.037401
#
#
# Mechanical properties :
#
#
# Convention : Reuss Voigt Hill
#
# Bulk Modulus (GPa) = 28.33352 57.37755 42.85553
# Shear Modulus (GPa) = 20.14470 28.53631 24.34051
#
# Velocity S-wave (km/s) = 3.31649 3.94727 3.64555
# Velocity P-wave (km/s) = 5.48959 7.21824 6.41243
#
# Compressibility (1/GPa) = 0.03529388
#
# Stress axis : x y z
#
# Youngs Moduli (GPa) = 104.87452 38.07681 66.93423
#
# Poissons Ratio (x) = 0.12644 0.16318
# Poissons Ratio (y) = 0.34824 0.13143
# Poissons Ratio (z) = 0.25568 0.07477
#
# Static dielectric constant tensor:
#      x y z
#    x 3.751200 0.000000 0.499990 
#    y 0.000000 3.199840 0.000000 
#    z 0.499990 0.000000 3.517370 
# 
# 
# High freq. dielectric constant tensor:
#      x y z
#    x 1.709370 0.000000 0.040640 
#    y 0.000000 1.702110 0.000000 
#    z 0.040640 0.000000 1.686870 
# 
# From -- ./inp_files/14202.got.cif
#   From: 2010.03.12/outbox.cif.g09.slc.cpg/sg8_8_cif.got.tgz:14202.got - 2010.03.31 10:45:26.
