data_PCOD8052742
_publ_section_title
;
Structure prediction by ZEFSAII (Michael W. Deem and Ramdas Pophale) SiO2 
 PCOD8052742
Probable space group: C M
;
_chemical_formula_sum "Si O2"
_cell_formula_units_Z 26
_cell_length_a 19.323576
_cell_length_b 7.697691
_cell_length_c 16.723656
_cell_angle_alpha 90.000000
_cell_angle_beta 143.250739
_cell_angle_gamma 90.000000
_cell_volume 1488.361944
_symmetry_space_group_name_H-M "C M"
_symmetry_group_IT_number 8
_symmetry_cell_setting 'monoclinic'
loop_
_space_group_symop_operation_xyz
x,y,z
x,-y,z
1/2+x,1/2+y,z
1/2+x,1/2-y,z
loop_
_atom_site_type_symbol
_atom_site_label
_atom_site_fract_x
_atom_site_fract_y
_atom_site_fract_z
Si Si1 0.383880 0.000000 0.257581
Si Si2 0.723255 0.810832 0.322912
Si Si3 0.052339 0.801475 0.449588
Si Si4 0.518069 0.202454 0.763112
Si Si5 0.756617 0.299552 0.525106
Si Si6 0.480616 0.797924 0.550056
Si Si7 0.646490 0.500000 0.972112
Si Si8 0.180979 0.000000 0.179411
O O1 0.459960 0.825690 0.322525
O O2 0.317590 0.000000 0.281843
O O3 0.287371 0.000000 0.097927
O O4 0.700104 0.793184 0.396151
O O5 0.859728 0.801390 0.433139
O O6 0.652678 0.669621 0.206119
O O7 0.678911 0.000000 0.254304
O O8 0.178796 0.761594 0.530502
O O9 0.062264 0.768499 0.553801
O O10 0.015756 0.000000 0.397297
O O11 0.387277 0.262144 0.663539
O O12 0.542511 0.238834 0.691995
O O13 0.603700 0.323332 0.892092
O O14 0.540043 0.000000 0.805333
O O15 0.763096 0.500000 0.506958
O O16 0.455444 0.000000 0.518477
O O17 0.605803 0.500000 0.027992
#
# Coordination Sequence:
#
# PCOD8052742 Si02
#       8
#     2   4   4   4   4   4   2   2
#     4  10  22  35  51  78 112 135 177 223 247 317
#     4  11  18  29  53  79 102 136 169 213 273 312
#     4  11  20  32  54  85 109 141 166 214 283 316
#     4   9  20  35  53  78 107 138 177 221 257 309
#     4   9  20  34  52  84 116 131 166 225 273 318
#     4  10  17  31  50  77 113 129 166 223 263 308
#     4  10  22  35  55  77  97 152 179 213 258 299
#     4  10  20  36  48  75 111 127 176 232 243 302
#
# _framework density 17.468868000000001
#
# number of rings (size 3 to 8) (size 9 to 14) (size 15 to 20)
#    0.462    1.538    3.846    1.385    6.462    1.231 
#    0.000    0.000    0.000    1.846    0.000    0.000 
#    0.000    0.000    0.000    0.000    0.000    0.000 
#
# Total GULP energy -161137.350330 kJ/mol
# GULP energy per Si atom -12395.180795 kJ/mol
# Density = 1.742911 g / cm^3
# Si number density = 17.468868 Si / 1000 Ang^3
#
#
#
# Elastic Constant Matrix: (Units=GPa)
#
#
# Indices 1 2 3 4 5 6 
#
# 1 110.7312 33.1639 38.2728 0.0000 -12.0671 0.0000
# 2 33.1639 129.7088 59.9557 0.0000 -5.5766 0.0000
# 3 38.2728 59.9557 105.1854 0.0000 -11.9438 0.0000
# 4 0.0000 0.0000 0.0000 28.5581 0.0000 -2.5818
# 5 -12.0671 -5.5766 -11.9438 0.0000 22.3680 0.0000
# 6 0.0000 0.0000 0.0000 -2.5818 0.0000 22.4813
#
#
#
# Elastic Compliance Matrix: (Units=1/GPa)
#
#
# Indices 1 2 3 4 5 6 
#
# 1 0.010810 -0.001336 -0.002712 0.000000 0.004051 0.000000
# 2 -0.001336 0.010641 -0.005705 0.000000 -0.001115 0.000000
# 3 -0.002712 -0.005705 0.014284 0.000000 0.004742 0.000000
# 4 0.000000 0.000000 0.000000 0.035384 0.000000 0.004064
# 5 0.004051 -0.001115 0.004742 0.000000 0.049146 0.000000
# 6 0.000000 0.000000 0.000000 0.004064 0.000000 0.044948
#
#
# Mechanical properties :
#
#
# Convention : Reuss Voigt Hill
#
# Bulk Modulus (GPa) = 61.62253 67.60111 64.61182
# Shear Modulus (GPa) = 26.29798 28.96366 27.63082
#
# Velocity S-wave (km/s) = 3.88418 4.07629 3.98140
# Velocity P-wave (km/s) = 7.44769 7.80621 7.62906
#
# Compressibility (1/GPa) = 0.01622783
#
# Stress axis : x y z
#
# Youngs Moduli (GPa) = 92.50910 93.97989 70.00723
#
# Poissons Ratio (x) = 0.12558 0.18983
# Poissons Ratio (y) = 0.12362 0.39942
# Poissons Ratio (z) = 0.25085 0.53620
#
# Static dielectric constant tensor:
#      x y z
#    x 3.330540 0.000000 -0.272970 
#    y 0.000000 3.312330 0.000000 
#    z -0.272970 0.000000 2.957390 
# 
# 
# High freq. dielectric constant tensor:
#      x y z
#    x 1.661470 0.000000 -0.023940 
#    y 0.000000 1.691920 0.000000 
#    z -0.023940 0.000000 1.636870 
# 
# From -- ./inp_files/27175.got.cif
#   From: 2010.03.12/outbox.cif.g09.slc.cpg/sg8_14_cif.got.tgz:27175.got - 2010.03.31 10:45:26.
