data_PCOD8052790
_publ_section_title
;
Structure prediction by ZEFSAII (Michael W. Deem and Ramdas Pophale) SiO2 
 PCOD8052790
Probable space group: C M
;
_chemical_formula_sum "Si O2"
_cell_formula_units_Z 32
_cell_length_a 20.823377
_cell_length_b 8.552633
_cell_length_c 12.212433
_cell_angle_alpha 90.000000
_cell_angle_beta 127.773731
_cell_angle_gamma 90.000000
_cell_volume 1719.174136
_symmetry_space_group_name_H-M "C M"
_symmetry_group_IT_number 8
_symmetry_cell_setting 'monoclinic'
loop_
_space_group_symop_operation_xyz
x,y,z
x,-y,z
1/2+x,1/2+y,z
1/2+x,1/2-y,z
loop_
_atom_site_type_symbol
_atom_site_label
_atom_site_fract_x
_atom_site_fract_y
_atom_site_fract_z
Si Si1 0.785020 0.817463 0.544540
Si Si2 0.538878 0.182623 0.289014
Si Si3 0.668301 0.682190 0.262252
Si Si4 0.119721 0.184373 0.974530
Si Si5 0.657419 0.680264 0.570424
Si Si6 0.716787 0.682181 0.868354
Si Si7 0.391910 0.316355 0.017518
Si Si8 0.441137 0.313931 0.830224
O O1 0.755537 0.724458 0.405862
O O2 0.726158 0.785191 0.585345
O O3 0.875137 0.759659 0.671177
O O4 0.783424 0.000000 0.515880
O O5 0.597384 0.223619 0.248682
O O6 0.569662 0.269229 0.431595
O O7 0.447596 0.235846 0.167703
O O8 0.540818 0.000000 0.313476
O O9 0.648797 0.500000 0.256200
O O10 0.669226 0.729464 0.135777
O O11 0.167107 0.252199 0.919418
O O12 0.028570 0.254679 0.886423
O O13 0.112346 0.000000 0.953175
O O14 0.674229 0.500000 0.558364
O O15 0.660315 0.708690 0.703201
O O16 0.738230 0.500000 0.906269
O O17 0.799047 0.778386 0.944982
O O18 0.406381 0.500000 0.038343
O O19 0.416402 0.248621 0.923847
O O20 0.442563 0.500000 0.838989
#
# Coordination Sequence:
#
# PCOD8052790 Si02
#       8
#     4   4   4   4   4   4   4   4
#     4  10  18  30  51  79 107 136 176 226 272 314
#     4  11  21  33  53  81 110 139 179 228 272 315
#     4  10  18  32  54  78 107 144 179 217 269 323
#     4   9  18  35  56  77 106 145 182 215 265 325
#     4  10  19  32  51  78 109 141 179 220 269 322
#     4  10  21  36  56  81 110 145 182 221 266 321
#     4  11  20  35  57  81 109 141 182 223 270 321
#     4   9  17  31  54  79 102 137 179 218 261 315
#
# _framework density 18.613589000000001
#
# number of rings (size 3 to 8) (size 9 to 14) (size 15 to 20)
#    0.000    2.000    2.500    4.125    0.000    0.500 
#    0.000    2.500    0.000    1.500    0.000    0.000 
#    0.000    0.000    0.000    0.000    0.000    0.000 
#
# Total GULP energy -198398.704291 kJ/mol
# GULP energy per Si atom -12399.919018 kJ/mol
# Density = 1.857122 g / cm^3
# Si number density = 18.613589 Si / 1000 Ang^3
#
#
#
# Elastic Constant Matrix: (Units=GPa)
#
#
# Indices 1 2 3 4 5 6 
#
# 1 106.9370 10.1615 66.9452 0.0000 -1.8976 0.0000
# 2 10.1615 42.4418 26.1464 0.0000 1.2218 0.0000
# 3 66.9452 26.1464 162.7948 0.0000 3.8556 0.0000
# 4 0.0000 0.0000 0.0000 24.0508 0.0000 5.3218
# 5 -1.8976 1.2218 3.8556 0.0000 29.9680 0.0000
# 6 0.0000 0.0000 0.0000 5.3218 0.0000 19.2907
#
#
#
# Elastic Compliance Matrix: (Units=1/GPa)
#
#
# Indices 1 2 3 4 5 6 
#
# 1 0.012659 0.000172 -0.005268 0.000000 0.001472 0.000000
# 2 0.000172 0.026160 -0.004260 0.000000 -0.000508 0.000000
# 3 -0.005268 -0.004260 0.009025 0.000000 -0.001321 0.000000
# 4 0.000000 0.000000 0.000000 0.044282 0.000000 -0.012216
# 5 0.001472 -0.000508 -0.001321 0.000000 0.033653 0.000000
# 6 0.000000 0.000000 0.000000 -0.012216 0.000000 0.055209
#
#
# Mechanical properties :
#
#
# Convention : Reuss Voigt Hill
#
# Bulk Modulus (GPa) = 34.32794 57.63111 45.97952
# Shear Modulus (GPa) = 23.87665 28.58992 26.23328
#
# Velocity S-wave (km/s) = 3.58544 3.92340 3.75822
# Velocity P-wave (km/s) = 5.96850 7.18005 6.60212
#
# Compressibility (1/GPa) = 0.02913079
#
# Stress axis : x y z
#
# Youngs Moduli (GPa) = 78.99431 38.22686 110.80712
#
# Poissons Ratio (x) = -0.00659 0.58376
# Poissons Ratio (y) = -0.01361 0.47207
# Poissons Ratio (z) = 0.41617 0.16286
#
# Static dielectric constant tensor:
#      x y z
#    x 3.282240 0.000000 0.060030 
#    y 0.000000 3.239840 0.000000 
#    z 0.060030 0.000000 3.812230 
# 
# 
# High freq. dielectric constant tensor:
#      x y z
#    x 1.687360 0.000000 0.007310 
#    y 0.000000 1.707300 0.000000 
#    z 0.007310 0.000000 1.742640 
# 
# From -- ./inp_files/23861.got.cif
#   From: 2010.03.12/outbox.cif.g09.slc.cpg/sg8_12_cif.got.tgz:23861.got - 2010.03.31 10:45:26.
