data_PCOD8052039
_publ_section_title
;
Structure prediction by ZEFSAII (Michael W. Deem and Ramdas Pophale) SiO2 
 PCOD8052039
Probable space group: C 2
;
_chemical_formula_sum "Si O2"
_cell_formula_units_Z 28
_cell_length_a 23.189022
_cell_length_b 7.474098
_cell_length_c 9.654565
_cell_angle_alpha 90.000000
_cell_angle_beta 138.411107
_cell_angle_gamma 90.000000
_cell_volume 1110.705451
_symmetry_space_group_name_H-M "C 2"
_symmetry_group_IT_number 5
_symmetry_cell_setting 'monoclinic'
loop_
_space_group_symop_operation_xyz
x,y,z
-x,y,-z
1/2+x,1/2+y,z
1/2-x,1/2+y,-z
loop_
_atom_site_type_symbol
_atom_site_label
_atom_site_fract_x
_atom_site_fract_y
_atom_site_fract_z
Si Si1 0.203310 0.099750 0.280172
Si Si2 0.862310 0.466004 0.728539
Si Si3 0.564531 0.298053 0.995860
Si Si4 0.202912 0.791549 0.791588
Si Si5 0.036762 0.968189 0.412833
Si Si6 0.370630 0.971621 0.210474
Si Si7 0.532959 0.860965 0.346136
O O1 0.145420 0.268738 0.221848
O O2 0.258803 0.147982 0.245487
O O3 0.267973 0.040862 0.518624
O O4 0.144921 0.932629 0.135123
O O5 0.901292 0.597005 0.915246
O O6 0.928590 0.461497 0.718275
O O7 0.500000 0.362083 0.000000
O O8 0.512691 0.307893 0.756587
O O9 0.140073 0.930855 0.600609
O O10 0.142029 0.683912 0.790492
O O11 0.277659 0.892792 0.005908
O O12 0.000000 0.993102 0.500000
O O13 0.021825 0.149444 0.298310
O O14 0.439046 0.945352 0.210012
O O15 0.402918 0.878259 0.408488
#
# Coordination Sequence:
#
# PCOD8052039 Si02
#       7
#     4   4   4   4   4   4   4
#     4  12  27  49  78 119 160 207 272 338 409 482
#     4  12  27  51  84 116 161 213 272 343 405 494
#     4  12  29  51  81 118 161 219 270 330 412 487
#     4  12  28  47  76 115 160 210 264 336 411 490
#     4  12  28  49  83 118 167 211 271 340 408 495
#     4  11  25  48  78 116 156 210 267 331 414 484
#     4  11  25  51  82 117 159 211 274 339 408 498
#
# _framework density 25.209202000000001
#
# number of rings (size 3 to 8) (size 9 to 14) (size 15 to 20)
#    0.000    0.286    4.286    3.429    6.000    4.000 
#    0.000    0.000    0.000    0.000    0.000    0.000 
#    0.000    0.000    0.000    0.000    0.000    0.000 
#
# Total GULP energy -173712.784160 kJ/mol
# GULP energy per Si atom -12408.056011 kJ/mol
# Density = 2.515183 g / cm^3
# Si number density = 25.209202 Si / 1000 Ang^3
#
#
#
# Elastic Constant Matrix: (Units=GPa)
#
#
# Indices 1 2 3 4 5 6 
#
# 1 118.0394 60.5781 31.5410 0.0000 21.0465 0.0000
# 2 60.5781 115.1931 36.7604 0.0000 -1.0404 0.0000
# 3 31.5410 36.7604 144.2086 0.0000 11.3488 0.0000
# 4 0.0000 0.0000 0.0000 40.4446 0.0000 4.8533
# 5 21.0465 -1.0404 11.3488 0.0000 31.8756 0.0000
# 6 0.0000 0.0000 0.0000 4.8533 0.0000 47.3180
#
#
#
# Elastic Compliance Matrix: (Units=1/GPa)
#
#
# Indices 1 2 3 4 5 6 
#
# 1 0.014004 -0.007299 -0.000469 0.000000 -0.009318 0.000000
# 2 -0.007299 0.013299 -0.002271 0.000000 0.006062 0.000000
# 3 -0.000469 -0.002271 0.007816 0.000000 -0.002547 0.000000
# 4 0.000000 0.000000 0.000000 0.025033 0.000000 -0.002568
# 5 -0.009318 0.006062 -0.002547 0.000000 0.038629 0.000000
# 6 0.000000 0.000000 0.000000 -0.002568 0.000000 0.021397
#
#
# Mechanical properties :
#
#
# Convention : Reuss Voigt Hill
#
# Bulk Modulus (GPa) = 66.48117 70.57778 68.52948
# Shear Modulus (GPa) = 34.41854 40.49842 37.45848
#
# Velocity S-wave (km/s) = 3.69903 4.01246 3.85893
# Velocity P-wave (km/s) = 6.68377 7.03733 6.86283
#
# Compressibility (1/GPa) = 0.01504185
#
# Stress axis : x y z
#
# Youngs Moduli (GPa) = 71.40609 75.19405 127.93831
#
# Poissons Ratio (x) = 0.54885 0.06002
# Poissons Ratio (y) = 0.52120 0.29050
# Poissons Ratio (z) = 0.03350 0.17074
#
# Static dielectric constant tensor:
#      x y z
#    x 4.629750 0.000000 0.152210 
#    y 0.000000 4.601560 0.000000 
#    z 0.152210 0.000000 4.707100 
# 
# 
# High freq. dielectric constant tensor:
#      x y z
#    x 2.010940 0.000000 0.008060 
#    y 0.000000 2.017420 0.000000 
#    z 0.008060 0.000000 2.020810 
# 
# From -- ./inp_files/29159.got.cif
#   From: 2010.03.12/outbox.cif.g09.slc.cpg/sg5_15_cif.got.tgz:29159.got - 2010.03.31 09:47:26.
