data_PCOD8052358
_publ_section_title
;
Structure prediction by ZEFSAII (Michael W. Deem and Ramdas Pophale) SiO2 
 PCOD8052358
Probable space group: P M
;
_chemical_formula_sum "Si O2"
_cell_formula_units_Z 14
_cell_length_a 12.445787
_cell_length_b 15.028601
_cell_length_c 10.013701
_cell_angle_alpha 90.000000
_cell_angle_beta 23.704689
_cell_angle_gamma 90.000000
_cell_volume 752.984657
_symmetry_space_group_name_H-M "P M"
_symmetry_group_IT_number 6
_symmetry_cell_setting 'monoclinic'
loop_
_space_group_symop_operation_xyz
x,y,z
x,-y,z
loop_
_atom_site_type_symbol
_atom_site_label
_atom_site_fract_x
_atom_site_fract_y
_atom_site_fract_z
Si Si1 0.207560 0.599293 0.622840
Si Si2 0.977808 0.827079 0.228001
Si Si3 0.218802 0.602763 0.305769
Si Si4 0.523372 0.900905 0.574682
Si Si5 0.789470 0.332589 0.586921
Si Si6 0.729377 0.598466 0.373109
Si Si7 0.388182 0.730497 0.612568
O O1 0.336973 0.500000 0.486290
O O2 0.134266 0.621603 0.554627
O O3 0.411587 0.674743 0.448170
O O4 0.947300 0.605292 0.009242
O O5 0.754073 0.891030 0.421489
O O6 0.859178 0.772071 0.487847
O O7 0.236435 0.886006 0.975415
O O8 0.078697 0.754693 0.000942
O O9 0.292762 0.500000 0.199047
O O10 0.964586 0.627988 0.506778
O O11 0.476635 0.661214 0.977562
O O12 0.551027 0.825291 0.425890
O O13 0.538594 0.000000 0.495135
O O14 0.851953 0.386690 0.380439
O O15 0.600024 0.500000 0.515834
O O16 0.497871 0.670801 0.610575
#
# Coordination Sequence:
#
# PCOD8052358 Si02
#       7
#     2   2   2   2   2   2   2
#     4  10  22  37  54  81 121 167 201 239 280 336
#     4  10  20  35  57  85 118 139 190 235 295 344
#     4  11  25  38  53  80 121 163 206 238 282 335
#     4  10  19  34  58  91 121 142 177 246 310 347
#     4  12  21  40  56  82 116 156 195 249 284 341
#     4  11  20  33  57  81 114 160 202 245 285 331
#     4  10  19  35  56  86 119 143 196 240 285 346
#
# _framework density 18.592676000000001
#
# number of rings (size 3 to 8) (size 9 to 14) (size 15 to 20)
#    0.857    0.571    2.857    3.857    2.000    0.000 
#    0.000    0.000    0.000    0.000    0.000    6.000 
#    0.000    0.000    0.000    0.000    0.000    0.000 
#
# Total GULP energy -173470.473511 kJ/mol
# GULP energy per Si atom -12390.748108 kJ/mol
# Density = 1.855036 g / cm^3
# Si number density = 18.592676 Si / 1000 Ang^3
#
#
#
# Elastic Constant Matrix: (Units=GPa)
#
#
# Indices 1 2 3 4 5 6 
#
# 1 122.6743 50.7906 36.7240 0.0000 0.8698 0.0000
# 2 50.7906 135.4468 14.4620 0.0000 -0.4872 0.0000
# 3 36.7240 14.4620 59.9833 0.0000 -0.0591 0.0000
# 4 0.0000 0.0000 0.0000 17.6207 0.0000 -4.2364
# 5 0.8698 -0.4872 -0.0591 0.0000 34.0070 0.0000
# 6 0.0000 0.0000 0.0000 -4.2364 0.0000 23.4295
#
#
#
# Elastic Compliance Matrix: (Units=1/GPa)
#
#
# Indices 1 2 3 4 5 6 
#
# 1 0.011517 -0.003661 -0.006169 0.000000 -0.000358 0.000000
# 2 -0.003661 0.008742 0.000134 0.000000 0.000219 0.000000
# 3 -0.006169 0.000134 0.020416 0.000000 0.000195 0.000000
# 4 0.000000 0.000000 0.000000 0.059331 0.000000 0.010728
# 5 -0.000358 0.000219 0.000195 0.000000 0.029418 0.000000
# 6 0.000000 0.000000 0.000000 0.010728 0.000000 0.044621
#
#
# Mechanical properties :
#
#
# Convention : Reuss Voigt Hill
#
# Bulk Modulus (GPa) = 46.98543 58.00641 52.49592
# Shear Modulus (GPa) = 24.93382 29.41997 27.17689
#
# Velocity S-wave (km/s) = 3.66602 3.98218 3.82736
# Velocity P-wave (km/s) = 6.57612 7.23947 6.91575
#
# Compressibility (1/GPa) = 0.02128319
#
# Stress axis : x y z
#
# Youngs Moduli (GPa) = 86.83056 114.38546 48.98168
#
# Poissons Ratio (x) = 0.41879 0.30215
# Poissons Ratio (y) = 0.31791 -0.00656
# Poissons Ratio (z) = 0.53562 -0.01532
#
# Static dielectric constant tensor:
#      x y z
#    x 3.384050 0.000000 -0.106710 
#    y 0.000000 3.452380 0.000000 
#    z -0.106710 0.000000 3.192430 
# 
# 
# High freq. dielectric constant tensor:
#      x y z
#    x 1.714650 0.000000 -0.025940 
#    y 0.000000 1.713870 0.000000 
#    z -0.025940 0.000000 1.698740 
# 
# From -- ./inp_files/4041.got.cif
#   From: 2010.03.12/outbox.cif.g09.slc.cpg/sg6_3_cif.got.tgz:4041.got - 2010.03.30 10:24:59.
