data_PCOD8052796
_publ_section_title
;
Structure prediction by ZEFSAII (Michael W. Deem and Ramdas Pophale) SiO2 
 PCOD8052796
Probable space group: C M
;
_chemical_formula_sum "Si O2"
_cell_formula_units_Z 32
_cell_length_a 17.783047
_cell_length_b 8.758586
_cell_length_c 19.570926
_cell_angle_alpha 90.000000
_cell_angle_beta 31.203005
_cell_angle_gamma 90.000000
_cell_volume 1579.216095
_symmetry_space_group_name_H-M "C M"
_symmetry_group_IT_number 8
_symmetry_cell_setting 'monoclinic'
loop_
_space_group_symop_operation_xyz
x,y,z
x,-y,z
1/2+x,1/2+y,z
1/2+x,1/2-y,z
loop_
_atom_site_type_symbol
_atom_site_label
_atom_site_fract_x
_atom_site_fract_y
_atom_site_fract_z
Si Si1 0.490740 0.323643 0.660100
Si Si2 0.786646 0.827245 0.435937
Si Si3 0.477795 0.177352 0.955690
Si Si4 0.920478 0.176912 0.479723
Si Si5 0.279006 0.821257 0.718189
Si Si6 0.880082 0.327061 0.877512
Si Si7 0.593603 0.673890 0.163595
Si Si8 0.195925 0.677135 0.216827
O O1 0.461569 0.500000 0.667140
O O2 0.659250 0.287529 0.514531
O O3 0.392962 0.220296 0.687966
O O4 0.453577 0.288014 0.767710
O O5 0.842351 0.791300 0.468723
O O6 0.923280 0.803824 0.277359
O O7 0.727306 0.000000 0.477578
O O8 0.620704 0.269307 0.865636
O O9 0.438618 0.210675 0.907303
O O10 0.504791 0.000000 0.948015
O O11 0.348920 0.235263 0.105270
O O12 0.814820 0.238290 0.619813
O O13 0.076964 0.259900 0.362884
O O14 0.948511 0.000000 0.470358
O O15 0.281928 0.000000 0.703352
O O16 0.921113 0.500000 0.824652
O O17 0.703543 0.305386 0.014303
O O18 0.614706 0.500000 0.177120
O O19 0.634374 0.796573 0.188940
O O20 0.221675 0.500000 0.210765
#
# Coordination Sequence:
#
# PCOD8052796 Si02
#       8
#     4   4   4   4   4   4   4   4
#     4  12  25  38  53  77 111 149 187 226 273 330
#     4   9  18  35  59  84 110 142 179 222 272 326
#     4  10  20  37  60  85 114 147 183 225 278 333
#     4  10  20  37  60  85 114 147 183 225 278 333
#     4  12  25  40  57  79 109 145 189 236 281 330
#     4   9  18  35  59  84 110 142 179 222 272 326
#     4   8  16  32  55  82 111 142 177 223 279 329
#     4  10  18  30  53  86 117 144 181 227 271 319
#
# _framework density 20.263218999999999
#
# number of rings (size 3 to 8) (size 9 to 14) (size 15 to 20)
#    0.000    2.000    0.000    6.375    0.000    8.000 
#    0.000    1.250    0.000    1.500    0.000    0.000 
#    0.000    0.000    0.000    0.000    0.000    0.000 
#
# Total GULP energy -198391.490679 kJ/mol
# GULP energy per Si atom -12399.468167 kJ/mol
# Density = 2.021710 g / cm^3
# Si number density = 20.263219 Si / 1000 Ang^3
#
#
#
# Elastic Constant Matrix: (Units=GPa)
#
#
# Indices 1 2 3 4 5 6 
#
# 1 38.2982 21.6204 20.0099 -0.0001 -17.8658 0.0000
# 2 21.6204 53.8048 10.6868 -0.0001 -0.0471 0.0001
# 3 20.0099 10.6868 106.6612 -0.0003 -28.8355 0.0001
# 4 -0.0001 -0.0001 -0.0003 37.8372 0.0000 -4.0218
# 5 -17.8658 -0.0471 -28.8355 0.0000 18.3983 0.0000
# 6 0.0000 0.0001 0.0001 -4.0218 0.0000 25.1748
#
#
#
# Elastic Compliance Matrix: (Units=1/GPa)
#
#
# Indices 1 2 3 4 5 6 
#
# 1 0.102328 -0.045195 0.021106 0.000000 0.132330 0.000000
# 2 -0.045195 0.039202 -0.012644 0.000000 -0.063603 0.000000
# 3 0.021106 -0.012644 0.021196 0.000000 0.053683 0.000000
# 4 0.000000 0.000000 0.000000 0.026886 0.000001 0.004295
# 5 0.132330 -0.063603 0.053683 0.000001 0.266826 0.000000
# 6 0.000000 0.000000 0.000000 0.004295 0.000000 0.040408
#
#
# Mechanical properties :
#
#
# Convention : Reuss Voigt Hill
#
# Bulk Modulus (GPa) = 11.20318 33.71095 22.45707
# Shear Modulus (GPa) = 8.33245 26.04520 17.18882
#
# Velocity S-wave (km/s) = 2.03003 3.58906 2.91568
# Velocity P-wave (km/s) = 3.32198 5.81788 4.73726
#
# Compressibility (1/GPa) = 0.08926038
#
# Stress axis : x y z
#
# Youngs Moduli (GPa) = 9.77254 25.50894 47.17932
#
# Poissons Ratio (x) = 1.15287 -0.99577
# Poissons Ratio (y) = 0.44167 0.59654
# Poissons Ratio (z) = -0.20626 0.32254
#
# Static dielectric constant tensor:
#      x y z
#    x 3.213260 0.000000 -0.148790 
#    y 0.000000 3.573780 0.000000 
#    z -0.148790 0.000000 4.143600 
# 
# 
# High freq. dielectric constant tensor:
#      x y z
#    x 1.743220 0.000000 -0.014420 
#    y 0.000000 1.791100 0.000000 
#    z -0.014420 0.000000 1.816200 
# 
# From -- ./inp_files/31067.got.cif
#   From: 2010.03.12/outbox.cif.g09.slc.cpg/sg8_16_cif.got.tgz:31067.got - 2010.03.31 10:45:26.
