data_PCOD8052387
_publ_section_title
;
Structure prediction by ZEFSAII (Michael W. Deem and Ramdas Pophale) SiO2 
 PCOD8052387
Probable space group: P M
;
_chemical_formula_sum "Si O2"
_cell_formula_units_Z 16
_cell_length_a 12.372683
_cell_length_b 8.915554
_cell_length_c 12.415517
_cell_angle_alpha 90.000000
_cell_angle_beta 35.835430
_cell_angle_gamma 90.000000
_cell_volume 801.813919
_symmetry_space_group_name_H-M "P M"
_symmetry_group_IT_number 6
_symmetry_cell_setting 'monoclinic'
loop_
_space_group_symop_operation_xyz
x,y,z
x,-y,z
loop_
_atom_site_type_symbol
_atom_site_label
_atom_site_fract_x
_atom_site_fract_y
_atom_site_fract_z
Si Si1 0.208480 0.323091 0.003920
Si Si2 0.091156 0.827377 0.887086
Si Si3 0.616876 0.675319 0.605552
Si Si4 0.513590 0.174461 0.237012
Si Si5 0.861656 0.323815 0.890246
Si Si6 0.101515 0.827515 0.520949
Si Si7 0.504940 0.830236 0.489238
Si Si8 0.987632 0.826988 0.368692
O O1 0.182764 0.500000 0.019451
O O2 0.130639 0.261823 0.178456
O O3 0.089267 0.251475 0.004439
O O4 0.424304 0.278602 0.818221
O O5 0.286082 0.807034 0.671233
O O6 0.940989 0.752638 0.932736
O O7 0.037608 0.000000 0.947454
O O8 0.656345 0.500000 0.582989
O O9 0.610038 0.718719 0.484932
O O10 0.780882 0.763189 0.530794
O O11 0.307677 0.229047 0.377787
O O12 0.565559 0.205924 0.319329
O O13 0.536131 0.000000 0.189693
O O14 0.648934 0.272217 0.053186
O O15 0.877810 0.500000 0.888971
O O16 0.962222 0.273514 0.700772
O O17 0.059705 0.805396 0.430256
O O18 0.078524 0.000000 0.576502
O O19 0.556500 0.000000 0.480537
O O20 0.985617 0.000000 0.335437
#
# Coordination Sequence:
#
# PCOD8052387 Si02
#       8
#     2   2   2   2   2   2   2   2
#     4  10  22  40  61  90 126 162 201 250 308 364
#     4  10  19  37  63  90 124 161 203 252 302 359
#     4  10  22  39  60  89 128 164 198 248 306 365
#     4  10  21  40  64  89 119 159 208 256 303 357
#     4  12  25  38  59  93 128 162 199 246 311 373
#     4  10  23  46  67  87 118 161 213 260 300 352
#     4   9  18  35  62  90 120 158 203 252 301 356
#     4  11  24  41  66  92 119 161 211 256 301 360
#
# _framework density 19.954756
#
# number of rings (size 3 to 8) (size 9 to 14) (size 15 to 20)
#    0.000    1.750    1.250    2.625    1.750    5.000 
#    0.000    3.750    0.000    0.000    0.000    0.000 
#    0.000    0.000    0.000    0.000    0.000    0.000 
#
# Total GULP energy -198481.983435 kJ/mol
# GULP energy per Si atom -12405.123965 kJ/mol
# Density = 1.990934 g / cm^3
# Si number density = 19.954756 Si / 1000 Ang^3
#
#
#
# Elastic Constant Matrix: (Units=GPa)
#
#
# Indices 1 2 3 4 5 6 
#
# 1 62.0915 36.0235 38.8421 0.0000 10.7626 0.0000
# 2 36.0235 108.9364 53.7886 0.0000 4.4127 0.0000
# 3 38.8421 53.7886 116.5227 0.0000 1.0464 0.0000
# 4 0.0000 0.0000 0.0000 23.8290 0.0000 -5.5190
# 5 10.7626 4.4127 1.0464 0.0000 14.4026 0.0000
# 6 0.0000 0.0000 0.0000 -5.5190 0.0000 18.8557
#
#
#
# Elastic Compliance Matrix: (Units=1/GPa)
#
#
# Indices 1 2 3 4 5 6 
#
# 1 0.025768 -0.004733 -0.006249 0.000000 -0.017351 0.000000
# 2 -0.004733 0.012912 -0.004382 0.000000 -0.000101 0.000000
# 3 -0.006249 -0.004382 0.012642 0.000000 0.005094 0.000000
# 4 0.000000 0.000000 0.000000 0.045017 0.000000 0.013176
# 5 -0.017351 -0.000101 0.005094 0.000000 0.082059 0.000000
# 6 0.000000 0.000000 0.000000 0.013176 0.000000 0.056891
#
#
# Mechanical properties :
#
#
# Convention : Reuss Voigt Hill
#
# Bulk Modulus (GPa) = 48.55562 60.53989 54.54775
# Shear Modulus (GPa) = 18.32291 22.01055 20.16673
#
# Velocity S-wave (km/s) = 3.03351 3.32478 3.18248
# Velocity P-wave (km/s) = 6.05436 6.71888 6.39525
#
# Compressibility (1/GPa) = 0.02059494
#
# Stress axis : x y z
#
# Youngs Moduli (GPa) = 38.80819 77.44454 79.10003
#
# Poissons Ratio (x) = 0.36651 0.49430
# Poissons Ratio (y) = 0.18366 0.34662
# Poissons Ratio (z) = 0.24252 0.33937
#
# Static dielectric constant tensor:
#      x y z
#    x 3.574400 0.000000 -0.079620 
#    y 0.000000 3.632840 0.000000 
#    z -0.079620 0.000000 3.694340 
# 
# 
# High freq. dielectric constant tensor:
#      x y z
#    x 1.775440 0.000000 -0.005810 
#    y 0.000000 1.778800 0.000000 
#    z -0.005810 0.000000 1.787390 
# 
# From -- ./inp_files/5028.got.cif
#   From: 2010.03.12/outbox.cif.g09.slc.cpg/sg6_3_cif.got.tgz:5028.got - 2010.03.30 10:24:59.
