data_PCOD8052339
_publ_section_title
;
Structure prediction by ZEFSAII (Michael W. Deem and Ramdas Pophale) SiO2 
 PCOD8052339
Probable space group: P M
;
_chemical_formula_sum "Si O2"
_cell_formula_units_Z 16
_cell_length_a 12.215246
_cell_length_b 8.575044
_cell_length_c 10.024530
_cell_angle_alpha 90.000000
_cell_angle_beta 126.107884
_cell_angle_gamma 90.000000
_cell_volume 848.330212
_symmetry_space_group_name_H-M "P M"
_symmetry_group_IT_number 6
_symmetry_cell_setting 'monoclinic'
loop_
_space_group_symop_operation_xyz
x,y,z
x,-y,z
loop_
_atom_site_type_symbol
_atom_site_label
_atom_site_fract_x
_atom_site_fract_y
_atom_site_fract_z
Si Si1 0.366570 0.816353 0.203940
Si Si2 0.068131 0.182816 0.931243
Si Si3 0.144356 0.182973 0.702390
Si Si4 0.575111 0.817860 0.843246
Si Si5 0.085449 0.683139 0.386198
Si Si6 0.884599 0.184112 0.032353
Si Si7 0.375072 0.317773 0.486954
Si Si8 0.431515 0.682756 0.978718
O O1 0.425857 0.769887 0.390151
O O2 0.375796 0.000000 0.188390
O O3 0.212562 0.752050 0.085715
O O4 0.450691 0.735255 0.145701
O O5 0.049264 0.226481 0.761627
O O6 0.070595 0.000000 0.951837
O O7 0.947638 0.248145 0.937752
O O8 0.065164 0.232399 0.513472
O O9 0.284914 0.274854 0.814191
O O10 0.178489 0.000000 0.726565
O O11 0.477837 0.719531 0.678493
O O12 0.545083 0.771997 0.974218
O O13 0.549419 0.000000 0.801235
O O14 0.728162 0.769825 0.919520
O O15 0.089397 0.500000 0.413770
O O16 0.225136 0.741846 0.419266
O O17 0.958129 0.728970 0.205729
O O18 0.905242 0.000000 0.066097
O O19 0.373837 0.500000 0.456879
O O20 0.455201 0.500000 0.982671
#
# Coordination Sequence:
#
# PCOD8052339 Si02
#       8
#     2   2   2   2   2   2   2   2
#     4  10  19  34  59  86 113 145 189 239 284 340
#     4   8  16  32  55  83 110 139 179 231 284 328
#     4  10  19  33  57  85 112 146 191 238 284 336
#     4  11  23  38  59  84 113 155 200 238 282 343
#     4  11  22  35  55  86 117 150 191 235 286 340
#     4  10  21  39  60  83 113 151 193 237 285 340
#     4  11  22  36  56  85 118 151 191 239 287 338
#     4  11  21  35  55  82 118 151 186 237 294 345
#
# _framework density 18.860579999999999
#
# number of rings (size 3 to 8) (size 9 to 14) (size 15 to 20)
#    0.000    1.750    2.500    3.750    0.000    2.000 
#    0.000    1.875    0.000    6.000    0.000    0.000 
#    0.000    0.000    0.000    0.000    0.000    0.000 
#
# Total GULP energy -198424.227096 kJ/mol
# GULP energy per Si atom -12401.514193 kJ/mol
# Density = 1.881765 g / cm^3
# Si number density = 18.860580 Si / 1000 Ang^3
#
#
#
# Elastic Constant Matrix: (Units=GPa)
#
#
# Indices 1 2 3 4 5 6 
#
# 1 109.0013 20.4004 38.8192 0.0000 -17.6030 0.0000
# 2 20.4004 46.3983 18.1100 0.0000 -0.3098 0.0000
# 3 38.8192 18.1100 86.4137 0.0000 -20.9894 0.0000
# 4 0.0000 0.0000 0.0000 30.3748 0.0000 -3.7162
# 5 -17.6030 -0.3098 -20.9894 0.0000 33.4953 0.0000
# 6 0.0000 0.0000 0.0000 -3.7162 0.0000 19.4078
#
#
#
# Elastic Compliance Matrix: (Units=1/GPa)
#
#
# Indices 1 2 3 4 5 6 
#
# 1 0.011777 -0.003768 -0.003546 0.000000 0.003933 0.000000
# 2 -0.003768 0.025007 -0.004686 0.000000 -0.004685 0.000000
# 3 -0.003546 -0.004686 0.016141 0.000000 0.008208 0.000000
# 4 0.000000 0.000000 0.000000 0.033712 0.000000 0.006455
# 5 0.003933 -0.004685 0.008208 0.000000 0.037021 0.000000
# 6 0.000000 0.000000 0.000000 0.006455 0.000000 0.052762
#
#
# Mechanical properties :
#
#
# Convention : Reuss Voigt Hill
#
# Bulk Modulus (GPa) = 34.57195 44.05249 39.31222
# Shear Modulus (GPa) = 23.80253 27.62116 25.71184
#
# Velocity S-wave (km/s) = 3.55635 3.83102 3.69624
# Velocity P-wave (km/s) = 5.93579 6.55565 6.25341
#
# Compressibility (1/GPa) = 0.02892518
#
# Stress axis : x y z
#
# Youngs Moduli (GPa) = 84.90925 39.98872 61.95489
#
# Poissons Ratio (x) = 0.15068 0.21968
# Poissons Ratio (y) = 0.31994 0.29033
# Poissons Ratio (z) = 0.30107 0.18739
#
# Static dielectric constant tensor:
#      x y z
#    x 3.688440 0.000000 -0.330350 
#    y 0.000000 3.331300 0.000000 
#    z -0.330350 0.000000 3.365040 
# 
# 
# High freq. dielectric constant tensor:
#      x y z
#    x 1.723030 0.000000 -0.029130 
#    y 0.000000 1.730600 0.000000 
#    z -0.029130 0.000000 1.725880 
# 
# From -- ./inp_files/3634.got.cif
#   From: 2010.03.12/outbox.cif.g09.slc.cpg/sg6_2_cif.got.tgz:3634.got - 2010.03.30 10:24:59.
