data_PCOD8052789
_publ_section_title
;
Structure prediction by ZEFSAII (Michael W. Deem and Ramdas Pophale) SiO2 
 PCOD8052789
Probable space group: C M
;
_chemical_formula_sum "Si O2"
_cell_formula_units_Z 32
_cell_length_a 20.830169
_cell_length_b 8.817832
_cell_length_c 25.568210
_cell_angle_alpha 90.000000
_cell_angle_beta 157.691821
_cell_angle_gamma 90.000000
_cell_volume 1782.656536
_symmetry_space_group_name_H-M "C M"
_symmetry_group_IT_number 8
_symmetry_cell_setting 'monoclinic'
loop_
_space_group_symop_operation_xyz
x,y,z
x,-y,z
1/2+x,1/2+y,z
1/2+x,1/2-y,z
loop_
_atom_site_type_symbol
_atom_site_label
_atom_site_fract_x
_atom_site_fract_y
_atom_site_fract_z
Si Si1 0.947490 0.822161 0.803280
Si Si2 0.017929 0.679546 0.352826
Si Si3 0.424505 0.677678 0.103166
Si Si4 0.758140 0.820806 0.084955
Si Si5 0.580850 0.175625 0.801771
Si Si6 0.569508 0.820388 0.508557
Si Si7 0.822271 0.324063 0.520371
Si Si8 0.296143 0.819751 0.382637
O O1 0.754191 0.775533 0.669384
O O2 0.985317 0.777292 0.772036
O O3 0.977701 0.000000 0.832520
O O4 0.064961 0.734670 0.933321
O O5 0.007834 0.500000 0.344735
O O6 0.041837 0.744541 0.429390
O O7 0.173550 0.730076 0.434495
O O8 0.841820 0.746158 0.198802
O O9 0.450369 0.500000 0.127463
O O10 0.361444 0.737139 0.111962
O O11 0.608422 0.746873 0.227865
O O12 0.281459 0.718505 0.951931
O O13 0.760692 0.000000 0.092817
O O14 0.499675 0.205180 0.683921
O O15 0.561833 0.000000 0.804774
O O16 0.429510 0.749304 0.442136
O O17 0.552354 0.000000 0.493304
O O18 0.768922 0.500000 0.482489
O O19 0.847957 0.270025 0.480264
O O20 0.300105 0.000000 0.380828
#
# Coordination Sequence:
#
# PCOD8052789 Si02
#       8
#     4   4   4   4   4   4   4   4
#     4  10  18  31  49  75 105 137 168 205 259 309
#     4  11  20  32  50  77 107 135 169 211 260 310
#     4   8  14  26  46  71  97 122 159 207 253 291
#     4  10  19  33  52  78 101 129 172 219 258 297
#     4   9  17  28  46  75 102 127 166 214 256 298
#     4   9  19  32  48  74 109 140 168 205 256 312
#     4  10  18  30  51  76 100 131 176 220 253 289
#     4   9  16  30  50  72 101 135 170 213 255 296
#
# _framework density 17.950737
#
# number of rings (size 3 to 8) (size 9 to 14) (size 15 to 20)
#    0.000    2.500    2.500    1.875    0.000    0.000 
#    0.000    1.250    0.000    9.000    0.000    3.500 
#    0.000    0.000    0.000    0.000    0.000    0.000 
#
# Total GULP energy -198334.603244 kJ/mol
# GULP energy per Si atom -12395.912703 kJ/mol
# Density = 1.790988 g / cm^3
# Si number density = 17.950737 Si / 1000 Ang^3
#
#
#
# Elastic Constant Matrix: (Units=GPa)
#
#
# Indices 1 2 3 4 5 6 
#
# 1 100.8440 22.4068 72.2811 -0.0030 1.8825 0.0001
# 2 22.4068 41.0837 30.0261 -0.0026 -3.1588 -0.0005
# 3 72.2811 30.0261 165.7801 -0.0156 -3.3543 0.0042
# 4 -0.0030 -0.0026 -0.0156 24.5444 0.0018 -1.9268
# 5 1.8825 -3.1588 -3.3543 0.0018 30.5482 0.0003
# 6 0.0001 -0.0005 0.0042 -1.9268 0.0003 15.8128
#
#
#
# Elastic Compliance Matrix: (Units=1/GPa)
#
#
# Indices 1 2 3 4 5 6 
#
# 1 0.015069 -0.004081 -0.005871 -0.000002 -0.001995 0.000001
# 2 -0.004081 0.029328 -0.003474 0.000000 0.002903 0.000002
# 3 -0.005871 -0.003474 0.009242 0.000005 0.001017 -0.000002
# 4 -0.000002 0.000000 0.000005 0.041136 -0.000002 0.005012
# 5 -0.001995 0.002903 0.001017 -0.000002 0.033270 -0.000001
# 6 0.000001 0.000002 -0.000002 0.005012 -0.000001 0.063851
#
#
# Mechanical properties :
#
#
# Convention : Reuss Voigt Hill
#
# Bulk Modulus (GPa) = 37.33194 61.90401 49.61797
# Shear Modulus (GPa) = 21.96104 26.38067 24.17085
#
# Velocity S-wave (km/s) = 3.50152 3.83771 3.67346
# Velocity P-wave (km/s) = 6.09832 7.36191 6.75971
#
# Compressibility (1/GPa) = 0.02678672
#
# Stress axis : x y z
#
# Youngs Moduli (GPa) = 66.36342 34.09677 108.20417
#
# Poissons Ratio (x) = 0.13914 0.63529
# Poissons Ratio (y) = 0.27081 0.37590
# Poissons Ratio (z) = 0.38964 0.11845
#
# Static dielectric constant tensor:
#      x y z
#    x 3.293730 0.000000 -0.042630 
#    y 0.000000 3.008810 0.000000 
#    z -0.042630 0.000000 3.775820 
# 
# 
# High freq. dielectric constant tensor:
#      x y z
#    x 1.663710 0.000000 -0.011100 
#    y 0.000000 1.662380 0.000000 
#    z -0.011100 0.000000 1.716910 
# 
# From -- ./inp_files/29742.got.cif
#   From: 2010.03.12/outbox.cif.g09.slc.cpg/sg8_15_cif.got.tgz:29742.got - 2010.03.31 10:45:26.
