data_PCOD8052231
_publ_section_title
;
Structure prediction by ZEFSAII (Michael W. Deem and Ramdas Pophale) SiO2 
 PCOD8052231
Probable space group: P M
;
_chemical_formula_sum "Si O2"
_cell_formula_units_Z 16
_cell_length_a 9.703861
_cell_length_b 8.753310
_cell_length_c 11.703992
_cell_angle_alpha 90.000000
_cell_angle_beta 70.200026
_cell_angle_gamma 90.000000
_cell_volume 935.374563
_symmetry_space_group_name_H-M "P M"
_symmetry_group_IT_number 6
_symmetry_cell_setting 'monoclinic'
loop_
_space_group_symop_operation_xyz
x,y,z
x,-y,z
loop_
_atom_site_type_symbol
_atom_site_label
_atom_site_fract_x
_atom_site_fract_y
_atom_site_fract_z
Si Si1 0.220180 0.320184 0.817030
Si Si2 0.275298 0.681453 0.544355
Si Si3 0.899157 0.680758 0.293582
Si Si4 0.429899 0.679883 0.169694
Si Si5 0.575287 0.680379 0.353862
Si Si6 0.371391 0.168539 0.965432
Si Si7 0.151166 0.819479 0.362529
Si Si8 0.045850 0.829960 0.046002
O O1 0.208355 0.500000 0.829802
O O2 0.235719 0.265576 0.682846
O O3 0.363894 0.264717 0.848946
O O4 0.072417 0.245512 0.912893
O O5 0.258819 0.500000 0.532408
O O6 0.442247 0.735668 0.472018
O O7 0.163816 0.767225 0.490942
O O8 0.917443 0.500000 0.306520
O O9 0.731322 0.737924 0.356576
O O10 0.943998 0.722955 0.151523
O O11 0.991317 0.772989 0.361321
O O12 0.430114 0.500000 0.153610
O O13 0.547234 0.736779 0.231175
O O14 0.470117 0.752941 0.035515
O O15 0.269799 0.728957 0.255674
O O16 0.577016 0.500000 0.350407
O O17 0.205240 0.158015 0.062028
O O18 0.434441 0.000000 0.921886
O O19 0.174036 0.000000 0.345292
O O20 0.977599 0.000000 0.052230
#
# Coordination Sequence:
#
# PCOD8052231 Si02
#       8
#     2   2   2   2   2   2   2   2
#     4   9  16  28  49  73  93 119 159 200 236 276
#     4   9  18  34  52  72  95 122 160 200 236 278
#     4  11  19  31  50  71  97 128 161 194 236 284
#     4  10  17  30  49  70  95 122 159 199 237 278
#     4   8  18  32  48  71  98 125 154 196 240 280
#     4   9  17  27  43  69  98 122 148 189 236 278
#     4  11  20  29  45  69  97 125 158 196 236 280
#     4   9  18  29  44  69  99 123 151 192 235 278
#
# _framework density 17.105447000000002
#
# number of rings (size 3 to 8) (size 9 to 14) (size 15 to 20)
#    0.750    1.750    1.250    3.375    0.000    1.000 
#    0.000    6.250    0.000    1.500    0.000    5.250 
#    0.000    0.000    0.000    0.000    0.000    0.000 
#
# Total GULP energy -198250.564381 kJ/mol
# GULP energy per Si atom -12390.660274 kJ/mol
# Density = 1.706651 g / cm^3
# Si number density = 17.105447 Si / 1000 Ang^3
#
#
#
# Elastic Constant Matrix: (Units=GPa)
#
#
# Indices 1 2 3 4 5 6 
#
# 1 80.6424 9.9070 30.9274 0.0000 7.6127 0.0000
# 2 9.9070 62.2519 20.6241 0.0000 4.1726 0.0000
# 3 30.9274 20.6241 104.2313 0.0000 14.6229 0.0000
# 4 0.0000 0.0000 0.0000 18.2116 0.0000 4.7253
# 5 7.6127 4.1726 14.6229 0.0000 19.2802 0.0000
# 6 0.0000 0.0000 0.0000 4.7253 0.0000 10.4964
#
#
#
# Elastic Compliance Matrix: (Units=1/GPa)
#
#
# Indices 1 2 3 4 5 6 
#
# 1 0.014159 -0.000864 -0.003662 0.000000 -0.002626 0.000000
# 2 -0.000864 0.017272 -0.003004 0.000000 -0.001118 0.000000
# 3 -0.003662 -0.003004 0.012289 0.000000 -0.007224 0.000000
# 4 0.000000 0.000000 0.000000 0.062172 0.000000 -0.027989
# 5 -0.002626 -0.001118 -0.007224 0.000000 0.058625 0.000000
# 6 0.000000 0.000000 0.000000 -0.027989 0.000000 0.107871
#
#
# Mechanical properties :
#
#
# Convention : Reuss Voigt Hill
#
# Bulk Modulus (GPa) = 34.89344 41.11585 38.00465
# Shear Modulus (GPa) = 16.83502 21.97544 19.40523
#
# Velocity S-wave (km/s) = 3.14058 3.58817 3.37181
# Velocity P-wave (km/s) = 5.79606 6.42304 6.11759
#
# Compressibility (1/GPa) = 0.02865868
#
# Stress axis : x y z
#
# Youngs Moduli (GPa) = 70.62724 57.89879 81.37687
#
# Poissons Ratio (x) = 0.05003 0.29798
# Poissons Ratio (y) = 0.06103 0.24447
# Poissons Ratio (z) = 0.25862 0.17394
#
# Static dielectric constant tensor:
#      x y z
#    x 3.149740 0.000000 0.174890 
#    y 0.000000 3.130470 0.000000 
#    z 0.174890 0.000000 3.148650 
# 
# 
# High freq. dielectric constant tensor:
#      x y z
#    x 1.624510 0.000000 0.021250 
#    y 0.000000 1.663250 0.000000 
#    z 0.021250 0.000000 1.646130 
# 
# From -- ./inp_files/3542.got.cif
#   From: 2010.03.12/outbox.cif.g09.slc.cpg/sg6_2_cif.got.tgz:3542.got - 2010.03.30 10:24:59.
