data_PCOD8052834
_publ_section_title
;
Structure prediction by ZEFSAII (Michael W. Deem and Ramdas Pophale) SiO2 
 PCOD8052834
Probable space group: C M
;
_chemical_formula_sum "Si O2"
_cell_formula_units_Z 26
_cell_length_a 14.090252
_cell_length_b 7.599658
_cell_length_c 22.155760
_cell_angle_alpha 90.000000
_cell_angle_beta 143.694560
_cell_angle_gamma 90.000000
_cell_volume 1404.710938
_symmetry_space_group_name_H-M "C M"
_symmetry_group_IT_number 8
_symmetry_cell_setting 'monoclinic'
loop_
_space_group_symop_operation_xyz
x,y,z
x,-y,z
1/2+x,1/2+y,z
1/2+x,1/2-y,z
loop_
_atom_site_type_symbol
_atom_site_label
_atom_site_fract_x
_atom_site_fract_y
_atom_site_fract_z
Si Si1 0.159441 0.000000 0.378181
Si Si2 0.011490 0.500000 0.575570
Si Si3 0.884929 0.804218 0.291067
Si Si4 0.761648 0.708493 0.901587
Si Si5 0.378176 0.000000 0.383210
Si Si6 0.195267 0.802436 0.735513
Si Si7 0.614744 0.208713 0.062767
Si Si8 0.047603 0.798415 0.898778
O O1 0.325115 0.000000 0.501596
O O2 0.054755 0.826233 0.342194
O O3 0.205389 0.000000 0.329957
O O4 0.096567 0.675565 0.641877
O O5 0.018152 0.500000 0.505758
O O6 0.900726 0.675106 0.355513
O O7 0.753692 0.722386 0.178233
O O8 0.831254 0.000000 0.286612
O O9 0.769100 0.500000 0.909057
O O10 0.679788 0.765932 0.796533
O O11 0.658534 0.786399 0.903581
O O12 0.943511 0.780464 0.998990
O O13 0.382964 0.808939 0.815309
O O14 0.126970 0.000000 0.693011
O O15 0.619802 0.000000 0.061340
O O16 0.644126 0.284341 0.010973
O O17 0.006488 0.000000 0.862898
#
# Coordination Sequence:
#
# PCOD8052834 Si02
#       8
#     2   2   4   4   2   4   4   4
#     4   8  22  44  59  92 123 152 217 266 295 384
#     4  10  22  44  57  86 119 150 207 270 295 367
#     4   9  20  42  62  88 124 162 204 264 305 369
#     4   8  17  33  53  83 118 153 192 232 286 372
#     4  10  22  42  64  86 124 156 208 268 314 357
#     4  10  20  40  58  80 119 159 191 246 310 348
#     4   9  18  34  55  79 122 157 191 239 296 352
#     4  10  18  32  54  87 123 151 195 239 285 366
#
# _framework density 18.509146000000001
#
# number of rings (size 3 to 8) (size 9 to 14) (size 15 to 20)
#    0.923    1.846    0.769    1.385    1.077    1.846 
#    8.308    0.000    0.000    0.000    0.000    0.000 
#    0.000    0.000    0.000    0.000    0.000    0.000 
#
# Total GULP energy -161105.988656 kJ/mol
# GULP energy per Si atom -12392.768358 kJ/mol
# Density = 1.846702 g / cm^3
# Si number density = 18.509146 Si / 1000 Ang^3
#
#
#
# Elastic Constant Matrix: (Units=GPa)
#
#
# Indices 1 2 3 4 5 6 
#
# 1 155.3949 32.6385 56.2780 0.0000 -8.6561 0.0000
# 2 32.6385 73.6721 41.1896 0.0000 -8.9520 0.0000
# 3 56.2780 41.1896 133.5724 0.0000 -15.5608 0.0000
# 4 0.0000 0.0000 0.0000 26.1878 0.0000 -7.3906
# 5 -8.6561 -8.9520 -15.5608 0.0000 21.4501 0.0000
# 6 0.0000 0.0000 0.0000 -7.3906 0.0000 27.4873
#
#
#
# Elastic Compliance Matrix: (Units=1/GPa)
#
#
# Indices 1 2 3 4 5 6 
#
# 1 0.007825 -0.001932 -0.002651 0.000000 0.000428 0.000000
# 2 -0.001932 0.017118 -0.004067 0.000000 0.003414 0.000000
# 3 -0.002651 -0.004067 0.010416 0.000000 0.004789 0.000000
# 4 0.000000 0.000000 0.000000 0.041321 0.000000 0.011110
# 5 0.000428 0.003414 0.004789 0.000000 0.051691 0.000000
# 6 0.000000 0.000000 0.000000 0.011110 0.000000 0.039368
#
#
# Mechanical properties :
#
#
# Convention : Reuss Voigt Hill
#
# Bulk Modulus (GPa) = 55.37679 69.20572 62.29125
# Shear Modulus (GPa) = 26.16985 30.52725 28.34855
#
# Velocity S-wave (km/s) = 3.76425 4.06557 3.91781
# Velocity P-wave (km/s) = 6.99116 7.71425 7.36159
#
# Compressibility (1/GPa) = 0.01805811
#
# Stress axis : x y z
#
# Youngs Moduli (GPa) = 127.79396 58.41672 96.01011
#
# Poissons Ratio (x) = 0.11289 0.25454
# Poissons Ratio (y) = 0.24695 0.39046
# Poissons Ratio (z) = 0.33880 0.23757
#
# Static dielectric constant tensor:
#      x y z
#    x 3.528180 0.000000 0.022160 
#    y 0.000000 3.172860 0.000000 
#    z 0.022160 0.000000 3.360190 
# 
# 
# High freq. dielectric constant tensor:
#      x y z
#    x 1.712080 0.000000 -0.002600 
#    y 0.000000 1.709980 0.000000 
#    z -0.002600 0.000000 1.706090 
# 
# From -- ./inp_files/31913.got.cif
#   From: 2010.03.12/outbox.cif.g09.slc.cpg/sg8_16_cif.got.tgz:31913.got - 2010.03.31 10:45:26.
