data_PCOD8052564
_publ_section_title
;
Structure prediction by ZEFSAII (Michael W. Deem and Ramdas Pophale) SiO2 
 PCOD8052564
Probable space group: P M
;
_chemical_formula_sum "Si O2"
_cell_formula_units_Z 16
_cell_length_a 9.997715
_cell_length_b 16.569347
_cell_length_c 8.723252
_cell_angle_alpha 90.000000
_cell_angle_beta 30.002261
_cell_angle_gamma 90.000000
_cell_volume 722.577196
_symmetry_space_group_name_H-M "P M"
_symmetry_group_IT_number 6
_symmetry_cell_setting 'monoclinic'
loop_
_space_group_symop_operation_xyz
x,y,z
x,-y,z
loop_
_atom_site_type_symbol
_atom_site_label
_atom_site_fract_x
_atom_site_fract_y
_atom_site_fract_z
Si Si1 0.438390 0.671123 0.134460
Si Si2 0.934869 0.593622 0.783461
Si Si3 0.095800 0.092963 0.743350
Si Si4 0.656997 0.909916 0.679770
Si Si5 0.328920 0.332572 0.884961
Si Si6 0.143560 0.155276 0.032702
Si Si7 0.833229 0.592254 0.234425
Si Si8 0.602553 0.150043 0.063773
O O1 0.522418 0.760801 0.093888
O O2 0.191033 0.645940 0.485007
O O3 0.687303 0.611851 0.916912
O O4 0.351033 0.666208 0.045484
O O5 0.011765 0.500000 0.692942
O O6 0.858613 0.617264 0.032089
O O7 0.387196 0.109846 0.387922
O O8 0.015883 0.000000 0.795204
O O9 0.093710 0.110849 0.924037
O O10 0.883249 0.152065 0.874109
O O11 0.869992 0.846143 0.402175
O O12 0.746643 0.000000 0.544442
O O13 0.365262 0.892992 0.905025
O O14 0.641089 0.904973 0.877585
O O15 0.615423 0.349959 0.526832
O O16 0.229173 0.246985 0.921196
O O17 0.114906 0.398709 0.042356
O O18 0.739062 0.500000 0.343156
#
# Coordination Sequence:
#
# PCOD8052564 Si02
#       8
#     2   2   2   2   2   2   2   2
#     4  12  26  45  70 104 143 181 227 283 340 410
#     4  11  26  47  74 105 139 181 229 278 340 409
#     4  12  26  46  70 101 138 179 235 289 345 407
#     4  12  24  46  72  96 138 184 228 281 346 405
#     4  12  26  45  71 104 143 182 227 283 340 409
#     4  12  27  45  69 105 137 181 230 286 342 408
#     4  11  26  47  73 104 139 181 229 278 340 409
#     4  12  27  45  69 105 137 181 229 286 343 409
#
# _framework density 22.142961
#
# number of rings (size 3 to 8) (size 9 to 14) (size 15 to 20)
#    0.000    0.250    1.250    7.500    7.000    5.000 
#    0.000    0.000    0.000    0.000    0.000    0.000 
#    0.000    0.000    0.000    0.000    0.000    0.000 
#
# Total GULP energy -198564.886488 kJ/mol
# GULP energy per Si atom -12410.305406 kJ/mol
# Density = 2.209256 g / cm^3
# Si number density = 22.142961 Si / 1000 Ang^3
#
#
#
# Elastic Constant Matrix: (Units=GPa)
#
#
# Indices 1 2 3 4 5 6 
#
# 1 466.8014 312.0592 477.5154 0.0000 -87.5273 0.0000
# 2 312.0592 325.3479 382.8653 0.0000 -53.3075 0.0000
# 3 477.5154 382.8653 679.9783 0.0000 -92.4395 0.0000
# 4 0.0000 0.0000 0.0000 44.2321 0.0000 -8.5959
# 5 -87.5273 -53.3075 -92.4395 0.0000 55.1616 0.0000
# 6 0.0000 0.0000 0.0000 -8.5959 0.0000 33.4572
#
#
#
# Elastic Compliance Matrix: (Units=1/GPa)
#
#
# Indices 1 2 3 4 5 6 
#
# 1 0.009710 -0.003763 -0.004015 0.000000 0.005043 0.000000
# 2 -0.003763 0.010571 -0.003539 0.000000 -0.001685 0.000000
# 3 -0.004015 -0.003539 0.006412 0.000000 0.000956 0.000000
# 4 0.000000 0.000000 0.000000 0.023796 0.000000 0.006114
# 5 0.005043 -0.001685 0.000956 0.000000 0.026105 0.000000
# 6 0.000000 0.000000 0.000000 0.006114 0.000000 0.031460
#
#
# Mechanical properties :
#
#
# Convention : Reuss Voigt Hill
#
# Bulk Modulus (GPa) = 246.23511 424.11193 335.17352
# Shear Modulus (GPa) = 37.86739 46.54936 42.20838
#
# Velocity S-wave (km/s) = 4.13986 4.58997 4.37071
# Velocity P-wave (km/s) = 11.58858 14.83374 13.31043
#
# Compressibility (1/GPa) = 0.00406116
#
# Stress axis : x y z
#
# Youngs Moduli (GPa) = 102.98434 94.59994 155.94884
#
# Poissons Ratio (x) = 0.35596 0.62609
# Poissons Ratio (y) = 0.38751 0.55185
# Poissons Ratio (z) = 0.41345 0.33475
#
# Static dielectric constant tensor:
#      x y z
#    x 4.149690 0.000000 0.030140 
#    y 0.000000 4.060180 0.000000 
#    z 0.030140 0.000000 3.834510 
# 
# 
# High freq. dielectric constant tensor:
#      x y z
#    x 1.888090 0.000000 -0.002730 
#    y 0.000000 1.881960 0.000000 
#    z -0.002730 0.000000 1.887040 
# 
# From -- ./inp_files/3235.got.cif
#   From: 2010.03.12/outbox.cif.g09.slc.cpg/sg6_2_cif.got.tgz:3235.got - 2010.03.30 10:24:59.
