data_PCOD8052375
_publ_section_title
;
Structure prediction by ZEFSAII (Michael W. Deem and Ramdas Pophale) SiO2 
 PCOD8052375
Probable space group: P M
;
_chemical_formula_sum "Si O2"
_cell_formula_units_Z 16
_cell_length_a 7.576464
_cell_length_b 8.643551
_cell_length_c 12.430920
_cell_angle_alpha 90.000000
_cell_angle_beta 71.035287
_cell_angle_gamma 90.000000
_cell_volume 769.881893
_symmetry_space_group_name_H-M "P M"
_symmetry_group_IT_number 6
_symmetry_cell_setting 'monoclinic'
loop_
_space_group_symop_operation_xyz
x,y,z
x,-y,z
loop_
_atom_site_type_symbol
_atom_site_label
_atom_site_fract_x
_atom_site_fract_y
_atom_site_fract_z
Si Si1 0.822370 0.179097 0.398990
Si Si2 0.321078 0.322075 0.009957
Si Si3 0.714495 0.321959 0.640148
Si Si4 0.618859 0.681144 0.240138
Si Si5 0.340296 0.177046 0.789052
Si Si6 0.202383 0.679687 0.266607
Si Si7 0.958489 0.824604 0.767169
Si Si8 0.693747 0.822133 0.010911
O O1 0.742612 0.213944 0.532058
O O2 0.703626 0.278291 0.338263
O O3 0.040942 0.221156 0.354067
O O4 0.795086 0.000000 0.378032
O O5 0.302594 0.500000 0.980217
O O6 0.196944 0.286019 0.139810
O O7 0.535232 0.287612 0.994602
O O8 0.256094 0.217280 0.923103
O O9 0.725860 0.500000 0.603114
O O10 0.513532 0.287554 0.730892
O O11 0.874681 0.290652 0.696137
O O12 0.638779 0.500000 0.214166
O O13 0.400833 0.730393 0.278017
O O14 0.736047 0.770755 0.124986
O O15 0.180192 0.203948 0.731770
O O16 0.408491 0.000000 0.775796
O O17 0.164090 0.500000 0.297376
O O18 0.915567 0.000000 0.738605
O O19 0.875583 0.795840 0.902321
O O20 0.627359 0.000000 0.021681
#
# Coordination Sequence:
#
# PCOD8052375 Si02
#       8
#     2   2   2   2   2   2   2   2
#     4  12  26  43  67  93 124 167 214 260 315 377
#     4  10  20  36  60  93 130 168 206 254 315 371
#     4  12  26  45  67  90 124 167 214 263 316 373
#     4  10  22  41  64  93 129 166 209 260 312 369
#     4  11  23  40  63  93 128 165 209 259 313 375
#     4   9  21  41  63  92 128 165 207 258 312 369
#     4  10  23  41  63  93 127 165 208 259 315 372
#     4  10  19  35  61  93 130 167 205 255 314 372
#
# _framework density 20.782408
#
# number of rings (size 3 to 8) (size 9 to 14) (size 15 to 20)
#    0.000    1.500    1.250    4.500    1.750    5.500 
#    0.000    0.000    0.000    0.000    0.000    0.000 
#    0.000    0.000    0.000    0.000    0.000    0.000 
#
# Total GULP energy -198469.707521 kJ/mol
# GULP energy per Si atom -12404.356720 kJ/mol
# Density = 2.073511 g / cm^3
# Si number density = 20.782408 Si / 1000 Ang^3
#
#
#
# Elastic Constant Matrix: (Units=GPa)
#
#
# Indices 1 2 3 4 5 6 
#
# 1 83.0441 20.8189 26.2618 0.0000 14.3585 0.0000
# 2 20.8189 67.0425 16.9691 0.0000 -0.1730 0.0000
# 3 26.2618 16.9691 82.2664 0.0000 14.2816 0.0000
# 4 0.0000 0.0000 0.0000 34.5047 0.0000 4.9478
# 5 14.3585 -0.1730 14.2816 0.0000 21.8483 0.0000
# 6 0.0000 0.0000 0.0000 4.9478 0.0000 26.6065
#
#
#
# Elastic Compliance Matrix: (Units=1/GPa)
#
#
# Indices 1 2 3 4 5 6 
#
# 1 0.015354 -0.004136 -0.002584 0.000000 -0.008434 0.000000
# 2 -0.004136 0.016977 -0.003019 0.000000 0.004826 0.000000
# 3 -0.002584 -0.003019 0.015017 0.000000 -0.008142 0.000000
# 4 0.000000 0.000000 0.000000 0.029776 0.000000 -0.005537
# 5 -0.008434 0.004826 -0.008142 0.000000 0.056673 0.000000
# 6 0.000000 0.000000 0.000000 -0.005537 0.000000 0.038615
#
#
# Mechanical properties :
#
#
# Convention : Reuss Voigt Hill
#
# Bulk Modulus (GPa) = 35.88192 40.05030 37.96611
# Shear Modulus (GPa) = 24.85347 27.81211 26.33279
#
# Velocity S-wave (km/s) = 3.46192 3.66218 3.56346
# Velocity P-wave (km/s) = 5.76913 6.09879 5.93625
#
# Compressibility (1/GPa) = 0.02786919
#
# Stress axis : x y z
#
# Youngs Moduli (GPa) = 65.12912 58.90370 66.59213
#
# Poissons Ratio (x) = 0.24360 0.17209
# Poissons Ratio (y) = 0.26935 0.20107
# Poissons Ratio (z) = 0.16831 0.17785
#
# Static dielectric constant tensor:
#      x y z
#    x 3.638030 0.000000 0.024740 
#    y 0.000000 3.723350 0.000000 
#    z 0.024740 0.000000 3.764390 
# 
# 
# High freq. dielectric constant tensor:
#      x y z
#    x 1.811870 0.000000 0.002760 
#    y 0.000000 1.816410 0.000000 
#    z 0.002760 0.000000 1.810210 
# 
# From -- ./inp_files/4647.got.cif
#   From: 2010.03.12/outbox.cif.g09.slc.cpg/sg6_3_cif.got.tgz:4647.got - 2010.03.30 10:24:59.
