data_PCOD8052819
_publ_section_title
;
Structure prediction by ZEFSAII (Michael W. Deem and Ramdas Pophale) SiO2 
 PCOD8052819
Probable space group: C M
;
_chemical_formula_sum "Si O2"
_cell_formula_units_Z 32
_cell_length_a 28.333798
_cell_length_b 8.522236
_cell_length_c 12.075915
_cell_angle_alpha 90.000000
_cell_angle_beta 31.068869
_cell_angle_gamma 90.000000
_cell_volume 1504.822708
_symmetry_space_group_name_H-M "C M"
_symmetry_group_IT_number 8
_symmetry_cell_setting 'monoclinic'
loop_
_space_group_symop_operation_xyz
x,y,z
x,-y,z
1/2+x,1/2+y,z
1/2+x,1/2-y,z
loop_
_atom_site_type_symbol
_atom_site_label
_atom_site_fract_x
_atom_site_fract_y
_atom_site_fract_z
Si Si1 0.830520 0.316286 0.842960
Si Si2 0.172155 0.179755 0.656300
Si Si3 0.130111 0.683662 0.281506
Si Si4 0.357740 0.680662 0.013077
Si Si5 0.988369 0.181641 0.398771
Si Si6 0.664134 0.680436 0.429071
Si Si7 0.879422 0.315699 0.196381
Si Si8 0.520757 0.182083 0.098362
O O1 0.829478 0.500000 0.823049
O O2 0.884825 0.232719 0.634139
O O3 0.727783 0.252439 0.048938
O O4 0.884567 0.278025 0.848969
O O5 0.122437 0.199389 0.635810
O O6 0.277186 0.235038 0.436844
O O7 0.166295 0.000000 0.708060
O O8 0.121790 0.289104 0.846205
O O9 0.139301 0.500000 0.282124
O O10 0.096895 0.766166 0.464388
O O11 0.057574 0.716099 0.332256
O O12 0.381391 0.500000 0.944034
O O13 0.250245 0.704685 0.247529
O O14 0.410043 0.737318 0.018590
O O15 0.006987 0.213157 0.233289
O O16 0.003950 0.000000 0.393415
O O17 0.695947 0.500000 0.347166
O O18 0.884014 0.500000 0.167968
O O19 0.947323 0.259474 0.155726
O O20 0.508387 0.000000 0.152939
#
# Coordination Sequence:
#
# PCOD8052819 Si02
#       8
#     4   4   4   4   4   4   4   4
#     4  11  22  40  64  90 122 158 196 242 299 355
#     4   9  19  37  60  85 116 154 192 233 287 351
#     4  11  22  39  63  92 123 156 197 243 297 356
#     4  10  18  31  56  90 122 151 191 239 289 348
#     4  12  26  44  62  84 117 157 204 252 297 349
#     4   9  17  33  57  86 121 157 192 233 290 353
#     4   9  20  39  60  83 117 157 192 233 292 354
#     4  11  24  41  60  84 114 150 198 249 295 348
#
# _framework density 21.264962000000001
#
# number of rings (size 3 to 8) (size 9 to 14) (size 15 to 20)
#    0.000    1.750    0.000    7.500    0.000    5.500 
#    0.000    6.250    0.000    0.000    0.000    0.000 
#    0.000    0.000    0.000    0.000    0.000    0.000 
#
# Total GULP energy -198405.080579 kJ/mol
# GULP energy per Si atom -12400.317536 kJ/mol
# Density = 2.121656 g / cm^3
# Si number density = 21.264962 Si / 1000 Ang^3
#
#
#
# Elastic Constant Matrix: (Units=GPa)
#
#
# Indices 1 2 3 4 5 6 
#
# 1 63.6926 12.9444 0.0687 0.0000 7.2871 0.0000
# 2 12.9444 92.0908 18.0387 0.0000 8.6690 0.0000
# 3 0.0687 18.0387 65.1898 0.0000 17.3929 0.0000
# 4 0.0000 0.0000 0.0000 32.4536 0.0000 4.6833
# 5 7.2871 8.6690 17.3929 0.0000 29.2159 0.0000
# 6 0.0000 0.0000 0.0000 4.6833 0.0000 34.3397
#
#
#
# Elastic Compliance Matrix: (Units=1/GPa)
#
#
# Indices 1 2 3 4 5 6 
#
# 1 0.016684 -0.002273 0.001833 0.000000 -0.004578 0.000000
# 2 -0.002273 0.011871 -0.002965 0.000000 -0.001190 0.000000
# 3 0.001833 -0.002965 0.019075 0.000000 -0.010933 0.000000
# 4 0.000000 0.000000 0.000000 0.031432 0.000000 -0.004287
# 5 -0.004578 -0.001190 -0.010933 0.000000 0.042232 0.000000
# 6 0.000000 0.000000 0.000000 -0.004287 0.000000 0.029705
#
#
# Mechanical properties :
#
#
# Convention : Reuss Voigt Hill
#
# Bulk Modulus (GPa) = 24.49757 31.45299 27.97528
# Shear Modulus (GPa) = 29.16859 31.86327 30.51593
#
# Velocity S-wave (km/s) = 3.70763 3.87511 3.79229
# Velocity P-wave (km/s) = 5.46570 5.90297 5.68854
#
# Compressibility (1/GPa) = 0.04082037
#
# Stress axis : x y z
#
# Youngs Moduli (GPa) = 59.93688 84.23755 52.42355
#
# Poissons Ratio (x) = 0.19149 -0.09609
# Poissons Ratio (y) = 0.13625 0.15543
# Poissons Ratio (z) = -0.10986 0.24976
#
# Static dielectric constant tensor:
#      x y z
#    x 3.985180 0.000000 0.140830 
#    y 0.000000 3.724260 0.000000 
#    z 0.140830 0.000000 3.761830 
# 
# 
# High freq. dielectric constant tensor:
#      x y z
#    x 1.830780 0.000000 0.008900 
#    y 0.000000 1.836650 0.000000 
#    z 0.008900 0.000000 1.826320 
# 
# From -- ./inp_files/24807.got.cif
#   From: 2010.03.12/outbox.cif.g09.slc.cpg/sg8_13_cif.got.tgz:24807.got - 2010.03.31 10:45:26.
