data_PCOD8052619
_publ_section_title
;
Structure prediction by ZEFSAII (Michael W. Deem and Ramdas Pophale) SiO2 
 PCOD8052619
Probable space group: P C
;
_chemical_formula_sum "Si O2"
_cell_formula_units_Z 16
_cell_length_a 9.337476
_cell_length_b 18.982837
_cell_length_c 5.032324
_cell_angle_alpha 90.000000
_cell_angle_beta 106.178115
_cell_angle_gamma 90.000000
_cell_volume 856.665831
_symmetry_space_group_name_H-M "P C"
_symmetry_group_IT_number 7
_symmetry_cell_setting 'monoclinic'
loop_
_space_group_symop_operation_xyz
x,y,z
x,-y,1/2+z
loop_
_atom_site_type_symbol
_atom_site_label
_atom_site_fract_x
_atom_site_fract_y
_atom_site_fract_z
Si Si1 0.414600 0.832523 0.545390
Si Si2 0.509663 0.463238 0.318080
Si Si3 0.985562 0.954176 0.895570
Si Si4 0.157742 0.537094 0.747633
Si Si5 0.214796 0.168741 0.450779
Si Si6 0.420994 0.678534 0.622064
Si Si7 0.642004 0.954552 0.680199
Si Si8 0.226984 0.322820 0.520665
O O1 0.282207 0.834497 0.691128
O O2 0.487811 0.753847 0.566133
O O3 0.544469 0.886004 0.687095
O O4 0.343664 0.852380 0.225560
O O5 0.579270 0.480692 0.642470
O O6 0.333938 0.471958 0.287583
O O7 0.541204 0.385075 0.211848
O O8 0.078496 0.884378 0.894360
O O9 0.813486 0.931566 0.788812
O O10 0.025149 0.014132 0.702265
O O11 0.088369 0.519085 0.424113
O O12 0.122101 0.615236 0.846476
O O13 0.146925 0.246332 0.488594
O O14 0.363695 0.688428 0.891292
O O15 0.290600 0.655723 0.344866
O O16 0.603266 0.985093 0.372084
#
# Coordination Sequence:
#
# PCOD8052619 Si02
#       8
#     2   2   2   2   2   2   2   2
#     4  10  20  32  48  70  95 122 151 187 229 272
#     4   9  14  20  32  50  75 110 144 171 207 256
#     4  10  21  36  52  70  93 120 151 189 229 270
#     4   9  14  20  32  50  75 110 144 171 207 256
#     4  10  20  32  48  70  95 122 151 187 229 272
#     4   9  16  25  36  55  84 113 142 178 218 257
#     4  10  21  36  52  70  93 120 151 189 229 270
#     4   9  16  25  36  55  84 113 142 178 218 257
#
# _framework density 18.677061999999999
#
# number of rings (size 3 to 8) (size 9 to 14) (size 15 to 20)
#    0.000    2.500    0.000    5.250    0.000    3.000 
#    0.000    0.000    0.000    0.000    0.000    0.000 
#    0.000    2.000    0.000    0.000    0.000   81.000 
#
# Total GULP energy -198215.532675 kJ/mol
# GULP energy per Si atom -12388.470792 kJ/mol
# Density = 1.863455 g / cm^3
# Si number density = 18.677062 Si / 1000 Ang^3
#
#
#
# Elastic Constant Matrix: (Units=GPa)
#
#
# Indices 1 2 3 4 5 6 
#
# 1 29.9980 42.9376 14.2757 0.0000 -3.7910 0.0000
# 2 42.9376 132.0767 17.7447 0.0000 5.0415 0.0000
# 3 14.2757 17.7447 77.2636 0.0000 -12.9151 0.0000
# 4 0.0000 0.0000 0.0000 18.8283 0.0000 -6.1554
# 5 -3.7910 5.0415 -12.9151 0.0000 13.9298 0.0000
# 6 0.0000 0.0000 0.0000 -6.1554 0.0000 2.2686
#
#
#
# Elastic Compliance Matrix: (Units=1/GPa)
#
#
# Indices 1 2 3 4 5 6 
#
# 1 0.072818 -0.024132 -0.003715 0.000000 0.025107 0.000000
# 2 -0.024132 0.016157 -0.001571 0.000000 -0.013871 0.000000
# 3 -0.003715 -0.001571 0.016468 0.000000 0.014826 0.000000
# 4 0.000000 0.000000 0.000000 0.470148 0.000000 1.275636
# 5 0.025107 -0.013871 0.014826 0.000000 0.097388 0.000000
# 6 0.000000 0.000000 0.000000 1.275636 0.000000 3.901933
#
#
# Mechanical properties :
#
#
# Convention : Reuss Voigt Hill
#
# Bulk Modulus (GPa) = 21.45582 43.25049 32.35316
# Shear Modulus (GPa) = 1.07543 17.96402 9.51973
#
# Velocity S-wave (km/s) = 0.75964 3.10469 2.26011
# Velocity P-wave (km/s) = 3.50459 6.00495 4.91638
#
# Compressibility (1/GPa) = 0.04660739
#
# Stress axis : x y z
#
# Youngs Moduli (GPa) = 13.73285 61.89216 60.72343
#
# Poissons Ratio (x) = 1.49359 0.22560
# Poissons Ratio (y) = 0.33140 0.09537
# Poissons Ratio (z) = 0.05102 0.09721
#
# Static dielectric constant tensor:
#      x y z
#    x 2.739290 0.000000 -0.318270 
#    y 0.000000 3.770570 0.000000 
#    z -0.318270 0.000000 3.756820 
# 
# 
# High freq. dielectric constant tensor:
#      x y z
#    x 1.635030 0.000000 -0.035220 
#    y 0.000000 1.742960 0.000000 
#    z -0.035220 0.000000 1.747760 
# 
# From -- ./inp_files/886.got.cif
#   From: 2010.03.12/outbox.cif.g09.slc.cpg/sg7_cif.got.tgz:886.got - 2010.03.30 08:40:41.
