data_PCOD8052489
_publ_section_title
;
Structure prediction by ZEFSAII (Michael W. Deem and Ramdas Pophale) SiO2 
 PCOD8052489
Probable space group: P M
;
_chemical_formula_sum "Si O2"
_cell_formula_units_Z 16
_cell_length_a 12.691169
_cell_length_b 8.731568
_cell_length_c 12.781232
_cell_angle_alpha 90.000000
_cell_angle_beta 35.558933
_cell_angle_gamma 90.000000
_cell_volume 823.656630
_symmetry_space_group_name_H-M "P M"
_symmetry_group_IT_number 6
_symmetry_cell_setting 'monoclinic'
loop_
_space_group_symop_operation_xyz
x,y,z
x,-y,z
loop_
_atom_site_type_symbol
_atom_site_label
_atom_site_fract_x
_atom_site_fract_y
_atom_site_fract_z
Si Si1 0.354330 0.182284 0.947930
Si Si2 0.218318 0.829714 0.843558
Si Si3 0.721575 0.679941 0.582461
Si Si4 0.611739 0.181394 0.229226
Si Si5 0.985882 0.182075 0.847437
Si Si6 0.227759 0.817526 0.464555
Si Si7 0.624110 0.828432 0.449970
Si Si8 0.098901 0.818636 0.343293
O O1 0.241834 0.249366 0.938576
O O2 0.556992 0.249246 0.782906
O O3 0.374815 0.000000 0.920962
O O4 0.248207 0.232302 0.137322
O O5 0.409006 0.834204 0.631368
O O6 0.079222 0.745760 0.876768
O O7 0.143682 0.000000 0.924646
O O8 0.711439 0.500000 0.601808
O O9 0.713014 0.724044 0.467118
O O10 0.908330 0.739083 0.478704
O O11 0.424924 0.251000 0.335570
O O12 0.664220 0.242220 0.302836
O O13 0.589660 0.000000 0.256584
O O14 0.773797 0.226779 0.018976
O O15 0.079901 0.246446 0.666740
O O16 0.014026 0.000000 0.827847
O O17 0.173714 0.759074 0.393674
O O18 0.233342 0.000000 0.460659
O O19 0.705109 0.000000 0.397172
O O20 0.069743 0.000000 0.364215
#
# Coordination Sequence:
#
# PCOD8052489 Si02
#       8
#     2   2   2   2   2   2   2   2
#     4   9  19  35  56  82 110 143 184 227 273 323
#     4   8  13  24  43  70 104 134 164 208 259 314
#     4  11  23  37  54  79 113 148 184 226 276 330
#     4   9  16  25  44  74 106 139 171 212 269 324
#     4   9  15  23  41  72 107 138 164 203 266 325
#     4   9  17  30  45  73 111 137 167 218 271 316
#     4   9  16  30  52  76 107 139 176 222 267 321
#     4  10  21  36  58  82 110 146 186 230 271 321
#
# _framework density 19.42557
#
# number of rings (size 3 to 8) (size 9 to 14) (size 15 to 20)
#    0.000    2.750    1.250    1.875    1.750    1.500 
#    0.000    3.750    0.000    0.750    0.000    0.875 
#    0.000    0.000    0.000    0.000    0.000    0.000 
#
# Total GULP energy -198300.858902 kJ/mol
# GULP energy per Si atom -12393.803681 kJ/mol
# Density = 1.938136 g / cm^3
# Si number density = 19.425570 Si / 1000 Ang^3
#
#
#
# Elastic Constant Matrix: (Units=GPa)
#
#
# Indices 1 2 3 4 5 6 
#
# 1 148.2786 23.7915 101.0220 0.0000 5.8893 0.0000
# 2 23.7915 32.1628 24.2808 0.0000 -1.0356 0.0000
# 3 101.0220 24.2808 169.6877 0.0000 7.9714 0.0000
# 4 0.0000 0.0000 0.0000 4.6858 0.0000 -0.8081
# 5 5.8893 -1.0356 7.9714 0.0000 29.6332 0.0000
# 6 0.0000 0.0000 0.0000 -0.8081 0.0000 2.2023
#
#
#
# Elastic Compliance Matrix: (Units=1/GPa)
#
#
# Indices 1 2 3 4 5 6 
#
# 1 0.011767 -0.003886 -0.006414 0.000000 -0.000749 0.000000
# 2 -0.003886 0.036339 -0.003020 0.000000 0.002855 0.000000
# 3 -0.006414 -0.003020 0.010218 0.000000 -0.001579 0.000000
# 4 0.000000 0.000000 0.000000 0.227827 0.000000 0.083600
# 5 -0.000749 0.002855 -0.001579 0.000000 0.034419 0.000000
# 6 0.000000 0.000000 0.000000 0.083600 0.000000 0.484756
#
#
# Mechanical properties :
#
#
# Convention : Reuss Voigt Hill
#
# Bulk Modulus (GPa) = 31.56303 72.03531 51.79917
# Shear Modulus (GPa) = 5.93451 20.70658 13.32054
#
# Velocity S-wave (km/s) = 1.74975 3.26842 2.62147
# Velocity P-wave (km/s) = 4.51283 7.16984 5.99051
#
# Compressibility (1/GPa) = 0.03168264
#
# Stress axis : x y z
#
# Youngs Moduli (GPa) = 84.97989 27.51894 97.86384
#
# Poissons Ratio (x) = 0.10695 0.62774
# Poissons Ratio (y) = 0.33026 0.29556
# Poissons Ratio (z) = 0.54509 0.08311
#
# Static dielectric constant tensor:
#      x y z
#    x 3.707850 0.000000 0.090890 
#    y 0.000000 2.853080 0.000000 
#    z 0.090890 0.000000 3.662700 
# 
# 
# High freq. dielectric constant tensor:
#      x y z
#    x 1.761530 0.000000 0.000030 
#    y 0.000000 1.680040 0.000000 
#    z 0.000030 0.000000 1.766750 
# 
# From -- ./inp_files/3541.got.cif
#   From: 2010.03.12/outbox.cif.g09.slc.cpg/sg6_2_cif.got.tgz:3541.got - 2010.03.30 10:24:59.
