data_PCOD8052120
_publ_section_title
;
Structure prediction by ZEFSAII (Michael W. Deem and Ramdas Pophale) SiO2 
 PCOD8052120
Probable space group: C 2
;
_chemical_formula_sum "Si O2"
_cell_formula_units_Z 20
_cell_length_a 8.730042
_cell_length_b 4.985035
_cell_length_c 20.599713
_cell_angle_alpha 90.000000
_cell_angle_beta 91.003143
_cell_angle_gamma 90.000000
_cell_volume 896.353148
_symmetry_space_group_name_H-M "C 2"
_symmetry_group_IT_number 5
_symmetry_cell_setting 'monoclinic'
loop_
_space_group_symop_operation_xyz
x,y,z
-x,y,-z
1/2+x,1/2+y,z
1/2-x,1/2+y,-z
loop_
_atom_site_type_symbol
_atom_site_label
_atom_site_fract_x
_atom_site_fract_y
_atom_site_fract_z
Si Si1 0.333904 0.553880 0.525641
Si Si2 0.499697 0.999444 0.925341
Si Si3 0.666247 0.499391 0.875414
Si Si4 0.831772 0.997741 0.273797
Si Si5 0.334625 0.498601 0.676380
O O1 0.500000 0.628866 0.500000
O O2 0.291633 0.251589 0.505967
O O3 0.333575 0.592159 0.602448
O O4 0.613879 0.750640 0.917988
O O5 0.551972 0.250658 0.882719
O O6 0.332934 0.908423 0.900431
O O7 0.500000 0.088217 0.000000
O O8 0.666010 0.588101 0.800731
O O9 0.778006 0.247697 0.316483
O O10 0.997788 0.907034 0.299834
O O11 0.718305 0.746889 0.279953
#
# Coordination Sequence:
#
# PCOD8052120 Si02
#       5
#     4   4   4   4   4
#     4  12  25  43  66  94 127 165 208 260 316 375
#     4  12  24  42  66  96 129 168 211 260 313 372
#     4  12  24  43  65  94 129 168 211 260 313 372
#     4  12  25  43  66  94 127 168 211 260 313 372
#     4  12  24  43  65  94 126 165 211 260 313 375
#
# _framework density 22.312632000000001
#
# number of rings (size 3 to 8) (size 9 to 14) (size 15 to 20)
#    0.000    0.000    0.000   12.000    0.000    0.000 
#    0.000    0.000    0.000    0.000    0.000    0.000 
#    0.000    0.000    0.000    0.000    0.000    0.000 
#
# Total GULP energy -124140.306268 kJ/mol
# GULP energy per Si atom -12414.030627 kJ/mol
# Density = 2.226185 g / cm^3
# Si number density = 22.312632 Si / 1000 Ang^3
#
#
#
# Elastic Constant Matrix: (Units=GPa)
#
#
# Indices 1 2 3 4 5 6 
#
# 1 98.3333 17.6669 44.4886 0.0000 -0.6503 0.0000
# 2 17.6669 111.0497 3.4724 0.0000 -15.7479 0.0000
# 3 44.4886 3.4724 103.9083 0.0000 6.2190 0.0000
# 4 0.0000 0.0000 0.0000 70.7513 0.0000 11.1051
# 5 -0.6503 -15.7479 6.2190 0.0000 34.4526 0.0000
# 6 0.0000 0.0000 0.0000 11.1051 0.0000 32.4596
#
#
#
# Elastic Compliance Matrix: (Units=1/GPa)
#
#
# Indices 1 2 3 4 5 6 
#
# 1 0.013005 -0.001839 -0.005531 0.000000 0.000403 0.000000
# 2 -0.001839 0.009925 0.000188 0.000000 0.004468 0.000000
# 3 -0.005531 0.000188 0.012118 0.000000 -0.002206 0.000000
# 4 0.000000 0.000000 0.000000 0.014936 0.000000 -0.005110
# 5 0.000403 0.004468 -0.002206 0.000000 0.031473 0.000000
# 6 0.000000 0.000000 0.000000 -0.005110 0.000000 0.032556
#
#
# Mechanical properties :
#
#
# Convention : Reuss Voigt Hill
#
# Bulk Modulus (GPa) = 48.34434 49.39413 48.86924
# Shear Modulus (GPa) = 36.96296 44.04359 40.50328
#
# Velocity S-wave (km/s) = 4.07454 4.44771 4.26521
# Velocity P-wave (km/s) = 6.62191 6.96861 6.79747
#
# Compressibility (1/GPa) = 0.02068494
#
# Stress axis : x y z
#
# Youngs Moduli (GPa) = 76.89483 100.75329 82.52469
#
# Poissons Ratio (x) = 0.18526 0.45642
# Poissons Ratio (y) = 0.14139 -0.01553
# Poissons Ratio (z) = 0.42528 -0.01896
#
# Static dielectric constant tensor:
#      x y z
#    x 4.105400 0.000000 -0.154960 
#    y 0.000000 3.912250 0.000000 
#    z -0.154960 0.000000 4.032030 
# 
# 
# High freq. dielectric constant tensor:
#      x y z
#    x 1.893320 0.000000 -0.005700 
#    y 0.000000 1.886900 0.000000 
#    z -0.005700 0.000000 1.892800 
# 
# From -- ./inp_files/59137.got.cif
#   From: 2010.03.12/outbox.cif.g09.slc.cpg/sg5_30_cif.got.tgz:59137.got - 2010.03.31 09:47:26.
