data_PCOD8052572
_publ_section_title
;
Structure prediction by ZEFSAII (Michael W. Deem and Ramdas Pophale) SiO2 
 PCOD8052572
Probable space group: P M
;
_chemical_formula_sum "Si O2"
_cell_formula_units_Z 16
_cell_length_a 9.000000
_cell_length_b 9.000000
_cell_length_c 21.000000
_cell_angle_alpha 90.000000
_cell_angle_beta 30.000000
_cell_angle_gamma 90.000000
_cell_volume 850.500000
_symmetry_space_group_name_H-M "P M"
_symmetry_group_IT_number 6
_symmetry_cell_setting 'monoclinic'
loop_
_space_group_symop_operation_xyz
x,y,z
x,-y,z
loop_
_atom_site_type_symbol
_atom_site_label
_atom_site_fract_x
_atom_site_fract_y
_atom_site_fract_z
Si Si1 0.810220 0.665954 0.775900
Si Si2 0.214434 0.668733 0.749891
Si Si3 0.685855 0.829755 0.503895
Si Si4 0.904542 0.825082 0.981411
Si Si5 0.199511 0.825111 0.000636
Si Si6 0.916286 0.670376 0.223473
Si Si7 0.227924 0.173080 0.224225
Si Si8 0.389300 0.669153 0.501820
O O1 0.675345 0.500000 0.823468
O O2 0.543819 0.781348 0.877676
O O3 0.012937 0.687332 0.762560
O O4 0.030084 0.693784 0.633051
O O5 0.250741 0.500000 0.757964
O O6 0.546006 0.732387 0.612888
O O7 0.058409 0.756556 0.863493
O O8 0.523867 0.792138 0.498096
O O9 0.036074 0.798792 0.360249
O O10 0.627540 0.000000 0.543158
O O11 0.072743 0.765468 0.981194
O O12 0.932654 0.000000 0.964871
O O13 0.562495 0.775959 0.113898
O O14 0.177500 0.000000 0.014537
O O15 0.993364 0.759496 0.131946
O O16 0.003403 0.500000 0.180035
O O17 0.561159 0.687638 0.370575
O O18 0.110716 0.728449 0.209907
O O19 0.208190 0.000000 0.211749
O O20 0.446799 0.500000 0.506696
#
# Coordination Sequence:
#
# PCOD8052572 Si02
#       8
#     2   2   2   2   2   2   2   2
#     4   9  18  34  55  78 103 131 165 206 252 301
#     4  10  20  34  54  79 104 132 167 207 253 303
#     4   9  16  28  51  80 105 129 161 204 253 301
#     4  10  22  38  52  70 101 138 174 212 251 294
#     4  11  23  36  50  72 103 138 174 210 250 297
#     4  10  19  33  55  80 104 131 165 207 254 303
#     4   9  18  34  56  79 102 131 168 209 252 298
#     4   8  16  31  51  76 104 130 162 207 253 297
#
# _framework density 18.812463000000001
#
# number of rings (size 3 to 8) (size 9 to 14) (size 15 to 20)
#    0.000    2.500    0.000    3.000    0.000    7.000 
#    0.000    1.250    0.000    4.500    0.000    0.000 
#    0.000    0.000    0.000    0.000    0.000    0.000 
#
# Total GULP energy -198310.203102 kJ/mol
# GULP energy per Si atom -12394.387694 kJ/mol
# Density = 1.876965 g / cm^3
# Si number density = 18.812463 Si / 1000 Ang^3
#
#
#
# Elastic Constant Matrix: (Units=GPa)
#
#
# Indices 1 2 3 4 5 6 
#
# 1 40.5868 23.5285 41.8769 0.0000 2.2628 0.0000
# 2 23.5285 33.5081 34.2451 0.0000 9.0904 0.0000
# 3 41.8769 34.2451 163.6822 0.0000 17.0495 0.0000
# 4 0.0000 0.0000 0.0000 25.5430 0.0000 -5.3888
# 5 2.2628 9.0904 17.0495 0.0000 -4.8350 0.0000
# 6 0.0000 0.0000 0.0000 -5.3888 0.0000 3.0151
#
#
#
# Elastic Compliance Matrix: (Units=1/GPa)
#
#
# Indices 1 2 3 4 5 6 
#
# 1 0.039889 -0.016768 -0.003919 0.000000 -0.026676 0.000000
# 2 -0.016768 0.039350 -0.007922 0.000000 0.038201 0.000000
# 3 -0.003919 -0.007922 0.007688 0.000000 0.010382 0.000000
# 4 0.000000 0.000000 0.000000 0.062846 0.000000 0.112322
# 5 -0.026676 0.038201 0.010382 0.000000 -0.110879 0.000000
# 6 0.000000 0.000000 0.000000 0.112322 0.000000 0.532411
#
#
# Mechanical properties :
#
#
# Convention : Reuss Voigt Hill
#
# Bulk Modulus (GPa) = 33.65772 48.56424 41.11098
# Shear Modulus (GPa) = 7.83176 13.95306 10.89241
#
# Velocity S-wave (km/s) = 2.04257 2.72636 2.40885
# Velocity P-wave (km/s) = 4.84694 5.98178 5.44401
#
# Compressibility (1/GPa) = 0.02971087
#
# Stress axis : x y z
#
# Youngs Moduli (GPa) = 25.06931 25.41301 130.07300
#
# Poissons Ratio (x) = 0.42611 0.50973
# Poissons Ratio (y) = 0.42035 1.03043
# Poissons Ratio (z) = 0.09824 0.20132
#
# Static dielectric constant tensor:
#      x y z
#    x 3.064080 0.000000 0.034670 
#    y 0.000000 3.468830 0.000000 
#    z 0.034670 0.000000 3.960740 
# 
# 
# High freq. dielectric constant tensor:
#      x y z
#    x 1.676500 0.000000 0.005400 
#    y 0.000000 1.735410 0.000000 
#    z 0.005400 0.000000 1.761930 
# 
# From -- ./inp_files/3782.got.cif
#   From: 2010.06.25/outbox.ucp.g09.slc.cvg/sg6_2_cif.got.tgz:3782.got - 2010.06.28 13:29:41.
