data_PCOD8052776
_publ_section_title
;
Structure prediction by ZEFSAII (Michael W. Deem and Ramdas Pophale) SiO2 
 PCOD8052776
Probable space group: C M
;
_chemical_formula_sum "Si O2"
_cell_formula_units_Z 32
_cell_length_a 20.697344
_cell_length_b 8.876351
_cell_length_c 13.536126
_cell_angle_alpha 90.000000
_cell_angle_beta 43.259364
_cell_angle_gamma 90.000000
_cell_volume 1704.219326
_symmetry_space_group_name_H-M "C M"
_symmetry_group_IT_number 8
_symmetry_cell_setting 'monoclinic'
loop_
_space_group_symop_operation_xyz
x,y,z
x,-y,z
1/2+x,1/2+y,z
1/2+x,1/2-y,z
loop_
_atom_site_type_symbol
_atom_site_label
_atom_site_fract_x
_atom_site_fract_y
_atom_site_fract_z
Si Si1 0.485830 0.175935 0.703910
Si Si2 0.842968 0.178939 0.729287
Si Si3 0.479877 0.673927 0.404499
Si Si4 0.969628 0.178014 0.197923
Si Si5 0.782956 0.671251 0.352830
Si Si6 0.118560 0.171716 0.407574
Si Si7 0.152720 0.178423 0.878486
Si Si8 0.623573 0.323584 0.687601
O O1 0.388550 0.256457 0.779557
O O2 0.563441 0.207975 0.534200
O O3 0.527491 0.240618 0.760279
O O4 0.466851 0.000000 0.736587
O O5 0.903360 0.238935 0.567323
O O6 0.737978 0.240209 0.838292
O O7 0.843117 0.000000 0.734622
O O8 0.457008 0.500000 0.414874
O O9 0.472757 0.751566 0.304859
O O10 0.586595 0.697002 0.329447
O O11 0.873777 0.223939 0.250320
O O12 0.974312 0.000000 0.198393
O O13 0.057996 0.236917 0.036905
O O14 0.816057 0.500000 0.331255
O O15 0.729980 0.691794 0.305301
O O16 0.711545 0.719475 0.519644
O O17 0.089059 0.000000 0.472728
O O18 0.148960 0.230717 0.769058
O O19 0.166031 0.000000 0.872800
O O20 0.602615 0.500000 0.707417
#
# Coordination Sequence:
#
# PCOD8052776 Si02
#       8
#     4   4   4   4   4   4   4   4
#     4  10  18  29  50  79 104 125 160 210 254 295
#     4  10  19  33  54  76 101 133 166 203 248 299
#     4   8  15  30  52  74  95 125 163 198 239 291
#     4  10  20  33  49  71 101 132 162 202 247 290
#     4   9  17  30  50  72  94 125 165 205 243 290
#     4   8  15  30  50  72  98 128 162 201 247 294
#     4  10  21  35  50  71 102 137 170 207 249 292
#     4   9  18  34  53  73 101 135 168 204 249 297
#
# _framework density 18.776924999999999
#
# number of rings (size 3 to 8) (size 9 to 14) (size 15 to 20)
#    0.000    2.750    0.000    3.750    0.000    3.000 
#    0.000    3.750    0.000    1.500    0.000    0.000 
#    0.000    0.000    0.000    0.000    0.000    0.000 
#
# Total GULP energy -198301.512723 kJ/mol
# GULP energy per Si atom -12393.844545 kJ/mol
# Density = 1.873419 g / cm^3
# Si number density = 18.776925 Si / 1000 Ang^3
#
#
#
# Elastic Constant Matrix: (Units=GPa)
#
#
# Indices 1 2 3 4 5 6 
#
# 1 131.8804 34.8930 45.8346 0.0000 -36.3636 0.0000
# 2 34.8930 49.7972 21.9641 0.0003 -10.2001 -0.0002
# 3 45.8346 21.9641 73.4856 0.0001 -22.9315 -0.0001
# 4 0.0000 0.0003 0.0001 16.5979 -0.0001 -9.1303
# 5 -36.3636 -10.2001 -22.9315 -0.0001 19.6795 0.0001
# 6 0.0000 -0.0002 -0.0001 -9.1303 0.0001 31.1229
#
#
#
# Elastic Compliance Matrix: (Units=1/GPa)
#
#
# Indices 1 2 3 4 5 6 
#
# 1 0.016977 -0.006135 0.000065 0.000000 0.028266 0.000000
# 2 -0.006135 0.025836 -0.005114 -0.000001 -0.003903 0.000000
# 3 0.000065 -0.005114 0.022481 0.000000 0.023666 0.000000
# 4 0.000000 -0.000001 0.000000 0.071842 0.000001 0.021076
# 5 0.028266 -0.003903 0.023666 0.000001 0.128598 0.000000
# 6 0.000000 0.000000 0.000000 0.021076 0.000000 0.038314
#
#
# Mechanical properties :
#
#
# Convention : Reuss Voigt Hill
#
# Bulk Modulus (GPa) = 23.29507 51.17183 37.23345
# Shear Modulus (GPa) = 14.67465 23.64483 19.15974
#
# Velocity S-wave (km/s) = 2.79861 3.55244 3.19782
# Velocity P-wave (km/s) = 4.78290 6.64365 5.78853
#
# Compressibility (1/GPa) = 0.04292754
#
# Stress axis : x y z
#
# Youngs Moduli (GPa) = 58.90327 38.70553 44.48211
#
# Poissons Ratio (x) = 0.23745 -0.00291
# Poissons Ratio (y) = 0.36136 0.22748
# Poissons Ratio (z) = -0.00385 0.19794
#
# Static dielectric constant tensor:
#      x y z
#    x 3.864330 0.000000 0.044550 
#    y 0.000000 3.154310 0.000000 
#    z 0.044550 0.000000 3.208510 
# 
# 
# High freq. dielectric constant tensor:
#      x y z
#    x 1.752780 0.000000 -0.009600 
#    y 0.000000 1.707320 0.000000 
#    z -0.009600 0.000000 1.685350 
# 
# From -- ./inp_files/27747.got.cif
#   From: 2010.03.12/outbox.cif.g09.slc.cpg/sg8_14_cif.got.tgz:27747.got - 2010.03.31 10:45:26.
