data_PCOD8052309
_publ_section_title
;
Structure prediction by ZEFSAII (Michael W. Deem and Ramdas Pophale) SiO2 
 PCOD8052309
Probable space group: P M
;
_chemical_formula_sum "Si O2"
_cell_formula_units_Z 16
_cell_length_a 12.210075
_cell_length_b 9.291594
_cell_length_c 10.283402
_cell_angle_alpha 90.000000
_cell_angle_beta 128.704898
_cell_angle_gamma 90.000000
_cell_volume 910.436805
_symmetry_space_group_name_H-M "P M"
_symmetry_group_IT_number 6
_symmetry_cell_setting 'monoclinic'
loop_
_space_group_symop_operation_xyz
x,y,z
x,-y,z
loop_
_atom_site_type_symbol
_atom_site_label
_atom_site_fract_x
_atom_site_fract_y
_atom_site_fract_z
Si Si1 0.400600 0.165437 0.644290
Si Si2 0.129934 0.665950 0.452977
Si Si3 0.664657 0.329596 0.239214
Si Si4 0.805896 0.833932 0.577954
Si Si5 0.702070 0.830774 0.781898
Si Si6 0.837472 0.334717 0.115656
Si Si7 0.409407 0.836424 0.955101
Si Si8 0.101129 0.164020 0.690002
O O1 0.268464 0.258555 0.497631
O O2 0.539134 0.215677 0.670304
O O3 0.428896 0.192452 0.816878
O O4 0.364668 0.000000 0.589257
O O5 0.164388 0.500000 0.504014
O O6 0.080853 0.733207 0.552384
O O7 0.003945 0.685121 0.257525
O O8 0.662572 0.500000 0.252543
O O9 0.729950 0.263548 0.416552
O O10 0.755841 0.279134 0.183056
O O11 0.506454 0.271877 0.107343
O O12 0.758296 0.781269 0.684067
O O13 0.973774 0.812256 0.694967
O O14 0.764335 0.000000 0.523216
O O15 0.717692 0.000000 0.815710
O O16 0.794881 0.756270 0.959975
O O17 0.797703 0.500000 0.060865
O O18 0.247462 0.803767 0.872982
O O19 0.451488 0.000000 0.021355
O O20 0.105625 0.000000 0.640145
#
# Coordination Sequence:
#
# PCOD8052309 Si02
#       8
#     2   2   2   2   2   2   2   2
#     4   9  18  33  52  78 108 137 173 218 266 313
#     4  10  19  32  52  79 108 137 174 219 263 312
#     4  11  21  34  53  80 109 139 179 221 262 315
#     4  10  21  37  57  80 107 142 179 219 267 317
#     4  10  21  37  57  80 107 141 181 219 264 319
#     4  10  21  35  52  79 110 139 177 221 264 312
#     4   9  17  31  52  78 106 136 171 221 269 309
#     4   9  18  33  53  78 107 137 174 218 267 313
#
# _framework density 17.573981
#
# number of rings (size 3 to 8) (size 9 to 14) (size 15 to 20)
#    0.000    2.250    2.500    1.500    0.000    4.500 
#    0.000    1.250    0.000    6.000    0.000    0.000 
#    0.000    0.000    0.000    0.000    0.000    0.000 
#
# Total GULP energy -198423.133052 kJ/mol
# GULP energy per Si atom -12401.445816 kJ/mol
# Density = 1.753398 g / cm^3
# Si number density = 17.573981 Si / 1000 Ang^3
#
#
#
# Elastic Constant Matrix: (Units=GPa)
#
#
# Indices 1 2 3 4 5 6 
#
# 1 141.1007 51.6254 69.9865 0.0000 8.0860 0.0000
# 2 51.6254 79.5879 59.9103 0.0000 6.4841 0.0000
# 3 69.9865 59.9103 108.3307 0.0000 5.0162 0.0000
# 4 0.0000 0.0000 0.0000 24.5119 0.0000 2.6143
# 5 8.0860 6.4841 5.0162 0.0000 26.9955 0.0000
# 6 0.0000 0.0000 0.0000 2.6143 0.0000 20.2986
#
#
#
# Elastic Compliance Matrix: (Units=1/GPa)
#
#
# Indices 1 2 3 4 5 6 
#
# 1 0.010900 -0.002906 -0.005362 0.000000 -0.001571 0.000000
# 2 -0.002906 0.022542 -0.010468 0.000000 -0.002599 0.000000
# 3 -0.005362 -0.010468 0.018452 0.000000 0.000692 0.000000
# 4 0.000000 0.000000 0.000000 0.041365 0.000000 -0.005328
# 5 -0.001571 -0.002599 0.000692 0.000000 0.038009 0.000000
# 6 0.000000 0.000000 0.000000 -0.005328 0.000000 0.049951
#
#
# Mechanical properties :
#
#
# Convention : Reuss Voigt Hill
#
# Bulk Modulus (GPa) = 69.34336 76.89595 73.11966
# Shear Modulus (GPa) = 22.37149 24.19436 23.28293
#
# Velocity S-wave (km/s) = 3.57177 3.71444 3.64380
# Velocity P-wave (km/s) = 7.52022 7.88965 7.70715
#
# Compressibility (1/GPa) = 0.01442099
#
# Stress axis : x y z
#
# Youngs Moduli (GPa) = 91.74319 44.36214 54.19354
#
# Poissons Ratio (x) = 0.12892 0.29058
# Poissons Ratio (y) = 0.26662 0.56732
# Poissons Ratio (z) = 0.49192 0.46440
#
# Static dielectric constant tensor:
#      x y z
#    x 3.497930 0.000000 0.194000 
#    y 0.000000 3.246110 0.000000 
#    z 0.194000 0.000000 3.033970 
# 
# 
# High freq. dielectric constant tensor:
#      x y z
#    x 1.681710 0.000000 0.022290 
#    y 0.000000 1.679620 0.000000 
#    z 0.022290 0.000000 1.659890 
# 
# From -- ./inp_files/3503.got.cif
#   From: 2010.03.12/outbox.cif.g09.slc.cpg/sg6_2_cif.got.tgz:3503.got - 2010.03.30 10:24:59.
