data_PCOD8052058
_publ_section_title
;
Structure prediction by ZEFSAII (Michael W. Deem and Ramdas Pophale) SiO2 
 PCOD8052058
Probable space group: C 2
;
_chemical_formula_sum "Si O2"
_cell_formula_units_Z 18
_cell_length_a 8.074918
_cell_length_b 6.496771
_cell_length_c 16.431771
_cell_angle_alpha 90.000000
_cell_angle_beta 60.285999
_cell_angle_gamma 90.000000
_cell_volume 748.678023
_symmetry_space_group_name_H-M "C 2"
_symmetry_group_IT_number 5
_symmetry_cell_setting 'monoclinic'
loop_
_space_group_symop_operation_xyz
x,y,z
-x,y,-z
1/2+x,1/2+y,z
1/2-x,1/2+y,-z
loop_
_atom_site_type_symbol
_atom_site_label
_atom_site_fract_x
_atom_site_fract_y
_atom_site_fract_z
Si Si1 0.500000 0.042421 0.500000
Si Si2 0.447633 0.369145 0.095682
Si Si3 0.255420 0.559257 0.740393
Si Si4 0.865624 0.300990 0.377178
Si Si5 0.315944 0.808000 0.092224
O O1 0.663798 0.186022 0.423413
O O2 0.411518 0.895793 0.453284
O O3 0.341047 0.252664 0.192952
O O4 0.648181 0.427982 0.086691
O O5 0.319769 0.559983 0.095108
O O6 0.500000 0.240964 0.000000
O O7 0.155496 0.494881 0.679674
O O8 0.476467 0.625675 0.680180
O O9 0.208027 0.364690 0.807808
O O10 0.500000 0.889815 0.000000
#
# Coordination Sequence:
#
# PCOD8052058 Si02
#       5
#     2   4   4   4   4
#     4  12  28  56  72 116 140 194 232 318 388 462
#     4  11  27  45  71 106 157 201 247 299 359 423
#     4  12  27  45  78 114 140 202 244 313 345 458
#     4  12  28  48  84 104 154 182 252 302 388 438
#     4  11  27  45  71 106 157 201 247 299 359 423
#
# _framework density 24.042379
#
# number of rings (size 3 to 8) (size 9 to 14) (size 15 to 20)
#    0.000    0.444    0.000    6.000   24.889    0.000 
#    0.000    0.000    0.000    0.000    0.000    0.000 
#    0.000    0.000    0.000    0.000    0.000    0.000 
#
# Total GULP energy -111507.259441 kJ/mol
# GULP energy per Si atom -12389.695493 kJ/mol
# Density = 2.398766 g / cm^3
# Si number density = 24.042379 Si / 1000 Ang^3
#
#
#
# Elastic Constant Matrix: (Units=GPa)
#
#
# Indices 1 2 3 4 5 6 
#
# 1 99.0817 21.5317 40.7537 0.0000 -0.8324 0.0000
# 2 21.5317 98.4924 34.3348 0.0000 -2.8958 0.0000
# 3 40.7537 34.3348 136.3276 0.0000 -3.1859 0.0000
# 4 0.0000 0.0000 0.0000 39.7414 0.0000 5.1109
# 5 -0.8324 -2.8958 -3.1859 0.0000 45.4686 0.0000
# 6 0.0000 0.0000 0.0000 5.1109 0.0000 34.2512
#
#
#
# Elastic Compliance Matrix: (Units=1/GPa)
#
#
# Indices 1 2 3 4 5 6 
#
# 1 0.011698 -0.001469 -0.003129 0.000000 -0.000099 0.000000
# 2 -0.001469 0.011327 -0.002401 0.000000 0.000526 0.000000
# 3 -0.003129 -0.002401 0.008885 0.000000 0.000412 0.000000
# 4 0.000000 0.000000 0.000000 0.025655 0.000000 -0.003828
# 5 -0.000099 0.000526 0.000412 0.000000 0.022054 0.000000
# 6 0.000000 0.000000 0.000000 -0.003828 0.000000 0.029767
#
#
# Mechanical properties :
#
#
# Convention : Reuss Voigt Hill
#
# Bulk Modulus (GPa) = 55.83320 58.57136 57.20228
# Shear Modulus (GPa) = 38.65292 39.71099 39.18196
#
# Velocity S-wave (km/s) = 4.01396 4.06853 4.04134
# Velocity P-wave (km/s) = 6.68998 6.81800 6.75429
#
# Compressibility (1/GPa) = 0.01791049
#
# Stress axis : x y z
#
# Youngs Moduli (GPa) = 85.48247 88.28597 112.54761
#
# Poissons Ratio (x) = 0.12973 0.35220
# Poissons Ratio (y) = 0.12561 0.27024
# Poissons Ratio (z) = 0.26750 0.21199
#
# Static dielectric constant tensor:
#      x y z
#    x 4.377670 0.000000 -0.039190 
#    y 0.000000 4.145200 0.000000 
#    z -0.039190 0.000000 4.688770 
# 
# 
# High freq. dielectric constant tensor:
#      x y z
#    x 1.961180 0.000000 0.001640 
#    y 0.000000 1.955690 0.000000 
#    z 0.001640 0.000000 1.978320 
# 
# From -- ./inp_files/59121.got.cif
#   From: 2010.03.12/outbox.cif.g09.slc.cpg/sg5_30_cif.got.tgz:59121.got - 2010.03.31 09:47:26.
