data_PCOD8052332
_publ_section_title
;
Structure prediction by ZEFSAII (Michael W. Deem and Ramdas Pophale) SiO2 
 PCOD8052332
Probable space group: P M
;
_chemical_formula_sum "Si O2"
_cell_formula_units_Z 16
_cell_length_a 12.073281
_cell_length_b 8.819589
_cell_length_c 10.032561
_cell_angle_alpha 90.000000
_cell_angle_beta 54.235316
_cell_angle_gamma 90.000000
_cell_volume 866.829000
_symmetry_space_group_name_H-M "P M"
_symmetry_group_IT_number 6
_symmetry_cell_setting 'monoclinic'
loop_
_space_group_symop_operation_xyz
x,y,z
x,-y,z
loop_
_atom_site_type_symbol
_atom_site_label
_atom_site_fract_x
_atom_site_fract_y
_atom_site_fract_z
Si Si1 0.160440 0.679362 0.582570
Si Si2 0.677014 0.326904 0.104869
Si Si3 0.214360 0.820697 0.271460
Si Si4 0.147175 0.178533 0.032325
Si Si5 0.453678 0.677622 0.480012
Si Si6 0.961333 0.178565 0.929586
Si Si7 0.448386 0.179431 0.756279
Si Si8 0.492769 0.675588 0.991148
O O1 0.155929 0.500000 0.579716
O O2 0.142318 0.742199 0.446561
O O3 0.303482 0.736600 0.544074
O O4 0.034024 0.739722 0.755827
O O5 0.722928 0.500000 0.096747
O O6 0.556182 0.281029 0.289681
O O7 0.625291 0.304458 0.990510
O O8 0.802596 0.216592 0.043055
O O9 0.127541 0.773074 0.200426
O O10 0.369151 0.765930 0.145672
O O11 0.215964 0.000000 0.291128
O O12 0.151202 0.000000 0.020113
O O13 0.292540 0.238563 0.876681
O O14 0.026885 0.240716 0.022209
O O15 0.450805 0.500000 0.512085
O O16 0.506240 0.764647 0.574358
O O17 0.982312 0.000000 0.899211
O O18 0.463485 0.000000 0.758150
O O19 0.531397 0.256335 0.819391
O O20 0.450600 0.500000 0.009556
#
# Coordination Sequence:
#
# PCOD8052332 Si02
#       8
#     2   2   2   2   2   2   2   2
#     4  11  21  36  57  85 114 148 191 233 280 336
#     4  10  22  40  57  80 115 151 189 231 278 339
#     4  10  19  33  56  85 113 144 185 236 285 330
#     4   8  17  33  52  79 113 143 176 225 280 330
#     4  10  20  36  57  82 112 147 190 234 278 332
#     4  11  22  38  58  83 114 150 188 231 285 338
#     4  10  19  33  55  85 115 142 183 235 283 331
#     4  10  19  35  56  81 114 149 186 231 283 336
#
# _framework density 18.458082000000001
#
# number of rings (size 3 to 8) (size 9 to 14) (size 15 to 20)
#    0.000    2.000    2.500    2.625    0.000    2.000 
#    0.000    3.125    0.000    3.000    0.000    0.000 
#    0.000    0.000    0.000    0.000    0.000    0.000 
#
# Total GULP energy -198413.540292 kJ/mol
# GULP energy per Si atom -12400.846268 kJ/mol
# Density = 1.841607 g / cm^3
# Si number density = 18.458082 Si / 1000 Ang^3
#
#
#
# Elastic Constant Matrix: (Units=GPa)
#
#
# Indices 1 2 3 4 5 6 
#
# 1 90.2459 35.1781 45.2110 0.0000 16.8358 0.0000
# 2 35.1781 67.7507 39.2834 0.0000 10.9455 0.0000
# 3 45.2110 39.2834 96.9964 0.0000 24.7514 0.0000
# 4 0.0000 0.0000 0.0000 33.2494 0.0000 1.7416
# 5 16.8358 10.9455 24.7514 0.0000 33.0176 0.0000
# 6 0.0000 0.0000 0.0000 1.7416 0.0000 27.2929
#
#
#
# Elastic Compliance Matrix: (Units=1/GPa)
#
#
# Indices 1 2 3 4 5 6 
#
# 1 0.015937 -0.005132 -0.004588 0.000000 -0.002986 0.000000
# 2 -0.005132 0.020954 -0.006170 0.000000 0.000296 0.000000
# 3 -0.004588 -0.006170 0.017099 0.000000 -0.008433 0.000000
# 4 0.000000 0.000000 0.000000 0.030177 0.000000 -0.001926
# 5 -0.002986 0.000296 -0.008433 0.000000 0.038033 0.000000
# 6 0.000000 0.000000 0.000000 -0.001926 0.000000 0.036762
#
#
# Mechanical properties :
#
#
# Convention : Reuss Voigt Hill
#
# Bulk Modulus (GPa) = 45.02421 54.92645 49.97533
# Shear Modulus (GPa) = 25.23395 27.73333 26.48364
#
# Velocity S-wave (km/s) = 3.70144 3.88042 3.79198
# Velocity P-wave (km/s) = 6.53553 7.06391 6.80485
#
# Compressibility (1/GPa) = 0.02221028
#
# Stress axis : x y z
#
# Youngs Moduli (GPa) = 62.74780 47.72254 58.48349
#
# Poissons Ratio (x) = 0.24493 0.26831
# Poissons Ratio (y) = 0.32204 0.36083
# Poissons Ratio (z) = 0.28788 0.29443
#
# Static dielectric constant tensor:
#      x y z
#    x 3.445910 0.000000 0.334930 
#    y 0.000000 3.323150 0.000000 
#    z 0.334930 0.000000 3.401900 
# 
# 
# High freq. dielectric constant tensor:
#      x y z
#    x 1.702420 0.000000 0.026560 
#    y 0.000000 1.715130 0.000000 
#    z 0.026560 0.000000 1.713330 
# 
# From -- ./inp_files/3501.got.cif
#   From: 2010.03.12/outbox.cif.g09.slc.cpg/sg6_2_cif.got.tgz:3501.got - 2010.03.30 10:24:59.
