data_PCOD8052537
_publ_section_title
;
Structure prediction by ZEFSAII (Michael W. Deem and Ramdas Pophale) SiO2 
 PCOD8052537
Probable space group: P M
;
_chemical_formula_sum "Si O2"
_cell_formula_units_Z 12
_cell_length_a 8.882805
_cell_length_b 12.204773
_cell_length_c 5.244206
_cell_angle_alpha 90.000000
_cell_angle_beta 74.974868
_cell_angle_gamma 90.000000
_cell_volume 549.101041
_symmetry_space_group_name_H-M "P M"
_symmetry_group_IT_number 6
_symmetry_cell_setting 'monoclinic'
loop_
_space_group_symop_operation_xyz
x,y,z
x,-y,z
loop_
_atom_site_type_symbol
_atom_site_label
_atom_site_fract_x
_atom_site_fract_y
_atom_site_fract_z
Si Si1 0.275540 0.874086 0.558370
Si Si2 0.048684 0.715437 0.924929
Si Si3 0.987777 0.882622 0.343857
Si Si4 0.579526 0.267484 0.337275
Si Si5 0.429073 0.500000 0.354737
Si Si6 0.222110 0.500000 0.949820
Si Si7 0.772611 0.764317 0.754892
O O1 0.191209 0.797418 0.802078
O O2 0.439401 0.818064 0.426569
O O3 0.166344 0.874192 0.358221
O O4 0.299955 0.000000 0.645260
O O5 0.112747 0.604761 0.011749
O O6 0.924997 0.686990 0.753152
O O7 0.947164 0.781069 0.179161
O O8 0.860497 0.876845 0.630636
O O9 0.965015 0.000000 0.216596
O O10 0.531958 0.391391 0.295015
O O11 0.670577 0.279105 0.564615
O O12 0.672026 0.219869 0.053921
O O13 0.324160 0.500000 0.651472
O O14 0.324285 0.500000 0.153487
#
# Coordination Sequence:
#
# PCOD8052537 Si02
#       7
#     2   2   2   2   1   1   2
#     4  10  23  41  70 100 134 180 234 287 335 403
#     4  11  23  46  70 105 135 180 236 281 339 406
#     4  10  22  45  72 100 140 183 230 288 342 399
#     4  12  25  46  69 101 143 178 227 279 351 409
#     4  12  26  46  69 107 138 181 218 294 349 398
#     4  12  26  42  79  99 136 179 234 286 335 406
#     4  11  26  45  68 100 143 181 224 281 340 415
#
# _framework density 21.853905000000001
#
# number of rings (size 3 to 8) (size 9 to 14) (size 15 to 20)
#    0.000    1.000    3.333    2.500    4.667    3.333 
#    0.000    0.833    0.000    0.000    0.000    0.000 
#    0.000    0.000    0.000    0.000    0.000    0.000 
#
# Total GULP energy -148671.911355 kJ/mol
# GULP energy per Si atom -12389.325946 kJ/mol
# Density = 2.180416 g / cm^3
# Si number density = 21.853905 Si / 1000 Ang^3
#
#
#
# Elastic Constant Matrix: (Units=GPa)
#
#
# Indices 1 2 3 4 5 6 
#
# 1 155.2829 75.3358 66.3644 0.0000 11.1575 0.0000
# 2 75.3358 169.7613 46.4921 0.0000 3.1950 0.0000
# 3 66.3644 46.4921 139.1040 0.0000 0.8169 0.0000
# 4 0.0000 0.0000 0.0000 29.9189 0.0000 4.9154
# 5 11.1575 3.1950 0.8169 0.0000 47.5903 0.0000
# 6 0.0000 0.0000 0.0000 4.9154 0.0000 9.8768
#
#
#
# Elastic Compliance Matrix: (Units=1/GPa)
#
#
# Indices 1 2 3 4 5 6 
#
# 1 0.009681 -0.003299 -0.003504 0.000000 -0.001988 0.000000
# 2 -0.003299 0.007616 -0.000973 0.000000 0.000279 0.000000
# 3 -0.003504 -0.000973 0.009182 0.000000 0.000729 0.000000
# 4 0.000000 0.000000 0.000000 0.036400 0.000000 -0.018115
# 5 -0.001988 0.000279 0.000729 0.000000 0.021448 0.000000
# 6 0.000000 0.000000 0.000000 -0.018115 0.000000 0.110263
#
#
# Mechanical properties :
#
#
# Convention : Reuss Voigt Hill
#
# Bulk Modulus (GPa) = 91.52879 93.39253 92.46066
# Shear Modulus (GPa) = 23.38814 35.87426 29.63120
#
# Velocity S-wave (km/s) = 3.27495 4.05600 3.68622
# Velocity P-wave (km/s) = 7.50156 8.04752 7.77933
#
# Compressibility (1/GPa) = 0.01092552
#
# Stress axis : x y z
#
# Youngs Moduli (GPa) = 103.29633 131.30418 108.91227
#
# Poissons Ratio (x) = 0.43317 0.38166
# Poissons Ratio (y) = 0.34077 0.10599
# Poissons Ratio (z) = 0.36198 0.12778
#
# Static dielectric constant tensor:
#      x y z
#    x 4.142020 0.000000 0.010420 
#    y 0.000000 4.023830 0.000000 
#    z 0.010420 0.000000 4.056180 
# 
# 
# High freq. dielectric constant tensor:
#      x y z
#    x 1.875610 0.000000 0.000860 
#    y 0.000000 1.849830 0.000000 
#    z 0.000860 0.000000 1.866650 
# 
# From -- ./inp_files/980.got.cif
#   From: 2010.03.12/outbox.cif.g09.slc.cpg/sg6_1_cif.got.tgz:980.got - 2010.03.30 10:24:59.
