data_PCOD8052343
_publ_section_title
;
Structure prediction by ZEFSAII (Michael W. Deem and Ramdas Pophale) SiO2 
 PCOD8052343
Probable space group: P M
;
_chemical_formula_sum "Si O2"
_cell_formula_units_Z 14
_cell_length_a 10.997987
_cell_length_b 14.752873
_cell_length_c 11.692698
_cell_angle_alpha 90.000000
_cell_angle_beta 153.845903
_cell_angle_gamma 90.000000
_cell_volume 836.244324
_symmetry_space_group_name_H-M "P M"
_symmetry_group_IT_number 6
_symmetry_cell_setting 'monoclinic'
loop_
_space_group_symop_operation_xyz
x,y,z
x,-y,z
loop_
_atom_site_type_symbol
_atom_site_label
_atom_site_fract_x
_atom_site_fract_y
_atom_site_fract_z
Si Si1 0.847440 0.102638 0.204900
Si Si2 0.449832 0.830567 0.676673
Si Si3 0.610850 0.104391 0.573975
Si Si4 0.333711 0.673553 0.728317
Si Si5 0.233552 0.104486 0.040509
Si Si6 0.501285 0.776786 0.071288
Si Si7 0.745638 0.600352 0.238654
O O1 0.172253 0.112494 0.460081
O O2 0.779670 0.000000 0.181732
O O3 0.694142 0.127476 0.958247
O O4 0.751505 0.164928 0.229336
O O5 0.541542 0.832594 0.622587
O O6 0.400585 0.724858 0.666362
O O7 0.913371 0.127683 0.783110
O O8 0.594593 0.000000 0.599575
O O9 0.390040 0.125768 0.289682
O O10 0.288542 0.752046 0.788352
O O11 0.069666 0.610503 0.490797
O O12 0.592526 0.611408 0.986311
O O13 0.347680 0.169821 0.039571
O O14 0.278230 0.000000 0.041339
O O15 0.630608 0.680203 0.225767
O O16 0.687585 0.500000 0.240649
#
# Coordination Sequence:
#
# PCOD8052343 Si02
#       7
#     2   2   2   2   2   2   2
#     4  11  20  30  50  74 104 142 164 210 257 294
#     4  11  19  35  49  73 106 135 173 217 240 297
#     4  10  21  33  48  71  99 144 186 206 235 281
#     4   9  19  33  52  79 103 124 163 210 265 312
#     4  10  21  34  49  70 106 144 174 209 240 286
#     4   9  21  33  51  76 107 126 175 203 254 316
#     4  10  19  34  54  79 105 125 158 209 270 322
#
# _framework density 16.741520000000001
#
# number of rings (size 3 to 8) (size 9 to 14) (size 15 to 20)
#    0.857    1.143    1.429    3.000    2.000    1.143 
#    0.000    2.857    0.000    0.000    0.000    6.000 
#    0.000    0.000    0.000    0.000    0.000    0.000 
#
# Total GULP energy -173512.131880 kJ/mol
# GULP energy per Si atom -12393.723706 kJ/mol
# Density = 1.670342 g / cm^3
# Si number density = 16.741520 Si / 1000 Ang^3
#
#
#
# Elastic Constant Matrix: (Units=GPa)
#
#
# Indices 1 2 3 4 5 6 
#
# 1 67.7323 35.6690 -3.8727 0.0000 -0.8183 0.0000
# 2 35.6690 102.5548 10.2457 0.0000 1.3514 0.0000
# 3 -3.8727 10.2457 70.4444 0.0000 6.4280 0.0000
# 4 0.0000 0.0000 0.0000 15.4028 0.0000 3.9227
# 5 -0.8183 1.3514 6.4280 0.0000 16.9468 0.0000
# 6 0.0000 0.0000 0.0000 3.9227 0.0000 20.1618
#
#
#
# Elastic Compliance Matrix: (Units=1/GPa)
#
#
# Indices 1 2 3 4 5 6 
#
# 1 0.018346 -0.006580 0.001903 0.000000 0.000689 0.000000
# 2 -0.006580 0.012256 -0.002099 0.000000 -0.000499 0.000000
# 3 0.001903 -0.002099 0.015105 0.000000 -0.005470 0.000000
# 4 0.000000 0.000000 0.000000 0.068308 0.000000 -0.013290
# 5 0.000689 -0.000499 -0.005470 0.000000 0.061156 0.000000
# 6 0.000000 0.000000 0.000000 -0.013290 0.000000 0.052184
#
#
# Mechanical properties :
#
#
# Convention : Reuss Voigt Hill
#
# Bulk Modulus (GPa) = 31.09986 36.09062 33.59524
# Shear Modulus (GPa) = 19.87083 23.74826 21.80954
#
# Velocity S-wave (km/s) = 3.44891 3.77042 3.61324
# Velocity P-wave (km/s) = 5.87169 6.36860 6.12519
#
# Compressibility (1/GPa) = 0.03215448
#
# Stress axis : x y z
#
# Youngs Moduli (GPa) = 54.50678 81.59447 66.20513
#
# Poissons Ratio (x) = 0.53690 -0.12597
# Poissons Ratio (y) = 0.35866 0.13895
# Poissons Ratio (z) = -0.10371 0.17125
#
# Static dielectric constant tensor:
#      x y z
#    x 2.845230 0.000000 0.026130 
#    y 0.000000 3.051030 0.000000 
#    z 0.026130 0.000000 3.294210 
# 
# 
# High freq. dielectric constant tensor:
#      x y z
#    x 1.610470 0.000000 0.007820 
#    y 0.000000 1.629630 0.000000 
#    z 0.007820 0.000000 1.666100 
# 
# From -- ./inp_files/1720.got.cif
#   From: 2010.03.12/outbox.cif.g09.slc.cpg/sg6_1_cif.got.tgz:1720.got - 2010.03.30 10:24:59.
