data_PCOD8052923
_publ_section_title
;
Structure prediction by ZEFSAII (Michael W. Deem and Ramdas Pophale) SiO2 
 PCOD8052923
Probable space group: C M
;
_chemical_formula_sum "Si O2"
_cell_formula_units_Z 26
_cell_length_a 16.040953
_cell_length_b 16.201181
_cell_length_c 8.989192
_cell_angle_alpha 90.000000
_cell_angle_beta 146.867724
_cell_angle_gamma 90.000000
_cell_volume 1276.868847
_symmetry_space_group_name_H-M "C M"
_symmetry_group_IT_number 8
_symmetry_cell_setting 'monoclinic'
loop_
_space_group_symop_operation_xyz
x,y,z
x,-y,z
1/2+x,1/2+y,z
1/2+x,1/2-y,z
loop_
_atom_site_type_symbol
_atom_site_label
_atom_site_fract_x
_atom_site_fract_y
_atom_site_fract_z
Si Si1 0.652510 0.000000 0.079731
Si Si2 0.835025 0.500000 0.493298
Si Si3 0.060170 0.091787 0.071033
Si Si4 0.777317 0.826350 0.200115
Si Si5 0.894274 0.500000 0.903164
Si Si6 0.841380 0.678364 0.852234
Si Si7 0.509075 0.690328 0.286675
Si Si8 0.462167 0.745479 0.740636
O O1 0.755061 0.080762 0.223625
O O2 0.572767 0.000000 0.122241
O O3 0.518646 0.000000 0.747805
O O4 0.742730 0.582319 0.299963
O O5 0.790140 0.500000 0.601004
O O6 0.034079 0.119691 0.202004
O O7 0.983496 0.155778 0.845354
O O8 0.984963 0.000000 0.941270
O O9 0.619076 0.784064 0.914650
O O10 0.884846 0.837010 0.219750
O O11 0.847480 0.767862 0.432728
O O12 0.855090 0.583981 0.931838
O O13 0.955476 0.726268 0.128836
O O14 0.893404 0.689592 0.757442
O O15 0.667843 0.709229 0.608741
#
# Coordination Sequence:
#
# PCOD8052923 Si02
#       8
#     2   2   4   4   2   4   4   4
#     4  10  22  35  61  93 123 158 201 260 299 359
#     4   8  16  34  61  90 117 154 205 242 297 362
#     4   9  19  37  65  88 117 159 209 246 297 364
#     4  12  26  39  62  93 133 157 204 252 321 357
#     4  10  18  37  66  91 116 156 216 244 296 363
#     4  11  21  40  67  88 118 165 211 244 297 365
#     4  11  23  40  61  93 124 162 195 255 311 365
#     4  11  23  40  64  91 124 164 208 255 298 366
#
# _framework density 20.362310999999998
#
# number of rings (size 3 to 8) (size 9 to 14) (size 15 to 20)
#    0.923    0.615    3.077    2.769    4.308    0.000 
#    0.000    0.000    1.692    0.000    0.000    0.000 
#    0.000    0.000    0.000    0.000    0.000    0.000 
#
# Total GULP energy -161077.560565 kJ/mol
# GULP energy per Si atom -12390.581582 kJ/mol
# Density = 2.031597 g / cm^3
# Si number density = 20.362311 Si / 1000 Ang^3
#
#
#
# Elastic Constant Matrix: (Units=GPa)
#
#
# Indices 1 2 3 4 5 6 
#
# 1 79.7345 18.5740 35.9573 0.0000 23.8717 0.0000
# 2 18.5740 138.5041 42.2078 0.0000 10.7515 0.0000
# 3 35.9573 42.2078 68.5698 0.0000 20.7761 0.0000
# 4 0.0000 0.0000 0.0000 26.9067 0.0000 8.6339
# 5 23.8717 10.7515 20.7761 0.0000 28.7246 0.0000
# 6 0.0000 0.0000 0.0000 8.6339 0.0000 12.3557
#
#
#
# Elastic Compliance Matrix: (Units=1/GPa)
#
#
# Indices 1 2 3 4 5 6 
#
# 1 0.018755 0.000397 -0.006803 0.000000 -0.010815 0.000000
# 2 0.000397 0.008910 -0.005869 0.000000 0.000579 0.000000
# 3 -0.006803 -0.005869 0.024825 0.000000 -0.010106 0.000000
# 4 0.000000 0.000000 0.000000 0.047908 0.000000 -0.033477
# 5 -0.010815 0.000579 -0.010106 0.000000 0.050894 0.000000
# 6 0.000000 0.000000 0.000000 -0.033477 0.000000 0.104328
#
#
# Mechanical properties :
#
#
# Convention : Reuss Voigt Hill
#
# Bulk Modulus (GPa) = 35.78772 53.36518 44.57645
# Shear Modulus (GPa) = 17.27234 26.26869 21.77051
#
# Velocity S-wave (km/s) = 2.91563 3.59564 3.27334
# Velocity P-wave (km/s) = 5.38035 6.59567 6.01877
#
# Compressibility (1/GPa) = 0.02794255
#
# Stress axis : x y z
#
# Youngs Moduli (GPa) = 53.32036 112.23217 40.28167
#
# Poissons Ratio (x) = -0.04461 0.27402
# Poissons Ratio (y) = -0.02119 0.23639
# Poissons Ratio (z) = 0.36272 0.65863
#
# Static dielectric constant tensor:
#      x y z
#    x 3.437860 0.000000 0.202830 
#    y 0.000000 3.710260 0.000000 
#    z 0.202830 0.000000 3.621520 
# 
# 
# High freq. dielectric constant tensor:
#      x y z
#    x 1.761930 0.000000 0.021860 
#    y 0.000000 1.809670 0.000000 
#    z 0.021860 0.000000 1.789160 
# 
# From -- ./inp_files/15262.got.cif
#   From: 2010.03.12/outbox.cif.g09.slc.cpg/sg8_8_cif.got.tgz:15262.got - 2010.03.31 10:45:26.
