data_PCOD8052750
_publ_section_title
;
Structure prediction by ZEFSAII (Michael W. Deem and Ramdas Pophale) SiO2 
 PCOD8052750
Probable space group: C M
;
_chemical_formula_sum "Si O2"
_cell_formula_units_Z 32
_cell_length_a 10.057287
_cell_length_b 17.744397
_cell_length_c 12.069168
_cell_angle_alpha 90.000000
_cell_angle_beta 52.436596
_cell_angle_gamma 90.000000
_cell_volume 1707.327678
_symmetry_space_group_name_H-M "C M"
_symmetry_group_IT_number 8
_symmetry_cell_setting 'monoclinic'
loop_
_space_group_symop_operation_xyz
x,y,z
x,-y,z
1/2+x,1/2+y,z
1/2+x,1/2-y,z
loop_
_atom_site_type_symbol
_atom_site_label
_atom_site_fract_x
_atom_site_fract_y
_atom_site_fract_z
Si Si1 0.141830 0.414248 0.905400
Si Si2 0.347939 0.685243 0.638675
Si Si3 0.552306 0.671750 0.146453
Si Si4 0.679967 0.840066 0.326568
Si Si5 0.049071 0.672784 0.622970
Si Si6 0.842586 0.586331 0.898470
Si Si7 0.643121 0.337842 0.342128
Si Si8 0.017345 0.349969 0.187578
O O1 0.199857 0.500000 0.861489
O O2 0.280487 0.363785 0.774617
O O3 0.958982 0.400382 0.946198
O O4 0.127651 0.394336 0.041842
O O5 0.421465 0.761102 0.654417
O O6 0.496032 0.637915 0.502062
O O7 0.201168 0.704004 0.623362
O O8 0.372000 0.639671 0.204349
O O9 0.597577 0.636092 0.242060
O O10 0.551548 0.761978 0.148492
O O11 0.683164 0.641307 0.989586
O O12 0.623072 0.868860 0.476406
O O13 0.653514 0.751371 0.342596
O O14 0.573523 0.876081 0.281202
O O15 0.946031 0.607988 0.737002
O O16 0.783691 0.500000 0.918552
O O17 0.822139 0.373076 0.282595
#
# Coordination Sequence:
#
# PCOD8052750 Si02
#       8
#     4   4   4   4   4   4   4   4
#     4  10  21  38  55  77 110 148 186 222 264 318
#     4  10  20  35  58  84 109 140 180 227 271 320
#     4  10  17  34  55  83 108 136 180 223 269 319
#     4   9  19  31  55  85 110 134 172 229 276 313
#     4  10  20  36  57  84 109 141 181 222 275 320
#     4  10  21  37  56  78 109 147 186 224 262 319
#     4   9  17  31  55  84 108 134 179 223 268 318
#     4  10  19  34  57  83 109 142 176 222 271 323
#
# _framework density 18.742740999999999
#
# number of rings (size 3 to 8) (size 9 to 14) (size 15 to 20)
#    0.000    2.250    2.500    0.750    5.250    0.000 
#    2.250    3.125    0.000    0.000    0.000    0.000 
#    0.000    0.000    0.000    0.000    0.000    0.000 
#
# Total GULP energy -198369.562743 kJ/mol
# GULP energy per Si atom -12398.097671 kJ/mol
# Density = 1.870008 g / cm^3
# Si number density = 18.742741 Si / 1000 Ang^3
#
#
#
# Elastic Constant Matrix: (Units=GPa)
#
#
# Indices 1 2 3 4 5 6 
#
# 1 114.4110 20.4600 47.3059 0.0000 -0.0014 0.0000
# 2 20.4600 42.5108 24.9013 0.0000 -5.9837 0.0000
# 3 47.3059 24.9013 125.5243 0.0000 -2.8419 0.0000
# 4 0.0000 0.0000 0.0000 8.4928 0.0000 1.7016
# 5 -0.0014 -5.9837 -2.8419 0.0000 34.8448 0.0000
# 6 0.0000 0.0000 0.0000 1.7016 0.0000 14.6947
#
#
#
# Elastic Compliance Matrix: (Units=1/GPa)
#
#
# Indices 1 2 3 4 5 6 
#
# 1 0.010740 -0.003288 -0.003414 0.000000 -0.000843 0.000000
# 2 -0.003288 0.028235 -0.004260 0.000000 0.004501 0.000000
# 3 -0.003414 -0.004260 0.010101 0.000000 0.000092 0.000000
# 4 0.000000 0.000000 0.000000 0.120544 0.000000 -0.013958
# 5 -0.000843 0.004501 0.000092 0.000000 0.029479 0.000000
# 6 0.000000 0.000000 0.000000 -0.013958 0.000000 0.069668
#
#
# Mechanical properties :
#
#
# Convention : Reuss Voigt Hill
#
# Bulk Modulus (GPa) = 36.83136 51.97560 44.40348
# Shear Modulus (GPa) = 16.68104 24.25838 20.46971
#
# Velocity S-wave (km/s) = 2.98652 3.60152 3.30834
# Velocity P-wave (km/s) = 5.62015 6.71460 6.19160
#
# Compressibility (1/GPa) = 0.02715078
#
# Stress axis : x y z
#
# Youngs Moduli (GPa) = 93.10883 35.41731 99.00389
#
# Poissons Ratio (x) = 0.11644 0.33805
# Poissons Ratio (y) = 0.30611 0.42178
# Poissons Ratio (z) = 0.31792 0.15089
#
# Static dielectric constant tensor:
#      x y z
#    x 3.633260 0.000000 0.001400 
#    y 0.000000 2.973830 0.000000 
#    z 0.001400 0.000000 3.656420 
# 
# 
# High freq. dielectric constant tensor:
#      x y z
#    x 1.729400 0.000000 -0.001470 
#    y 0.000000 1.681860 0.000000 
#    z -0.001470 0.000000 1.745650 
# 
# From -- ./inp_files/19268.got.cif
#   From: 2010.03.12/outbox.cif.g09.slc.cpg/sg8_10_cif.got.tgz:19268.got - 2010.03.31 10:45:26.
