data_PCOD8052404
_publ_section_title
;
Structure prediction by ZEFSAII (Michael W. Deem and Ramdas Pophale) SiO2 
 PCOD8052404
Probable space group: P M
;
_chemical_formula_sum "Si O2"
_cell_formula_units_Z 16
_cell_length_a 9.646206
_cell_length_b 8.778169
_cell_length_c 11.542787
_cell_angle_alpha 90.000000
_cell_angle_beta 116.476820
_cell_angle_gamma 90.000000
_cell_volume 874.882828
_symmetry_space_group_name_H-M "P M"
_symmetry_group_IT_number 6
_symmetry_cell_setting 'monoclinic'
loop_
_space_group_symop_operation_xyz
x,y,z
x,-y,z
loop_
_atom_site_type_symbol
_atom_site_label
_atom_site_fract_x
_atom_site_fract_y
_atom_site_fract_z
Si Si1 0.676100 0.168282 0.868720
Si Si2 0.095624 0.821046 0.333828
Si Si3 0.336062 0.831809 0.846733
Si Si4 0.785848 0.678669 0.128011
Si Si5 0.491207 0.180436 0.133396
Si Si6 0.559964 0.332264 0.619431
Si Si7 0.219538 0.668414 0.596993
Si Si8 0.394216 0.680207 0.336059
O O1 0.501343 0.162585 0.846874
O O2 0.676666 0.225507 0.735423
O O3 0.750702 0.000000 0.899783
O O4 0.775404 0.279236 0.987839
O O5 0.121830 0.781055 0.478807
O O6 0.241545 0.774646 0.310104
O O7 0.953232 0.723155 0.235615
O O8 0.063684 0.000000 0.309274
O O9 0.219033 0.725597 0.730396
O O10 0.262727 0.000000 0.821317
O O11 0.363380 0.773944 0.988325
O O12 0.755862 0.500000 0.132663
O O13 0.661393 0.773535 0.154906
O O14 0.450229 0.276164 0.230514
O O15 0.489319 0.000000 0.156805
O O16 0.634640 0.500000 0.646318
O O17 0.393911 0.338058 0.618183
O O18 0.532096 0.274543 0.477412
O O19 0.144825 0.500000 0.565790
O O20 0.358569 0.500000 0.332337
#
# Coordination Sequence:
#
# PCOD8052404 Si02
#       8
#     2   2   2   2   2   2   2   2
#     4   9  16  27  45  70  97 125 162 205 247 291
#     4  11  21  34  52  74 102 134 168 207 251 298
#     4   8  15  27  44  68  97 127 161 202 244 288
#     4  11  21  34  52  74 102 134 168 207 251 298
#     4  10  20  34  52  76 104 134 169 206 248 297
#     4   8  15  27  44  68  97 127 161 202 244 288
#     4   9  16  27  45  70  97 125 162 205 247 291
#     4  10  20  34  52  76 104 134 169 206 248 297
#
# _framework density 18.288162
#
# number of rings (size 3 to 8) (size 9 to 14) (size 15 to 20)
#    0.000    2.500    0.000    5.250    0.000    7.000 
#    0.000    0.000    0.000    1.500    0.000    0.000 
#    0.000    0.000    0.000    0.000    0.000    0.000 
#
# Total GULP energy -198323.996449 kJ/mol
# GULP energy per Si atom -12395.249778 kJ/mol
# Density = 1.824654 g / cm^3
# Si number density = 18.288162 Si / 1000 Ang^3
#
#
#
# Elastic Constant Matrix: (Units=GPa)
#
#
# Indices 1 2 3 4 5 6 
#
# 1 24.0366 8.2773 31.2214 0.0000 -5.5811 0.0000
# 2 8.2773 82.4047 34.5494 0.0000 -4.4136 0.0000
# 3 31.2214 34.5494 134.3318 0.0000 -18.3786 0.0000
# 4 0.0000 0.0000 0.0000 36.1033 0.0000 -0.7745
# 5 -5.5811 -4.4136 -18.3786 0.0000 25.1803 0.0000
# 6 0.0000 0.0000 0.0000 -0.7745 0.0000 20.5993
#
#
#
# Elastic Compliance Matrix: (Units=1/GPa)
#
#
# Indices 1 2 3 4 5 6 
#
# 1 0.059868 -0.000216 -0.013385 0.000000 0.003462 0.000000
# 2 -0.000216 0.013604 -0.003476 0.000000 -0.000201 0.000000
# 3 -0.013385 -0.003476 0.012176 0.000000 0.005311 0.000000
# 4 0.000000 0.000000 0.000000 0.027721 0.000000 0.001042
# 5 0.003462 -0.000201 0.005311 0.000000 0.044322 0.000000
# 6 0.000000 0.000000 0.000000 0.001042 0.000000 0.048585
#
#
# Mechanical properties :
#
#
# Convention : Reuss Voigt Hill
#
# Bulk Modulus (GPa) = 19.42033 43.20772 31.31402
# Shear Modulus (GPa) = 19.41045 27.49158 23.45101
#
# Velocity S-wave (km/s) = 3.26140 3.88138 3.58481
# Velocity P-wave (km/s) = 4.98241 6.61545 5.85613
#
# Compressibility (1/GPa) = 0.05149243
#
# Stress axis : x y z
#
# Youngs Moduli (GPa) = 16.70348 73.51030 82.12982
#
# Poissons Ratio (x) = 0.01589 1.09933
# Poissons Ratio (y) = 0.00361 0.28548
# Poissons Ratio (z) = 0.22358 0.25552
#
# Static dielectric constant tensor:
#      x y z
#    x 2.775670 0.000000 -0.152050 
#    y 0.000000 3.572720 0.000000 
#    z -0.152050 0.000000 3.784790 
# 
# 
# High freq. dielectric constant tensor:
#      x y z
#    x 1.639250 0.000000 -0.009710 
#    y 0.000000 1.721220 0.000000 
#    z -0.009710 0.000000 1.728850 
# 
# From -- ./inp_files/4658.got.cif
#   From: 2010.03.12/outbox.cif.g09.slc.cpg/sg6_3_cif.got.tgz:4658.got - 2010.03.30 10:24:59.
