data_PCOD8052515
_publ_section_title
;
Structure prediction by ZEFSAII (Michael W. Deem and Ramdas Pophale) SiO2 
 PCOD8052515
Probable space group: P M
;
_chemical_formula_sum "Si O2"
_cell_formula_units_Z 16
_cell_length_a 10.012041
_cell_length_b 8.557420
_cell_length_c 8.821398
_cell_angle_alpha 90.000000
_cell_angle_beta 90.341782
_cell_angle_gamma 90.000000
_cell_volume 755.779586
_symmetry_space_group_name_H-M "P M"
_symmetry_group_IT_number 6
_symmetry_cell_setting 'monoclinic'
loop_
_space_group_symop_operation_xyz
x,y,z
x,-y,z
loop_
_atom_site_type_symbol
_atom_site_label
_atom_site_fract_x
_atom_site_fract_y
_atom_site_fract_z
Si Si1 0.689480 0.321058 0.310690
Si Si2 0.655330 0.682827 0.965860
Si Si3 0.200889 0.683517 0.301701
Si Si4 0.405060 0.816725 0.810486
Si Si5 0.904373 0.819077 0.811964
Si Si6 0.446919 0.818662 0.467935
Si Si7 0.954660 0.680536 0.491454
Si Si8 0.155756 0.316494 0.964225
O O1 0.641370 0.500000 0.324632
O O2 0.597007 0.214824 0.416182
O O3 0.840881 0.300598 0.364513
O O4 0.680214 0.263419 0.138032
O O5 0.681953 0.500000 0.945218
O O6 0.503719 0.723581 0.922046
O O7 0.753606 0.776851 0.856307
O O8 0.182282 0.500000 0.292504
O O9 0.347848 0.726198 0.357446
O O10 0.177676 0.751086 0.133297
O O11 0.090199 0.748297 0.417905
O O12 0.430242 0.760045 0.639399
O O13 0.430885 0.000000 0.828693
O O14 0.253813 0.774226 0.851371
O O15 0.921831 0.784954 0.635296
O O16 0.932205 0.000000 0.842679
O O17 0.004610 0.716448 0.913409
O O18 0.413079 0.000000 0.454572
O O19 0.969395 0.500000 0.542474
O O20 0.185421 0.500000 0.954610
#
# Coordination Sequence:
#
# PCOD8052515 Si02
#       8
#     2   2   2   2   2   2   2   2
#     4  10  22  40  63  89 117 151 198 248 294 348
#     4  11  23  41  64  90 119 157 202 247 295 354
#     4  10  22  40  63  89 117 151 198 248 294 348
#     4  11  24  41  60  90 126 159 198 245 296 354
#     4  12  25  40  60  90 124 158 197 246 298 354
#     4  11  24  39  58  86 122 159 196 239 292 352
#     4  10  21  40  64  88 116 154 197 246 298 352
#     4  11  23  41  64  90 119 157 202 247 295 354
#
# _framework density 21.170195
#
# number of rings (size 3 to 8) (size 9 to 14) (size 15 to 20)
#    0.000    1.250    0.000    5.625    0.000   14.000 
#    0.000    1.250    0.000    0.000    0.000    0.000 
#    0.000    0.000    0.000    0.000    0.000    0.000 
#
# Total GULP energy -198542.708917 kJ/mol
# GULP energy per Si atom -12408.919307 kJ/mol
# Density = 2.112201 g / cm^3
# Si number density = 21.170195 Si / 1000 Ang^3
#
#
#
# Elastic Constant Matrix: (Units=GPa)
#
#
# Indices 1 2 3 4 5 6 
#
# 1 74.7457 12.3534 1.2907 0.0000 -3.5859 0.0000
# 2 12.3534 48.3391 37.4270 0.0000 -6.0390 0.0000
# 3 1.2907 37.4270 94.2584 0.0000 -1.0629 0.0000
# 4 0.0000 0.0000 0.0000 18.9192 0.0000 1.8904
# 5 -3.5859 -6.0390 -1.0629 0.0000 45.5490 0.0000
# 6 0.0000 0.0000 0.0000 1.8904 0.0000 23.8657
#
#
#
# Elastic Compliance Matrix: (Units=1/GPa)
#
#
# Indices 1 2 3 4 5 6 
#
# 1 0.014188 -0.004933 0.001770 0.000000 0.000504 0.000000
# 2 -0.004933 0.032217 -0.012684 0.000000 0.003587 0.000000
# 3 0.001770 -0.012684 0.015608 0.000000 -0.001178 0.000000
# 4 0.000000 0.000000 0.000000 0.053278 0.000000 -0.004220
# 5 0.000504 0.003587 -0.001178 0.000000 0.022442 0.000000
# 6 0.000000 0.000000 0.000000 -0.004220 0.000000 0.042235
#
#
# Mechanical properties :
#
#
# Convention : Reuss Voigt Hill
#
# Bulk Modulus (GPa) = 32.98378 35.49836 34.24107
# Shear Modulus (GPa) = 22.54592 28.75158 25.64875
#
# Velocity S-wave (km/s) = 3.26695 3.68926 3.48451
# Velocity P-wave (km/s) = 5.46303 5.91202 5.69196
#
# Compressibility (1/GPa) = 0.03031794
#
# Stress axis : x y z
#
# Youngs Moduli (GPa) = 70.48369 31.03941 64.06908
#
# Poissons Ratio (x) = 0.15313 -0.11342
# Poissons Ratio (y) = 0.34773 0.81268
# Poissons Ratio (z) = -0.12478 0.39372
#
# Static dielectric constant tensor:
#      x y z
#    x 3.775500 0.000000 -0.046630 
#    y 0.000000 3.632750 0.000000 
#    z -0.046630 0.000000 3.946030 
# 
# 
# High freq. dielectric constant tensor:
#      x y z
#    x 1.841580 0.000000 -0.000710 
#    y 0.000000 1.819980 0.000000 
#    z -0.000710 0.000000 1.844340 
# 
# From -- ./inp_files/2685.got.cif
#   From: 2010.03.12/outbox.cif.g09.slc.cpg/sg6_2_cif.got.tgz:2685.got - 2010.03.30 10:24:59.
