data_PCOD8052286
_publ_section_title
;
Structure prediction by ZEFSAII (Michael W. Deem and Ramdas Pophale) SiO2 
 PCOD8052286
Probable space group: P M
;
_chemical_formula_sum "Si O2"
_cell_formula_units_Z 16
_cell_length_a 7.610967
_cell_length_b 8.699329
_cell_length_c 13.202630
_cell_angle_alpha 90.000000
_cell_angle_beta 89.147459
_cell_angle_gamma 90.000000
_cell_volume 874.053403
_symmetry_space_group_name_H-M "P M"
_symmetry_group_IT_number 6
_symmetry_cell_setting 'monoclinic'
loop_
_space_group_symop_operation_xyz
x,y,z
x,-y,z
loop_
_atom_site_type_symbol
_atom_site_label
_atom_site_fract_x
_atom_site_fract_y
_atom_site_fract_z
Si Si1 0.230760 0.820199 0.927630
Si Si2 0.691137 0.673252 0.639422
Si Si3 0.526168 0.324939 0.058907
Si Si4 0.735576 0.818989 0.219012
Si Si5 0.810785 0.672587 0.426651
Si Si6 0.914532 0.675185 0.043653
Si Si7 0.024382 0.179503 0.584908
Si Si8 0.318789 0.318592 0.714001
O O1 0.384576 0.778678 0.003969
O O2 0.255608 0.726171 0.825176
O O3 0.042150 0.776030 0.974059
O O4 0.235196 0.000000 0.903586
O O5 0.731523 0.500000 0.676271
O O6 0.662725 0.674587 0.516906
O O7 0.519096 0.738399 0.696448
O O8 0.862880 0.777127 0.663251
O O9 0.457308 0.500000 0.067288
O O10 0.715525 0.319555 0.998736
O O11 0.558165 0.255415 0.171591
O O12 0.745654 0.779033 0.336574
O O13 0.730837 0.000000 0.204295
O O14 0.904425 0.748535 0.157186
O O15 0.845031 0.500000 0.386419
O O16 0.990199 0.739757 0.475851
O O17 0.983440 0.500000 0.049844
O O18 0.205499 0.237569 0.628965
O O19 0.033598 0.000000 0.567977
O O20 0.304557 0.500000 0.699331
#
# Coordination Sequence:
#
# PCOD8052286 Si02
#       8
#     2   2   2   2   2   2   2   2
#     4  12  24  37  57  85 115 146 186 238 284 327
#     4   8  19  37  58  80 109 147 189 228 270 329
#     4   9  20  38  59  81 111 150 189 227 275 337
#     4  10  18  33  58  87 114 144 183 231 283 327
#     4   9  17  35  58  82 110 148 189 223 275 336
#     4   9  20  38  59  81 112 151 188 227 275 337
#     4  10  20  35  56  84 115 144 182 233 283 328
#     4  11  22  39  59  80 110 150 192 229 275 337
#
# _framework density 18.305516999999998
#
# number of rings (size 3 to 8) (size 9 to 14) (size 15 to 20)
#    1.500    0.750    0.000    4.125    0.000    2.000 
#    0.000    2.500    0.000    1.500    0.000    0.000 
#    0.000    0.000    0.000    0.000    0.000    0.000 
#
# Total GULP energy -198255.336605 kJ/mol
# GULP energy per Si atom -12390.958538 kJ/mol
# Density = 1.826385 g / cm^3
# Si number density = 18.305517 Si / 1000 Ang^3
#
#
#
# Elastic Constant Matrix: (Units=GPa)
#
#
# Indices 1 2 3 4 5 6 
#
# 1 34.5261 11.9418 -18.5037 0.0000 -2.4090 0.0000
# 2 11.9418 88.1321 -0.8058 0.0000 -3.5912 0.0000
# 3 -18.5037 -0.8058 28.2305 0.0000 1.0453 0.0000
# 4 0.0000 0.0000 0.0000 26.9786 0.0000 6.2916
# 5 -2.4090 -3.5912 1.0453 0.0000 28.2937 0.0000
# 6 0.0000 0.0000 0.0000 6.2916 0.0000 27.8176
#
#
#
# Elastic Compliance Matrix: (Units=1/GPa)
#
#
# Indices 1 2 3 4 5 6 
#
# 1 0.047933 -0.006122 0.031163 0.000000 0.002153 0.000000
# 2 -0.006122 0.012190 -0.003708 0.000000 0.001163 0.000000
# 3 0.031163 -0.003708 0.055738 0.000000 0.000124 0.000000
# 4 0.000000 0.000000 0.000000 0.039130 0.000000 -0.008850
# 5 0.002153 0.001163 0.000124 0.000000 0.035670 0.000000
# 6 0.000000 0.000000 0.000000 -0.008850 0.000000 0.037950
#
#
# Mechanical properties :
#
#
# Convention : Reuss Voigt Hill
#
# Bulk Modulus (GPa) = 6.30810 15.12816 10.71813
# Shear Modulus (GPa) = 20.93914 27.16839 24.05376
#
# Velocity S-wave (km/s) = 3.38578 3.85666 3.62887
# Velocity P-wave (km/s) = 4.32877 5.30227 4.84005
#
# Compressibility (1/GPa) = 0.15852635
#
# Stress axis : x y z
#
# Youngs Moduli (GPa) = 20.86258 82.03689 17.94104
#
# Poissons Ratio (x) = 0.50225 -0.55910
# Poissons Ratio (y) = 0.12772 0.06652
# Poissons Ratio (z) = -0.65014 0.30419
#
# Static dielectric constant tensor:
#      x y z
#    x 3.245070 0.000000 0.005350 
#    y 0.000000 3.386970 0.000000 
#    z 0.005350 0.000000 3.140940 
# 
# 
# High freq. dielectric constant tensor:
#      x y z
#    x 1.691890 0.000000 0.004970 
#    y 0.000000 1.723660 0.000000 
#    z 0.004970 0.000000 1.690650 
# 
# From -- ./inp_files/4554.got.cif
#   From: 2010.03.12/outbox.cif.g09.slc.cpg/sg6_3_cif.got.tgz:4554.got - 2010.03.30 10:24:59.
