data_PCOD8052760
_publ_section_title
;
Structure prediction by ZEFSAII (Michael W. Deem and Ramdas Pophale) SiO2 
 PCOD8052760
Probable space group: C M
;
_chemical_formula_sum "Si O2"
_cell_formula_units_Z 32
_cell_length_a 23.281355
_cell_length_b 8.991202
_cell_length_c 22.101957
_cell_angle_alpha 90.000000
_cell_angle_beta 155.802982
_cell_angle_gamma 90.000000
_cell_volume 1896.307497
_symmetry_space_group_name_H-M "C M"
_symmetry_group_IT_number 8
_symmetry_cell_setting 'monoclinic'
loop_
_space_group_symop_operation_xyz
x,y,z
x,-y,z
1/2+x,1/2+y,z
1/2+x,1/2-y,z
loop_
_atom_site_type_symbol
_atom_site_label
_atom_site_fract_x
_atom_site_fract_y
_atom_site_fract_z
Si Si1 0.646910 0.324959 0.816780
Si Si2 0.937782 0.323953 0.697336
Si Si3 0.638504 0.670345 0.627058
Si Si4 0.461619 0.174084 0.089229
Si Si5 0.714540 0.329503 0.382822
Si Si6 0.963631 0.671125 0.539505
Si Si7 0.373038 0.171060 0.769170
Si Si8 0.404055 0.676739 0.915953
O O1 0.624256 0.500000 0.796276
O O2 0.581300 0.254906 0.814918
O O3 0.564411 0.258657 0.681300
O O4 0.810959 0.283141 0.972161
O O5 0.960687 0.500000 0.716592
O O6 0.809106 0.278197 0.530350
O O7 0.901345 0.266935 0.729733
O O8 0.620398 0.500000 0.629005
O O9 0.491872 0.757217 0.499380
O O10 0.704008 0.684553 0.622061
O O11 0.750945 0.749951 0.780067
O O12 0.578524 0.225145 0.249850
O O13 0.474041 0.000000 0.088075
O O14 0.496225 0.262991 0.060265
O O15 0.667118 0.500000 0.345223
O O16 0.803174 0.309747 0.405757
O O17 0.007421 0.500000 0.581579
O O18 0.459117 0.265268 0.902753
O O19 0.420537 0.000000 0.820356
O O20 0.399573 0.500000 0.911953
#
# Coordination Sequence:
#
# PCOD8052760 Si02
#       8
#     4   4   4   4   4   4   4   4
#     4  10  19  29  46  70  96 125 163 207 244 285
#     4   9  18  34  52  72  98 129 164 202 243 290
#     4   9  16  27  46  72  98 123 153 196 241 283
#     4  11  21  33  48  71 102 133 164 199 245 297
#     4   9  20  33  48  71 100 131 165 201 241 291
#     4  10  18  30  48  72  98 126 162 201 244 292
#     4   8  16  30  48  72  99 125 159 204 243 284
#     4  10  18  28  48  74  97 124 158 200 243 286
#
# _framework density 16.8749
#
# number of rings (size 3 to 8) (size 9 to 14) (size 15 to 20)
#    0.750    1.750    1.250    3.000    0.000    4.500 
#    0.000    0.000    0.000    1.500    0.000    8.750 
#    0.000    0.000    0.000    0.000    0.000    0.000 
#
# Total GULP energy -198212.079284 kJ/mol
# GULP energy per Si atom -12388.254955 kJ/mol
# Density = 1.683649 g / cm^3
# Si number density = 16.874900 Si / 1000 Ang^3
#
#
#
# Elastic Constant Matrix: (Units=GPa)
#
#
# Indices 1 2 3 4 5 6 
#
# 1 118.6367 46.8737 39.3305 0.0000 -1.1671 0.0000
# 2 46.8737 84.2564 39.9787 0.0000 2.4573 0.0000
# 3 39.3305 39.9787 68.2369 0.0000 5.9407 0.0000
# 4 0.0000 0.0000 0.0000 22.5905 0.0000 4.1615
# 5 -1.1671 2.4573 5.9407 0.0000 17.3595 0.0000
# 6 0.0000 0.0000 0.0000 4.1615 0.0000 27.1555
#
#
#
# Elastic Compliance Matrix: (Units=1/GPa)
#
#
# Indices 1 2 3 4 5 6 
#
# 1 0.011684 -0.004528 -0.004335 0.000000 0.002910 0.000000
# 2 -0.004528 0.018210 -0.008048 0.000000 -0.000128 0.000000
# 3 -0.004335 -0.008048 0.022464 0.000000 -0.006840 0.000000
# 4 0.000000 0.000000 0.000000 0.045552 0.000000 -0.006981
# 5 0.002910 -0.000128 -0.006840 0.000000 0.060160 0.000000
# 6 0.000000 0.000000 0.000000 -0.006981 0.000000 0.037895
#
#
# Mechanical properties :
#
#
# Convention : Reuss Voigt Hill
#
# Bulk Modulus (GPa) = 53.94820 58.16621 56.05720
# Shear Modulus (GPa) = 21.18960 23.08421 22.13691
#
# Velocity S-wave (km/s) = 3.54741 3.70261 3.62584
# Velocity P-wave (km/s) = 6.98697 7.26794 7.12884
#
# Compressibility (1/GPa) = 0.01853630
#
# Stress axis : x y z
#
# Youngs Moduli (GPa) = 85.58835 54.91518 44.51587
#
# Poissons Ratio (x) = 0.24866 0.19297
# Poissons Ratio (y) = 0.38754 0.35826
# Poissons Ratio (z) = 0.37101 0.44195
#
# Static dielectric constant tensor:
#      x y z
#    x 3.376290 0.000000 0.140350 
#    y 0.000000 3.174110 0.000000 
#    z 0.140350 0.000000 2.807070 
# 
# 
# High freq. dielectric constant tensor:
#      x y z
#    x 1.649080 0.000000 0.011720 
#    y 0.000000 1.659960 0.000000 
#    z 0.011720 0.000000 1.602390 
# 
# From -- ./inp_files/32620.got.cif
#   From: 2010.03.12/outbox.cif.g09.slc.cpg/sg8_17_cif.got.tgz:32620.got - 2010.03.31 10:45:26.
