data_PCOD8052161
_publ_section_title
;
Structure prediction by ZEFSAII (Michael W. Deem and Ramdas Pophale) SiO2 
 PCOD8052161
Probable space group: C 2
;
_chemical_formula_sum "Si O2"
_cell_formula_units_Z 16
_cell_length_a 24.706133
_cell_length_b 4.837602
_cell_length_c 10.600988
_cell_angle_alpha 90.000000
_cell_angle_beta 147.668826
_cell_angle_gamma 90.000000
_cell_volume 677.614253
_symmetry_space_group_name_H-M "C 2"
_symmetry_group_IT_number 5
_symmetry_cell_setting 'monoclinic'
loop_
_space_group_symop_operation_xyz
x,y,z
-x,y,-z
1/2+x,1/2+y,z
1/2-x,1/2+y,-z
loop_
_atom_site_type_symbol
_atom_site_label
_atom_site_fract_x
_atom_site_fract_y
_atom_site_fract_z
Si Si1 0.077468 0.228550 0.923013
Si Si2 0.441659 0.251285 0.640732
Si Si3 0.760325 0.674586 0.105117
Si Si4 0.818338 0.980910 0.632374
O O1 0.017572 0.509420 0.831231
O O2 0.175857 0.292037 0.033645
O O3 0.107295 0.094901 0.114966
O O4 0.005204 0.008677 0.710221
O O5 0.367102 0.145249 0.385552
O O6 0.380603 0.352698 0.641381
O O7 0.729219 0.374367 0.994152
O O8 0.751365 0.236149 0.447426
#
# Coordination Sequence:
#
# PCOD8052161 Si02
#       4
#     4   4   4   4
#     4  12  27  48  76 111 148 195 246 304 375 441
#     4  12  27  48  76 111 148 195 246 304 375 441
#     4  12  28  50  76 104 148 198 254 306 360 432
#     4  12  25  46  79 108 158 196 237 306 383 446
#
# _framework density 23.612255000000001
#
# number of rings (size 3 to 8) (size 9 to 14) (size 15 to 20)
#    0.000    0.000    2.500    6.750    3.500    8.000 
#    0.000    0.000    0.000    0.000    0.000    0.000 
#    0.000    0.000    0.000    0.000    0.000    0.000 
#
# Total GULP energy -99266.312247 kJ/mol
# GULP energy per Si atom -12408.289031 kJ/mol
# Density = 2.355851 g / cm^3
# Si number density = 23.612255 Si / 1000 Ang^3
#
#
#
# Elastic Constant Matrix: (Units=GPa)
#
#
# Indices 1 2 3 4 5 6 
#
# 1 47.5318 19.9649 37.4184 0.0000 10.7964 -0.0001
# 2 19.9649 131.8462 15.7514 0.0000 16.6705 0.0001
# 3 37.4184 15.7514 90.9180 0.0000 7.7001 -0.0001
# 4 0.0000 0.0000 0.0000 50.4979 0.0000 13.3539
# 5 10.7964 16.6705 7.7001 0.0000 36.1034 0.0000
# 6 -0.0001 0.0001 -0.0001 13.3539 0.0000 48.4584
#
#
#
# Elastic Compliance Matrix: (Units=1/GPa)
#
#
# Indices 1 2 3 4 5 6 
#
# 1 0.033733 -0.002804 -0.012886 0.000000 -0.006044 0.000000
# 2 -0.002804 0.008398 -0.000044 0.000000 -0.003029 0.000000
# 3 -0.012886 -0.000044 0.016276 0.000000 0.000402 0.000000
# 4 0.000000 0.000000 0.000000 0.021359 0.000000 -0.005886
# 5 -0.006044 -0.003029 0.000402 0.000000 0.030819 0.000000
# 6 0.000000 0.000000 0.000000 -0.005886 0.000000 0.022258
#
#
# Mechanical properties :
#
#
# Convention : Reuss Voigt Hill
#
# Bulk Modulus (GPa) = 37.12168 46.28504 41.70336
# Shear Modulus (GPa) = 28.85322 40.15601 34.50462
#
# Velocity S-wave (km/s) = 3.49945 4.12836 3.82684
# Velocity P-wave (km/s) = 5.66424 6.50916 6.10134
#
# Compressibility (1/GPa) = 0.02693844
#
# Stress axis : x y z
#
# Youngs Moduli (GPa) = 29.64421 119.08203 61.44126
#
# Poissons Ratio (x) = 0.33396 0.79171
# Poissons Ratio (y) = 0.08313 0.00271
# Poissons Ratio (z) = 0.38198 0.00525
#
# Static dielectric constant tensor:
#      x y z
#    x 4.139700 0.000000 0.331390 
#    y 0.000000 4.530550 0.000000 
#    z 0.331390 0.000000 4.589480 
# 
# 
# High freq. dielectric constant tensor:
#      x y z
#    x 1.933740 0.000000 0.016860 
#    y 0.000000 1.956820 0.000000 
#    z 0.016860 0.000000 1.947170 
# 
# From -- ./inp_files/30214.got.cif
#   From: 2010.03.12/outbox.cif.g09.slc.cpg/sg5_16_cif.got.tgz:30214.got - 2010.03.31 09:47:26.
