data_PCOD8052388
_publ_section_title
;
Structure prediction by ZEFSAII (Michael W. Deem and Ramdas Pophale) SiO2 
 PCOD8052388
Probable space group: P M
;
_chemical_formula_sum "Si O2"
_cell_formula_units_Z 16
_cell_length_a 12.299609
_cell_length_b 8.642394
_cell_length_c 12.579317
_cell_angle_alpha 90.000000
_cell_angle_beta 35.507024
_cell_angle_gamma 90.000000
_cell_volume 776.624517
_symmetry_space_group_name_H-M "P M"
_symmetry_group_IT_number 6
_symmetry_cell_setting 'monoclinic'
loop_
_space_group_symop_operation_xyz
x,y,z
x,-y,z
loop_
_atom_site_type_symbol
_atom_site_label
_atom_site_fract_x
_atom_site_fract_y
_atom_site_fract_z
Si Si1 0.471340 0.681297 0.802700
Si Si2 0.345456 0.183884 0.322317
Si Si3 0.061500 0.680183 0.054682
Si Si4 0.725419 0.183248 0.425338
Si Si5 0.047744 0.175960 0.844906
Si Si6 0.470641 0.825057 0.443946
Si Si7 0.962291 0.681811 0.693071
Si Si8 0.582508 0.181744 0.930043
O O1 0.487737 0.500000 0.812573
O O2 0.646034 0.735848 0.593342
O O3 0.471466 0.773572 0.912790
O O4 0.278488 0.724059 0.896880
O O5 0.461369 0.248796 0.332911
O O6 0.139028 0.256367 0.485908
O O7 0.320075 0.000000 0.352904
O O8 0.454019 0.234878 0.130898
O O9 0.026303 0.500000 0.098665
O O10 0.942448 0.771788 0.238687
O O11 0.989615 0.729966 0.995583
O O12 0.616537 0.254330 0.408635
O O13 0.698710 0.000000 0.458767
O O14 0.268844 0.187112 0.657546
O O15 0.945825 0.244805 0.823233
O O16 0.979343 0.000000 0.913123
O O17 0.537736 0.000000 0.377478
O O18 0.980025 0.500000 0.690752
O O19 0.777614 0.727170 0.775293
O O20 0.622756 0.000000 0.902542
#
# Coordination Sequence:
#
# PCOD8052388 Si02
#       8
#     2   2   2   2   2   2   2   2
#     4  11  25  45  64  86 127 168 207 262 317 369
#     4   9  20  40  63  91 124 162 210 259 305 361
#     4  11  24  40  60  92 128 165 206 256 321 377
#     4  11  22  38  64  94 123 163 213 258 307 370
#     4  10  19  37  63  90 126 165 208 258 307 366
#     4   8  16  33  59  90 122 156 199 255 308 355
#     4  11  23  39  61  94 132 165 201 251 317 378
#     4  11  24  42  68  93 120 164 218 261 302 368
#
# _framework density 20.601976000000001
#
# number of rings (size 3 to 8) (size 9 to 14) (size 15 to 20)
#    0.000    1.750    1.250    3.750    1.750    3.500 
#    0.000    3.125    0.000    0.000    0.000    0.000 
#    0.000    0.000    0.000    0.000    0.000    0.000 
#
# Total GULP energy -198436.829601 kJ/mol
# GULP energy per Si atom -12402.301850 kJ/mol
# Density = 2.055509 g / cm^3
# Si number density = 20.601976 Si / 1000 Ang^3
#
#
#
# Elastic Constant Matrix: (Units=GPa)
#
#
# Indices 1 2 3 4 5 6 
#
# 1 74.6529 27.8221 32.3795 0.0000 14.6610 0.0000
# 2 27.8221 63.9732 29.0784 0.0000 -0.0189 0.0000
# 3 32.3795 29.0784 114.0600 0.0000 17.4367 0.0000
# 4 0.0000 0.0000 0.0000 28.9490 0.0000 2.4736
# 5 14.6610 -0.0189 17.4367 0.0000 30.6329 0.0000
# 6 0.0000 0.0000 0.0000 2.4736 0.0000 30.1269
#
#
#
# Elastic Compliance Matrix: (Units=1/GPa)
#
#
# Indices 1 2 3 4 5 6 
#
# 1 0.018483 -0.006989 -0.002314 0.000000 -0.007533 0.000000
# 2 -0.006989 0.020549 -0.004127 0.000000 0.005707 0.000000
# 3 -0.002314 -0.004127 0.011290 0.000000 -0.005322 0.000000
# 4 0.000000 0.000000 0.000000 0.034788 0.000000 -0.002856
# 5 -0.007533 0.005707 -0.005322 0.000000 0.039283 0.000000
# 6 0.000000 0.000000 0.000000 -0.002856 0.000000 0.033427
#
#
# Mechanical properties :
#
#
# Convention : Reuss Voigt Hill
#
# Bulk Modulus (GPa) = 42.62153 47.91623 45.26888
# Shear Modulus (GPa) = 25.97418 28.83550 27.40484
#
# Velocity S-wave (km/s) = 3.55457 3.74524 3.65115
# Velocity P-wave (km/s) = 6.13022 6.48159 6.30835
#
# Compressibility (1/GPa) = 0.02346232
#
# Stress axis : x y z
#
# Youngs Moduli (GPa) = 54.10399 48.66511 88.57578
#
# Poissons Ratio (x) = 0.34011 0.20493
# Poissons Ratio (y) = 0.37813 0.36556
# Poissons Ratio (z) = 0.12517 0.20084
#
# Static dielectric constant tensor:
#      x y z
#    x 3.751530 0.000000 0.042670 
#    y 0.000000 3.569620 0.000000 
#    z 0.042670 0.000000 3.708580 
# 
# 
# High freq. dielectric constant tensor:
#      x y z
#    x 1.803660 0.000000 0.001490 
#    y 0.000000 1.795240 0.000000 
#    z 0.001490 0.000000 1.812430 
# 
# From -- ./inp_files/5041.got.cif
#   From: 2010.03.12/outbox.cif.g09.slc.cpg/sg6_3_cif.got.tgz:5041.got - 2010.03.30 10:24:59.
