data_PCOD8052671
_publ_section_title
;
Structure prediction by ZEFSAII (Michael W. Deem and Ramdas Pophale) SiO2 
 PCOD8052671
Probable space group: P C
;
_chemical_formula_sum "Si O2"
_cell_formula_units_Z 16
_cell_length_a 9.645947
_cell_length_b 16.070126
_cell_length_c 5.149763
_cell_angle_alpha 90.000000
_cell_angle_beta 90.001059
_cell_angle_gamma 90.000000
_cell_volume 798.272918
_symmetry_space_group_name_H-M "P C"
_symmetry_group_IT_number 7
_symmetry_cell_setting 'monoclinic'
loop_
_space_group_symop_operation_xyz
x,y,z
x,-y,1/2+z
loop_
_atom_site_type_symbol
_atom_site_label
_atom_site_fract_x
_atom_site_fract_y
_atom_site_fract_z
Si Si1 0.278010 0.443971 0.977670
Si Si2 0.924470 0.761788 0.007800
Si Si3 0.925857 0.047483 0.468769
Si Si4 0.538490 0.333204 0.007453
Si Si5 0.784192 0.550943 0.439773
Si Si6 0.596332 0.046783 0.469761
Si Si7 0.592723 0.763487 0.009845
Si Si8 0.023835 0.333052 0.004740
O O1 0.250038 0.494130 0.714955
O O2 0.434691 0.410578 0.983585
O O3 0.183417 0.361172 0.992886
O O4 0.972405 0.856674 0.967686
O O5 0.986018 0.732657 0.281982
O O6 0.758569 0.752583 0.008564
O O7 0.990530 0.706371 0.782751
O O8 0.761167 0.042218 0.471426
O O9 0.986837 0.000706 0.217670
O O10 0.692934 0.368623 0.994625
O O11 0.523093 0.267490 0.775290
O O12 0.519885 0.287152 0.279809
O O13 0.752737 0.479147 0.648216
O O14 0.941869 0.580364 0.467431
O O15 0.547205 0.141508 0.477392
O O16 0.535263 0.997161 0.714847
#
# Coordination Sequence:
#
# PCOD8052671 Si02
#       8
#     2   2   2   2   2   2   2   2
#     4  12  26  46  62  82 116 154 202 246 286 352
#     4  11  20  36  58  89 122 151 191 243 287 345
#     4   9  17  29  49  81 120 155 183 223 284 341
#     4  12  23  39  60  86 114 155 191 243 296 340
#     4  12  22  36  56  82 108 140 184 232 296 348
#     4   9  17  29  49  81 120 155 183 223 284 341
#     4  11  20  36  58  89 122 151 191 243 287 345
#     4  12  23  39  60  86 114 155 191 243 296 340
#
# _framework density 20.04327
#
# number of rings (size 3 to 8) (size 9 to 14) (size 15 to 20)
#    0.000    1.000    2.500    6.000    0.000    4.000 
#    0.000    0.000    0.000    0.000    0.000   17.500 
#    0.000    0.000    0.000    0.000    0.000    0.000 
#
# Total GULP energy -198474.671540 kJ/mol
# GULP energy per Si atom -12404.666971 kJ/mol
# Density = 1.999765 g / cm^3
# Si number density = 20.043270 Si / 1000 Ang^3
#
#
#
# Elastic Constant Matrix: (Units=GPa)
#
#
# Indices 1 2 3 4 5 6 
#
# 1 39.4530 13.9374 10.0626 0.0000 -1.9538 0.0000
# 2 13.9374 98.5158 24.1480 0.0000 -0.8000 0.0000
# 3 10.0626 24.1480 100.0570 0.0000 -9.5388 0.0000
# 4 0.0000 0.0000 0.0000 41.5130 0.0000 -6.6860
# 5 -1.9538 -0.8000 -9.5388 0.0000 17.9638 0.0000
# 6 0.0000 0.0000 0.0000 -6.6860 0.0000 21.7407
#
#
#
# Elastic Compliance Matrix: (Units=1/GPa)
#
#
# Indices 1 2 3 4 5 6 
#
# 1 0.027078 -0.003393 -0.001725 0.000000 0.001878 0.000000
# 2 -0.003393 0.011229 -0.002482 0.000000 -0.001187 0.000000
# 3 -0.001725 -0.002482 0.011311 0.000000 0.005708 0.000000
# 4 0.000000 0.000000 0.000000 0.025344 0.000000 0.007794
# 5 0.001878 -0.001187 0.005708 0.000000 0.058850 0.000000
# 6 0.000000 0.000000 0.000000 0.007794 0.000000 0.048394
#
#
# Mechanical properties :
#
#
# Convention : Reuss Voigt Hill
#
# Bulk Modulus (GPa) = 29.05436 37.14688 33.10062
# Shear Modulus (GPa) = 23.93726 28.90201 26.41964
#
# Velocity S-wave (km/s) = 3.45958 3.80146 3.63454
# Velocity P-wave (km/s) = 5.52137 6.15156 5.84497
#
# Compressibility (1/GPa) = 0.03441824
#
# Stress axis : x y z
#
# Youngs Moduli (GPa) = 36.93012 89.05196 88.40943
#
# Poissons Ratio (x) = 0.30213 0.15254
# Poissons Ratio (y) = 0.12529 0.21944
# Poissons Ratio (z) = 0.06372 0.22103
#
# Static dielectric constant tensor:
#      x y z
#    x 3.279620 0.000000 -0.151680 
#    y 0.000000 3.701030 0.000000 
#    z -0.151680 0.000000 3.864020 
# 
# 
# High freq. dielectric constant tensor:
#      x y z
#    x 1.736900 0.000000 -0.013700 
#    y 0.000000 1.794730 0.000000 
#    z -0.013700 0.000000 1.802490 
# 
# From -- ./inp_files/709.got.cif
#   From: 2010.03.12/outbox.cif.g09.slc.cpg/sg7_cif.got.tgz:709.got - 2010.03.30 08:40:41.
