data_PCOD8052835
_publ_section_title
;
Structure prediction by ZEFSAII (Michael W. Deem and Ramdas Pophale) SiO2 
 PCOD8052835
Probable space group: C M
;
_chemical_formula_sum "Si O2"
_cell_formula_units_Z 32
_cell_length_a 20.039378
_cell_length_b 8.899083
_cell_length_c 25.125626
_cell_angle_alpha 90.000000
_cell_angle_beta 156.625455
_cell_angle_gamma 90.000000
_cell_volume 1777.675566
_symmetry_space_group_name_H-M "C M"
_symmetry_group_IT_number 8
_symmetry_cell_setting 'monoclinic'
loop_
_space_group_symop_operation_xyz
x,y,z
x,-y,z
1/2+x,1/2+y,z
1/2+x,1/2-y,z
loop_
_atom_site_type_symbol
_atom_site_label
_atom_site_fract_x
_atom_site_fract_y
_atom_site_fract_z
Si Si1 0.210520 0.823134 0.126130
Si Si2 0.519549 0.177724 0.801631
Si Si3 0.542070 0.827161 0.164150
Si Si4 0.331486 0.322705 0.837077
Si Si5 0.216730 0.677369 0.635585
Si Si6 0.345599 0.822279 0.335427
Si Si7 0.296807 0.825314 0.074666
Si Si8 0.222474 0.822925 0.860699
O O1 0.299087 0.753570 0.243209
O O2 0.318667 0.781644 0.152673
O O3 0.200421 0.000000 0.125722
O O4 0.021649 0.760858 0.981359
O O5 0.334833 0.236838 0.680571
O O6 0.571901 0.247236 0.783324
O O7 0.518616 0.000000 0.796298
O O8 0.647086 0.227522 0.941110
O O9 0.709093 0.730397 0.278661
O O10 0.471478 0.794879 0.171886
O O11 0.590287 0.000000 0.192074
O O12 0.400175 0.778857 0.017786
O O13 0.320826 0.500000 0.838828
O O14 0.261658 0.277067 0.728539
O O15 0.217231 0.240049 0.797168
O O16 0.237266 0.500000 0.641631
O O17 0.028419 0.735057 0.486340
O O18 0.342709 0.000000 0.332058
O O19 0.243173 0.000000 0.028758
O O20 0.193768 0.000000 0.840083
#
# Coordination Sequence:
#
# PCOD8052835 Si02
#       8
#     4   4   4   4   4   4   4   4
#     4   9  16  30  54  79 102 135 179 218 252 304
#     4  11  21  33  53  80 108 139 178 221 263 315
#     4   9  18  31  50  75 105 137 169 213 267 311
#     4  10  18  32  55  79 105 139 179 221 262 309
#     4  10  21  37  54  75 109 148 176 212 268 320
#     4  10  20  34  54  77 104 140 179 213 255 317
#     4   9  17  33  54  77 106 140 175 216 267 312
#     4  10  20  34  54  80 109 138 173 222 270 314
#
# _framework density 18.001035000000002
#
# number of rings (size 3 to 8) (size 9 to 14) (size 15 to 20)
#    0.000    2.250    2.500    2.250    0.000    3.000 
#    0.000    1.875    0.000    1.500    0.000    0.000 
#    0.000    0.000    0.000    0.000    0.000    0.000 
#
# Total GULP energy -198407.494119 kJ/mol
# GULP energy per Si atom -12400.468382 kJ/mol
# Density = 1.796006 g / cm^3
# Si number density = 18.001035 Si / 1000 Ang^3
#
#
#
# Elastic Constant Matrix: (Units=GPa)
#
#
# Indices 1 2 3 4 5 6 
#
# 1 156.0351 42.9054 72.7956 0.0009 12.1323 0.0000
# 2 42.9054 55.8803 36.6660 0.0043 9.5965 -0.0002
# 3 72.7956 36.6660 121.6477 0.0130 8.6512 0.0001
# 4 0.0009 0.0043 0.0130 18.0059 -0.0015 7.3228
# 5 12.1323 9.5965 8.6512 -0.0015 28.5807 -0.0006
# 6 0.0000 -0.0002 0.0001 7.3228 -0.0006 30.1605
#
#
#
# Elastic Compliance Matrix: (Units=1/GPa)
#
#
# Indices 1 2 3 4 5 6 
#
# 1 0.009788 -0.004368 -0.004445 0.000004 -0.001343 -0.000001
# 2 -0.004368 0.025161 -0.004600 -0.000003 -0.005202 0.000001
# 3 -0.004445 -0.004600 0.012288 -0.000008 -0.000288 0.000002
# 4 0.000004 -0.000003 -0.000008 0.061622 0.000005 -0.014962
# 5 -0.001343 -0.005202 -0.000288 0.000005 0.037392 -0.000001
# 6 -0.000001 0.000001 0.000002 -0.014962 -0.000001 0.036789
#
#
# Mechanical properties :
#
#
# Convention : Reuss Voigt Hill
#
# Bulk Modulus (GPa) = 48.99577 70.92189 59.95883
# Shear Modulus (GPa) = 23.07665 27.42916 25.25290
#
# Velocity S-wave (km/s) = 3.58433 3.90776 3.74954
# Velocity P-wave (km/s) = 6.66388 7.73596 7.21985
#
# Compressibility (1/GPa) = 0.02040992
#
# Stress axis : x y z
#
# Youngs Moduli (GPa) = 102.16376 39.74443 81.38326
#
# Poissons Ratio (x) = 0.17361 0.36177
# Poissons Ratio (y) = 0.44626 0.37436
# Poissons Ratio (z) = 0.45415 0.18282
#
# Static dielectric constant tensor:
#      x y z
#    x 3.544620 0.000000 0.001360 
#    y 0.000000 3.086260 0.000000 
#    z 0.001360 0.000000 3.230170 
# 
# 
# High freq. dielectric constant tensor:
#      x y z
#    x 1.713080 0.000000 0.008620 
#    y 0.000000 1.678760 0.000000 
#    z 0.008620 0.000000 1.668660 
# 
# From -- ./inp_files/16862.got.cif
#   From: 2010.03.12/outbox.cif.g09.slc.cpg/sg8_9_cif.got.tgz:16862.got - 2010.03.31 10:45:26.
