data_PCOD8052823
_publ_section_title
;
Structure prediction by ZEFSAII (Michael W. Deem and Ramdas Pophale) SiO2 
 PCOD8052823
Probable space group: C M
;
_chemical_formula_sum "Si O2"
_cell_formula_units_Z 32
_cell_length_a 20.297139
_cell_length_b 8.884843
_cell_length_c 20.100765
_cell_angle_alpha 90.000000
_cell_angle_beta 150.216196
_cell_angle_gamma 90.000000
_cell_volume 1800.596398
_symmetry_space_group_name_H-M "C M"
_symmetry_group_IT_number 8
_symmetry_cell_setting 'monoclinic'
loop_
_space_group_symop_operation_xyz
x,y,z
x,-y,z
1/2+x,1/2+y,z
1/2+x,1/2-y,z
loop_
_atom_site_type_symbol
_atom_site_label
_atom_site_fract_x
_atom_site_fract_y
_atom_site_fract_z
Si Si1 0.528500 0.678864 0.926290
Si Si2 0.254364 0.821259 0.722569
Si Si3 0.210420 0.323507 0.458231
Si Si4 0.053328 0.677570 0.444338
Si Si5 0.280487 0.322317 0.378439
Si Si6 0.069037 0.178030 0.675216
Si Si7 0.493161 0.321052 0.748794
Si Si8 0.761317 0.677877 0.225557
O O1 0.512629 0.500000 0.914836
O O2 0.398417 0.749748 0.844659
O O3 0.548670 0.737843 0.868089
O O4 0.655329 0.735258 0.078713
O O5 0.159598 0.764581 0.581256
O O6 0.192380 0.766707 0.738953
O O7 0.264821 0.000000 0.727411
O O8 0.233612 0.500000 0.474246
O O9 0.084316 0.283862 0.393809
O O10 0.194562 0.268417 0.367796
O O11 0.344007 0.256978 0.608831
O O12 0.068181 0.500000 0.470903
O O13 0.906193 0.737223 0.330666
O O14 0.272146 0.500000 0.359703
O O15 0.431614 0.266113 0.521652
O O16 0.220377 0.242369 0.261219
O O17 0.080877 0.236273 0.762322
O O18 0.063201 0.000000 0.671058
O O19 0.492894 0.500000 0.750110
O O20 0.761127 0.500000 0.229196
#
# Coordination Sequence:
#
# PCOD8052823 Si02
#       8
#     4   4   4   4   4   4   4   4
#     4  10  20  35  52  71 100 138 169 200 244 295
#     4  11  20  31  50  78 103 126 164 210 250 294
#     4   8  14  26  50  76  94 122 167 208 242 284
#     4  10  18  32  52  75 101 129 166 209 244 287
#     4   9  16  30  51  73 100 132 162 200 248 293
#     4   8  15  27  47  75 100 121 158 207 248 287
#     4   8  13  26  49  71  93 126 163 201 244 284
#     4  10  21  33  49  75 105 134 165 199 246 302
#
# _framework density 17.771889000000002
#
# number of rings (size 3 to 8) (size 9 to 14) (size 15 to 20)
#    0.000    2.750    2.500    1.875    0.000    0.500 
#    0.000    1.875    0.000    6.000    0.000    0.000 
#    0.000    0.000    0.000    0.000    0.000    0.000 
#
# Total GULP energy -198270.222798 kJ/mol
# GULP energy per Si atom -12391.888925 kJ/mol
# Density = 1.773144 g / cm^3
# Si number density = 17.771889 Si / 1000 Ang^3
#
#
#
# Elastic Constant Matrix: (Units=GPa)
#
#
# Indices 1 2 3 4 5 6 
#
# 1 155.0650 18.1640 63.7167 0.0000 -17.8453 0.0000
# 2 18.1640 15.5743 20.1782 0.0000 -0.1602 0.0000
# 3 63.7167 20.1782 101.1786 0.0000 -12.7944 0.0000
# 4 0.0000 0.0000 0.0000 15.1409 0.0000 -1.3805
# 5 -17.8453 -0.1602 -12.7944 0.0000 30.3729 0.0000
# 6 0.0000 0.0000 0.0000 -1.3805 0.0000 23.1211
#
#
#
# Elastic Compliance Matrix: (Units=1/GPa)
#
#
# Indices 1 2 3 4 5 6 
#
# 1 0.009247 -0.005108 -0.004353 0.000000 0.003572 0.000000
# 2 -0.005108 0.090918 -0.016091 0.000000 -0.009300 0.000000
# 3 -0.004353 -0.016091 0.016372 0.000000 0.004254 0.000000
# 4 0.000000 0.000000 0.000000 0.066408 0.000000 0.003965
# 5 0.003572 -0.009300 0.004254 0.000000 0.036766 0.000000
# 6 0.000000 0.000000 0.000000 0.003965 0.000000 0.043487
#
#
# Mechanical properties :
#
#
# Convention : Reuss Voigt Hill
#
# Bulk Modulus (GPa) = 15.28291 52.88174 34.08233
# Shear Modulus (GPa) = 14.87594 25.04423 19.96009
#
# Velocity S-wave (km/s) = 2.89632 3.75801 3.35494
# Velocity P-wave (km/s) = 4.45006 6.97500 5.85037
#
# Compressibility (1/GPa) = 0.06543255
#
# Stress axis : x y z
#
# Youngs Moduli (GPa) = 108.14363 10.99889 61.08128
#
# Poissons Ratio (x) = 0.05619 0.26587
# Poissons Ratio (y) = 0.55244 0.98286
# Poissons Ratio (z) = 0.47072 0.17698
#
# Static dielectric constant tensor:
#      x y z
#    x 3.939130 0.000000 -0.106820 
#    y 0.000000 2.892630 0.000000 
#    z -0.106820 0.000000 3.199620 
# 
# 
# High freq. dielectric constant tensor:
#      x y z
#    x 1.710730 0.000000 -0.009530 
#    y 0.000000 1.645480 0.000000 
#    z -0.009530 0.000000 1.658830 
# 
# From -- ./inp_files/16948.got.cif
#   From: 2010.03.12/outbox.cif.g09.slc.cpg/sg8_9_cif.got.tgz:16948.got - 2010.03.31 10:45:26.
