data_PCOD8052637
_publ_section_title
;
Structure prediction by ZEFSAII (Michael W. Deem and Ramdas Pophale) SiO2 
 PCOD8052637
Probable space group: P C
;
_chemical_formula_sum "Si O2"
_cell_formula_units_Z 12
_cell_length_a 12.766698
_cell_length_b 8.006490
_cell_length_c 5.260066
_cell_angle_alpha 90.000000
_cell_angle_beta 103.943816
_cell_angle_gamma 90.000000
_cell_volume 521.821563
_symmetry_space_group_name_H-M "P C"
_symmetry_group_IT_number 7
_symmetry_cell_setting 'monoclinic'
loop_
_space_group_symop_operation_xyz
x,y,z
x,-y,1/2+z
loop_
_atom_site_type_symbol
_atom_site_label
_atom_site_fract_x
_atom_site_fract_y
_atom_site_fract_z
Si Si1 0.142030 0.112973 0.750000
Si Si2 0.286910 0.409814 0.832248
Si Si3 0.791838 0.101259 0.542776
Si Si4 0.954667 0.386773 0.639072
Si Si5 0.537367 0.907912 0.884229
Si Si6 0.519949 0.453018 0.448583
O O1 0.255200 0.214237 0.814599
O O2 0.048999 0.250871 0.693697
O O3 0.133554 0.998198 0.496960
O O4 0.237795 0.499321 0.552959
O O5 0.416780 0.423872 0.910113
O O6 0.664108 0.128866 0.471382
O O7 0.829374 0.000556 0.314324
O O8 0.842404 0.285192 0.573363
O O9 0.961837 0.499788 0.893480
O O10 0.477075 0.734996 0.904643
O O11 0.501493 0.033116 0.085147
O O12 0.589636 0.512202 0.244417
#
# Coordination Sequence:
#
# PCOD8052637 Si02
#       6
#     2   2   2   2   2   2
#     4  12  24  41  64  88 118 158 200 242 296 355
#     4  10  21  41  60  84 117 152 193 246 299 346
#     4  10  21  39  60  87 124 159 197 242 288 345
#     4  12  24  39  62  92 123 156 197 242 293 351
#     4  10  21  38  61  88 119 158 200 242 291 349
#     4  10  21  38  59  83 117 155 193 246 299 346
#
# _framework density 22.996369999999999
#
# number of rings (size 3 to 8) (size 9 to 14) (size 15 to 20)
#    0.000    1.333    0.000    6.000    0.000    1.333 
#    0.000   20.000    0.000    0.000    0.000    0.000 
#    0.000    0.000    0.000    0.000    0.000    0.000 
#
# Total GULP energy -148765.374636 kJ/mol
# GULP energy per Si atom -12397.114553 kJ/mol
# Density = 2.294403 g / cm^3
# Si number density = 22.996370 Si / 1000 Ang^3
#
#
#
# Elastic Constant Matrix: (Units=GPa)
#
#
# Indices 1 2 3 4 5 6 
#
# 1 22.3062 22.7411 42.9352 0.0000 -9.2712 0.0000
# 2 22.7411 138.3546 78.9015 0.0000 -22.3652 0.0000
# 3 42.9352 78.9015 201.5395 0.0000 -60.2151 0.0000
# 4 0.0000 0.0000 0.0000 59.5767 0.0000 -8.0145
# 5 -9.2712 -22.3652 -60.2151 0.0000 29.6231 0.0000
# 6 0.0000 0.0000 0.0000 -8.0145 0.0000 45.9017
#
#
#
# Elastic Compliance Matrix: (Units=1/GPa)
#
#
# Indices 1 2 3 4 5 6 
#
# 1 0.084864 -0.004398 -0.023974 0.000000 -0.025492 0.000000
# 2 -0.004398 0.009544 -0.002694 0.000000 0.000353 0.000000
# 3 -0.023974 -0.002694 0.021072 0.000000 0.033295 0.000000
# 4 0.000000 0.000000 0.000000 0.017189 0.000000 0.003001
# 5 -0.025492 0.000353 0.033295 0.000000 0.093726 0.000000
# 6 0.000000 0.000000 0.000000 0.003001 0.000000 0.022310
#
#
# Mechanical properties :
#
#
# Convention : Reuss Voigt Hill
#
# Bulk Modulus (GPa) = 18.74472 72.37287 45.55880
# Shear Modulus (GPa) = 15.21526 41.52847 28.37186
#
# Velocity S-wave (km/s) = 2.57502 4.25416 3.51629
# Velocity P-wave (km/s) = 4.12430 7.46125 6.02827
#
# Compressibility (1/GPa) = 0.05334836
#
# Stress axis : x y z
#
# Youngs Moduli (GPa) = 11.78359 104.77634 47.45727
#
# Poissons Ratio (x) = 0.46080 1.13772
# Poissons Ratio (y) = 0.05182 0.12785
# Poissons Ratio (z) = 0.28249 0.28227
#
# Static dielectric constant tensor:
#      x y z
#    x 4.001880 0.000000 -0.359120 
#    y 0.000000 4.344000 0.000000 
#    z -0.359120 0.000000 5.231190 
# 
# 
# High freq. dielectric constant tensor:
#      x y z
#    x 1.884330 0.000000 -0.018160 
#    y 0.000000 1.919640 0.000000 
#    z -0.018160 0.000000 1.938760 
# 
# From -- ./inp_files/1199.got.cif
#   From: 2010.03.12/outbox.cif.g09.slc.cpg/sg7_cif.got.tgz:1199.got - 2010.03.30 08:40:41.
