data_PCOD8052618
_publ_section_title
;
Structure prediction by ZEFSAII (Michael W. Deem and Ramdas Pophale) SiO2 
 PCOD8052618
Probable space group: P C
;
_chemical_formula_sum "Si O2"
_cell_formula_units_Z 14
_cell_length_a 6.775257
_cell_length_b 14.673532
_cell_length_c 5.252943
_cell_angle_alpha 90.000000
_cell_angle_beta 104.049957
_cell_angle_gamma 90.000000
_cell_volume 506.608714
_symmetry_space_group_name_H-M "P C"
_symmetry_group_IT_number 7
_symmetry_cell_setting 'monoclinic'
loop_
_space_group_symop_operation_xyz
x,y,z
x,-y,1/2+z
loop_
_atom_site_type_symbol
_atom_site_label
_atom_site_fract_x
_atom_site_fract_y
_atom_site_fract_z
Si Si1 0.036700 0.446355 0.074920
Si Si2 0.050932 0.948456 0.572580
Si Si3 0.679622 0.261311 0.427825
Si Si4 0.520921 0.549313 0.719522
Si Si5 0.030648 0.747995 0.378881
Si Si6 0.468243 0.212164 0.879355
Si Si7 0.489795 0.982150 0.226203
O O1 0.956876 0.490248 0.315183
O O2 0.279409 0.444543 0.157555
O O3 0.960092 0.340990 0.019034
O O4 0.983529 0.842313 0.517208
O O5 0.967692 0.990282 0.811318
O O6 0.297959 0.949274 0.644763
O O7 0.628340 0.354866 0.276761
O O8 0.917862 0.248068 0.567474
O O9 0.580850 0.260996 0.680480
O O10 0.603128 0.192127 0.179634
O O11 0.600005 0.515602 0.470169
O O12 0.267543 0.731984 0.390289
O O13 0.398268 0.117292 0.734925
O O14 0.626033 0.011142 0.512892
#
# Coordination Sequence:
#
# PCOD8052618 Si02
#       7
#     2   2   2   2   2   2   2
#     4  10  24  42  72 107 136 192 245 285 367 434
#     4  10  22  40  71 105 135 191 239 283 372 419
#     4  12  29  45  71 116 134 196 251 282 376 438
#     4  10  21  42  69  97 144 183 233 308 354 420
#     4  12  27  49  80 102 156 192 236 314 360 430
#     4  12  26  47  73 102 150 187 239 303 354 435
#     4  10  19  39  70  97 133 191 235 279 367 412
#
# _framework density 27.634741000000002
#
# number of rings (size 3 to 8) (size 9 to 14) (size 15 to 20)
#    0.000    1.143    4.286    1.714    6.000    5.714 
#    0.000    4.286    0.000    0.000    0.000    0.000 
#    0.000    0.000    0.000    0.000    0.000    0.000 
#
# Total GULP energy -173495.333164 kJ/mol
# GULP energy per Si atom -12392.523797 kJ/mol
# Density = 2.757184 g / cm^3
# Si number density = 27.634741 Si / 1000 Ang^3
#
#
#
# Elastic Constant Matrix: (Units=GPa)
#
#
# Indices 1 2 3 4 5 6 
#
# 1 40.3424 -6.6975 56.3920 0.0000 -7.3569 0.0000
# 2 -6.6975 143.1447 81.1017 0.0000 -22.2866 0.0000
# 3 56.3920 81.1017 256.2920 0.0000 -21.6589 0.0000
# 4 0.0000 0.0000 0.0000 58.3343 0.0000 2.6631
# 5 -7.3569 -22.2866 -21.6589 0.0000 59.1334 0.0000
# 6 0.0000 0.0000 0.0000 2.6631 0.0000 -4.7542
#
#
#
# Elastic Compliance Matrix: (Units=1/GPa)
#
#
# Indices 1 2 3 4 5 6 
#
# 1 0.045054 0.010035 -0.012688 0.000000 0.004740 0.000000
# 2 0.010035 0.011059 -0.005417 0.000000 0.003432 0.000000
# 3 -0.012688 -0.005417 0.008361 0.000000 -0.000558 0.000000
# 4 0.000000 0.000000 0.000000 0.016715 0.000000 0.009363
# 5 0.004740 0.003432 -0.000558 0.000000 0.018590 0.000000
# 6 0.000000 0.000000 0.000000 0.009363 0.000000 -0.205094
#
#
# Mechanical properties :
#
#
# Convention : Reuss Voigt Hill
#
# Bulk Modulus (GPa) = 20.69013 77.93016 49.31015
# Shear Modulus (GPa) = -68.43483 43.14155 -12.64664
#
# Velocity S-wave (km/s) = -4.98175 3.95541 -2.14156
# Velocity P-wave (km/s) = 5.05838 7.00868 3.43034
#
# Compressibility (1/GPa) = 0.04833223
#
# Stress axis : x y z
#
# Youngs Moduli (GPa) = 22.19557 90.42225 119.60673
#
# Poissons Ratio (x) = -0.90736 1.51758
# Poissons Ratio (y) = -0.22273 0.64797
# Poissons Ratio (z) = 0.28162 0.48986
#
# Static dielectric constant tensor:
#      x y z
#    x 4.777080 0.000000 -0.160560 
#    y 0.000000 4.954500 0.000000 
#    z -0.160560 0.000000 6.258970 
# 
# 
# High freq. dielectric constant tensor:
#      x y z
#    x 2.109590 0.000000 0.001920 
#    y 0.000000 2.115830 0.000000 
#    z 0.001920 0.000000 2.145860 
# 
# From -- ./inp_files/779.got.cif
#   From: 2010.03.12/outbox.cif.g09.slc.cpg/sg7_cif.got.tgz:779.got - 2010.03.30 08:40:41.
