data_PCOD8052102
_publ_section_title
;
Structure prediction by ZEFSAII (Michael W. Deem and Ramdas Pophale) SiO2 
 PCOD8052102
Probable space group: C 2
;
_chemical_formula_sum "Si O2"
_cell_formula_units_Z 26
_cell_length_a 11.918257
_cell_length_b 18.969530
_cell_length_c 5.704053
_cell_angle_alpha 90.000000
_cell_angle_beta 125.852800
_cell_angle_gamma 90.000000
_cell_volume 1045.247100
_symmetry_space_group_name_H-M "C 2"
_symmetry_group_IT_number 5
_symmetry_cell_setting 'monoclinic'
loop_
_space_group_symop_operation_xyz
x,y,z
-x,y,-z
1/2+x,1/2+y,z
1/2-x,1/2+y,-z
loop_
_atom_site_type_symbol
_atom_site_label
_atom_site_fract_x
_atom_site_fract_y
_atom_site_fract_z
Si Si1 0.000000 0.335620 0.500000
Si Si2 0.429553 0.099410 0.158183
Si Si3 0.829115 0.453441 0.098972
Si Si4 0.355830 0.358068 0.419178
Si Si5 0.857947 0.247898 0.687836
Si Si6 0.642132 0.483615 0.282656
Si Si7 0.655549 0.615748 0.604288
O O1 0.071603 0.385801 0.776429
O O2 0.118255 0.288391 0.527413
O O3 0.500000 0.120204 0.500000
O O4 0.424448 0.015108 0.112275
O O5 0.500000 0.129023 0.000000
O O6 0.268319 0.127179 0.952114
O O7 0.773643 0.486933 0.273275
O O8 0.697487 0.424734 0.797304
O O9 0.500000 0.328311 0.500000
O O10 0.258665 0.289709 0.310947
O O11 0.377832 0.399925 0.688911
O O12 0.809158 0.168996 0.566517
O O13 0.000000 0.246116 0.000000
O O14 0.675561 0.535590 0.540861
O O15 0.500000 0.513466 0.000000
O O16 0.500000 0.631269 0.500000
#
# Coordination Sequence:
#
# PCOD8052102 Si02
#       7
#     2   4   4   4   4   4   4
#     4  12  24  44  74 108 146 202 266 328 390 480
#     4  12  28  49  79 123 163 214 267 344 418 484
#     4  12  24  41  75 112 153 198 264 332 402 483
#     4  12  25  45  74 116 155 203 263 337 414 478
#     4  12  27  48  77 110 157 215 272 325 401 496
#     4  12  23  42  73 110 153 203 262 334 405 475
#     4  12  27  51  78 114 159 212 271 331 410 495
#
# _framework density 24.874500999999999
#
# number of rings (size 3 to 8) (size 9 to 14) (size 15 to 20)
#    0.000    0.000    7.692    2.769    2.154    1.231 
#    0.000    6.154    0.000    0.000    0.000    0.000 
#    0.000    0.000    0.000    0.000    0.000    0.000 
#
# Total GULP energy -161097.854737 kJ/mol
# GULP energy per Si atom -12392.142672 kJ/mol
# Density = 2.481789 g / cm^3
# Si number density = 24.874501 Si / 1000 Ang^3
#
#
#
# Elastic Constant Matrix: (Units=GPa)
#
#
# Indices 1 2 3 4 5 6 
#
# 1 115.9134 26.4024 45.4678 0.0000 10.5854 0.0000
# 2 26.4024 107.0175 28.9250 0.0000 9.8999 0.0000
# 3 45.4678 28.9250 141.0101 0.0000 20.9291 0.0000
# 4 0.0000 0.0000 0.0000 36.4873 0.0000 -5.6850
# 5 10.5854 9.8999 20.9291 0.0000 38.2475 0.0000
# 6 0.0000 0.0000 0.0000 -5.6850 0.0000 24.1466
#
#
#
# Elastic Compliance Matrix: (Units=1/GPa)
#
#
# Indices 1 2 3 4 5 6 
#
# 1 0.010191 -0.001675 -0.002817 0.000000 -0.000846 0.000000
# 2 -0.001675 0.010256 -0.001348 0.000000 -0.001454 0.000000
# 3 -0.002817 -0.001348 0.008826 0.000000 -0.003701 0.000000
# 4 0.000000 0.000000 0.000000 0.028450 0.000000 0.006698
# 5 -0.000846 -0.001454 -0.003701 0.000000 0.028781 0.000000
# 6 0.000000 0.000000 0.000000 0.006698 0.000000 0.042991
#
#
# Mechanical properties :
#
#
# Convention : Reuss Voigt Hill
#
# Bulk Modulus (GPa) = 56.83914 62.83681 59.83798
# Shear Modulus (GPa) = 34.00466 37.31933 35.66200
#
# Velocity S-wave (km/s) = 3.70137 3.87758 3.79050
# Velocity P-wave (km/s) = 6.41614 6.73527 6.57764
#
# Compressibility (1/GPa) = 0.01759351
#
# Stress axis : x y z
#
# Youngs Moduli (GPa) = 98.12835 97.50154 113.30365
#
# Poissons Ratio (x) = 0.16327 0.31917
# Poissons Ratio (y) = 0.16432 0.15275
# Poissons Ratio (z) = 0.27642 0.13145
#
# Static dielectric constant tensor:
#      x y z
#    x 4.452710 0.000000 0.115980 
#    y 0.000000 4.251900 0.000000 
#    z 0.115980 0.000000 4.721640 
# 
# 
# High freq. dielectric constant tensor:
#      x y z
#    x 1.985370 0.000000 0.011710 
#    y 0.000000 1.982210 0.000000 
#    z 0.011710 0.000000 1.995510 
# 
# From -- ./inp_files/5698.got.cif
#   From: 2010.03.12/outbox.cif.g09.slc.cpg/sg5_3_cif.got.tgz:5698.got - 2010.03.31 09:47:26.
