data_PCOD8052778
_publ_section_title
;
Structure prediction by ZEFSAII (Michael W. Deem and Ramdas Pophale) SiO2 
 PCOD8052778
Probable space group: C M
;
_chemical_formula_sum "Si O2"
_cell_formula_units_Z 32
_cell_length_a 24.698458
_cell_length_b 8.860194
_cell_length_c 25.842647
_cell_angle_alpha 90.000000
_cell_angle_beta 17.111385
_cell_angle_gamma 90.000000
_cell_volume 1663.938896
_symmetry_space_group_name_H-M "C M"
_symmetry_group_IT_number 8
_symmetry_cell_setting 'monoclinic'
loop_
_space_group_symop_operation_xyz
x,y,z
x,-y,z
1/2+x,1/2+y,z
1/2+x,1/2-y,z
loop_
_atom_site_type_symbol
_atom_site_label
_atom_site_fract_x
_atom_site_fract_y
_atom_site_fract_z
Si Si1 0.530520 0.821035 0.693450
Si Si2 0.059287 0.827373 0.356245
Si Si3 0.814264 0.678459 0.991594
Si Si4 0.645929 0.325364 0.386879
Si Si5 0.034218 0.321523 0.990797
Si Si6 0.923136 0.176146 0.992301
Si Si7 0.414194 0.321026 0.692795
Si Si8 0.910538 0.825341 0.387752
O O1 0.463644 0.749880 0.701850
O O2 0.731877 0.751905 0.523968
O O3 0.537928 0.000000 0.681021
O O4 0.386981 0.773438 0.869012
O O5 0.007694 0.801247 0.463649
O O6 0.216447 0.708968 0.199059
O O7 0.895745 0.801055 0.464056
O O8 0.134919 0.000000 0.280544
O O9 0.821472 0.500000 0.993249
O O10 0.948192 0.751366 0.912493
O O11 0.603998 0.740400 0.189406
O O12 0.669031 0.500000 0.378097
O O13 0.552360 0.251902 0.522940
O O14 0.849020 0.259549 0.188542
O O15 0.023680 0.500000 0.992511
O O16 0.206823 0.273275 0.867981
O O17 0.058055 0.248678 0.912071
O O18 0.963088 0.000000 0.952345
O O19 0.431441 0.500000 0.680484
O O20 0.904772 0.000000 0.379233
#
# Coordination Sequence:
#
# PCOD8052778 Si02
#       8
#     4   4   4   4   4   4   4   4
#     4  10  21  35  51  72  98 131 172 211 245 287
#     4   8  14  29  52  74  99 129 162 199 241 300
#     4   9  18  34  54  73  98 134 168 198 241 299
#     4   8  15  30  52  75  96 122 160 203 243 288
#     4   9  18  34  54  73  98 134 168 198 241 299
#     4  10  18  29  50  80 107 127 156 203 253 296
#     4  10  21  35  51  72  98 131 172 211 245 287
#     4   8  15  30  52  75  96 122 160 203 243 288
#
# _framework density 19.231476000000001
#
# number of rings (size 3 to 8) (size 9 to 14) (size 15 to 20)
#    0.000    3.000    0.000    2.625    0.000    3.000 
#    0.000    8.750    0.000    6.000    0.000    0.000 
#    0.000    0.000    0.000    0.000    0.000    0.000 
#
# Total GULP energy -198231.583837 kJ/mol
# GULP energy per Si atom -12389.473990 kJ/mol
# Density = 1.918770 g / cm^3
# Si number density = 19.231476 Si / 1000 Ang^3
#
#
#
# Elastic Constant Matrix: (Units=GPa)
#
#
# Indices 1 2 3 4 5 6 
#
# 1 205.5560 36.6005 92.8632 -0.0188 3.5385 0.0056
# 2 36.6005 34.8790 23.8449 0.0065 1.1382 0.0102
# 3 92.8632 23.8449 111.4415 0.0358 4.9557 -0.0113
# 4 -0.0188 0.0065 0.0358 11.5032 0.0052 2.0070
# 5 3.5385 1.1382 4.9557 0.0052 36.3781 -0.0025
# 6 0.0056 0.0102 -0.0113 2.0070 -0.0025 32.7877
#
#
#
# Elastic Compliance Matrix: (Units=1/GPa)
#
#
# Indices 1 2 3 4 5 6 
#
# 1 0.008420 -0.004731 -0.006011 0.000036 0.000148 -0.000004
# 2 -0.004731 0.036242 -0.003805 -0.000014 -0.000155 -0.000011
# 3 -0.006011 -0.003805 0.014855 -0.000055 -0.001320 0.000011
# 4 0.000036 -0.000014 -0.000055 0.087871 -0.000008 -0.005379
# 5 0.000148 -0.000155 -0.001320 -0.000008 0.027659 0.000002
# 6 -0.000004 -0.000011 0.000011 -0.005379 0.000002 0.030828
#
#
# Mechanical properties :
#
#
# Convention : Reuss Voigt Hill
#
# Bulk Modulus (GPa) = 32.87030 73.16598 53.01814
# Shear Modulus (GPa) = 20.39895 29.37166 24.88531
#
# Velocity S-wave (km/s) = 3.26038 3.91227 3.60111
# Velocity P-wave (km/s) = 5.59486 7.65084 6.70216
#
# Compressibility (1/GPa) = 0.03042260
#
# Stress axis : x y z
#
# Youngs Moduli (GPa) = 118.76219 27.59240 67.31824
#
# Poissons Ratio (x) = 0.13055 0.40463
# Poissons Ratio (y) = 0.56192 0.25615
# Poissons Ratio (z) = 0.71384 0.10499
#
# Static dielectric constant tensor:
#      x y z
#    x 3.855760 0.000030 0.020430 
#    y 0.000030 3.044730 0.000030 
#    z 0.020430 0.000030 3.635380 
# 
# 
# High freq. dielectric constant tensor:
#      x y z
#    x 1.758380 0.000000 0.002200 
#    y 0.000000 1.702460 0.000000 
#    z 0.002200 0.000000 1.734990 
# 
# From -- ./inp_files/32403.got.cif
#   From: 2010.03.12/outbox.cif.g09.slc.cpg/sg8_17_cif.got.tgz:32403.got - 2010.03.31 10:45:26.
