data_PCOD8052234
_publ_section_title
;
Structure prediction by ZEFSAII (Michael W. Deem and Ramdas Pophale) SiO2 
 PCOD8052234
Probable space group: P M
;
_chemical_formula_sum "Si O2"
_cell_formula_units_Z 16
_cell_length_a 11.664110
_cell_length_b 8.821132
_cell_length_c 9.657165
_cell_angle_alpha 90.000000
_cell_angle_beta 108.902904
_cell_angle_gamma 90.000000
_cell_volume 940.044394
_symmetry_space_group_name_H-M "P M"
_symmetry_group_IT_number 6
_symmetry_cell_setting 'monoclinic'
loop_
_space_group_symop_operation_xyz
x,y,z
x,-y,z
loop_
_atom_site_type_symbol
_atom_site_label
_atom_site_fract_x
_atom_site_fract_y
_atom_site_fract_z
Si Si1 0.322620 0.180362 0.713370
Si Si2 0.137576 0.320268 0.437332
Si Si3 0.598221 0.821350 0.786387
Si Si4 0.951283 0.826948 0.561955
Si Si5 0.821372 0.330162 0.968289
Si Si6 0.063513 0.819168 0.130973
Si Si7 0.755076 0.330215 0.643813
Si Si8 0.146711 0.827942 0.871926
O O1 0.257696 0.258896 0.558574
O O2 0.462328 0.227904 0.770148
O O3 0.260777 0.241804 0.831640
O O4 0.303052 0.000000 0.690889
O O5 0.139892 0.500000 0.434204
O O6 0.140059 0.253465 0.284206
O O7 0.015274 0.265867 0.465213
O O8 0.633236 0.757958 0.646431
O O9 0.614259 0.000000 0.792559
O O10 0.689044 0.749286 0.937152
O O11 0.819409 0.756087 0.541874
O O12 0.027809 0.815475 0.731844
O O13 0.936046 0.000000 0.507086
O O14 0.818750 0.500000 0.029652
O O15 0.923918 0.233760 0.085389
O O16 0.846194 0.335307 0.812087
O O17 0.066317 0.000000 0.140158
O O18 0.122764 0.752230 0.012118
O O19 0.720847 0.500000 0.582433
O O20 0.178882 0.000000 0.917151
#
# Coordination Sequence:
#
# PCOD8052234 Si02
#       8
#     2   2   2   2   2   2   2   2
#     4   9  18  34  52  74  99 129 171 212 247 292
#     4  11  23  34  47  71 106 138 163 201 258 307
#     4   9  16  28  49  74  99 128 167 210 248 291
#     4  10  17  31  51  73  98 126 167 206 245 298
#     4   9  18  29  46  73 103 127 158 203 250 298
#     4  11  19  32  52  74 100 132 168 203 251 306
#     4   9  17  27  45  73 102 126 155 200 249 292
#     4   8  15  27  48  72  93 120 159 207 246 282
#
# _framework density 17.020472999999999
#
# number of rings (size 3 to 8) (size 9 to 14) (size 15 to 20)
#    0.750    1.750    1.250    3.375    0.000    1.000 
#    0.000    0.625    0.000    1.500    0.000    3.500 
#    0.000    0.000    0.000    0.000    0.000    0.000 
#
# Total GULP energy -198262.257092 kJ/mol
# GULP energy per Si atom -12391.391068 kJ/mol
# Density = 1.698173 g / cm^3
# Si number density = 17.020473 Si / 1000 Ang^3
#
#
#
# Elastic Constant Matrix: (Units=GPa)
#
#
# Indices 1 2 3 4 5 6 
#
# 1 121.6208 48.0196 38.9281 0.0000 -2.4307 0.0000
# 2 48.0196 100.5733 33.5857 0.0000 -0.9933 0.0000
# 3 38.9281 33.5857 85.1903 0.0000 -4.0849 0.0000
# 4 0.0000 0.0000 0.0000 21.0487 0.0000 -1.0418
# 5 -2.4307 -0.9933 -4.0849 0.0000 14.5178 0.0000
# 6 0.0000 0.0000 0.0000 -1.0418 0.0000 18.7268
#
#
#
# Elastic Compliance Matrix: (Units=1/GPa)
#
#
# Indices 1 2 3 4 5 6 
#
# 1 0.010921 -0.004090 -0.003349 0.000000 0.000606 0.000000
# 2 -0.004090 0.012986 -0.003285 0.000000 -0.000721 0.000000
# 3 -0.003349 -0.003285 0.014725 0.000000 0.003358 0.000000
# 4 0.000000 0.000000 0.000000 0.047640 0.000000 0.002650
# 5 0.000606 -0.000721 0.003358 0.000000 0.069878 0.000000
# 6 0.000000 0.000000 0.000000 0.002650 0.000000 0.053547
#
#
# Mechanical properties :
#
#
# Convention : Reuss Voigt Hill
#
# Bulk Modulus (GPa) = 58.19510 60.93900 59.56705
# Shear Modulus (GPa) = 21.10835 23.31539 22.21187
#
# Velocity S-wave (km/s) = 3.52543 3.70516 3.61641
# Velocity P-wave (km/s) = 7.13001 7.36107 7.24646
#
# Compressibility (1/GPa) = 0.01718358
#
# Stress axis : x y z
#
# Youngs Moduli (GPa) = 91.56505 77.00737 67.91233
#
# Poissons Ratio (x) = 0.31497 0.22743
# Poissons Ratio (y) = 0.37451 0.22310
# Poissons Ratio (z) = 0.30664 0.25298
#
# Static dielectric constant tensor:
#      x y z
#    x 3.122120 0.000000 -0.177870 
#    y 0.000000 3.136050 0.000000 
#    z -0.177870 0.000000 2.947630 
# 
# 
# High freq. dielectric constant tensor:
#      x y z
#    x 1.644240 0.000000 -0.013710 
#    y 0.000000 1.660240 0.000000 
#    z -0.013710 0.000000 1.620430 
# 
# From -- ./inp_files/3635.got.cif
#   From: 2010.03.12/outbox.cif.g09.slc.cpg/sg6_2_cif.got.tgz:3635.got - 2010.03.30 10:24:59.
