data_PCOD8052025
_publ_section_title
;
Structure prediction by ZEFSAII (Michael W. Deem and Ramdas Pophale) SiO2 
 PCOD8052025
Probable space group: C 2
;
_chemical_formula_sum "Si O2"
_cell_formula_units_Z 28
_cell_length_a 13.983752
_cell_length_b 5.313837
_cell_length_c 19.023761
_cell_angle_alpha 90.000000
_cell_angle_beta 52.690327
_cell_angle_gamma 90.000000
_cell_volume 1124.341301
_symmetry_space_group_name_H-M "C 2"
_symmetry_group_IT_number 5
_symmetry_cell_setting 'monoclinic'
loop_
_space_group_symop_operation_xyz
x,y,z
-x,y,-z
1/2+x,1/2+y,z
1/2-x,1/2+y,-z
loop_
_atom_site_type_symbol
_atom_site_label
_atom_site_fract_x
_atom_site_fract_y
_atom_site_fract_z
Si Si1 0.000000 0.446630 0.000000
Si Si2 0.000000 0.702292 0.500000
Si Si3 0.188909 0.058295 0.445806
Si Si4 0.073346 0.625869 0.224990
Si Si5 0.808128 0.305741 0.192844
Si Si6 0.064266 0.376025 0.601711
Si Si7 0.666532 0.310522 0.726868
Si Si8 0.322987 0.090153 0.965597
O O1 0.088727 0.275778 0.912964
O O2 0.919527 0.622526 0.985020
O O3 0.983396 0.554371 0.436727
O O4 0.878708 0.857158 0.572031
O O5 0.090017 0.112286 0.551612
O O6 0.306909 0.952386 0.427452
O O7 0.224728 0.292611 0.378844
O O8 0.177621 0.790342 0.214746
O O9 0.115388 0.499212 0.133868
O O10 0.033211 0.388294 0.292168
O O11 0.959149 0.804951 0.259976
O O12 0.823385 0.574456 0.224214
O O13 0.825862 0.075943 0.238316
O O14 0.268357 0.365501 0.975370
#
# Coordination Sequence:
#
# PCOD8052025 Si02
#       8
#     2   2   4   4   4   4   4   4
#     4  12  28  50  80 112 152 192 248 308 376 446
#     4  12  24  44  72  98 146 194 242 302 366 428
#     4  11  25  46  72 104 146 197 245 305 366 434
#     4  11  27  49  76 110 151 196 250 309 367 444
#     4  12  28  48  77 114 147 198 248 303 378 445
#     4  11  25  48  70 107 146 195 248 302 364 435
#     4  11  29  48  74 110 155 193 249 310 366 439
#     4  12  29  51  78 110 151 193 245 306 379 444
#
# _framework density 24.903471
#
# number of rings (size 3 to 8) (size 9 to 14) (size 15 to 20)
#    0.000    0.571    4.286    1.286   10.000    2.286 
#    2.571    0.000    0.000    0.000    0.000    0.000 
#    0.000    0.000    0.000    0.000    0.000    0.000 
#
# Total GULP energy -173529.517408 kJ/mol
# GULP energy per Si atom -12394.965529 kJ/mol
# Density = 2.484679 g / cm^3
# Si number density = 24.903471 Si / 1000 Ang^3
#
#
#
# Elastic Constant Matrix: (Units=GPa)
#
#
# Indices 1 2 3 4 5 6 
#
# 1 195.5164 43.0670 24.2667 -0.0012 27.2492 0.0077
# 2 43.0670 88.6674 2.7612 0.0074 39.8042 0.0177
# 3 24.2667 2.7612 107.4987 -0.0015 24.2446 -0.0012
# 4 -0.0012 0.0074 -0.0015 26.3913 -0.0035 9.5114
# 5 27.2492 39.8042 24.2446 -0.0035 96.6234 -0.0029
# 6 0.0077 0.0177 -0.0012 9.5114 -0.0029 29.9246
#
#
#
# Elastic Compliance Matrix: (Units=1/GPa)
#
#
# Indices 1 2 3 4 5 6 
#
# 1 0.005897 -0.002719 -0.001207 0.000001 -0.000240 0.000000
# 2 -0.002719 0.015190 0.001550 -0.000002 -0.005880 -0.000008
# 3 -0.001207 0.001550 0.010178 0.000000 -0.002852 0.000000
# 4 0.000001 -0.000002 0.000000 0.042793 0.000002 -0.013602
# 5 -0.000240 -0.005880 -0.002852 0.000002 0.013555 0.000004
# 6 0.000000 -0.000008 0.000000 -0.013602 0.000004 0.037741
#
#
# Mechanical properties :
#
#
# Convention : Reuss Voigt Hill
#
# Bulk Modulus (GPa) = 37.71836 59.09692 48.40764
# Shear Modulus (GPa) = 35.98574 52.02703 44.00638
#
# Velocity S-wave (km/s) = 3.80545 4.57568 4.20822
# Velocity P-wave (km/s) = 5.87259 7.19011 6.56449
#
# Compressibility (1/GPa) = 0.02651229
#
# Stress axis : x y z
#
# Youngs Moduli (GPa) = 169.58265 65.83346 98.24794
#
# Poissons Ratio (x) = 0.17899 0.11860
# Poissons Ratio (y) = 0.46106 -0.15225
# Poissons Ratio (z) = 0.20472 -0.10202
#
# Static dielectric constant tensor:
#      x y z
#    x 5.001850 -0.000030 -0.007660 
#    y -0.000030 4.031840 -0.000010 
#    z -0.007660 -0.000010 5.246410 
# 
# 
# High freq. dielectric constant tensor:
#      x y z
#    x 2.026570 0.000000 0.003260 
#    y 0.000000 1.961650 0.000000 
#    z 0.003260 0.000000 2.009850 
# 
# From -- ./inp_files/65656.got.cif
#   From: 2010.03.12/outbox.cif.g09.slc.cpg/sg5_33_cif.got.tgz:65656.got - 2010.03.31 09:47:26.
