data_PCOD8052540
_publ_section_title
;
Structure prediction by ZEFSAII (Michael W. Deem and Ramdas Pophale) SiO2 
 PCOD8052540
Probable space group: P M
;
_chemical_formula_sum "Si O2"
_cell_formula_units_Z 16
_cell_length_a 12.177823
_cell_length_b 9.029604
_cell_length_c 10.283082
_cell_angle_alpha 90.000000
_cell_angle_beta 51.905946
_cell_angle_gamma 90.000000
_cell_volume 889.889065
_symmetry_space_group_name_H-M "P M"
_symmetry_group_IT_number 6
_symmetry_cell_setting 'monoclinic'
loop_
_space_group_symop_operation_xyz
x,y,z
x,-y,z
loop_
_atom_site_type_symbol
_atom_site_label
_atom_site_fract_x
_atom_site_fract_y
_atom_site_fract_z
Si Si1 0.450710 0.672885 0.840320
Si Si2 0.454542 0.825174 0.331800
Si Si3 0.737251 0.173827 0.001029
Si Si4 0.311614 0.326040 0.673063
Si Si5 0.030736 0.169012 0.484644
Si Si6 0.293518 0.674723 0.214839
Si Si7 0.042703 0.829362 0.782619
Si Si8 0.715804 0.826078 0.729010
O O1 0.478031 0.500000 0.825977
O O2 0.361873 0.717518 0.779616
O O3 0.601649 0.749679 0.720939
O O4 0.365442 0.726628 0.028880
O O5 0.412116 0.756534 0.499201
O O6 0.365493 0.757512 0.281132
O O7 0.427362 0.000000 0.353415
O O8 0.618074 0.786615 0.191866
O O9 0.697408 0.239593 0.888723
O O10 0.889029 0.229703 0.938240
O O11 0.754198 0.000000 0.965606
O O12 0.319541 0.500000 0.640444
O O13 0.153038 0.272505 0.775750
O O14 0.131671 0.276294 0.329118
O O15 0.059195 0.190339 0.616539
O O16 0.871542 0.211507 0.565360
O O17 0.061022 0.000000 0.422560
O O18 0.304074 0.500000 0.228311
O O19 0.067099 0.000000 0.804753
O O20 0.688495 0.000000 0.745332
#
# Coordination Sequence:
#
# PCOD8052540 Si02
#       8
#     2   2   2   2   2   2   2   2
#     4  10  23  39  53  75 112 150 181 219 264 318
#     4  11  20  34  57  83 108 137 177 226 274 315
#     4   8  16  31  54  82 108 133 168 224 274 311
#     4  11  23  38  53  76 112 149 183 218 263 318
#     4   9  18  32  54  83 111 136 173 225 271 313
#     4  11  21  34  54  81 109 141 182 222 264 317
#     4   9  17  33  55  79 107 139 176 218 269 319
#     4   9  17  33  56  81 107 139 178 220 267 319
#
# _framework density 17.979771
#
# number of rings (size 3 to 8) (size 9 to 14) (size 15 to 20)
#    0.000    2.250    2.500    2.625    0.000    2.000 
#    0.000    4.375    0.000    6.000    0.000    0.000 
#    0.000    0.000    0.000    0.000    0.000    0.000 
#
# Total GULP energy -198389.349896 kJ/mol
# GULP energy per Si atom -12399.334369 kJ/mol
# Density = 1.793885 g / cm^3
# Si number density = 17.979771 Si / 1000 Ang^3
#
#
#
# Elastic Constant Matrix: (Units=GPa)
#
#
# Indices 1 2 3 4 5 6 
#
# 1 126.2835 45.3517 56.4615 0.0000 -22.3262 0.0000
# 2 45.3517 59.9774 41.0627 0.0000 -7.8924 0.0000
# 3 56.4615 41.0627 96.0757 0.0000 -15.1517 0.0000
# 4 0.0000 0.0000 0.0000 4.9544 0.0000 4.0950
# 5 -22.3262 -7.8924 -15.1517 0.0000 25.4559 0.0000
# 6 0.0000 0.0000 0.0000 4.0950 0.0000 24.4813
#
#
#
# Elastic Compliance Matrix: (Units=1/GPa)
#
#
# Indices 1 2 3 4 5 6 
#
# 1 0.013251 -0.006383 -0.003905 0.000000 0.007318 0.000000
# 2 -0.006383 0.026693 -0.007985 0.000000 -0.002075 0.000000
# 3 -0.003905 -0.007985 0.016758 0.000000 0.004075 0.000000
# 4 0.000000 0.000000 0.000000 0.234221 0.000000 -0.039178
# 5 0.007318 -0.002075 0.004075 0.000000 0.047484 0.000000
# 6 0.000000 0.000000 0.000000 -0.039178 0.000000 0.047401
#
#
# Mechanical properties :
#
#
# Convention : Reuss Voigt Hill
#
# Bulk Modulus (GPa) = 49.61040 63.12092 56.36566
# Shear Modulus (GPa) = 11.65305 20.27569 15.96437
#
# Velocity S-wave (km/s) = 2.54858 3.36176 2.98301
# Velocity P-wave (km/s) = 6.02599 7.08882 6.57891
#
# Compressibility (1/GPa) = 0.02015707
#
# Stress axis : x y z
#
# Youngs Moduli (GPa) = 75.46741 37.46296 59.67129
#
# Poissons Ratio (x) = 0.23913 0.23301
# Poissons Ratio (y) = 0.48171 0.47645
# Poissons Ratio (z) = 0.29469 0.29913
#
# Static dielectric constant tensor:
#      x y z
#    x 3.414820 0.000000 -0.292280 
#    y 0.000000 3.183960 0.000000 
#    z -0.292280 0.000000 3.407460 
# 
# 
# High freq. dielectric constant tensor:
#      x y z
#    x 1.696440 0.000000 -0.024040 
#    y 0.000000 1.685410 0.000000 
#    z -0.024040 0.000000 1.685330 
# 
# From -- ./inp_files/3488.got.cif
#   From: 2010.03.12/outbox.cif.g09.slc.cpg/sg6_2_cif.got.tgz:3488.got - 2010.03.30 10:24:59.
