data_PCOD8052837
_publ_section_title
;
Structure prediction by ZEFSAII (Michael W. Deem and Ramdas Pophale) SiO2 
 PCOD8052837
Probable space group: C M
;
_chemical_formula_sum "Si O2"
_cell_formula_units_Z 32
_cell_length_a 25.418393
_cell_length_b 8.481692
_cell_length_c 12.687822
_cell_angle_alpha 90.000000
_cell_angle_beta 144.320594
_cell_angle_gamma 90.000000
_cell_volume 1595.408418
_symmetry_space_group_name_H-M "C M"
_symmetry_group_IT_number 8
_symmetry_cell_setting 'monoclinic'
loop_
_space_group_symop_operation_xyz
x,y,z
x,-y,z
1/2+x,1/2+y,z
1/2+x,1/2-y,z
loop_
_atom_site_type_symbol
_atom_site_label
_atom_site_fract_x
_atom_site_fract_y
_atom_site_fract_z
Si Si1 0.911840 0.318141 0.935200
Si Si2 0.660376 0.814095 0.208647
Si Si3 0.107982 0.814722 0.563505
Si Si4 0.416603 0.314099 0.320727
Si Si5 0.796115 0.314242 0.942087
Si Si6 0.352044 0.312560 0.439049
Si Si7 0.592787 0.684181 0.303815
Si Si8 0.974220 0.815757 0.828917
O O1 0.902146 0.500000 0.887336
O O2 0.833585 0.265856 0.888034
O O3 0.910117 0.216194 0.825471
O O4 0.005005 0.290726 0.147156
O O5 0.749756 0.754779 0.293522
O O6 0.663400 0.728464 0.327319
O O7 0.661997 0.000000 0.229639
O O8 0.570748 0.770138 0.996938
O O9 0.191217 0.761083 0.772407
O O10 0.131892 0.771167 0.481676
O O11 0.013970 0.737646 0.449838
O O12 0.096581 0.000000 0.553410
O O13 0.425288 0.500000 0.345572
O O14 0.383209 0.242240 0.377366
O O15 0.344740 0.278014 0.113703
O O16 0.808896 0.500000 0.981129
O O17 0.353772 0.500000 0.441691
O O18 0.421743 0.250462 0.641132
O O19 0.567092 0.500000 0.253770
O O20 0.993726 0.000000 0.851493
#
# Coordination Sequence:
#
# PCOD8052837 Si02
#       8
#     4   4   4   4   4   4   4   4
#     4  10  19  32  53  80 116 148 173 220 281 325
#     4  10  20  36  54  80 113 146 177 223 280 321
#     4   9  19  34  55  80 108 142 180 222 272 323
#     4  10  20  40  61  78 106 148 189 225 267 321
#     4  10  21  36  54  82 114 143 178 226 278 325
#     4   9  21  38  58  80 109 147 187 225 268 324
#     4  10  18  32  55  82 110 143 184 223 265 326
#     4  10  20  36  56  82 110 143 186 226 265 323
#
# _framework density 20.057559000000001
#
# number of rings (size 3 to 8) (size 9 to 14) (size 15 to 20)
#    0.000    2.250    1.250    3.000    1.750    1.500 
#    0.000    7.500    0.000    0.000    0.000    0.000 
#    0.000    0.000    0.000    0.000    0.000    0.000 
#
# Total GULP energy -198351.642753 kJ/mol
# GULP energy per Si atom -12396.977672 kJ/mol
# Density = 2.001191 g / cm^3
# Si number density = 20.057559 Si / 1000 Ang^3
#
#
#
# Elastic Constant Matrix: (Units=GPa)
#
#
# Indices 1 2 3 4 5 6 
#
# 1 148.8717 22.7399 83.9667 0.0000 10.4896 0.0000
# 2 22.7399 22.4048 9.4433 0.0000 -1.8232 0.0000
# 3 83.9667 9.4433 130.3344 0.0000 7.0794 0.0000
# 4 0.0000 0.0000 0.0000 22.3527 0.0000 -0.1052
# 5 10.4896 -1.8232 7.0794 0.0000 22.7552 0.0000
# 6 0.0000 0.0000 0.0000 -0.1052 0.0000 19.9145
#
#
#
# Elastic Compliance Matrix: (Units=1/GPa)
#
#
# Indices 1 2 3 4 5 6 
#
# 1 0.012609 -0.010142 -0.007149 0.000000 -0.004401 0.000000
# 2 -0.010142 0.054720 0.002113 0.000000 0.008402 0.000000
# 3 -0.007149 0.002113 0.012142 0.000000 -0.000313 0.000000
# 4 0.000000 0.000000 0.000000 0.044738 0.000000 0.000236
# 5 -0.004401 0.008402 -0.000313 0.000000 0.046745 0.000000
# 6 0.000000 0.000000 0.000000 0.000236 0.000000 0.050216
#
#
# Mechanical properties :
#
#
# Convention : Reuss Voigt Hill
#
# Bulk Modulus (GPa) = 20.36065 59.32343 39.84204
# Shear Modulus (GPa) = 18.66373 25.36854 22.01614
#
# Velocity S-wave (km/s) = 3.05373 3.56024 3.31667
# Velocity P-wave (km/s) = 4.75467 6.82211 5.87997
#
# Compressibility (1/GPa) = 0.04911434
#
# Stress axis : x y z
#
# Youngs Moduli (GPa) = 79.30988 18.27476 82.35682
#
# Poissons Ratio (x) = 0.18535 0.58879
# Poissons Ratio (y) = 0.80437 -0.17401
# Poissons Ratio (z) = 0.56700 -0.03861
#
# Static dielectric constant tensor:
#      x y z
#    x 3.988530 0.000000 0.116160 
#    y 0.000000 3.356600 0.000000 
#    z 0.116160 0.000000 3.726770 
# 
# 
# High freq. dielectric constant tensor:
#      x y z
#    x 1.784550 0.000000 0.002580 
#    y 0.000000 1.755470 0.000000 
#    z 0.002580 0.000000 1.785860 
# 
# From -- ./inp_files/28329.got.cif
#   From: 2010.03.12/outbox.cif.g09.slc.cpg/sg8_15_cif.got.tgz:28329.got - 2010.03.31 10:45:26.
