data_PCOD8052042
_publ_section_title
;
Structure prediction by ZEFSAII (Michael W. Deem and Ramdas Pophale) SiO2 
 PCOD8052042
Probable space group: C 2
;
_chemical_formula_sum "Si O2"
_cell_formula_units_Z 20
_cell_length_a 10.017009
_cell_length_b 9.946961
_cell_length_c 11.036321
_cell_angle_alpha 90.000000
_cell_angle_beta 127.748244
_cell_angle_gamma 90.000000
_cell_volume 869.499068
_symmetry_space_group_name_H-M "C 2"
_symmetry_group_IT_number 5
_symmetry_cell_setting 'monoclinic'
loop_
_space_group_symop_operation_xyz
x,y,z
-x,y,-z
1/2+x,1/2+y,z
1/2-x,1/2+y,-z
loop_
_atom_site_type_symbol
_atom_site_label
_atom_site_fract_x
_atom_site_fract_y
_atom_site_fract_z
Si Si1 0.732294 0.897230 0.856271
Si Si2 0.011038 0.871872 0.202125
Si Si3 0.886347 0.670087 0.322060
Si Si4 0.866172 0.050622 0.530127
Si Si5 0.863332 0.312121 0.652725
O O1 0.563520 0.812414 0.784814
O O2 0.845580 0.828786 0.814666
O O3 0.691037 0.047668 0.793945
O O4 0.832848 0.898124 0.038063
O O5 0.003343 0.754556 0.296896
O O6 0.058761 0.009690 0.297116
O O7 0.732418 0.764462 0.280018
O O8 0.000000 0.623245 0.500000
O O9 0.697135 0.962713 0.415149
O O10 0.000000 0.018782 0.500000
O O11 0.823757 0.208917 0.519079
#
# Coordination Sequence:
#
# PCOD8052042 Si02
#       5
#     4   4   4   4   4
#     4  11  29  44  72 105 147 190 238 296 366 427
#     4  11  25  49  66 105 147 183 235 303 354 423
#     4  12  24  48  76 102 145 191 245 298 358 430
#     4  12  26  46  72 108 145 184 245 305 352 428
#     4  12  26  44  76 105 138 192 242 292 359 428
#
# _framework density 23.001749
#
# number of rings (size 3 to 8) (size 9 to 14) (size 15 to 20)
#    0.000    0.400    6.000    1.200    5.600    0.800 
#    0.000    0.000    0.000    0.000    0.000    0.000 
#    0.000    0.000    0.000    0.000    0.000    0.000 
#
# Total GULP energy -124039.773371 kJ/mol
# GULP energy per Si atom -12403.977337 kJ/mol
# Density = 2.294940 g / cm^3
# Si number density = 23.001749 Si / 1000 Ang^3
#
#
#
# Elastic Constant Matrix: (Units=GPa)
#
#
# Indices 1 2 3 4 5 6 
#
# 1 119.0801 2.2275 30.0664 0.0000 18.4556 0.0000
# 2 2.2275 56.0091 -3.9603 0.0000 11.6329 0.0000
# 3 30.0664 -3.9603 100.2618 0.0000 12.2249 0.0000
# 4 0.0000 0.0000 0.0000 27.3543 0.0000 0.1229
# 5 18.4556 11.6329 12.2249 0.0000 42.7960 0.0000
# 6 0.0000 0.0000 0.0000 0.1229 0.0000 26.9293
#
#
#
# Elastic Compliance Matrix: (Units=1/GPa)
#
#
# Indices 1 2 3 4 5 6 
#
# 1 0.009546 0.000168 -0.002433 0.000000 -0.003468 0.000000
# 2 0.000168 0.019124 0.001396 0.000000 -0.005670 0.000000
# 3 -0.002433 0.001396 0.011062 0.000000 -0.002490 0.000000
# 4 0.000000 0.000000 0.000000 0.036558 0.000000 -0.000167
# 5 -0.003468 -0.005670 -0.002490 0.000000 0.027115 0.000000
# 6 0.000000 0.000000 0.000000 -0.000167 0.000000 0.037135
#
#
# Mechanical properties :
#
#
# Convention : Reuss Voigt Hill
#
# Bulk Modulus (GPa) = 26.31910 36.89093 31.60502
# Shear Modulus (GPa) = 32.27004 35.88376 34.07690
#
# Velocity S-wave (km/s) = 3.74965 3.95403 3.85319
# Velocity P-wave (km/s) = 5.49668 6.07609 5.79363
#
# Compressibility (1/GPa) = 0.03799522
#
# Stress axis : x y z
#
# Youngs Moduli (GPa) = 104.75199 52.29079 90.39660
#
# Poissons Ratio (x) = -0.00881 0.21996
# Poissons Ratio (y) = -0.01765 -0.12621
# Poissons Ratio (z) = 0.25489 -0.07301
#
# Static dielectric constant tensor:
#      x y z
#    x 4.507190 0.000000 0.150180 
#    y 0.000000 3.995640 0.000000 
#    z 0.150180 0.000000 4.068680 
# 
# 
# High freq. dielectric constant tensor:
#      x y z
#    x 1.932120 0.000000 0.009990 
#    y 0.000000 1.905040 0.000000 
#    z 0.009990 0.000000 1.899970 
# 
# From -- ./inp_files/39321.got.cif
#   From: 2010.03.12/outbox.cif.g09.slc.cpg/sg5_20_cif.got.tgz:39321.got - 2010.03.31 09:47:26.
