data_PCOD8052817
_publ_section_title
;
Structure prediction by ZEFSAII (Michael W. Deem and Ramdas Pophale) SiO2 
 PCOD8052817
Probable space group: C M
;
_chemical_formula_sum "Si O2"
_cell_formula_units_Z 32
_cell_length_a 14.705018
_cell_length_b 8.545204
_cell_length_c 19.180821
_cell_angle_alpha 90.000000
_cell_angle_beta 39.468380
_cell_angle_gamma 90.000000
_cell_volume 1532.056565
_symmetry_space_group_name_H-M "C M"
_symmetry_group_IT_number 8
_symmetry_cell_setting 'monoclinic'
loop_
_space_group_symop_operation_xyz
x,y,z
x,-y,z
1/2+x,1/2+y,z
1/2+x,1/2-y,z
loop_
_atom_site_type_symbol
_atom_site_label
_atom_site_fract_x
_atom_site_fract_y
_atom_site_fract_z
Si Si1 0.428880 0.680856 0.954560
Si Si2 0.694666 0.183309 0.356480
Si Si3 0.709230 0.185385 0.192207
Si Si4 0.985556 0.684200 0.211260
Si Si5 0.199056 0.817317 0.990524
Si Si6 0.426756 0.318293 0.589671
Si Si7 0.611480 0.820803 0.739006
Si Si8 0.883681 0.817117 0.772651
O O1 0.474101 0.500000 0.929123
O O2 0.563130 0.781949 0.847621
O O3 0.365079 0.733520 0.067627
O O4 0.300478 0.705976 0.976141
O O5 0.691291 0.254636 0.280099
O O6 0.546211 0.215757 0.481953
O O7 0.822263 0.267872 0.322610
O O8 0.724506 0.000000 0.337673
O O9 0.580147 0.248413 0.219991
O O10 0.697975 0.000000 0.200849
O O11 0.999761 0.500000 0.193787
O O12 0.038051 0.769598 0.108241
O O13 0.225594 0.000000 0.988615
O O14 0.242942 0.775499 0.884891
O O15 0.470205 0.500000 0.561944
O O16 0.280111 0.288828 0.634128
O O17 0.411858 0.259037 0.677675
O O18 0.526328 0.716305 0.733754
O O19 0.574270 0.000000 0.745174
O O20 0.849775 0.000000 0.793774
#
# Coordination Sequence:
#
# PCOD8052817 Si02
#       8
#     4   4   4   4   4   4   4   4
#     4   9  16  31  55  82 112 145 179 216 271 337
#     4  11  23  39  58  82 109 141 189 238 275 318
#     4   8  18  36  57  81 111 145 178 218 269 328
#     4  10  20  38  60  82 113 150 183 219 273 333
#     4  10  18  31  54  86 117 142 178 226 274 324
#     4  10  24  42  56  76 110 149 189 230 274 329
#     4  10  20  36  57  83 113 142 179 229 278 323
#     4  10  20  37  59  82 111 148 185 222 274 334
#
# _framework density 20.886958
#
# number of rings (size 3 to 8) (size 9 to 14) (size 15 to 20)
#    0.000    2.250    0.000    5.250    0.000    4.000 
#    0.000   13.750    0.000    0.000    0.000    0.000 
#    0.000    0.000    0.000    0.000    0.000    0.000 
#
# Total GULP energy -198347.718943 kJ/mol
# GULP energy per Si atom -12396.732434 kJ/mol
# Density = 2.083942 g / cm^3
# Si number density = 20.886958 Si / 1000 Ang^3
#
#
#
# Elastic Constant Matrix: (Units=GPa)
#
#
# Indices 1 2 3 4 5 6 
#
# 1 39.7177 12.8111 12.4835 0.0000 5.4901 0.0000
# 2 12.8111 58.1039 24.1579 0.0000 -1.2429 0.0000
# 3 12.4835 24.1579 99.1434 0.0000 0.1788 0.0000
# 4 0.0000 0.0000 0.0000 37.0070 0.0000 -2.7700
# 5 5.4901 -1.2429 0.1788 0.0000 35.2835 0.0000
# 6 0.0000 0.0000 0.0000 -2.7700 0.0000 21.7401
#
#
#
# Elastic Compliance Matrix: (Units=1/GPa)
#
#
# Indices 1 2 3 4 5 6 
#
# 1 0.028254 -0.005399 -0.002234 0.000000 -0.004575 0.000000
# 2 -0.005399 0.020199 -0.004245 0.000000 0.001573 0.000000
# 3 -0.002234 -0.004245 0.011402 0.000000 0.000140 0.000000
# 4 0.000000 0.000000 0.000000 0.027282 0.000000 0.003476
# 5 -0.004575 0.001573 0.000140 0.000000 0.029108 0.000000
# 6 0.000000 0.000000 0.000000 0.003476 0.000000 0.046441
#
#
# Mechanical properties :
#
#
# Convention : Reuss Voigt Hill
#
# Bulk Modulus (GPa) = 27.70087 32.87445 30.28766
# Shear Modulus (GPa) = 25.19217 28.64029 26.91623
#
# Velocity S-wave (km/s) = 3.47669 3.70700 3.59369
# Velocity P-wave (km/s) = 5.42288 5.83916 5.63486
#
# Compressibility (1/GPa) = 0.03609994
#
# Stress axis : x y z
#
# Youngs Moduli (GPa) = 35.39374 49.50629 87.70568
#
# Poissons Ratio (x) = 0.26727 0.19592
# Poissons Ratio (y) = 0.19108 0.37231
# Poissons Ratio (z) = 0.07906 0.21015
#
# Static dielectric constant tensor:
#      x y z
#    x 3.696030 0.000000 0.163470 
#    y 0.000000 3.512260 0.000000 
#    z 0.163470 0.000000 4.052320 
# 
# 
# High freq. dielectric constant tensor:
#      x y z
#    x 1.803060 0.000000 -0.000750 
#    y 0.000000 1.807740 0.000000 
#    z -0.000750 0.000000 1.823030 
# 
# From -- ./inp_files/30699.got.cif
#   From: 2010.03.12/outbox.cif.g09.slc.cpg/sg8_16_cif.got.tgz:30699.got - 2010.03.31 10:45:26.
