data_PCOD8052075
_publ_section_title
;
Structure prediction by ZEFSAII (Michael W. Deem and Ramdas Pophale) SiO2 
 PCOD8052075
Probable space group: C 2
;
_chemical_formula_sum "Si O2"
_cell_formula_units_Z 20
_cell_length_a 14.787572
_cell_length_b 5.285537
_cell_length_c 19.326160
_cell_angle_alpha 90.000000
_cell_angle_beta 31.125786
_cell_angle_gamma 90.000000
_cell_volume 780.825078
_symmetry_space_group_name_H-M "C 2"
_symmetry_group_IT_number 5
_symmetry_cell_setting 'monoclinic'
loop_
_space_group_symop_operation_xyz
x,y,z
-x,y,-z
1/2+x,1/2+y,z
1/2-x,1/2+y,-z
loop_
_atom_site_type_symbol
_atom_site_label
_atom_site_fract_x
_atom_site_fract_y
_atom_site_fract_z
Si Si1 0.668512 0.342420 0.526042
Si Si2 0.194012 0.772841 0.260020
Si Si3 0.500000 0.439338 0.000000
Si Si4 0.355202 0.254289 0.949519
Si Si5 0.792032 0.568841 0.319453
Si Si6 0.500000 0.952357 0.500000
O O1 0.781957 0.585259 0.470452
O O2 0.463891 0.400727 0.680300
O O3 0.727716 0.322456 0.405567
O O4 0.335408 0.615838 0.125510
O O5 0.071749 0.599648 0.387645
O O6 0.291725 0.989820 0.238925
O O7 0.570104 0.277272 0.020013
O O8 0.513859 0.176923 0.794494
O O9 0.283635 0.523738 0.967498
O O10 0.654950 0.783173 0.429486
#
# Coordination Sequence:
#
# PCOD8052075 Si02
#       6
#     4   4   2   4   4   2
#     4  12  28  48  79 124 162 204 272 347 406 487
#     4  12  26  52  83 115 161 220 275 331 419 499
#     4  12  30  58  86 120 172 226 278 340 422 504
#     4  12  31  57  85 122 168 223 279 345 417 500
#     4  12  26  52  83 111 163 214 278 341 413 488
#     4  12  20  50  88 110 156 212 280 332 418 490
#
# _framework density 25.613931999999998
#
# number of rings (size 3 to 8) (size 9 to 14) (size 15 to 20)
#    0.000    0.000    6.000    2.400    2.800    3.200 
#    7.200    0.000    0.000    0.000    0.000    0.000 
#    0.000    0.000    0.000    0.000    0.000    0.000 
#
# Total GULP energy -123903.634589 kJ/mol
# GULP energy per Si atom -12390.363459 kJ/mol
# Density = 2.555563 g / cm^3
# Si number density = 25.613932 Si / 1000 Ang^3
#
#
#
# Elastic Constant Matrix: (Units=GPa)
#
#
# Indices 1 2 3 4 5 6 
#
# 1 97.7181 27.9560 32.9158 -0.0009 -20.5962 0.0011
# 2 27.9560 107.3873 40.3302 -0.0086 -9.6807 0.0076
# 3 32.9158 40.3302 191.1358 0.0023 -22.4936 -0.0038
# 4 -0.0009 -0.0086 0.0023 90.2608 0.0001 -5.9401
# 5 -20.5962 -9.6807 -22.4936 0.0001 34.3829 -0.0021
# 6 0.0011 0.0076 -0.0038 -5.9401 -0.0021 46.7986
#
#
#
# Elastic Compliance Matrix: (Units=1/GPa)
#
#
# Indices 1 2 3 4 5 6 
#
# 1 0.012534 -0.002352 -0.000928 0.000000 0.006239 0.000000
# 2 -0.002352 0.010634 -0.001790 0.000001 0.000414 -0.000002
# 3 -0.000928 -0.001790 0.006115 0.000000 0.002941 0.000001
# 4 0.000000 0.000001 0.000000 0.011172 0.000000 0.001418
# 5 0.006239 0.000414 0.002941 0.000000 0.034862 0.000002
# 6 0.000000 -0.000002 0.000001 0.001418 0.000002 0.021548
#
#
# Mechanical properties :
#
#
# Convention : Reuss Voigt Hill
#
# Bulk Modulus (GPa) = 52.23750 66.51612 59.37681
# Shear Modulus (GPa) = 44.09673 53.95774 49.02723
#
# Velocity S-wave (km/s) = 4.15371 4.59473 4.37977
# Velocity P-wave (km/s) = 6.59112 7.36028 6.98629
#
# Compressibility (1/GPa) = 0.01914334
#
# Stress axis : x y z
#
# Youngs Moduli (GPa) = 79.78326 94.03820 163.51910
#
# Poissons Ratio (x) = 0.22118 0.15175
# Poissons Ratio (y) = 0.18765 0.29270
# Poissons Ratio (z) = 0.07404 0.16833
#
# Static dielectric constant tensor:
#      x y z
#    x 3.030900 0.000010 0.749440 
#    y 0.000010 4.830120 -0.000010 
#    z 0.749440 -0.000010 4.276800 
# 
# 
# High freq. dielectric constant tensor:
#      x y z
#    x 2.034640 0.000000 -0.014170 
#    y 0.000000 2.028160 0.000000 
#    z -0.014170 0.000000 2.040370 
# 
# From -- ./inp_files/25860.got.cif
#   From: 2010.03.12/outbox.cif.g09.slc.cpg/sg5_13_cif.got.tgz:25860.got - 2010.03.31 09:47:26.
