data_PCOD8052702
_publ_section_title
;
Structure prediction by ZEFSAII (Michael W. Deem and Ramdas Pophale) SiO2 
 PCOD8052702
Probable space group: C M
;
_chemical_formula_sum "Si O2"
_cell_formula_units_Z 32
_cell_length_a 24.652101
_cell_length_b 9.096342
_cell_length_c 21.993373
_cell_angle_alpha 90.000000
_cell_angle_beta 157.096320
_cell_angle_gamma 90.000000
_cell_volume 1919.404677
_symmetry_space_group_name_H-M "C M"
_symmetry_group_IT_number 8
_symmetry_cell_setting 'monoclinic'
loop_
_space_group_symop_operation_xyz
x,y,z
x,-y,z
1/2+x,1/2+y,z
1/2+x,1/2-y,z
loop_
_atom_site_type_symbol
_atom_site_label
_atom_site_fract_x
_atom_site_fract_y
_atom_site_fract_z
Si Si1 0.593490 0.166955 0.190800
Si Si2 0.213108 0.328456 0.439151
Si Si3 0.425356 0.169544 0.735478
Si Si4 0.901731 0.827144 0.910073
Si Si5 0.241338 0.330571 0.088618
Si Si6 0.643348 0.834485 0.113145
Si Si7 0.722560 0.328228 0.636630
Si Si8 0.009094 0.671903 0.337013
O O1 0.669317 0.235417 0.327793
O O2 0.699511 0.170667 0.241337
O O3 0.546876 0.000000 0.157171
O O4 0.453403 0.259247 0.028325
O O5 0.242569 0.500000 0.465406
O O6 0.357359 0.255497 0.608811
O O7 0.087858 0.291044 0.355821
O O8 0.586140 0.216449 0.908381
O O9 0.342366 0.206479 0.711187
O O10 0.412432 0.000000 0.705898
O O11 0.760305 0.750917 0.739647
O O12 0.880404 0.000000 0.894053
O O13 0.018514 0.784411 0.979911
O O14 0.271969 0.500000 0.104102
O O15 0.256338 0.302144 0.177451
O O16 0.350670 0.227999 0.166615
O O17 0.581311 0.000000 0.036163
O O18 0.700388 0.500000 0.625294
O O19 0.578421 0.259116 0.464360
O O20 0.012291 0.500000 0.354798
#
# Coordination Sequence:
#
# PCOD8052702 Si02
#       8
#     4   4   4   4   4   4   4   4
#     4   8  15  30  48  67  92 125 159 197 234 279
#     4   9  18  32  49  70  96 125 160 197 238 278
#     4   9  17  29  48  69  92 121 161 200 232 275
#     4  10  17  25  44  74  98 116 146 197 245 275
#     4  10  18  32  49  70  96 129 162 189 234 295
#     4   8  15  29  48  68  91 120 158 194 229 281
#     4  10  17  31  49  68  94 128 160 193 236 285
#     4  10  21  32  45  72 103 128 156 197 238 280
#
# _framework density 16.671837
#
# number of rings (size 3 to 8) (size 9 to 14) (size 15 to 20)
#    0.750    2.000    1.250    1.500    0.000    2.500 
#    0.000    0.000    0.000    1.500    0.000    7.000 
#    0.000    0.000    0.000    0.000    0.000    0.000 
#
# Total GULP energy -198210.153666 kJ/mol
# GULP energy per Si atom -12388.134604 kJ/mol
# Density = 1.663389 g / cm^3
# Si number density = 16.671837 Si / 1000 Ang^3
#
#
#
# Elastic Constant Matrix: (Units=GPa)
#
#
# Indices 1 2 3 4 5 6 
#
# 1 59.3501 28.2463 47.9336 0.0000 -17.5271 0.0000
# 2 28.2463 78.0896 47.3282 0.0001 -10.6053 0.0000
# 3 47.9336 47.3282 108.5700 0.0002 -15.3612 0.0001
# 4 0.0000 0.0001 0.0002 31.5345 0.0001 -1.4593
# 5 -17.5271 -10.6053 -15.3612 0.0001 32.8485 0.0000
# 6 0.0000 0.0000 0.0001 -1.4593 0.0000 18.9006
#
#
#
# Elastic Compliance Matrix: (Units=1/GPa)
#
#
# Indices 1 2 3 4 5 6 
#
# 1 0.029590 -0.003107 -0.010299 0.000000 0.009969 0.000000
# 2 -0.003107 0.017883 -0.006255 0.000000 0.001190 0.000000
# 3 -0.010299 -0.006255 0.016514 0.000000 0.000208 0.000000
# 4 0.000000 0.000000 0.000000 0.031825 0.000000 0.002457
# 5 0.009969 0.001190 0.000208 0.000000 0.036243 0.000000
# 6 0.000000 0.000000 0.000000 0.002457 0.000000 0.053098
#
#
# Mechanical properties :
#
#
# Convention : Reuss Voigt Hill
#
# Bulk Modulus (GPa) = 40.54585 54.78067 47.66326
# Shear Modulus (GPa) = 21.48724 24.82349 23.15536
#
# Velocity S-wave (km/s) = 3.59393 3.86287 3.73083
# Velocity P-wave (km/s) = 6.44938 7.26810 6.87095
#
# Compressibility (1/GPa) = 0.02466344
#
# Stress axis : x y z
#
# Youngs Moduli (GPa) = 33.79546 55.92057 60.55582
#
# Poissons Ratio (x) = 0.17377 0.62365
# Poissons Ratio (y) = 0.10502 0.37878
# Poissons Ratio (z) = 0.34805 0.34979
#
# Static dielectric constant tensor:
#      x y z
#    x 2.943570 0.000000 -0.239630 
#    y 0.000000 3.039600 0.000000 
#    z -0.239630 0.000000 3.090670 
# 
# 
# High freq. dielectric constant tensor:
#      x y z
#    x 1.607240 0.000000 -0.021570 
#    y 0.000000 1.641750 0.000000 
#    z -0.021570 0.000000 1.628550 
# 
# From -- ./inp_files/16793.got.cif
#   From: 2010.03.12/outbox.cif.g09.slc.cpg/sg8_9_cif.got.tgz:16793.got - 2010.03.31 10:45:26.
