data_PCOD8052018
_publ_section_title
;
Structure prediction by ZEFSAII (Michael W. Deem and Ramdas Pophale) SiO2 
 PCOD8052018
Probable space group: C 2
;
_chemical_formula_sum "Si O2"
_cell_formula_units_Z 28
_cell_length_a 13.729845
_cell_length_b 5.273988
_cell_length_c 16.268627
_cell_angle_alpha 90.000000
_cell_angle_beta 119.559360
_cell_angle_gamma 90.000000
_cell_volume 1024.701985
_symmetry_space_group_name_H-M "C 2"
_symmetry_group_IT_number 5
_symmetry_cell_setting 'monoclinic'
loop_
_space_group_symop_operation_xyz
x,y,z
-x,y,-z
1/2+x,1/2+y,z
1/2-x,1/2+y,-z
loop_
_atom_site_type_symbol
_atom_site_label
_atom_site_fract_x
_atom_site_fract_y
_atom_site_fract_z
Si Si1 0.637781 0.437890 0.207468
Si Si2 0.495961 0.593237 0.690969
Si Si3 0.000000 0.729057 0.000000
Si Si4 0.000000 0.374512 0.500000
Si Si5 0.182802 0.568665 0.966219
Si Si6 0.722963 0.615000 0.624017
Si Si7 0.629581 0.085899 0.763689
Si Si8 0.642169 0.269818 0.475813
O O1 0.575383 0.590909 0.253733
O O2 0.688489 0.171380 0.266257
O O3 0.744705 0.592118 0.219455
O O4 0.552269 0.394829 0.096355
O O5 0.588135 0.370421 0.732602
O O6 0.421582 0.531147 0.578803
O O7 0.549829 0.865995 0.695633
O O8 0.094829 0.545141 0.003668
O O9 0.901282 0.223765 0.410682
O O10 0.946412 0.547605 0.549750
O O11 0.124465 0.510661 0.856753
O O12 0.276269 0.359277 0.020914
O O13 0.704548 0.318368 0.590910
O O14 0.768530 0.729947 0.557867
#
# Coordination Sequence:
#
# PCOD8052018 Si02
#       8
#     4   4   2   2   4   4   4   4
#     4  11  27  48  77 111 154 201 259 310 384 448
#     4  11  28  48  76 115 151 201 248 318 377 452
#     4  12  26  50  80 110 152 210 246 322 382 446
#     4  12  24  44  74 106 148 200 238 314 380 440
#     4  12  27  49  77 112 150 194 258 315 379 448
#     4  11  25  48  71 110 148 197 250 312 370 456
#     4  12  26  49  77 113 154 195 255 314 375 457
#     4  11  25  45  74 105 152 193 251 306 373 451
#
# _framework density 27.325019999999999
#
# number of rings (size 3 to 8) (size 9 to 14) (size 15 to 20)
#    0.000    0.571    4.286    2.143    6.000    2.857 
#    0.000    0.000    0.000    0.000    0.000    0.000 
#    0.000    0.000    0.000    0.000    0.000    0.000 
#
# Total GULP energy -173505.555787 kJ/mol
# GULP energy per Si atom -12393.253985 kJ/mol
# Density = 2.726283 g / cm^3
# Si number density = 27.325020 Si / 1000 Ang^3
#
#
#
# Elastic Constant Matrix: (Units=GPa)
#
#
# Indices 1 2 3 4 5 6 
#
# 1 140.1495 30.9372 34.6301 0.0000 4.5355 0.0000
# 2 30.9372 78.5455 3.9867 0.0000 10.1250 -0.0001
# 3 34.6301 3.9867 129.0128 0.0000 -0.7343 -0.0001
# 4 0.0000 0.0000 0.0000 28.9131 0.0000 -9.7297
# 5 4.5355 10.1250 -0.7343 0.0000 40.9274 0.0000
# 6 0.0000 -0.0001 -0.0001 -9.7297 0.0000 16.7628
#
#
#
# Elastic Compliance Matrix: (Units=1/GPa)
#
#
# Indices 1 2 3 4 5 6 
#
# 1 0.008371 -0.003164 -0.002150 0.000000 -0.000183 0.000000
# 2 -0.003164 0.014370 0.000387 0.000000 -0.003197 0.000000
# 3 -0.002150 0.000387 0.008318 0.000000 0.000292 0.000000
# 4 0.000000 0.000000 0.000000 0.042982 0.000000 0.024948
# 5 -0.000183 -0.003197 0.000292 0.000000 0.025250 0.000000
# 6 0.000000 0.000000 0.000000 0.024948 0.000000 0.074137
#
#
# Mechanical properties :
#
#
# Convention : Reuss Voigt Hill
#
# Bulk Modulus (GPa) = 47.15987 54.09065 50.62526
# Shear Modulus (GPa) = 26.26730 35.86425 31.06578
#
# Velocity S-wave (km/s) = 3.10383 3.62678 3.37545
# Velocity P-wave (km/s) = 5.49012 6.11362 5.81024
#
# Compressibility (1/GPa) = 0.02120447
#
# Stress axis : x y z
#
# Youngs Moduli (GPa) = 119.46010 69.58761 120.22060
#
# Poissons Ratio (x) = 0.22020 0.25850
# Poissons Ratio (y) = 0.37801 -0.04654
# Poissons Ratio (z) = 0.25687 -0.02694
#
# Static dielectric constant tensor:
#      x y z
#    x 5.485510 0.000000 -0.036520 
#    y 0.000000 4.939840 0.000000 
#    z -0.036520 0.000000 5.425210 
# 
# 
# High freq. dielectric constant tensor:
#      x y z
#    x 2.135810 0.000000 -0.011340 
#    y 0.000000 2.086550 0.000000 
#    z -0.011340 0.000000 2.114550 
# 
# From -- ./inp_files/61161.got.cif
#   From: 2010.03.12/outbox.cif.g09.slc.cpg/sg5_31_cif.got.tgz:61161.got - 2010.03.31 09:47:26.
