data_PCOD8052673
_publ_section_title
;
Structure prediction by ZEFSAII (Michael W. Deem and Ramdas Pophale) SiO2 
 PCOD8052673
Probable space group: P C
;
_chemical_formula_sum "Si O2"
_cell_formula_units_Z 12
_cell_length_a 5.500187
_cell_length_b 19.294181
_cell_length_c 4.880637
_cell_angle_alpha 90.000000
_cell_angle_beta 75.923566
_cell_angle_gamma 90.000000
_cell_volume 502.388360
_symmetry_space_group_name_H-M "P C"
_symmetry_group_IT_number 7
_symmetry_cell_setting 'monoclinic'
loop_
_space_group_symop_operation_xyz
x,y,z
x,-y,1/2+z
loop_
_atom_site_type_symbol
_atom_site_label
_atom_site_fract_x
_atom_site_fract_y
_atom_site_fract_z
Si Si1 0.746550 0.171463 0.508840
Si Si2 0.358104 0.370297 0.325339
Si Si3 0.041645 0.155390 0.918312
Si Si4 0.854814 0.546995 0.873852
Si Si5 0.430149 0.953790 0.331445
Si Si6 0.380763 0.279389 0.809165
O O1 0.004916 0.172858 0.607779
O O2 0.605937 0.108474 0.694236
O O3 0.617539 0.245293 0.589295
O O4 0.791357 0.157653 0.175027
O O5 0.600771 0.411196 0.374023
O O6 0.248911 0.325814 0.610192
O O7 0.120660 0.412880 0.268315
O O8 0.464579 0.324849 0.045153
O O9 0.150429 0.077745 0.905547
O O10 0.214006 0.217614 0.981184
O O11 0.850394 0.478626 0.687443
O O12 0.473408 0.979738 0.627558
#
# Coordination Sequence:
#
# PCOD8052673 Si02
#       6
#     2   2   2   2   2   2
#     4  11  24  42  66  93 136 177 222 295 348 407
#     4  12  26  44  76 104 142 190 236 290 348 426
#     4  11  24  42  66  93 136 177 222 295 348 407
#     4  12  26  48  72 106 146 186 234 288 348 414
#     4  11  24  41  62  95 132 173 234 280 344 427
#     4  11  26  43  66 105 136 175 236 290 348 419
#
# _framework density 23.885902000000002
#
# number of rings (size 3 to 8) (size 9 to 14) (size 15 to 20)
#    0.000    0.667    0.000    7.000    7.000    9.333 
#    0.000    0.000    0.000    0.000    0.000    0.000 
#    0.000    0.000    0.000    0.000    0.000    0.000 
#
# Total GULP energy -148737.885549 kJ/mol
# GULP energy per Si atom -12394.823796 kJ/mol
# Density = 2.383154 g / cm^3
# Si number density = 23.885902 Si / 1000 Ang^3
#
#
#
# Elastic Constant Matrix: (Units=GPa)
#
#
# Indices 1 2 3 4 5 6 
#
# 1 105.7493 36.6058 13.2896 0.0000 1.5706 0.0000
# 2 36.6058 108.2954 30.8889 0.0000 -0.7282 0.0000
# 3 13.2896 30.8889 116.3570 0.0000 1.3480 0.0000
# 4 0.0000 0.0000 0.0000 43.8449 0.0000 6.3056
# 5 1.5706 -0.7282 1.3480 0.0000 38.4385 0.0000
# 6 0.0000 0.0000 0.0000 6.3056 0.0000 30.1601
#
#
#
# Elastic Compliance Matrix: (Units=1/GPa)
#
#
# Indices 1 2 3 4 5 6 
#
# 1 0.010727 -0.003550 -0.000277 0.000000 -0.000496 0.000000
# 2 -0.003550 0.011169 -0.002565 0.000000 0.000447 0.000000
# 3 -0.000277 -0.002565 0.009311 0.000000 -0.000364 0.000000
# 4 0.000000 0.000000 0.000000 0.023515 0.000000 -0.004916
# 5 -0.000496 0.000447 -0.000364 0.000000 0.026057 0.000000
# 6 0.000000 0.000000 0.000000 -0.004916 0.000000 0.034184
#
#
# Mechanical properties :
#
#
# Convention : Reuss Voigt Hill
#
# Bulk Modulus (GPa) = 54.27971 54.66339 54.47155
# Shear Modulus (GPa) = 37.34469 39.12987 38.23728
#
# Velocity S-wave (km/s) = 3.95835 4.05186 4.00538
# Velocity P-wave (km/s) = 6.60797 6.69515 6.65170
#
# Compressibility (1/GPa) = 0.01842309
#
# Stress axis : x y z
#
# Youngs Moduli (GPa) = 93.21837 89.53681 107.40113
#
# Poissons Ratio (x) = 0.31789 0.02975
# Poissons Ratio (y) = 0.33096 0.27544
# Poissons Ratio (z) = 0.02582 0.22962
#
# Static dielectric constant tensor:
#      x y z
#    x 4.327290 0.000000 0.077900 
#    y 0.000000 4.403070 0.000000 
#    z 0.077900 0.000000 4.238980 
# 
# 
# High freq. dielectric constant tensor:
#      x y z
#    x 1.940690 0.000000 0.008980 
#    y 0.000000 1.959190 0.000000 
#    z 0.008980 0.000000 1.961400 
# 
# From -- ./inp_files/146.got.cif
#   From: 2010.03.12/outbox.cif.g09.slc.cpg/sg7_cif.got.tgz:146.got - 2010.03.30 08:40:41.
