data_PCOD8052980
_publ_section_title
;
Structure prediction by ZEFSAII (Michael W. Deem and Ramdas Pophale) SiO2 
 PCOD8052980
Probable space group: C M
;
_chemical_formula_sum "Si O2"
_cell_formula_units_Z 32
_cell_length_a 15.533269
_cell_length_b 9.085345
_cell_length_c 22.971523
_cell_angle_alpha 90.000000
_cell_angle_beta 148.289470
_cell_angle_gamma 90.000000
_cell_volume 1704.011707
_symmetry_space_group_name_H-M "C M"
_symmetry_group_IT_number 8
_symmetry_cell_setting 'monoclinic'
loop_
_space_group_symop_operation_xyz
x,y,z
x,-y,z
1/2+x,1/2+y,z
1/2+x,1/2-y,z
loop_
_atom_site_type_symbol
_atom_site_label
_atom_site_fract_x
_atom_site_fract_y
_atom_site_fract_z
Si Si1 0.145570 0.825127 0.645360
Si Si2 0.973119 0.324739 0.035365
Si Si3 0.787830 0.174590 0.416763
Si Si4 0.343874 0.825997 0.651592
Si Si5 0.654286 0.825652 0.898318
Si Si6 0.790995 0.174441 0.286941
Si Si7 0.626299 0.325513 0.423365
Si Si8 0.945594 0.674463 0.888743
O O1 0.219855 0.760917 0.628287
O O2 0.262574 0.770842 0.765424
O O3 0.959484 0.770104 0.543840
O O4 0.146324 0.000000 0.642729
O O5 0.956127 0.500000 0.026833
O O6 0.137838 0.269301 0.161238
O O7 0.822673 0.257785 0.984491
O O8 0.981988 0.263734 0.974128
O O9 0.774639 0.233333 0.343287
O O10 0.643847 0.250061 0.370704
O O11 0.768358 0.000000 0.408407
O O12 0.529173 0.778165 0.774271
O O13 0.280227 0.772788 0.552026
O O14 0.332032 0.000000 0.648056
O O15 0.579512 0.773894 0.917784
O O16 0.684796 0.000000 0.915532
O O17 0.958060 0.233803 0.354511
O O18 0.797629 0.000000 0.292065
O O19 0.622239 0.500000 0.413113
O O20 0.949146 0.500000 0.891803
#
# Coordination Sequence:
#
# PCOD8052980 Si02
#       8
#     4   4   4   4   4   4   4   4
#     4   8  13  26  49  72  96 129 165 199 238 295
#     4  10  20  34  53  75 100 133 172 208 243 291
#     4  10  19  32  52  76 100 130 169 208 249 295
#     4   8  14  28  51  74 100 133 166 198 242 305
#     4   9  18  33  52  76 103 132 165 204 251 299
#     4   9  19  36  53  70 100 140 173 199 240 305
#     4  10  19  33  53  76 100 132 170 207 248 295
#     4   8  16  30  49  73  99 129 166 203 241 291
#
# _framework density 18.779214
#
# number of rings (size 3 to 8) (size 9 to 14) (size 15 to 20)
#    0.000    3.000    1.250    1.500    1.750    1.000 
#    0.000    3.750    0.000    3.000    0.000    0.000 
#    0.000    0.000    0.000    0.000    0.000    0.000 
#
# Total GULP energy -198278.291569 kJ/mol
# GULP energy per Si atom -12392.393223 kJ/mol
# Density = 1.873647 g / cm^3
# Si number density = 18.779214 Si / 1000 Ang^3
#
#
#
# Elastic Constant Matrix: (Units=GPa)
#
#
# Indices 1 2 3 4 5 6 
#
# 1 152.4837 24.4773 83.3696 0.0001 -8.2650 0.0000
# 2 24.4773 17.6713 23.0191 0.0002 0.8213 0.0000
# 3 83.3696 23.0191 144.4542 0.0013 -8.3363 0.0001
# 4 0.0001 0.0002 0.0013 15.5554 0.0002 6.0086
# 5 -8.2650 0.8213 -8.3363 0.0002 26.4959 0.0000
# 6 0.0000 0.0000 0.0001 6.0086 0.0000 26.2602
#
#
#
# Elastic Compliance Matrix: (Units=1/GPa)
#
#
# Indices 1 2 3 4 5 6 
#
# 1 0.010595 -0.008796 -0.004590 0.000000 0.002134 0.000000
# 2 -0.008796 0.079632 -0.008060 0.000000 -0.007748 0.000000
# 3 -0.004590 -0.008060 0.010987 -0.000001 0.002275 0.000000
# 4 0.000000 0.000000 -0.000001 0.070519 -0.000001 -0.016135
# 5 0.002134 -0.007748 0.002275 -0.000001 0.039363 0.000000
# 6 0.000000 0.000000 0.000000 -0.016135 0.000000 0.041772
#
#
# Mechanical properties :
#
#
# Convention : Reuss Voigt Hill
#
# Bulk Modulus (GPa) = 17.14617 64.03790 40.59204
# Shear Modulus (GPa) = 15.86283 25.91186 20.88735
#
# Velocity S-wave (km/s) = 2.90953 3.71862 3.33867
# Velocity P-wave (km/s) = 4.52077 7.25341 6.04356
#
# Compressibility (1/GPa) = 0.05832205
#
# Stress axis : x y z
#
# Youngs Moduli (GPa) = 94.38124 12.55779 91.01294
#
# Poissons Ratio (x) = 0.11046 0.41776
# Poissons Ratio (y) = 0.83017 0.73358
# Poissons Ratio (z) = 0.43323 0.10122
#
# Static dielectric constant tensor:
#      x y z
#    x 3.573370 0.000000 -0.167840 
#    y 0.000000 2.795240 0.000000 
#    z -0.167840 0.000000 3.767190 
# 
# 
# High freq. dielectric constant tensor:
#      x y z
#    x 1.736460 0.000000 -0.002570 
#    y 0.000000 1.665980 0.000000 
#    z -0.002570 0.000000 1.735200 
# 
# From -- ./inp_files/20228.got.cif
#   From: 2010.03.12/outbox.cif.g09.slc.cpg/sg8_11_cif.got.tgz:20228.got - 2010.03.31 10:45:26.
