data_PCOD8052277
_publ_section_title
;
Structure prediction by ZEFSAII (Michael W. Deem and Ramdas Pophale) SiO2 
 PCOD8052277
Probable space group: P M
;
_chemical_formula_sum "Si O2"
_cell_formula_units_Z 14
_cell_length_a 12.120087
_cell_length_b 12.790414
_cell_length_c 12.062820
_cell_angle_alpha 90.000000
_cell_angle_beta 155.337940
_cell_angle_gamma 90.000000
_cell_volume 780.281928
_symmetry_space_group_name_H-M "P M"
_symmetry_group_IT_number 6
_symmetry_cell_setting 'monoclinic'
loop_
_space_group_symop_operation_xyz
x,y,z
x,-y,z
loop_
_atom_site_type_symbol
_atom_site_label
_atom_site_fract_x
_atom_site_fract_y
_atom_site_fract_z
Si Si1 0.371100 0.294262 0.034950
Si Si2 0.700536 0.880422 0.704790
Si Si3 0.130194 0.880209 0.279240
Si Si4 0.825987 0.766217 0.597606
Si Si5 0.044524 0.254499 0.415165
Si Si6 0.110282 0.119335 0.684758
Si Si7 0.515321 0.618801 0.944679
O O1 0.568774 0.294104 0.318985
O O2 0.367955 0.183281 0.964019
O O3 0.455909 0.381065 0.022898
O O4 0.076338 0.313340 0.815803
O O5 0.787739 0.802909 0.687486
O O6 0.394533 0.859888 0.450484
O O7 0.747276 0.000000 0.709633
O O8 0.876754 0.854793 0.972589
O O9 0.130004 0.803163 0.381987
O O10 0.121799 0.000000 0.313744
O O11 0.879650 0.866628 0.566763
O O12 0.007864 0.167795 0.476511
O O13 0.265825 0.338535 0.649003
O O14 0.769856 0.313363 0.146040
O O15 0.190440 0.000000 0.740665
O O16 0.566144 0.500000 0.954799
#
# Coordination Sequence:
#
# PCOD8052277 Si02
#       7
#     2   2   2   2   2   2   2
#     4   9  19  33  47  79 108 136 171 216 268 325
#     4  10  20  33  51  76 107 154 195 212 243 302
#     4  10  21  36  53  77 113 152 181 215 257 309
#     4  10  18  33  50  75 112 139 180 220 246 304
#     4  11  21  37  54  82 111 135 184 217 268 338
#     4   9  19  30  49  76 112 146 166 210 264 314
#     4  11  21  38  58  81 107 136 175 230 280 328
#
# _framework density 17.942232000000001
#
# number of rings (size 3 to 8) (size 9 to 14) (size 15 to 20)
#    0.857    1.143    1.429    3.000    0.000    1.143 
#    0.000    1.429    0.000    0.000    0.000   20.000 
#    0.000    0.000    0.000    0.000    0.000    0.000 
#
# Total GULP energy -173534.395502 kJ/mol
# GULP energy per Si atom -12395.313964 kJ/mol
# Density = 1.790140 g / cm^3
# Si number density = 17.942232 Si / 1000 Ang^3
#
#
#
# Elastic Constant Matrix: (Units=GPa)
#
#
# Indices 1 2 3 4 5 6 
#
# 1 80.5208 21.2675 11.5754 0.0000 -4.1114 0.0000
# 2 21.2675 52.0891 6.1885 0.0000 -0.3634 0.0000
# 3 11.5754 6.1885 90.7000 0.0000 7.6798 0.0000
# 4 0.0000 0.0000 0.0000 16.3170 0.0000 0.5237
# 5 -4.1114 -0.3634 7.6798 0.0000 25.3354 0.0000
# 6 0.0000 0.0000 0.0000 0.5237 0.0000 15.7107
#
#
#
# Elastic Compliance Matrix: (Units=1/GPa)
#
#
# Indices 1 2 3 4 5 6 
#
# 1 0.014282 -0.005614 -0.001672 0.000000 0.002744 0.000000
# 2 -0.005614 0.021573 -0.000723 0.000000 -0.000382 0.000000
# 3 -0.001672 -0.000723 0.011610 0.000000 -0.003801 0.000000
# 4 0.000000 0.000000 0.000000 0.061351 0.000000 -0.002045
# 5 0.002744 -0.000382 -0.003801 0.000000 0.041062 0.000000
# 6 0.000000 0.000000 0.000000 -0.002045 0.000000 0.063719
#
#
# Mechanical properties :
#
#
# Convention : Reuss Voigt Hill
#
# Bulk Modulus (GPa) = 31.79874 33.48584 32.64229
# Shear Modulus (GPa) = 20.82481 23.75787 22.29134
#
# Velocity S-wave (km/s) = 3.41054 3.64281 3.52859
# Velocity P-wave (km/s) = 5.76805 6.03300 5.90201
#
# Compressibility (1/GPa) = 0.03144778
#
# Stress axis : x y z
#
# Youngs Moduli (GPa) = 70.01672 46.35410 86.13313
#
# Poissons Ratio (x) = 0.26021 0.14402
# Poissons Ratio (y) = 0.39304 0.06229
# Poissons Ratio (z) = 0.11707 0.03352
#
# Static dielectric constant tensor:
#      x y z
#    x 3.130900 0.000000 0.051100 
#    y 0.000000 2.960400 0.000000 
#    z 0.051100 0.000000 3.372450 
# 
# 
# High freq. dielectric constant tensor:
#      x y z
#    x 1.685330 0.000000 0.003130 
#    y 0.000000 1.658160 0.000000 
#    z 0.003130 0.000000 1.710090 
# 
# From -- ./inp_files/5204.got.cif
#   From: 2010.03.12/outbox.cif.g09.slc.cpg/sg6_3_cif.got.tgz:5204.got - 2010.03.30 10:24:59.
