data_PCOD8052766
_publ_section_title
;
Structure prediction by ZEFSAII (Michael W. Deem and Ramdas Pophale) SiO2 
 PCOD8052766
Probable space group: C M
;
_chemical_formula_sum "Si O2"
_cell_formula_units_Z 32
_cell_length_a 23.184152
_cell_length_b 9.014933
_cell_length_c 12.257551
_cell_angle_alpha 90.000000
_cell_angle_beta 47.553097
_cell_angle_gamma 90.000000
_cell_volume 1890.413297
_symmetry_space_group_name_H-M "C M"
_symmetry_group_IT_number 8
_symmetry_cell_setting 'monoclinic'
loop_
_space_group_symop_operation_xyz
x,y,z
x,-y,z
1/2+x,1/2+y,z
1/2+x,1/2-y,z
loop_
_atom_site_type_symbol
_atom_site_label
_atom_site_fract_x
_atom_site_fract_y
_atom_site_fract_z
Si Si1 0.009670 0.830525 0.922220
Si Si2 0.224648 0.175162 0.478189
Si Si3 0.060595 0.172422 0.611676
Si Si4 0.179922 0.827390 0.770890
Si Si5 0.309893 0.665341 0.710089
Si Si6 0.897505 0.675104 0.216928
Si Si7 0.457370 0.175514 0.566506
Si Si8 0.936835 0.166399 0.383208
O O1 0.025261 0.797472 0.776056
O O2 0.087245 0.798720 0.895091
O O3 0.983437 0.000000 0.971903
O O4 0.940474 0.724287 0.051594
O O5 0.152002 0.221334 0.493626
O O6 0.211779 0.238098 0.615949
O O7 0.307288 0.229163 0.323696
O O8 0.221976 0.000000 0.493667
O O9 0.017907 0.277414 0.581217
O O10 0.050110 0.000000 0.592530
O O11 0.224627 0.741260 0.811234
O O12 0.199768 0.000000 0.758127
O O13 0.300987 0.500000 0.770731
O O14 0.370620 0.759941 0.707419
O O15 0.347127 0.659663 0.540388
O O16 0.902403 0.500000 0.225767
O O17 0.941118 0.750538 0.262931
O O18 0.485853 0.243474 0.413340
O O19 0.452922 0.000000 0.563557
O O20 0.971269 0.000000 0.326033
#
# Coordination Sequence:
#
# PCOD8052766 Si02
#       8
#     4   4   4   4   4   4   4   4
#     4   9  20  33  48  70 102 138 162 191 241 295
#     4   8  15  27  47  69  90 122 162 198 236 280
#     4   9  17  33  51  68  93 129 168 201 235 284
#     4   9  15  29  49  69  95 126 162 199 237 283
#     4   9  17  27  45  72  96 122 153 195 241 283
#     4  11  19  30  50  75 102 130 160 199 244 290
#     4  10  18  29  47  73  99 122 157 205 248 287
#     4   9  18  30  47  72  97 125 158 196 240 290
#
# _framework density 16.927516000000001
#
# number of rings (size 3 to 8) (size 9 to 14) (size 15 to 20)
#    0.750    2.000    1.250    3.375    0.000    1.000 
#    0.000    3.125    0.000    1.500    0.000    5.250 
#    0.000    0.000    0.000    0.000    0.000    0.000 
#
# Total GULP energy -198249.793879 kJ/mol
# GULP energy per Si atom -12390.612117 kJ/mol
# Density = 1.688899 g / cm^3
# Si number density = 16.927516 Si / 1000 Ang^3
#
#
#
# Elastic Constant Matrix: (Units=GPa)
#
#
# Indices 1 2 3 4 5 6 
#
# 1 114.5882 53.8812 33.1929 0.0000 -4.8511 0.0000
# 2 53.8812 106.2438 31.2626 0.0000 -2.5644 0.0000
# 3 33.1929 31.2626 60.4736 0.0000 -10.1403 0.0000
# 4 0.0000 0.0000 0.0000 23.7347 0.0000 0.4843
# 5 -4.8511 -2.5644 -10.1403 0.0000 18.0964 0.0000
# 6 0.0000 0.0000 0.0000 0.4843 0.0000 30.5551
#
#
#
# Elastic Compliance Matrix: (Units=1/GPa)
#
#
# Indices 1 2 3 4 5 6 
#
# 1 0.012286 -0.005017 -0.004103 0.000000 0.000284 0.000000
# 2 -0.005017 0.013204 -0.004397 0.000000 -0.001938 0.000000
# 3 -0.004103 -0.004397 0.022926 0.000000 0.011124 0.000000
# 4 0.000000 0.000000 0.000000 0.042146 0.000000 -0.000668
# 5 0.000284 -0.001938 0.011124 0.000000 0.061294 0.000000
# 6 0.000000 0.000000 0.000000 -0.000668 0.000000 0.032738
#
#
# Mechanical properties :
#
#
# Convention : Reuss Voigt Hill
#
# Bulk Modulus (GPa) = 46.76551 57.55321 52.15936
# Shear Modulus (GPa) = 22.85651 25.34184 24.09918
#
# Velocity S-wave (km/s) = 3.67857 3.87341 3.77725
# Velocity P-wave (km/s) = 6.76235 7.35377 7.06426
#
# Compressibility (1/GPa) = 0.02138328
#
# Stress axis : x y z
#
# Youngs Moduli (GPa) = 81.39108 75.73634 43.61789
#
# Poissons Ratio (x) = 0.37996 0.17895
# Poissons Ratio (y) = 0.40833 0.19179
# Poissons Ratio (z) = 0.33392 0.33302
#
# Static dielectric constant tensor:
#      x y z
#    x 3.096080 0.000000 -0.160630 
#    y 0.000000 3.037070 0.000000 
#    z -0.160630 0.000000 2.848020 
# 
# 
# High freq. dielectric constant tensor:
#      x y z
#    x 1.645990 0.000000 -0.009660 
#    y 0.000000 1.649340 0.000000 
#    z -0.009660 0.000000 1.610270 
# 
# From -- ./inp_files/24309.got.cif
#   From: 2010.03.12/outbox.cif.g09.slc.cpg/sg8_13_cif.got.tgz:24309.got - 2010.03.31 10:45:26.
