data_PCOD8052617
_publ_section_title
;
Structure prediction by ZEFSAII (Michael W. Deem and Ramdas Pophale) SiO2 
 PCOD8052617
Probable space group: P C
;
_chemical_formula_sum "Si O2"
_cell_formula_units_Z 16
_cell_length_a 9.822347
_cell_length_b 12.150530
_cell_length_c 5.309029
_cell_angle_alpha 90.000000
_cell_angle_beta 74.374656
_cell_angle_gamma 90.000000
_cell_volume 610.199020
_symmetry_space_group_name_H-M "P C"
_symmetry_group_IT_number 7
_symmetry_cell_setting 'monoclinic'
loop_
_space_group_symop_operation_xyz
x,y,z
x,-y,1/2+z
loop_
_atom_site_type_symbol
_atom_site_label
_atom_site_fract_x
_atom_site_fract_y
_atom_site_fract_z
Si Si1 0.794050 0.823683 0.156770
Si Si2 0.500656 0.888450 0.442029
Si Si3 0.386481 0.132818 0.496812
Si Si4 0.384118 0.630745 0.299472
Si Si5 0.093182 0.934344 0.009892
Si Si6 0.499559 0.385829 0.238887
Si Si7 0.080696 0.433131 0.000495
Si Si8 0.793656 0.309623 0.155185
O O1 0.662963 0.906422 0.274756
O O2 0.786844 0.730221 0.371654
O O3 0.942034 0.881454 0.128541
O O4 0.777531 0.782258 0.879157
O O5 0.490458 0.825165 0.718863
O O6 0.424407 0.004206 0.537905
O O7 0.416274 0.817391 0.265024
O O8 0.222634 0.148968 0.500255
O O9 0.429905 0.504024 0.215852
O O10 0.483147 0.676939 0.476725
O O11 0.220754 0.640884 0.462364
O O12 0.412349 0.682331 0.002726
O O13 0.106461 0.029483 0.213310
O O14 0.663065 0.395530 0.244269
O O15 0.081809 0.527507 0.211089
O O16 0.942657 0.364625 0.133478
#
# Coordination Sequence:
#
# PCOD8052617 Si02
#       8
#     2   2   2   2   2   2   2   2
#     4  12  28  46  62 100 146 182 212 266 350 412
#     4  10  20  38  66  92 132 160 219 274 321 383
#     4  10  19  39  68 101 117 159 231 286 312 366
#     4  10  19  39  68 101 117 159 231 286 312 366
#     4  12  23  43  72 101 129 175 232 280 323 393
#     4  10  20  38  66  92 132 160 219 274 321 383
#     4  12  23  43  72 101 129 175 232 280 323 393
#     4  12  28  46  62 100 146 182 212 266 350 412
#
# _framework density 26.220953000000002
#
# number of rings (size 3 to 8) (size 9 to 14) (size 15 to 20)
#    0.000    1.000    5.000    3.000    7.000    0.000 
#    0.000    7.500    0.000    0.000    0.000    0.000 
#    0.000    0.000    0.000    0.000    0.000    0.000 
#
# Total GULP energy -198409.792791 kJ/mol
# GULP energy per Si atom -12400.612049 kJ/mol
# Density = 2.616127 g / cm^3
# Si number density = 26.220953 Si / 1000 Ang^3
#
#
#
# Elastic Constant Matrix: (Units=GPa)
#
#
# Indices 1 2 3 4 5 6 
#
# 1 205.8357 20.3320 52.6816 0.0000 -24.2540 0.0000
# 2 20.3320 45.8919 30.9665 0.0000 8.5956 0.0000
# 3 52.6816 30.9665 182.6297 0.0000 15.5643 0.0000
# 4 0.0000 0.0000 0.0000 42.4296 0.0000 7.9462
# 5 -24.2540 8.5956 15.5643 0.0000 61.0795 0.0000
# 6 0.0000 0.0000 0.0000 7.9462 0.0000 34.2079
#
#
#
# Elastic Compliance Matrix: (Units=1/GPa)
#
#
# Indices 1 2 3 4 5 6 
#
# 1 0.005823 -0.002074 -0.001584 0.000000 0.003008 0.000000
# 2 -0.002074 0.025709 -0.003457 0.000000 -0.003561 0.000000
# 3 -0.001584 -0.003457 0.006676 0.000000 -0.001844 0.000000
# 4 0.000000 0.000000 0.000000 0.024640 0.000000 -0.005724
# 5 0.003008 -0.003561 -0.001844 0.000000 0.018537 0.000000
# 6 0.000000 0.000000 0.000000 -0.005724 0.000000 0.030563
#
#
# Mechanical properties :
#
#
# Convention : Reuss Voigt Hill
#
# Bulk Modulus (GPa) = 41.70801 71.36861 56.53831
# Shear Modulus (GPa) = 37.26544 49.56854 43.41699
#
# Velocity S-wave (km/s) = 3.77398 4.35261 4.07358
# Velocity P-wave (km/s) = 5.91029 7.24828 6.61321
#
# Compressibility (1/GPa) = 0.02397621
#
# Stress axis : x y z
#
# Youngs Moduli (GPa) = 171.73119 38.89665 149.79102
#
# Poissons Ratio (x) = 0.08068 0.23733
# Poissons Ratio (y) = 0.35619 0.51790
# Poissons Ratio (z) = 0.27209 0.13448
#
# Static dielectric constant tensor:
#      x y z
#    x 5.214010 0.000000 0.211970 
#    y 0.000000 4.999280 0.000000 
#    z 0.211970 0.000000 5.616940 
# 
# 
# High freq. dielectric constant tensor:
#      x y z
#    x 2.061730 0.000000 0.015860 
#    y 0.000000 2.061010 0.000000 
#    z 0.015860 0.000000 2.099820 
# 
# From -- ./inp_files/691.got.cif
#   From: 2010.03.12/outbox.cif.g09.slc.cpg/sg7_cif.got.tgz:691.got - 2010.03.30 08:40:41.
