data_PCOD8052875
_publ_section_title
;
Structure prediction by ZEFSAII (Michael W. Deem and Ramdas Pophale) SiO2 
 PCOD8052875
Probable space group: C M
;
_chemical_formula_sum "Si O2"
_cell_formula_units_Z 32
_cell_length_a 27.807579
_cell_length_b 9.263167
_cell_length_c 11.789523
_cell_angle_alpha 90.000000
_cell_angle_beta 146.581029
_cell_angle_gamma 90.000000
_cell_volume 1672.549725
_symmetry_space_group_name_H-M "C M"
_symmetry_group_IT_number 8
_symmetry_cell_setting 'monoclinic'
loop_
_space_group_symop_operation_xyz
x,y,z
x,-y,z
1/2+x,1/2+y,z
1/2+x,1/2-y,z
loop_
_atom_site_type_symbol
_atom_site_label
_atom_site_fract_x
_atom_site_fract_y
_atom_site_fract_z
Si Si1 0.831690 0.167396 0.703840
Si Si2 0.312237 0.171215 0.433067
Si Si3 0.973396 0.666328 0.595629
Si Si4 0.731188 0.829997 0.897624
Si Si5 0.665371 0.831526 0.530373
Si Si6 0.666487 0.166154 0.014169
Si Si7 0.427143 0.670908 0.287949
Si Si8 0.995929 0.168607 0.179810
O O1 0.827558 0.268078 0.587278
O O2 0.749758 0.201715 0.621723
O O3 0.832304 0.000000 0.668400
O O4 0.918761 0.209705 0.942552
O O5 0.393829 0.220961 0.516652
O O6 0.304373 0.000000 0.423473
O O7 0.222646 0.234316 0.207150
O O8 0.960922 0.500000 0.536972
O O9 0.980036 0.757859 0.494284
O O10 0.064387 0.687387 0.842769
O O11 0.681979 0.768374 0.689869
O O12 0.679829 0.786387 0.909803
O O13 0.738484 0.000000 0.894852
O O14 0.828788 0.767030 0.097152
O O15 0.583036 0.751130 0.312867
O O16 0.643849 0.000000 0.490465
O O17 0.695715 0.000000 0.088762
O O18 0.428947 0.500000 0.307339
O O19 0.470354 0.719080 0.255498
O O20 0.015086 0.000000 0.214076
#
# Coordination Sequence:
#
# PCOD8052875 Si02
#       8
#     4   4   4   4   4   4   4   4
#     4  10  22  41  61  79 108 153 196 229 273 339
#     4  11  24  40  57  82 115 145 186 245 290 321
#     4  10  22  38  57  85 117 147 185 234 283 331
#     4   9  16  31  58  86 111 145 186 223 266 331
#     4  10  20  37  61  86 113 148 189 229 274 334
#     4  10  20  37  61  84 111 151 190 223 273 344
#     4  10  18  33  59  87 116 150 186 224 273 336
#     4  10  21  37  58  87 119 147 182 231 282 332
#
# _framework density 19.132466000000001
#
# number of rings (size 3 to 8) (size 9 to 14) (size 15 to 20)
#    0.000    2.000    2.500    1.125    0.000    4.500 
#    0.000    5.000    0.000    0.000    0.000    0.000 
#    0.000    0.000    0.000    0.000    0.000    0.000 
#
# Total GULP energy -198442.081239 kJ/mol
# GULP energy per Si atom -12402.630077 kJ/mol
# Density = 1.908892 g / cm^3
# Si number density = 19.132466 Si / 1000 Ang^3
#
#
#
# Elastic Constant Matrix: (Units=GPa)
#
#
# Indices 1 2 3 4 5 6 
#
# 1 52.5144 32.5521 58.7450 0.0000 -14.9928 0.0000
# 2 32.5521 50.0488 53.6841 0.0000 -9.1449 0.0000
# 3 58.7450 53.6841 141.2517 0.0000 2.1345 0.0000
# 4 0.0000 0.0000 0.0000 31.5336 0.0000 -1.4233
# 5 -14.9928 -9.1449 2.1345 0.0000 37.0216 0.0000
# 6 0.0000 0.0000 0.0000 -1.4233 0.0000 28.9405
#
#
#
# Elastic Compliance Matrix: (Units=1/GPa)
#
#
# Indices 1 2 3 4 5 6 
#
# 1 0.050121 -0.011061 -0.016921 0.000000 0.018541 0.000000
# 2 -0.011061 0.039525 -0.010511 0.000000 0.005890 0.000000
# 3 -0.016921 -0.010511 0.018270 0.000000 -0.010502 0.000000
# 4 0.000000 0.000000 0.000000 0.031783 0.000000 0.001563
# 5 0.018541 0.005890 -0.010502 0.000000 0.036580 0.000000
# 6 0.000000 0.000000 0.000000 0.001563 0.000000 0.034630
#
#
# Mechanical properties :
#
#
# Convention : Reuss Voigt Hill
#
# Bulk Modulus (GPa) = 32.33052 59.30860 45.81956
# Shear Modulus (GPa) = 16.76695 26.08805 21.42750
#
# Velocity S-wave (km/s) = 2.96355 3.69663 3.35020
# Velocity P-wave (km/s) = 5.35211 7.02042 6.24225
#
# Compressibility (1/GPa) = 0.03093053
#
# Stress axis : x y z
#
# Youngs Moduli (GPa) = 19.95174 25.30035 54.73384
#
# Poissons Ratio (x) = 0.27985 0.92615
# Poissons Ratio (y) = 0.22069 0.57529
# Poissons Ratio (z) = 0.33760 0.26592
#
# Static dielectric constant tensor:
#      x y z
#    x 3.508300 0.000000 0.074270 
#    y 0.000000 3.231920 0.000000 
#    z 0.074270 0.000000 3.590370 
# 
# 
# High freq. dielectric constant tensor:
#      x y z
#    x 1.745170 0.000000 0.007390 
#    y 0.000000 1.722160 0.000000 
#    z 0.007390 0.000000 1.755430 
# 
# From -- ./inp_files/21360.got.cif
#   From: 2010.03.12/outbox.cif.g09.slc.cpg/sg8_11_cif.got.tgz:21360.got - 2010.03.31 10:45:26.
