data_PCOD8052397
_publ_section_title
;
Structure prediction by ZEFSAII (Michael W. Deem and Ramdas Pophale) SiO2 
 PCOD8052397
Probable space group: P M
;
_chemical_formula_sum "Si O2"
_cell_formula_units_Z 16
_cell_length_a 21.730597
_cell_length_b 8.981310
_cell_length_c 9.428526
_cell_angle_alpha 90.000000
_cell_angle_beta 151.217155
_cell_angle_gamma 90.000000
_cell_volume 886.020093
_symmetry_space_group_name_H-M "P M"
_symmetry_group_IT_number 6
_symmetry_cell_setting 'monoclinic'
loop_
_space_group_symop_operation_xyz
x,y,z
x,-y,z
loop_
_atom_site_type_symbol
_atom_site_label
_atom_site_fract_x
_atom_site_fract_y
_atom_site_fract_z
Si Si1 0.927680 0.177181 0.894480
Si Si2 0.682002 0.828302 0.903885
Si Si3 0.908236 0.177298 0.174761
Si Si4 0.681434 0.824174 0.224806
Si Si5 0.146385 0.324591 0.159645
Si Si6 0.130645 0.828493 0.825959
Si Si7 0.409740 0.168776 0.395420
Si Si8 0.430348 0.671550 0.723247
O O1 0.803012 0.233280 0.557979
O O2 0.941481 0.000000 0.914847
O O3 0.914507 0.238079 0.027930
O O4 0.053495 0.249678 0.084266
O O5 0.535450 0.805901 0.550493
O O6 0.720024 0.000000 0.988688
O O7 0.782026 0.754102 0.996936
O O8 0.694883 0.764196 0.090085
O O9 0.031183 0.234704 0.510572
O O10 0.904437 0.000000 0.161078
O O11 0.672220 0.000000 0.211818
O O12 0.550008 0.762427 0.030378
O O13 0.122551 0.500000 0.104144
O O14 0.290940 0.289094 0.507089
O O15 0.119319 0.260052 0.949125
O O16 0.099544 0.000000 0.798670
O O17 0.272670 0.812351 0.041828
O O18 0.417372 0.290978 0.532019
O O19 0.419458 0.000000 0.479423
O O20 0.463003 0.500000 0.809091
#
# Coordination Sequence:
#
# PCOD8052397 Si02
#       8
#     2   2   2   2   2   2   2   2
#     4  10  20  33  49  71 100 133 166 200 240 286
#     4   8  13  24  43  65  89 116 148 189 233 276
#     4   9  17  29  46  70  98 125 156 196 240 285
#     4   9  17  30  49  72  96 125 160 196 239 289
#     4  10  20  33  50  73  99 129 165 202 242 288
#     4   9  16  29  50  73  96 123 157 198 241 286
#     4   8  14  25  44  69  94 120 151 190 238 287
#     4   9  17  29  47  71  96 121 155 201 245 283
#
# _framework density 18.058281999999998
#
# number of rings (size 3 to 8) (size 9 to 14) (size 15 to 20)
#    0.000    3.000    0.000    2.250    0.000    4.000 
#    0.000    1.875    0.000    7.500    0.000    3.500 
#    0.000    0.000    0.000    0.000    0.000    0.000 
#
# Total GULP energy -198226.924859 kJ/mol
# GULP energy per Si atom -12389.182804 kJ/mol
# Density = 1.801718 g / cm^3
# Si number density = 18.058282 Si / 1000 Ang^3
#
#
#
# Elastic Constant Matrix: (Units=GPa)
#
#
# Indices 1 2 3 4 5 6 
#
# 1 127.5043 28.9297 96.9177 0.0000 19.3370 0.0000
# 2 28.9297 31.0350 26.9232 0.0000 8.6742 0.0000
# 3 96.9177 26.9232 116.2281 0.0000 35.4719 0.0000
# 4 0.0000 0.0000 0.0000 16.1420 0.0000 6.9581
# 5 19.3370 8.6742 35.4719 0.0000 29.1430 0.0000
# 6 0.0000 0.0000 0.0000 6.9581 0.0000 10.3102
#
#
#
# Elastic Compliance Matrix: (Units=1/GPa)
#
#
# Indices 1 2 3 4 5 6 
#
# 1 0.025554 -0.006944 -0.024114 0.000000 0.014461 0.000000
# 2 -0.006944 0.042231 -0.002485 0.000000 -0.004937 0.000000
# 3 -0.024114 -0.002485 0.038468 0.000000 -0.030082 0.000000
# 4 0.000000 0.000000 0.000000 0.087365 0.000000 -0.058961
# 5 0.014461 -0.004937 -0.030082 0.000000 0.062802 0.000000
# 6 0.000000 0.000000 0.000000 -0.058961 0.000000 0.136782
#
#
# Mechanical properties :
#
#
# Convention : Reuss Voigt Hill
#
# Bulk Modulus (GPa) = 25.53195 64.47874 45.00534
# Shear Modulus (GPa) = 10.56315 19.25216 14.90765
#
# Velocity S-wave (km/s) = 2.42119 3.26868 2.87632
# Velocity P-wave (km/s) = 4.68888 7.07313 6.00061
#
# Compressibility (1/GPa) = 0.03916661
#
# Stress axis : x y z
#
# Youngs Moduli (GPa) = 39.13235 23.67955 25.99595
#
# Poissons Ratio (x) = 0.16443 0.62686
# Poissons Ratio (y) = 0.27173 0.06461
# Poissons Ratio (z) = 0.94362 0.05885
#
# Static dielectric constant tensor:
#      x y z
#    x 3.353990 0.000000 0.362270 
#    y 0.000000 3.022660 0.000000 
#    z 0.362270 0.000000 3.674660 
# 
# 
# High freq. dielectric constant tensor:
#      x y z
#    x 1.675900 0.000000 0.034490 
#    y 0.000000 1.666250 0.000000 
#    z 0.034490 0.000000 1.707230 
# 
# From -- ./inp_files/3535.got.cif
#   From: 2010.03.12/outbox.cif.g09.slc.cpg/sg6_2_cif.got.tgz:3535.got - 2010.03.30 10:24:59.
