data_PCOD8052180
_publ_section_title
;
Structure prediction by ZEFSAII (Michael W. Deem and Ramdas Pophale) SiO2 
 PCOD8052180
Probable space group: C 2
;
_chemical_formula_sum "Si O2"
_cell_formula_units_Z 20
_cell_length_a 9.680249
_cell_length_b 7.323317
_cell_length_c 11.312870
_cell_angle_alpha 90.000000
_cell_angle_beta 90.659877
_cell_angle_gamma 90.000000
_cell_volume 801.933498
_symmetry_space_group_name_H-M "C 2"
_symmetry_group_IT_number 5
_symmetry_cell_setting 'monoclinic'
loop_
_space_group_symop_operation_xyz
x,y,z
-x,y,-z
1/2+x,1/2+y,z
1/2-x,1/2+y,-z
loop_
_atom_site_type_symbol
_atom_site_label
_atom_site_fract_x
_atom_site_fract_y
_atom_site_fract_z
Si Si1 0.845335 0.845970 0.955738
Si Si2 0.141530 0.449709 0.145988
Si Si3 0.366520 0.705957 0.433268
Si Si4 0.194247 0.822586 0.641918
Si Si5 0.851426 0.476459 0.222280
O O1 0.833425 0.657552 0.887355
O O2 0.786883 0.993108 0.859971
O O3 0.740822 0.827427 0.065147
O O4 0.000000 0.897397 0.000000
O O5 0.177574 0.406833 0.282954
O O6 0.976200 0.414882 0.135417
O O7 0.500000 0.786485 0.500000
O O8 0.241868 0.713320 0.525954
O O9 0.398856 0.496658 0.394436
O O10 0.326090 0.826143 0.321288
O O11 0.112446 0.674570 0.720983
#
# Coordination Sequence:
#
# PCOD8052180 Si02
#       5
#     4   4   4   4   4
#     4  12  27  49  78 115 155 208 259 322 387 462
#     4  12  26  50  77 116 155 204 260 324 382 463
#     4  12  26  47  78 115 155 206 257 316 384 458
#     4  12  26  47  79 116 153 206 259 316 384 461
#     4  12  27  50  81 114 157 204 263 318 384 460
#
# _framework density 24.939722
#
# number of rings (size 3 to 8) (size 9 to 14) (size 15 to 20)
#    0.000    0.000    6.000    4.200    0.000    8.800 
#    3.600    1.000    0.000    0.000    0.000    0.000 
#    0.000    0.000    0.000    0.000    0.000    0.000 
#
# Total GULP energy -123979.903209 kJ/mol
# GULP energy per Si atom -12397.990321 kJ/mol
# Density = 2.488296 g / cm^3
# Si number density = 24.939722 Si / 1000 Ang^3
#
#
#
# Elastic Constant Matrix: (Units=GPa)
#
#
# Indices 1 2 3 4 5 6 
#
# 1 143.1085 27.2243 70.8042 0.0000 0.3739 0.0000
# 2 27.2243 111.6927 55.3917 0.0000 -2.7856 0.0000
# 3 70.8042 55.3917 149.6312 0.0000 -3.1805 0.0000
# 4 0.0000 0.0000 0.0000 50.6861 0.0000 1.3891
# 5 0.3739 -2.7856 -3.1805 0.0000 42.7652 0.0000
# 6 0.0000 0.0000 0.0000 1.3891 0.0000 25.9748
#
#
#
# Elastic Compliance Matrix: (Units=1/GPa)
#
#
# Indices 1 2 3 4 5 6 
#
# 1 0.009132 -0.000109 -0.004289 0.000000 -0.000406 0.000000
# 2 -0.000109 0.010975 -0.004003 0.000000 0.000418 0.000000
# 3 -0.004289 -0.004003 0.010206 0.000000 0.000536 0.000000
# 4 0.000000 0.000000 0.000000 0.019758 0.000000 -0.001057
# 5 -0.000406 0.000418 0.000536 0.000000 0.023454 0.000000
# 6 0.000000 0.000000 0.000000 -0.001057 0.000000 0.038555
#
#
# Mechanical properties :
#
#
# Convention : Reuss Voigt Hill
#
# Bulk Modulus (GPa) = 74.01173 79.03032 76.52103
# Shear Modulus (GPa) = 37.48539 40.61938 39.05238
#
# Velocity S-wave (km/s) = 3.88111 4.04010 3.96140
# Velocity P-wave (km/s) = 7.05866 7.31577 7.18837
#
# Compressibility (1/GPa) = 0.01351137
#
# Stress axis : x y z
#
# Youngs Moduli (GPa) = 109.50900 91.11605 97.98258
#
# Poissons Ratio (x) = 0.00990 0.42029
# Poissons Ratio (y) = 0.01190 0.39218
# Poissons Ratio (z) = 0.46973 0.36469
#
# Static dielectric constant tensor:
#      x y z
#    x 4.237060 0.000000 0.012110 
#    y 0.000000 4.392680 0.000000 
#    z 0.012110 0.000000 4.883530 
# 
# 
# High freq. dielectric constant tensor:
#      x y z
#    x 1.971370 0.000000 0.004400 
#    y 0.000000 1.998300 0.000000 
#    z 0.004400 0.000000 2.019230 
# 
# From -- ./inp_files/34779.got.cif
#   From: 2010.03.12/outbox.cif.g09.slc.cpg/sg5_18_cif.got.tgz:34779.got - 2010.03.31 09:47:26.
