data_PCOD8052147
_publ_section_title
;
Structure prediction by ZEFSAII (Michael W. Deem and Ramdas Pophale) SiO2 
 PCOD8052147
Probable space group: C 2
;
_chemical_formula_sum "Si O2"
_cell_formula_units_Z 30
_cell_length_a 11.181085
_cell_length_b 11.507578
_cell_length_c 19.066865
_cell_angle_alpha 90.000000
_cell_angle_beta 30.143533
_cell_angle_gamma 90.000000
_cell_volume 1231.958679
_symmetry_space_group_name_H-M "C 2"
_symmetry_group_IT_number 5
_symmetry_cell_setting 'monoclinic'
loop_
_space_group_symop_operation_xyz
x,y,z
-x,y,-z
1/2+x,1/2+y,z
1/2-x,1/2+y,-z
loop_
_atom_site_type_symbol
_atom_site_label
_atom_site_fract_x
_atom_site_fract_y
_atom_site_fract_z
Si Si1 0.300404 0.763240 0.723965
Si Si2 0.910756 0.357285 0.116770
Si Si3 0.731457 0.109447 0.642173
Si Si4 0.483963 0.551480 0.704934
Si Si5 0.930510 0.136130 0.190517
Si Si6 0.500000 0.337890 0.000000
Si Si7 0.466410 0.005479 0.396642
Si Si8 0.314592 0.995111 0.924832
O O1 0.226726 0.742619 0.678238
O O2 0.444120 0.643920 0.663201
O O3 0.476199 0.870667 0.648926
O O4 0.074409 0.765629 0.892431
O O5 0.691153 0.442271 0.211873
O O6 0.842717 0.263725 0.211564
O O7 0.149257 0.423359 0.022023
O O8 0.000000 0.295929 0.000000
O O9 0.000000 0.060254 0.500000
O O10 0.593615 0.089650 0.638946
O O11 0.581564 0.036643 0.774499
O O12 0.448724 0.627641 0.794108
O O13 0.753202 0.505576 0.560563
O O14 0.706278 0.051878 0.309479
O O15 0.120533 0.094934 0.036040
O O16 0.273571 0.416293 0.094933
#
# Coordination Sequence:
#
# PCOD8052147 Si02
#       8
#     4   4   4   4   4   2   4   4
#     4  12  27  46  84 109 151 211 253 325 394 471
#     4  12  28  47  79 116 159 206 260 331 389 474
#     4  12  26  49  77 109 151 204 255 320 391 463
#     4  12  28  54  75 114 161 203 264 327 395 472
#     4  12  29  47  77 115 156 207 259 324 393 466
#     4  12  26  46  76 116 150 202 264 324 388 470
#     4  12  28  53  75 114 155 203 268 321 396 472
#     4  12  24  49  73 109 158 201 259 323 384 464
#
# _framework density 24.351465999999999
#
# number of rings (size 3 to 8) (size 9 to 14) (size 15 to 20)
#    0.000    0.000    6.667    1.200    9.333    2.133 
#    0.000    0.000    0.000    0.000    0.000    0.000 
#    0.000    0.000    0.000    0.000    0.000    0.000 
#
# Total GULP energy -185895.491750 kJ/mol
# GULP energy per Si atom -12393.032783 kJ/mol
# Density = 2.429604 g / cm^3
# Si number density = 24.351466 Si / 1000 Ang^3
#
#
#
# Elastic Constant Matrix: (Units=GPa)
#
#
# Indices 1 2 3 4 5 6 
#
# 1 115.1691 44.9645 36.3483 0.0003 7.8155 0.0012
# 2 44.9645 122.0157 58.6963 -0.0079 4.2734 0.0024
# 3 36.3483 58.6963 115.1863 -0.0192 -12.8475 0.0098
# 4 0.0003 -0.0079 -0.0192 19.2604 -0.0033 -0.9772
# 5 7.8155 4.2734 -12.8475 -0.0033 38.2107 -0.0015
# 6 0.0012 0.0024 0.0098 -0.9772 -0.0015 51.3617
#
#
#
# Elastic Compliance Matrix: (Units=1/GPa)
#
#
# Indices 1 2 3 4 5 6 
#
# 1 0.010645 -0.002747 -0.002252 -0.000004 -0.002627 0.000000
# 2 -0.002747 0.011955 -0.005518 -0.000001 -0.002631 0.000000
# 3 -0.002252 -0.005518 0.012805 0.000011 0.005383 -0.000002
# 4 -0.000004 -0.000001 0.000011 0.051970 0.000009 0.000989
# 5 -0.002627 -0.002631 0.005383 0.000009 0.028812 0.000000
# 6 0.000000 0.000000 -0.000002 0.000989 0.000000 0.019489
#
#
# Mechanical properties :
#
#
# Convention : Reuss Voigt Hill
#
# Bulk Modulus (GPa) = 69.59605 70.26545 69.93075
# Shear Modulus (GPa) = 30.95975 35.92402 33.44188
#
# Velocity S-wave (km/s) = 3.56950 3.84504 3.70983
# Velocity P-wave (km/s) = 6.75502 6.97351 6.86513
#
# Compressibility (1/GPa) = 0.01436863
#
# Stress axis : x y z
#
# Youngs Moduli (GPa) = 93.94494 83.64809 78.09627
#
# Poissons Ratio (x) = 0.22980 0.17588
# Poissons Ratio (y) = 0.25809 0.43096
# Poissons Ratio (z) = 0.21157 0.46160
#
# Static dielectric constant tensor:
#      x y z
#    x 4.478280 0.000000 0.064340 
#    y 0.000000 4.251740 0.000030 
#    z 0.064340 0.000030 4.378660 
# 
# 
# High freq. dielectric constant tensor:
#      x y z
#    x 1.984600 0.000000 0.004110 
#    y 0.000000 1.950990 0.000000 
#    z 0.004110 0.000000 1.973960 
# 
# From -- ./inp_files/65341.got.cif
#   From: 2010.03.12/outbox.cif.g09.slc.cpg/sg5_33_cif.got.tgz:65341.got - 2010.03.31 09:47:26.
