data_PCOD8052813
_publ_section_title
;
Structure prediction by ZEFSAII (Michael W. Deem and Ramdas Pophale) SiO2 
 PCOD8052813
Probable space group: C M
;
_chemical_formula_sum "Si O2"
_cell_formula_units_Z 32
_cell_length_a 20.156979
_cell_length_b 8.515253
_cell_length_c 19.866753
_cell_angle_alpha 90.000000
_cell_angle_beta 149.772323
_cell_angle_gamma 90.000000
_cell_volume 1716.703728
_symmetry_space_group_name_H-M "C M"
_symmetry_group_IT_number 8
_symmetry_cell_setting 'monoclinic'
loop_
_space_group_symop_operation_xyz
x,y,z
x,-y,z
1/2+x,1/2+y,z
1/2+x,1/2-y,z
loop_
_atom_site_type_symbol
_atom_site_label
_atom_site_fract_x
_atom_site_fract_y
_atom_site_fract_z
Si Si1 0.504060 0.316641 0.400800
Si Si2 0.258292 0.686642 0.862312
Si Si3 0.292484 0.315907 0.042121
Si Si4 0.069773 0.683472 0.322210
Si Si5 0.025966 0.313645 0.563841
Si Si6 0.739460 0.313632 0.360306
Si Si7 0.041446 0.185170 0.072524
Si Si8 0.728344 0.316711 0.121173
O O1 0.527033 0.500000 0.412089
O O2 0.587156 0.227776 0.415804
O O3 0.557119 0.261466 0.519191
O O4 0.349865 0.278226 0.258728
O O5 0.263351 0.500000 0.863300
O O6 0.137001 0.750561 0.712253
O O7 0.239708 0.740406 0.923334
O O8 0.395518 0.757393 0.953509
O O9 0.272727 0.500000 0.035258
O O10 0.446881 0.277623 0.183127
O O11 0.207938 0.225979 0.025014
O O12 0.042171 0.500000 0.291007
O O13 0.200853 0.733870 0.397188
O O14 0.029769 0.500000 0.559559
O O15 0.885447 0.256991 0.468811
O O16 0.733890 0.500000 0.363191
O O17 0.639820 0.249755 0.215891
O O18 0.097439 0.230042 0.047882
O O19 0.034028 0.000000 0.074878
O O20 0.760821 0.500000 0.158078
#
# Coordination Sequence:
#
# PCOD8052813 Si02
#       8
#     4   4   4   4   4   4   4   4
#     4  11  21  34  53  78 109 142 175 220 270 315
#     4   9  18  33  55  78 104 141 180 211 256 319
#     4  10  18  32  53  78 108 141 174 216 266 315
#     4  11  21  33  53  81 108 137 178 225 265 312
#     4  10  20  36  57  79 106 144 180 214 260 320
#     4  10  18  33  55  79 107 139 177 220 264 311
#     4   9  16  30  53  79 105 136 176 216 256 307
#     4  10  18  31  53  80 107 138 176 220 263 311
#
# _framework density 18.640373
#
# number of rings (size 3 to 8) (size 9 to 14) (size 15 to 20)
#    0.000    2.000    2.500    4.500    0.000    0.500 
#    0.000    2.500    0.000    3.000    0.000    0.000 
#    0.000    0.000    0.000    0.000    0.000    0.000 
#
# Total GULP energy -198401.806759 kJ/mol
# GULP energy per Si atom -12400.112922 kJ/mol
# Density = 1.859795 g / cm^3
# Si number density = 18.640373 Si / 1000 Ang^3
#
#
#
# Elastic Constant Matrix: (Units=GPa)
#
#
# Indices 1 2 3 4 5 6 
#
# 1 162.6597 21.7466 75.1364 0.0000 -8.6863 0.0000
# 2 21.7466 37.1394 10.7459 0.0000 -1.4014 0.0000
# 3 75.1364 10.7459 119.5548 -0.0001 -7.8151 -0.0001
# 4 0.0000 0.0000 -0.0001 13.0037 0.0000 -4.4834
# 5 -8.6863 -1.4014 -7.8151 0.0000 31.2354 0.0000
# 6 0.0000 0.0000 -0.0001 -4.4834 0.0000 31.2807
#
#
#
# Elastic Compliance Matrix: (Units=1/GPa)
#
#
# Indices 1 2 3 4 5 6 
#
# 1 0.009189 -0.003788 -0.005366 0.000000 0.001043 0.000000
# 2 -0.003788 0.029219 -0.000232 0.000000 0.000199 0.000000
# 3 -0.005366 -0.000232 0.011853 0.000000 0.001463 0.000000
# 4 0.000000 0.000000 0.000000 0.080899 0.000000 0.011595
# 5 0.001043 0.000199 0.001463 0.000000 0.032680 0.000000
# 6 0.000000 0.000000 0.000000 0.011595 0.000000 0.033630
#
#
# Mechanical properties :
#
#
# Convention : Reuss Voigt Hill
#
# Bulk Modulus (GPa) = 31.75926 59.40130 45.58028
# Shear Modulus (GPa) = 22.05178 29.21896 25.63537
#
# Velocity S-wave (km/s) = 3.44322 3.96347 3.71247
# Velocity P-wave (km/s) = 5.73434 7.27198 6.54845
#
# Compressibility (1/GPa) = 0.03148688
#
# Stress axis : x y z
#
# Youngs Moduli (GPa) = 108.82897 34.22484 84.36439
#
# Poissons Ratio (x) = 0.12966 0.45271
# Poissons Ratio (y) = 0.41229 0.01960
# Poissons Ratio (z) = 0.58399 0.00795
#
# Static dielectric constant tensor:
#      x y z
#    x 3.754560 0.000000 -0.057460 
#    y 0.000000 3.164930 0.000000 
#    z -0.057460 0.000000 3.357370 
# 
# 
# High freq. dielectric constant tensor:
#      x y z
#    x 1.743310 0.000000 -0.007140 
#    y 0.000000 1.703310 0.000000 
#    z -0.007140 0.000000 1.690280 
# 
# From -- ./inp_files/30047.got.cif
#   From: 2010.03.12/outbox.cif.g09.slc.cpg/sg8_16_cif.got.tgz:30047.got - 2010.03.31 10:45:26.
