data_PCOD8052204
_publ_section_title
;
Structure prediction by ZEFSAII (Michael W. Deem and Ramdas Pophale) SiO2 
 PCOD8052204
Probable space group: C 2
;
_chemical_formula_sum "Si O2"
_cell_formula_units_Z 16
_cell_length_a 17.844433
_cell_length_b 5.097452
_cell_length_c 7.888840
_cell_angle_alpha 90.000000
_cell_angle_beta 63.783887
_cell_angle_gamma 90.000000
_cell_volume 643.763642
_symmetry_space_group_name_H-M "C 2"
_symmetry_group_IT_number 5
_symmetry_cell_setting 'monoclinic'
loop_
_space_group_symop_operation_xyz
x,y,z
-x,y,-z
1/2+x,1/2+y,z
1/2-x,1/2+y,-z
loop_
_atom_site_type_symbol
_atom_site_label
_atom_site_fract_x
_atom_site_fract_y
_atom_site_fract_z
Si Si1 0.027511 0.747370 0.722442
Si Si2 0.083903 0.247442 0.165950
Si Si3 0.345348 0.571779 0.244733
Si Si4 0.845412 0.423241 0.564742
O O1 0.971718 0.498096 0.824669
O O2 0.090190 0.671222 0.502875
O O3 0.971660 0.996708 0.732236
O O4 0.090421 0.823407 0.816155
O O5 0.144165 0.283128 0.266265
O O6 0.144107 0.211889 0.945180
O O7 0.249933 0.497896 0.364116
O O8 0.372765 0.747402 0.377401
#
# Coordination Sequence:
#
# PCOD8052204 Si02
#       4
#     4   4   4   4
#     4  12  28  52  82 118 160 210 272 326 398 480
#     4  12  32  50  82 120 160 214 268 332 398 480
#     4  12  29  52  81 118 165 213 265 331 406 477
#     4  12  29  52  81 118 165 213 265 331 406 477
#
# _framework density 24.853842
#
# number of rings (size 3 to 8) (size 9 to 14) (size 15 to 20)
#    0.000    0.000    5.000    1.500   14.000    4.000 
#    0.000    0.000    0.000    0.000    0.000    0.000 
#    0.000    0.000    0.000    0.000    0.000    0.000 
#
# Total GULP energy -99198.237620 kJ/mol
# GULP energy per Si atom -12399.779702 kJ/mol
# Density = 2.479727 g / cm^3
# Si number density = 24.853842 Si / 1000 Ang^3
#
#
#
# Elastic Constant Matrix: (Units=GPa)
#
#
# Indices 1 2 3 4 5 6 
#
# 1 65.0671 36.6213 56.5419 0.0000 4.9442 0.0000
# 2 36.6213 139.7859 39.3664 0.0000 2.7711 0.0000
# 3 56.5419 39.3664 111.8640 0.0000 45.3702 0.0000
# 4 0.0000 0.0000 0.0000 38.0298 0.0000 1.8197
# 5 4.9442 2.7711 45.3702 0.0000 49.6745 0.0000
# 6 0.0000 0.0000 0.0000 1.8197 0.0000 36.3720
#
#
#
# Elastic Compliance Matrix: (Units=1/GPa)
#
#
# Indices 1 2 3 4 5 6 
#
# 1 0.039296 -0.002982 -0.027470 0.000000 0.021345 0.000000
# 2 -0.002982 0.008534 -0.002261 0.000000 0.001886 0.000000
# 3 -0.027470 -0.002261 0.035675 0.000000 -0.029724 0.000000
# 4 0.000000 0.000000 0.000000 0.026358 0.000000 -0.001319
# 5 0.021345 0.001886 -0.029724 0.000000 0.045050 0.000000
# 6 0.000000 0.000000 0.000000 -0.001319 0.000000 0.027560
#
#
# Mechanical properties :
#
#
# Convention : Reuss Voigt Hill
#
# Bulk Modulus (GPa) = 55.30992 64.64181 59.97587
# Shear Modulus (GPa) = 19.69078 37.09442 28.39260
#
# Velocity S-wave (km/s) = 2.81777 3.86748 3.38358
# Velocity P-wave (km/s) = 5.73488 6.78295 6.28082
#
# Compressibility (1/GPa) = 0.01807994
#
# Stress axis : x y z
#
# Youngs Moduli (GPa) = 25.44790 117.17356 28.03046
#
# Poissons Ratio (x) = 0.34939 0.77000
# Poissons Ratio (y) = 0.07588 0.06338
# Poissons Ratio (z) = 0.69906 0.26493
#
# Static dielectric constant tensor:
#      x y z
#    x 4.429580 0.000000 -0.009710 
#    y 0.000000 4.982730 0.000000 
#    z -0.009710 0.000000 4.421110 
# 
# 
# High freq. dielectric constant tensor:
#      x y z
#    x 2.002860 0.000000 -0.007870 
#    y 0.000000 1.997800 0.000000 
#    z -0.007870 0.000000 1.995610 
# 
# From -- ./inp_files/7844.got.cif
#   From: 2010.03.12/outbox.cif.g09.slc.cpg/sg5_4_cif.got.tgz:7844.got - 2010.03.31 09:47:26.
