data_PCOD8052249
_publ_section_title
;
Structure prediction by ZEFSAII (Michael W. Deem and Ramdas Pophale) SiO2 
 PCOD8052249
Probable space group: P M
;
_chemical_formula_sum "Si O2"
_cell_formula_units_Z 16
_cell_length_a 12.212969
_cell_length_b 9.077427
_cell_length_c 18.574397
_cell_angle_alpha 90.000000
_cell_angle_beta 152.513724
_cell_angle_gamma 90.000000
_cell_volume 950.395678
_symmetry_space_group_name_H-M "P M"
_symmetry_group_IT_number 6
_symmetry_cell_setting 'monoclinic'
loop_
_space_group_symop_operation_xyz
x,y,z
x,-y,z
loop_
_atom_site_type_symbol
_atom_site_label
_atom_site_fract_x
_atom_site_fract_y
_atom_site_fract_z
Si Si1 0.337930 0.673169 0.957490
Si Si2 0.442127 0.668585 0.857825
Si Si3 0.895796 0.826436 0.149074
Si Si4 0.408917 0.837336 0.441210
Si Si5 0.837403 0.673211 0.730891
Si Si6 0.803585 0.825308 0.257354
Si Si7 0.570384 0.836162 0.687091
Si Si8 0.219239 0.328438 0.580412
O O1 0.382275 0.500000 0.993185
O O2 0.332227 0.719381 0.869984
O O3 0.088172 0.721748 0.845392
O O4 0.540506 0.761762 0.118665
O O5 0.519269 0.500000 0.906459
O O6 0.246491 0.694768 0.682058
O O7 0.683510 0.755885 0.979476
O O8 0.876188 0.772681 0.220046
O O9 0.151759 0.777623 0.264911
O O10 0.870104 0.000000 0.129613
O O11 0.628978 0.727366 0.553419
O O12 0.379087 0.852423 0.510861
O O13 0.463022 0.000000 0.440097
O O14 0.815393 0.500000 0.728198
O O15 0.800937 0.752909 0.787365
O O16 0.982562 0.755527 0.419257
O O17 0.803957 0.000000 0.267390
O O18 0.455094 0.739671 0.682445
O O19 0.640467 0.000000 0.756453
O O20 0.201180 0.500000 0.548918
#
# Coordination Sequence:
#
# PCOD8052249 Si02
#       8
#     2   2   2   2   2   2   2   2
#     4   9  18  33  49  70  98 126 159 197 235 276
#     4   9  20  33  46  68  99 129 155 190 233 282
#     4   9  16  29  46  68  93 120 154 193 236 279
#     4   8  15  27  44  68  96 119 146 191 236 275
#     4   9  16  27  47  72  94 121 159 198 235 276
#     4  10  18  29  48  70  94 123 160 199 235 277
#     4   9  17  29  46  69  96 121 150 193 237 278
#     4  11  20  31  48  71  98 127 159 193 237 287
#
# _framework density 16.835093000000001
#
# number of rings (size 3 to 8) (size 9 to 14) (size 15 to 20)
#    0.750    2.000    1.250    1.125    0.000    3.000 
#    0.000    0.000    0.000    1.500    0.000    7.000 
#    0.000    0.000    0.000    0.000    0.000    0.000 
#
# Total GULP energy -198252.848452 kJ/mol
# GULP energy per Si atom -12390.803028 kJ/mol
# Density = 1.679678 g / cm^3
# Si number density = 16.835093 Si / 1000 Ang^3
#
#
#
# Elastic Constant Matrix: (Units=GPa)
#
#
# Indices 1 2 3 4 5 6 
#
# 1 69.2191 37.9860 48.4346 0.0000 19.4789 0.0000
# 2 37.9860 82.3781 51.1351 0.0000 14.5580 0.0000
# 3 48.4346 51.1351 107.5271 0.0000 18.5435 0.0000
# 4 0.0000 0.0000 0.0000 28.7467 0.0000 5.0269
# 5 19.4789 14.5580 18.5435 0.0000 28.2435 0.0000
# 6 0.0000 0.0000 0.0000 5.0269 0.0000 18.3605
#
#
#
# Elastic Compliance Matrix: (Units=1/GPa)
#
#
# Indices 1 2 3 4 5 6 
#
# 1 0.025158 -0.005499 -0.007007 0.000000 -0.009916 0.000000
# 2 -0.005499 0.018825 -0.006153 0.000000 -0.001871 0.000000
# 3 -0.007007 -0.006153 0.015790 0.000000 -0.002363 0.000000
# 4 0.000000 0.000000 0.000000 0.036536 0.000000 -0.010003
# 5 -0.009916 -0.001871 -0.002363 0.000000 0.044761 0.000000
# 6 0.000000 0.000000 0.000000 -0.010003 0.000000 0.057203
#
#
# Mechanical properties :
#
#
# Convention : Reuss Voigt Hill
#
# Bulk Modulus (GPa) = 44.53315 59.35950 51.94633
# Shear Modulus (GPa) = 20.56982 23.17473 21.87228
#
# Velocity S-wave (km/s) = 3.49928 3.71424 3.60836
# Velocity P-wave (km/s) = 6.54497 7.33008 6.94862
#
# Compressibility (1/GPa) = 0.02245518
#
# Stress axis : x y z
#
# Youngs Moduli (GPa) = 39.74863 53.12218 63.33275
#
# Poissons Ratio (x) = 0.29211 0.44378
# Poissons Ratio (y) = 0.21857 0.38966
# Poissons Ratio (z) = 0.27852 0.32683
#
# Static dielectric constant tensor:
#      x y z
#    x 2.887390 0.000000 0.127740 
#    y 0.000000 3.155350 0.000000 
#    z 0.127740 0.000000 3.067860 
# 
# 
# High freq. dielectric constant tensor:
#      x y z
#    x 1.611070 0.000000 0.017620 
#    y 0.000000 1.656420 0.000000 
#    z 0.017620 0.000000 1.636640 
# 
# From -- ./inp_files/5950.got.cif
#   From: 2010.03.12/outbox.cif.g09.slc.cpg/sg6_3_cif.got.tgz:5950.got - 2010.03.30 10:24:59.
