data_PCOD8052438
_publ_section_title
;
Structure prediction by ZEFSAII (Michael W. Deem and Ramdas Pophale) SiO2 
 PCOD8052438
Probable space group: P M
;
_chemical_formula_sum "Si O2"
_cell_formula_units_Z 13
_cell_length_a 11.631618
_cell_length_b 7.881472
_cell_length_c 11.773351
_cell_angle_alpha 90.000000
_cell_angle_beta 38.670089
_cell_angle_gamma 90.000000
_cell_volume 674.392937
_symmetry_space_group_name_H-M "P M"
_symmetry_group_IT_number 6
_symmetry_cell_setting 'monoclinic'
loop_
_space_group_symop_operation_xyz
x,y,z
x,-y,z
loop_
_atom_site_type_symbol
_atom_site_label
_atom_site_fract_x
_atom_site_fract_y
_atom_site_fract_z
Si Si1 0.353640 0.192865 0.825260
Si Si2 0.964901 0.317989 0.810846
Si Si3 0.342205 0.807692 0.581301
Si Si4 0.704760 0.198074 0.202873
Si Si5 0.840385 0.500000 0.702091
Si Si6 0.442852 0.500000 0.909578
Si Si7 0.032396 0.500000 0.315344
Si Si8 0.947099 0.809894 0.228856
O O1 0.360754 0.270556 0.692721
O O2 0.458097 0.327756 0.823914
O O3 0.436206 0.000000 0.774158
O O4 0.141629 0.186574 0.018828
O O5 0.047713 0.500000 0.784945
O O6 0.137071 0.192465 0.687796
O O7 0.887917 0.331686 0.741008
O O8 0.794862 0.280023 0.023520
O O9 0.494596 0.731372 0.377018
O O10 0.401132 0.000000 0.553799
O O11 0.803260 0.247552 0.244387
O O12 0.717896 0.000000 0.170188
O O13 0.622855 0.500000 0.848307
O O14 0.974044 0.500000 0.491038
O O15 0.254561 0.500000 0.129164
O O16 0.943370 0.670069 0.330875
O O17 0.901048 0.000000 0.312207
#
# Coordination Sequence:
#
# PCOD8052438 Si02
#       8
#     2   2   2   2   1   1   1   2
#     4   9  18  34  59  90 123 151 185 240 305 365
#     4  10  23  39  58  80 123 155 203 246 295 341
#     4  10  20  35  59  92 121 151 191 242 307 367
#     4  10  20  35  59  92 121 151 191 242 307 367
#     4  10  26  42  56  84 108 166 218 230 280 356
#     4  10  22  39  59  81 119 158 198 247 292 342
#     4  10  22  39  59  81 119 158 198 247 292 342
#     4   9  18  34  59  90 123 151 185 240 305 365
#
# _framework density 19.276595
#
# number of rings (size 3 to 8) (size 9 to 14) (size 15 to 20)
#    0.462    1.846    1.538    0.462    4.308    1.846 
#    0.000    3.077    0.000    3.692    0.000    0.000 
#    0.000    0.000    0.000    0.000    0.000    0.000 
#
# Total GULP energy -161058.105682 kJ/mol
# GULP energy per Si atom -12389.085052 kJ/mol
# Density = 1.923272 g / cm^3
# Si number density = 19.276595 Si / 1000 Ang^3
#
#
#
# Elastic Constant Matrix: (Units=GPa)
#
#
# Indices 1 2 3 4 5 6 
#
# 1 113.7657 38.2791 69.0944 0.0000 5.1881 0.0000
# 2 38.2791 79.1411 32.6061 0.0000 10.8251 0.0000
# 3 69.0944 32.6061 128.4671 0.0000 12.9794 0.0000
# 4 0.0000 0.0000 0.0000 14.5880 0.0000 1.8259
# 5 5.1881 10.8251 12.9794 0.0000 25.3444 0.0000
# 6 0.0000 0.0000 0.0000 1.8259 0.0000 15.5301
#
#
#
# Elastic Compliance Matrix: (Units=1/GPa)
#
#
# Indices 1 2 3 4 5 6 
#
# 1 0.014317 -0.004452 -0.006819 0.000000 0.002463 0.000000
# 2 -0.004452 0.015982 -0.001122 0.000000 -0.005340 0.000000
# 3 -0.006819 -0.001122 0.012177 0.000000 -0.004361 0.000000
# 4 0.000000 0.000000 0.000000 0.069573 0.000000 -0.008180
# 5 0.002463 -0.005340 -0.004361 0.000000 0.043466 0.000000
# 6 0.000000 0.000000 0.000000 -0.008180 0.000000 0.065353
#
#
# Mechanical properties :
#
#
# Convention : Reuss Voigt Hill
#
# Bulk Modulus (GPa) = 56.53271 66.81480 61.67376
# Shear Modulus (GPa) = 19.87655 23.18546 21.53100
#
# Velocity S-wave (km/s) = 3.21459 3.47187 3.34571
# Velocity P-wave (km/s) = 6.57031 7.12799 6.85482
#
# Compressibility (1/GPa) = 0.01768887
#
# Stress axis : x y z
#
# Youngs Moduli (GPa) = 69.84519 62.57037 82.12109
#
# Poissons Ratio (x) = 0.27859 0.56000
# Poissons Ratio (y) = 0.31098 0.09215
# Poissons Ratio (z) = 0.47629 0.07021
#
# Static dielectric constant tensor:
#      x y z
#    x 3.237610 0.000000 -0.085060 
#    y 0.000000 3.825010 0.000000 
#    z -0.085060 0.000000 3.649300 
# 
# 
# High freq. dielectric constant tensor:
#      x y z
#    x 1.722080 0.000000 -0.010890 
#    y 0.000000 1.746500 0.000000 
#    z -0.010890 0.000000 1.760620 
# 
# From -- ./inp_files/4947.got.cif
#   From: 2010.03.12/outbox.cif.g09.slc.cpg/sg6_3_cif.got.tgz:4947.got - 2010.03.30 10:24:59.
