data_PCOD8052584
_publ_section_title
;
Structure prediction by ZEFSAII (Michael W. Deem and Ramdas Pophale) SiO2 
 PCOD8052584
Probable space group: P C
;
_chemical_formula_sum "Si O2"
_cell_formula_units_Z 14
_cell_length_a 10.660430
_cell_length_b 13.335884
_cell_length_c 5.317167
_cell_angle_alpha 90.000000
_cell_angle_beta 89.956143
_cell_angle_gamma 90.000000
_cell_volume 755.921513
_symmetry_space_group_name_H-M "P C"
_symmetry_group_IT_number 7
_symmetry_cell_setting 'monoclinic'
loop_
_space_group_symop_operation_xyz
x,y,z
x,-y,1/2+z
loop_
_atom_site_type_symbol
_atom_site_label
_atom_site_fract_x
_atom_site_fract_y
_atom_site_fract_z
Si Si1 0.659000 0.036313 0.034540
Si Si2 0.537429 0.559393 0.535328
Si Si3 0.888212 0.725447 0.032928
Si Si4 0.140638 0.382766 0.535966
Si Si5 0.936216 0.048241 0.532180
Si Si6 0.244938 0.397082 0.035803
Si Si7 0.728146 0.266749 0.033672
O O1 0.681803 0.153498 0.037484
O O2 0.584077 0.999192 0.283924
O O3 0.788084 0.973157 0.031569
O O4 0.578515 0.499901 0.285412
O O5 0.389900 0.576542 0.535470
O O6 0.604766 0.665976 0.535052
O O7 0.957147 0.832901 0.032528
O O8 0.805777 0.711611 0.281978
O O9 0.993380 0.639792 0.036304
O O10 0.808645 0.710177 0.780768
O O11 0.207307 0.335424 0.287021
O O12 0.162050 0.501890 0.536033
O O13 0.207241 0.335417 0.784757
O O14 0.998721 0.000110 0.281939
#
# Coordination Sequence:
#
# PCOD8052584 Si02
#       7
#     2   2   2   2   2   2   2
#     4  10  16  32  54  74 117 151 179 216 258 350
#     4  12  23  43  61  77 112 154 193 246 271 329
#     4  12  21  35  52  90 122 138 184 221 292 353
#     4  10  20  35  61  77 102 146 186 236 263 325
#     4  10  16  30  53  71 116 153 170 213 260 346
#     4  10  19  42  60  72  99 144 208 227 269 308
#     4  12  23  35  55  91 120 148 182 223 299 347
#
# _framework density 18.520441000000002
#
# number of rings (size 3 to 8) (size 9 to 14) (size 15 to 20)
#    0.000    1.143    8.571    1.714    0.000    0.000 
#   15.429    0.000    0.000    0.000    0.000    6.000 
#    0.000    0.000    0.000    0.000    0.000    0.000 
#
# Total GULP energy -173527.883167 kJ/mol
# GULP energy per Si atom -12394.848798 kJ/mol
# Density = 1.847829 g / cm^3
# Si number density = 18.520441 Si / 1000 Ang^3
#
#
#
# Elastic Constant Matrix: (Units=GPa)
#
#
# Indices 1 2 3 4 5 6 
#
# 1 53.9422 56.1877 36.3490 0.0000 2.7983 0.0000
# 2 56.1877 79.2151 31.8000 0.0000 4.3071 0.0000
# 3 36.3490 31.8000 210.1656 0.0000 -11.4090 0.0000
# 4 0.0000 0.0000 0.0000 13.0039 0.0000 -0.9251
# 5 2.7983 4.3071 -11.4090 0.0000 9.7215 0.0000
# 6 0.0000 0.0000 0.0000 -0.9251 0.0000 2.5357
#
#
#
# Elastic Compliance Matrix: (Units=1/GPa)
#
#
# Indices 1 2 3 4 5 6 
#
# 1 0.076491 -0.051633 -0.005736 0.000000 -0.005873 0.000000
# 2 -0.051633 0.049058 0.001211 0.000000 -0.005450 0.000000
# 3 -0.005736 0.001211 0.006010 0.000000 0.008168 0.000000
# 4 0.000000 0.000000 0.000000 0.078949 0.000000 0.028803
# 5 -0.005873 -0.005450 0.008168 0.000000 0.116556 0.000000
# 6 0.000000 0.000000 0.000000 0.028803 0.000000 0.404872
#
#
# Mechanical properties :
#
#
# Convention : Reuss Voigt Hill
#
# Bulk Modulus (GPa) = 51.96550 65.77736 58.87143
# Shear Modulus (GPa) = 5.87775 19.65131 12.76453
#
# Velocity S-wave (km/s) = 1.78341 3.26093 2.62814
# Velocity P-wave (km/s) = 5.68859 7.05488 6.40826
#
# Compressibility (1/GPa) = 0.01924354
#
# Stress axis : x y z
#
# Youngs Moduli (GPa) = 13.07350 20.38419 166.38282
#
# Poissons Ratio (x) = 1.05250 0.95430
# Poissons Ratio (y) = 0.67503 -0.20156
# Poissons Ratio (z) = 0.07498 -0.02469
#
# Static dielectric constant tensor:
#      x y z
#    x 2.957280 0.000000 -0.297390 
#    y 0.000000 3.235440 0.000000 
#    z -0.297390 0.000000 5.958620 
# 
# 
# High freq. dielectric constant tensor:
#      x y z
#    x 1.664470 0.000000 -0.010160 
#    y 0.000000 1.695960 0.000000 
#    z -0.010160 0.000000 1.766590 
# 
# From -- ./inp_files/546.got.cif
#   From: 2010.03.12/outbox.cif.g09.slc.cpg/sg7_cif.got.tgz:546.got - 2010.03.30 08:40:41.
