data_PCOD8052233
_publ_section_title
;
Structure prediction by ZEFSAII (Michael W. Deem and Ramdas Pophale) SiO2 
 PCOD8052233
Probable space group: P M
;
_chemical_formula_sum "Si O2"
_cell_formula_units_Z 16
_cell_length_a 10.472250
_cell_length_b 8.756321
_cell_length_c 16.549060
_cell_angle_alpha 90.000000
_cell_angle_beta 143.941422
_cell_angle_gamma 90.000000
_cell_volume 893.231782
_symmetry_space_group_name_H-M "P M"
_symmetry_group_IT_number 6
_symmetry_cell_setting 'monoclinic'
loop_
_space_group_symop_operation_xyz
x,y,z
x,-y,z
loop_
_atom_site_type_symbol
_atom_site_label
_atom_site_fract_x
_atom_site_fract_y
_atom_site_fract_z
Si Si1 0.583790 0.820258 0.026080
Si Si2 0.282583 0.319850 0.006438
Si Si3 0.520180 0.181464 0.270693
Si Si4 0.473150 0.818510 0.429041
Si Si5 0.991511 0.818058 0.453659
Si Si6 0.223730 0.820514 0.726499
Si Si7 0.056859 0.181222 0.308202
Si Si8 0.931543 0.180714 0.723886
O O1 0.834570 0.770849 0.149126
O O2 0.560157 0.000000 0.032001
O O3 0.469056 0.736239 0.041208
O O4 0.466433 0.776847 0.880978
O O5 0.281335 0.500000 0.008410
O O6 0.044581 0.260752 0.858251
O O7 0.330882 0.254582 0.119952
O O8 0.489999 0.243387 0.346402
O O9 0.752705 0.237898 0.356722
O O10 0.501197 0.000000 0.257290
O O11 0.259235 0.749080 0.362505
O O12 0.681345 0.768124 0.588566
O O13 0.462827 0.000000 0.420567
O O14 0.165380 0.752694 0.608360
O O15 0.054625 0.751811 0.398175
O O16 0.994266 0.000000 0.452072
O O17 0.051546 0.761284 0.704247
O O18 0.196128 0.000000 0.705519
O O19 0.077836 0.000000 0.322105
O O20 0.956043 0.000000 0.747005
#
# Coordination Sequence:
#
# PCOD8052233 Si02
#       8
#     2   2   2   2   2   2   2   2
#     4   9  16  29  49  71 100 132 161 196 247 294
#     4  11  21  31  47  73 101 128 167 213 246 283
#     4  10  17  30  51  74  99 130 163 201 249 294
#     4   9  17  29  49  76 104 129 161 203 244 293
#     4   9  14  23  43  71  98 124 156 195 240 284
#     4   8  13  22  41  67  90 120 158 192 229 285
#     4   9  16  26  44  75 106 127 154 198 245 289
#     4   9  16  30  50  71  96 128 164 202 250 296
#
# _framework density 17.912483999999999
#
# number of rings (size 3 to 8) (size 9 to 14) (size 15 to 20)
#    0.000    2.750    2.500    1.875    0.000    0.000 
#    0.000    1.875    0.000    7.500    0.000    0.000 
#    0.000    0.000    0.000    0.000    0.000    0.000 
#
# Total GULP energy -198303.029726 kJ/mol
# GULP energy per Si atom -12393.939358 kJ/mol
# Density = 1.787171 g / cm^3
# Si number density = 17.912484 Si / 1000 Ang^3
#
#
#
# Elastic Constant Matrix: (Units=GPa)
#
#
# Indices 1 2 3 4 5 6 
#
# 1 118.0548 15.9314 82.5740 0.0000 2.2990 0.0000
# 2 15.9314 30.8896 26.5902 0.0000 -1.2633 0.0000
# 3 82.5740 26.5902 187.6198 0.0000 -4.3641 0.0000
# 4 0.0000 0.0000 0.0000 4.3955 0.0000 0.6224
# 5 2.2990 -1.2633 -4.3641 0.0000 30.2643 0.0000
# 6 0.0000 0.0000 0.0000 0.6224 0.0000 4.1207
#
#
#
# Elastic Compliance Matrix: (Units=1/GPa)
#
#
# Indices 1 2 3 4 5 6 
#
# 1 0.012432 -0.001981 -0.005232 0.000000 -0.001782 0.000000
# 2 -0.001981 0.037206 -0.004376 0.000000 0.001073 0.000000
# 3 -0.005232 -0.004376 0.008286 0.000000 0.001410 0.000000
# 4 0.000000 0.000000 0.000000 0.232474 0.000000 -0.035111
# 5 -0.001782 0.001073 0.001410 0.000000 0.033426 0.000000
# 6 0.000000 0.000000 0.000000 -0.035111 0.000000 0.247980
#
#
# Mechanical properties :
#
#
# Convention : Reuss Voigt Hill
#
# Bulk Modulus (GPa) = 28.78090 65.19506 46.98798
# Shear Modulus (GPa) = 8.24314 21.85401 15.04857
#
# Velocity S-wave (km/s) = 2.14753 3.49670 2.90162
# Velocity P-wave (km/s) = 4.71716 7.26485 6.12493
#
# Compressibility (1/GPa) = 0.03474526
#
# Stress axis : x y z
#
# Youngs Moduli (GPa) = 80.43446 26.87742 120.68858
#
# Poissons Ratio (x) = 0.05324 0.63149
# Poissons Ratio (y) = 0.15933 0.52816
# Poissons Ratio (z) = 0.42087 0.11762
#
# Static dielectric constant tensor:
#      x y z
#    x 3.342370 0.000000 -0.103390 
#    y 0.000000 2.712580 0.000000 
#    z -0.103390 0.000000 3.766650 
# 
# 
# High freq. dielectric constant tensor:
#      x y z
#    x 1.665180 0.000000 -0.008510 
#    y 0.000000 1.631960 0.000000 
#    z -0.008510 0.000000 1.716490 
# 
# From -- ./inp_files/4976.got.cif
#   From: 2010.03.12/outbox.cif.g09.slc.cpg/sg6_3_cif.got.tgz:4976.got - 2010.03.30 10:24:59.
