data_PCOD8052289
_publ_section_title
;
Structure prediction by ZEFSAII (Michael W. Deem and Ramdas Pophale) SiO2 
 PCOD8052289
Probable space group: P M
;
_chemical_formula_sum "Si O2"
_cell_formula_units_Z 16
_cell_length_a 12.089485
_cell_length_b 8.866952
_cell_length_c 10.195108
_cell_angle_alpha 90.000000
_cell_angle_beta 127.482601
_cell_angle_gamma 90.000000
_cell_volume 867.245008
_symmetry_space_group_name_H-M "P M"
_symmetry_group_IT_number 6
_symmetry_cell_setting 'monoclinic'
loop_
_space_group_symop_operation_xyz
x,y,z
x,-y,z
loop_
_atom_site_type_symbol
_atom_site_label
_atom_site_fract_x
_atom_site_fract_y
_atom_site_fract_z
Si Si1 0.509570 0.173753 0.596080
Si Si2 0.666551 0.825825 0.974584
Si Si3 0.538885 0.323109 0.129912
Si Si4 0.964194 0.824815 0.810086
Si Si5 0.695786 0.176345 0.478465
Si Si6 0.969090 0.823501 0.106211
Si Si7 0.274086 0.176187 0.048392
Si Si8 0.248536 0.677538 0.312332
O O1 0.604883 0.215334 0.788497
O O2 0.595089 0.210556 0.527005
O O3 0.370423 0.274892 0.500528
O O4 0.464597 0.000000 0.567734
O O5 0.637505 0.000000 0.989285
O O6 0.597108 0.717961 0.029999
O O7 0.832219 0.793737 0.093651
O O8 0.520682 0.500000 0.129402
O O9 0.645897 0.266909 0.316624
O O10 0.387538 0.247853 0.034852
O O11 0.850110 0.759288 0.626551
O O12 0.928170 0.000000 0.796202
O O13 0.121764 0.795575 0.873700
O O14 0.945795 0.757225 0.942725
O O15 0.697463 0.000000 0.443514
O O16 0.101197 0.736727 0.263679
O O17 0.006370 0.000000 0.125981
O O18 0.283051 0.248166 0.197820
O O19 0.305511 0.000000 0.087657
O O20 0.243710 0.500000 0.292740
#
# Coordination Sequence:
#
# PCOD8052289 Si02
#       8
#     2   2   2   2   2   2   2   2
#     4  10  19  34  60  87 110 142 191 240 276 323
#     4  10  21  39  62  85 109 146 194 237 279 330
#     4  12  25  38  53  81 120 156 186 224 282 346
#     4   8  15  30  57  88 108 130 177 238 284 318
#     4  10  18  34  60  86 110 141 185 238 281 325
#     4   9  17  34  58  83 110 142 184 231 279 331
#     4  10  19  35  58  81 109 147 191 236 277 324
#     4  11  21  32  52  85 120 148 180 226 282 337
#
# _framework density 18.449224999999998
#
# number of rings (size 3 to 8) (size 9 to 14) (size 15 to 20)
#    0.000    2.000    2.500    3.375    0.000    1.000 
#    0.000    4.375    0.000    3.000    0.000    0.000 
#    0.000    0.000    0.000    0.000    0.000    0.000 
#
# Total GULP energy -198398.296555 kJ/mol
# GULP energy per Si atom -12399.893535 kJ/mol
# Density = 1.840723 g / cm^3
# Si number density = 18.449225 Si / 1000 Ang^3
#
#
#
# Elastic Constant Matrix: (Units=GPa)
#
#
# Indices 1 2 3 4 5 6 
#
# 1 98.2057 48.1763 33.6020 0.0000 19.3224 0.0000
# 2 48.1763 97.6676 35.7173 0.0000 11.4837 0.0000
# 3 33.6020 35.7173 66.8407 0.0000 18.2954 0.0000
# 4 0.0000 0.0000 0.0000 3.9736 0.0000 -5.9187
# 5 19.3224 11.4837 18.2954 0.0000 35.2533 0.0000
# 6 0.0000 0.0000 0.0000 -5.9187 0.0000 17.4295
#
#
#
# Elastic Compliance Matrix: (Units=1/GPa)
#
#
# Indices 1 2 3 4 5 6 
#
# 1 0.014987 -0.005662 -0.003223 0.000000 -0.004698 0.000000
# 2 -0.005662 0.014880 -0.005394 0.000000 0.001055 0.000000
# 3 -0.003223 -0.005394 0.021562 0.000000 -0.007666 0.000000
# 4 0.000000 0.000000 0.000000 0.509225 0.000000 0.172921
# 5 -0.004698 0.001055 -0.007666 0.000000 0.034576 0.000000
# 6 0.000000 0.000000 0.000000 0.172921 0.000000 0.116094
#
#
# Mechanical properties :
#
#
# Convention : Reuss Voigt Hill
#
# Bulk Modulus (GPa) = 43.72224 55.30057 49.51141
# Shear Modulus (GPa) = 6.68891 21.01250 13.85071
#
# Velocity S-wave (km/s) = 1.90616 3.37848 2.74295
# Velocity P-wave (km/s) = 5.34740 6.72743 6.07672
#
# Compressibility (1/GPa) = 0.02287165
#
# Stress axis : x y z
#
# Youngs Moduli (GPa) = 66.72360 67.20410 46.37774
#
# Poissons Ratio (x) = 0.38049 0.14948
# Poissons Ratio (y) = 0.37777 0.25016
# Poissons Ratio (z) = 0.21506 0.36250
#
# Static dielectric constant tensor:
#      x y z
#    x 3.462330 0.000000 0.344450 
#    y 0.000000 3.216440 0.000000 
#    z 0.344450 0.000000 3.419770 
# 
# 
# High freq. dielectric constant tensor:
#      x y z
#    x 1.714780 0.000000 0.026450 
#    y 0.000000 1.696550 0.000000 
#    z 0.026450 0.000000 1.705540 
# 
# From -- ./inp_files/3649.got.cif
#   From: 2010.03.12/outbox.cif.g09.slc.cpg/sg6_2_cif.got.tgz:3649.got - 2010.03.30 10:24:59.
