data_PCOD8052895
_publ_section_title
;
Structure prediction by ZEFSAII (Michael W. Deem and Ramdas Pophale) SiO2 
 PCOD8052895
Probable space group: C M
;
_chemical_formula_sum "Si O2"
_cell_formula_units_Z 32
_cell_length_a 28.175633
_cell_length_b 8.930256
_cell_length_c 11.874029
_cell_angle_alpha 90.000000
_cell_angle_beta 33.020224
_cell_angle_gamma 90.000000
_cell_volume 1628.097552
_symmetry_space_group_name_H-M "C M"
_symmetry_group_IT_number 8
_symmetry_cell_setting 'monoclinic'
loop_
_space_group_symop_operation_xyz
x,y,z
x,-y,z
1/2+x,1/2+y,z
1/2+x,1/2-y,z
loop_
_atom_site_type_symbol
_atom_site_label
_atom_site_fract_x
_atom_site_fract_y
_atom_site_fract_z
Si Si1 0.354060 0.172765 0.218830
Si Si2 0.904279 0.824534 0.895956
Si Si3 0.149578 0.324740 0.172887
Si Si4 0.159971 0.170569 0.625297
Si Si5 0.845030 0.175729 0.775262
Si Si6 0.104972 0.172556 0.486282
Si Si7 0.512531 0.176376 0.054422
Si Si8 0.003686 0.822463 0.313399
O O1 0.259897 0.196342 0.464299
O O2 0.428319 0.236909 0.154140
O O3 0.372823 0.000000 0.157154
O O4 0.353580 0.254448 0.100804
O O5 0.866541 0.754734 0.855126
O O6 0.005238 0.782604 0.703661
O O7 0.888410 0.000000 0.933565
O O8 0.128536 0.500000 0.201897
O O9 0.146180 0.279609 0.310412
O O10 0.082667 0.227591 0.235100
O O11 0.246574 0.286970 0.934317
O O12 0.155289 0.203531 0.501758
O O13 0.129920 0.000000 0.709570
O O14 0.099943 0.283311 0.813623
O O15 0.912907 0.237561 0.547393
O O16 0.860295 0.000000 0.755777
O O17 0.113285 0.000000 0.430822
O O18 0.514999 0.253852 0.169210
O O19 0.508517 0.000000 0.080614
O O20 0.005567 0.000000 0.299951
#
# Coordination Sequence:
#
# PCOD8052895 Si02
#       8
#     4   4   4   4   4   4   4   4
#     4  10  22  38  58  87 122 151 189 241 290 337
#     4  10  18  34  60  87 118 155 194 230 278 347
#     4  11  22  37  60  90 120 150 191 242 291 338
#     4  10  21  39  61  87 119 158 195 232 284 348
#     4   9  20  38  59  85 118 153 189 232 284 346
#     4  10  19  34  59  88 121 157 194 230 279 349
#     4  11  24  41  59  85 117 149 194 248 293 338
#     4  11  23  43  64  81 111 155 198 239 289 349
#
# _framework density 19.654841000000001
#
# number of rings (size 3 to 8) (size 9 to 14) (size 15 to 20)
#    0.000    1.750    2.500    1.875    0.000    3.000 
#    0.000    5.625    0.000    0.000    0.000    0.000 
#    0.000    0.000    0.000    0.000    0.000    0.000 
#
# Total GULP energy -198443.275291 kJ/mol
# GULP energy per Si atom -12402.704706 kJ/mol
# Density = 1.961011 g / cm^3
# Si number density = 19.654841 Si / 1000 Ang^3
#
#
#
# Elastic Constant Matrix: (Units=GPa)
#
#
# Indices 1 2 3 4 5 6 
#
# 1 75.2979 27.3987 63.0949 0.0000 10.4471 0.0000
# 2 27.3987 54.9327 40.3699 0.0000 2.0379 0.0000
# 3 63.0949 40.3699 113.4786 0.0000 -8.2938 0.0000
# 4 0.0000 0.0000 0.0000 28.0094 0.0000 3.6355
# 5 10.4471 2.0379 -8.2938 0.0000 27.6980 0.0000
# 6 0.0000 0.0000 0.0000 3.6355 0.0000 31.0219
#
#
#
# Elastic Compliance Matrix: (Units=1/GPa)
#
#
# Indices 1 2 3 4 5 6 
#
# 1 0.031519 -0.001733 -0.018165 0.000000 -0.017200 0.000000
# 2 -0.001733 0.025314 -0.008312 0.000000 -0.003698 0.000000
# 3 -0.018165 -0.008312 0.022916 0.000000 0.014325 0.000000
# 4 0.000000 0.000000 0.000000 0.036254 0.000000 -0.004249
# 5 -0.017200 -0.003698 0.014325 0.000000 0.047153 0.000000
# 6 0.000000 0.000000 0.000000 -0.004249 0.000000 0.032733
#
#
# Mechanical properties :
#
#
# Convention : Reuss Voigt Hill
#
# Bulk Modulus (GPa) = 42.86604 56.15957 49.51281
# Shear Modulus (GPa) = 19.22435 24.86892 22.04664
#
# Velocity S-wave (km/s) = 3.13085 3.56094 3.35280
# Velocity P-wave (km/s) = 5.90985 6.74848 6.34304
#
# Compressibility (1/GPa) = 0.02332849
#
# Stress axis : x y z
#
# Youngs Moduli (GPa) = 31.72687 39.50335 43.63685
#
# Poissons Ratio (x) = 0.06846 0.79268
# Poissons Ratio (y) = 0.05498 0.36272
# Poissons Ratio (z) = 0.57633 0.32836
#
# Static dielectric constant tensor:
#      x y z
#    x 3.655550 0.000000 -0.093270 
#    y 0.000000 3.401670 0.000000 
#    z -0.093270 0.000000 3.674930 
# 
# 
# High freq. dielectric constant tensor:
#      x y z
#    x 1.770060 0.000000 -0.009020 
#    y 0.000000 1.750870 0.000000 
#    z -0.009020 0.000000 1.773950 
# 
# From -- ./inp_files/21358.got.cif
#   From: 2010.03.12/outbox.cif.g09.slc.cpg/sg8_11_cif.got.tgz:21358.got - 2010.03.31 10:45:26.
