data_PCOD8052609
_publ_section_title
;
Structure prediction by ZEFSAII (Michael W. Deem and Ramdas Pophale) SiO2 
 PCOD8052609
Probable space group: P C
;
_chemical_formula_sum "Si O2"
_cell_formula_units_Z 16
_cell_length_a 28.662286
_cell_length_b 7.276214
_cell_length_c 4.973504
_cell_angle_alpha 90.000000
_cell_angle_beta 46.045778
_cell_angle_gamma 90.000000
_cell_volume 746.702608
_symmetry_space_group_name_H-M "P C"
_symmetry_group_IT_number 7
_symmetry_cell_setting 'monoclinic'
loop_
_space_group_symop_operation_xyz
x,y,z
x,-y,1/2+z
loop_
_atom_site_type_symbol
_atom_site_label
_atom_site_fract_x
_atom_site_fract_y
_atom_site_fract_z
Si Si1 0.407070 0.127546 0.612100
Si Si2 0.008277 0.623232 0.632323
Si Si3 0.128626 0.872465 0.225839
Si Si4 0.888320 0.878139 0.202944
Si Si5 0.767841 0.620815 0.684440
Si Si6 0.267848 0.116532 0.063518
Si Si7 0.527416 0.376759 0.055889
Si Si8 0.647366 0.121868 0.666773
O O1 0.456281 0.293280 0.372950
O O2 0.417118 0.959935 0.364648
O O3 0.335151 0.219813 0.867293
O O4 0.998333 0.546163 0.373714
O O5 0.079398 0.706795 0.380378
O O6 0.957134 0.783453 0.885989
O O7 0.118587 0.959908 0.558755
O O8 0.200544 0.780180 0.905680
O O9 0.831395 0.737155 0.366297
O O10 0.882405 0.947236 0.531241
O O11 0.767863 0.443567 0.492341
O O12 0.704243 0.736980 0.874950
O O13 0.267849 0.931070 0.247455
O O14 0.537388 0.546120 0.217656
O O15 0.578523 0.216420 0.900513
O O16 0.653319 0.947270 0.447569
#
# Coordination Sequence:
#
# PCOD8052609 Si02
#       8
#     2   2   2   2   2   2   2   2
#     4  10  19  36  58  82 109 148 192 234 279 340
#     4  12  24  39  57  85 118 151 187 237 292 336
#     4  10  19  36  58  82 109 148 192 234 279 340
#     4  12  24  42  64  88 115 154 198 234 272 336
#     4  12  24  42  64  92 124 152 182 234 292 336
#     4   8  16  30  54  80 106 140 188 234 276 330
#     4  12  24  39  57  85 118 151 187 237 292 336
#     4  12  24  42  64  88 115 154 198 234 272 336
#
# _framework density 21.427541000000002
#
# number of rings (size 3 to 8) (size 9 to 14) (size 15 to 20)
#    0.000    1.000    0.000    8.250    0.000    0.000 
#    0.000    1.250    0.000    0.000    0.000    0.000 
#    0.000    0.000    0.000    0.000    0.000    0.000 
#
# Total GULP energy -198471.107891 kJ/mol
# GULP energy per Si atom -12404.444243 kJ/mol
# Density = 2.137877 g / cm^3
# Si number density = 21.427541 Si / 1000 Ang^3
#
#
#
# Elastic Constant Matrix: (Units=GPa)
#
#
# Indices 1 2 3 4 5 6 
#
# 1 85.8349 22.8458 34.5006 0.0000 -11.8616 0.0000
# 2 22.8458 65.5444 29.0444 0.0000 -13.8020 0.0000
# 3 34.5006 29.0444 100.0348 0.0000 -19.7938 0.0000
# 4 0.0000 0.0000 0.0000 9.8773 0.0000 29.5577
# 5 -11.8616 -13.8020 -19.7938 0.0000 46.0003 0.0000
# 6 0.0000 0.0000 0.0000 29.5577 0.0000 23.1405
#
#
#
# Elastic Compliance Matrix: (Units=1/GPa)
#
#
# Indices 1 2 3 4 5 6 
#
# 1 0.014124 -0.003016 -0.003775 0.000000 0.001113 0.000000
# 2 -0.003016 0.018639 -0.003737 0.000000 0.003207 0.000000
# 3 -0.003775 -0.003737 0.013083 0.000000 0.003535 0.000000
# 4 0.000000 0.000000 0.000000 -0.035871 0.000000 0.045819
# 5 0.001113 0.003207 0.003535 0.000000 0.024509 0.000000
# 6 0.000000 0.000000 0.000000 0.045819 0.000000 -0.015311
#
#
# Mechanical properties :
#
#
# Convention : Reuss Voigt Hill
#
# Bulk Modulus (GPa) = 40.33917 47.13288 43.73603
# Shear Modulus (GPa) = 103.10743 26.80515 64.95629
#
# Velocity S-wave (km/s) = 6.94432 3.54074 5.51182
# Velocity P-wave (km/s) = 9.11947 6.22575 7.80784
#
# Compressibility (1/GPa) = 0.02478980
#
# Stress axis : x y z
#
# Youngs Moduli (GPa) = 70.80026 53.65012 76.43432
#
# Poissons Ratio (x) = 0.16180 0.28858
# Poissons Ratio (y) = 0.21352 0.28565
# Poissons Ratio (z) = 0.26731 0.20050
#
# Static dielectric constant tensor:
#      x y z
#    x 4.104740 0.000000 -0.087410 
#    y 0.000000 3.434030 0.000000 
#    z -0.087410 0.000000 4.144320 
# 
# 
# High freq. dielectric constant tensor:
#      x y z
#    x 1.863060 0.000000 -0.002970 
#    y 0.000000 1.808620 0.000000 
#    z -0.002970 0.000000 1.864400 
# 
# From -- ./inp_files/1344.got.cif
#   From: 2010.03.12/outbox.cif.g09.slc.cpg/sg7_cif.got.tgz:1344.got - 2010.03.30 08:40:41.
