data_PCOD8052973
_publ_section_title
;
Structure prediction by ZEFSAII (Michael W. Deem and Ramdas Pophale) SiO2 
 PCOD8052973
Probable space group: C M
;
_chemical_formula_sum "Si O2"
_cell_formula_units_Z 32
_cell_length_a 15.013073
_cell_length_b 8.898423
_cell_length_c 14.334044
_cell_angle_alpha 90.000000
_cell_angle_beta 120.934068
_cell_angle_gamma 90.000000
_cell_volume 1642.543440
_symmetry_space_group_name_H-M "C M"
_symmetry_group_IT_number 8
_symmetry_cell_setting 'monoclinic'
loop_
_space_group_symop_operation_xyz
x,y,z
x,-y,z
1/2+x,1/2+y,z
1/2+x,1/2-y,z
loop_
_atom_site_type_symbol
_atom_site_label
_atom_site_fract_x
_atom_site_fract_y
_atom_site_fract_z
Si Si1 0.957760 0.165551 0.593760
Si Si2 0.774416 0.319551 0.793232
Si Si3 0.150428 0.836079 0.560336
Si Si4 0.093361 0.676100 0.807009
Si Si5 0.003703 0.677302 0.953050
Si Si6 0.324261 0.321265 0.357350
Si Si7 0.093668 0.679073 0.195623
Si Si8 0.009594 0.819745 0.328278
O O1 0.861177 0.232192 0.480985
O O2 0.051567 0.146760 0.573198
O O3 0.989656 0.277234 0.694141
O O4 0.930843 0.000000 0.620446
O O5 0.768663 0.500000 0.788570
O O6 0.739743 0.255262 0.671251
O O7 0.695906 0.262348 0.829894
O O8 0.888018 0.255696 0.877594
O O9 0.108559 0.756723 0.443134
O O10 0.192446 0.000000 0.554630
O O11 0.110425 0.500000 0.803133
O O12 0.076102 0.721766 0.905226
O O13 0.992387 0.500000 0.953309
O O14 0.055292 0.740371 0.074932
O O15 0.324782 0.500000 0.357000
O O16 0.209767 0.257968 0.274780
O O17 0.402396 0.264547 0.318272
O O18 0.090248 0.500000 0.198725
O O19 0.015709 0.746749 0.230032
O O20 0.013386 0.000000 0.324405
#
# Coordination Sequence:
#
# PCOD8052973 Si02
#       8
#     4   4   4   4   4   4   4   4
#     4   8  14  29  51  74  98 130 163 191 235 304
#     4   9  17  34  55  72  95 134 168 193 237 303
#     4   7  12  25  48  71  92 119 156 192 231 289
#     4  10  19  32  51  78 103 125 158 207 251 284
#     4   9  20  35  50  69  99 135 169 199 242 297
#     4   8  16  32  54  73  97 133 166 193 240 302
#     4  10  20  35  51  71  98 131 169 208 242 283
#     4   9  17  32  52  74  96 125 163 203 244 294
#
# _framework density 19.481978999999999
#
# number of rings (size 3 to 8) (size 9 to 14) (size 15 to 20)
#    0.000    3.250    0.000    2.625    0.000    2.000 
#    0.000   12.500    0.000    0.000    0.000    0.000 
#    0.000    0.000    0.000    0.000    0.000    0.000 
#
# Total GULP energy -198231.242986 kJ/mol
# GULP energy per Si atom -12389.452687 kJ/mol
# Density = 1.943764 g / cm^3
# Si number density = 19.481979 Si / 1000 Ang^3
#
#
#
# Elastic Constant Matrix: (Units=GPa)
#
#
# Indices 1 2 3 4 5 6 
#
# 1 43.2740 7.5249 11.7246 0.0000 2.8441 0.0000
# 2 7.5249 24.8330 10.4000 0.0000 -3.4629 0.0000
# 3 11.7246 10.4000 96.3289 0.0000 -0.6902 0.0000
# 4 0.0000 0.0000 0.0000 18.7029 0.0000 -6.7123
# 5 2.8441 -3.4629 -0.6902 0.0000 36.6325 0.0000
# 6 0.0000 0.0000 0.0000 -6.7123 0.0000 21.5156
#
#
#
# Elastic Compliance Matrix: (Units=1/GPa)
#
#
# Indices 1 2 3 4 5 6 
#
# 1 0.025132 -0.007014 -0.002321 0.000000 -0.002658 0.000000
# 2 -0.007014 0.044699 -0.003938 0.000000 0.004696 0.000000
# 3 -0.002321 -0.003938 0.011089 0.000000 0.000017 0.000000
# 4 0.000000 0.000000 0.000000 0.060209 0.000000 0.018784
# 5 -0.002658 0.004696 0.000017 0.000000 0.027949 0.000000
# 6 0.000000 0.000000 0.000000 0.018784 0.000000 0.052338
#
#
# Mechanical properties :
#
#
# Convention : Reuss Voigt Hill
#
# Bulk Modulus (GPa) = 18.39162 24.85944 21.62553
# Shear Modulus (GPa) = 18.79096 24.35597 21.57347
#
# Velocity S-wave (km/s) = 3.10906 3.53962 3.33130
# Velocity P-wave (km/s) = 4.72749 5.43076 5.09128
#
# Compressibility (1/GPa) = 0.05437260
#
# Stress axis : x y z
#
# Youngs Moduli (GPa) = 39.79036 22.37206 90.18037
#
# Poissons Ratio (x) = 0.15692 0.20928
# Poissons Ratio (y) = 0.27910 0.35517
# Poissons Ratio (z) = 0.09234 0.08811
#
# Static dielectric constant tensor:
#      x y z
#    x 3.437680 0.000000 0.167280 
#    y 0.000000 3.060120 0.000000 
#    z 0.167280 0.000000 4.097140 
# 
# 
# High freq. dielectric constant tensor:
#      x y z
#    x 1.748690 0.000000 0.002780 
#    y 0.000000 1.708450 0.000000 
#    z 0.002780 0.000000 1.769050 
# 
# From -- ./inp_files/26556.got.cif
#   From: 2010.03.12/outbox.cif.g09.slc.cpg/sg8_14_cif.got.tgz:26556.got - 2010.03.31 10:45:26.
