data_PCOD8052175
_publ_section_title
;
Structure prediction by ZEFSAII (Michael W. Deem and Ramdas Pophale) SiO2 
 PCOD8052175
Probable space group: C 2
;
_chemical_formula_sum "Si O2"
_cell_formula_units_Z 20
_cell_length_a 20.627265
_cell_length_b 5.418212
_cell_length_c 7.456659
_cell_angle_alpha 90.000000
_cell_angle_beta 104.742242
_cell_angle_gamma 90.000000
_cell_volume 805.943335
_symmetry_space_group_name_H-M "C 2"
_symmetry_group_IT_number 5
_symmetry_cell_setting 'monoclinic'
loop_
_space_group_symop_operation_xyz
x,y,z
-x,y,-z
1/2+x,1/2+y,z
1/2-x,1/2+y,-z
loop_
_atom_site_type_symbol
_atom_site_label
_atom_site_fract_x
_atom_site_fract_y
_atom_site_fract_z
Si Si1 0.049474 0.380600 0.883391
Si Si2 0.999730 0.856559 0.700634
Si Si3 0.184471 0.181362 0.036615
Si Si4 0.848367 0.827660 0.687769
Si Si5 0.771485 0.010299 0.306519
O O1 0.044847 0.605941 0.737311
O O2 0.125132 0.383140 0.012017
O O3 0.029937 0.098847 0.818492
O O4 0.000000 0.477031 0.000000
O O5 0.000000 0.949364 0.500000
O O6 0.926634 0.774213 0.720487
O O7 0.159757 0.936295 0.118017
O O8 0.251624 0.257420 0.191253
O O9 0.198669 0.175053 0.833495
O O10 0.827027 0.996314 0.501468
O O11 0.797427 0.598192 0.646229
#
# Coordination Sequence:
#
# PCOD8052175 Si02
#       5
#     4   4   4   4   4
#     4  12  26  48  76 106 148 198 247 311 378 439
#     4  12  28  49  76 110 149 198 253 312 377 446
#     4  12  26  46  74 107 149 192 254 307 372 452
#     4  12  26  47  73 107 152 192 248 312 371 449
#     4  12  26  45  75 106 145 198 242 308 381 438
#
# _framework density 24.815636999999999
#
# number of rings (size 3 to 8) (size 9 to 14) (size 15 to 20)
#    0.000    0.000    6.000    3.600    2.800    3.200 
#    0.000    0.000    0.000    0.000    0.000    0.000 
#    0.000    0.000    0.000    0.000    0.000    0.000 
#
# Total GULP energy -123892.611684 kJ/mol
# GULP energy per Si atom -12389.261168 kJ/mol
# Density = 2.475916 g / cm^3
# Si number density = 24.815637 Si / 1000 Ang^3
#
#
#
# Elastic Constant Matrix: (Units=GPa)
#
#
# Indices 1 2 3 4 5 6 
#
# 1 80.8244 8.9594 15.8150 0.0000 3.7381 0.0000
# 2 8.9594 95.6447 18.6326 0.0000 16.7706 0.0000
# 3 15.8150 18.6326 112.6960 0.0000 -1.5441 0.0000
# 4 0.0000 0.0000 0.0000 35.2556 0.0000 10.4981
# 5 3.7381 16.7706 -1.5441 0.0000 48.2623 0.0000
# 6 0.0000 0.0000 0.0000 10.4981 0.0000 32.0952
#
#
#
# Elastic Compliance Matrix: (Units=1/GPa)
#
#
# Indices 1 2 3 4 5 6 
#
# 1 0.012821 -0.000733 -0.001689 0.000000 -0.000792 0.000000
# 2 -0.000733 0.011595 -0.001869 0.000000 -0.004032 0.000000
# 3 -0.001689 -0.001869 0.009434 0.000000 0.001082 0.000000
# 4 0.000000 0.000000 0.000000 0.031425 0.000000 -0.010279
# 5 -0.000792 -0.004032 0.001082 0.000000 0.022217 0.000000
# 6 0.000000 0.000000 0.000000 -0.010279 0.000000 0.034519
#
#
# Mechanical properties :
#
#
# Convention : Reuss Voigt Hill
#
# Bulk Modulus (GPa) = 39.57618 41.77545 40.67582
# Shear Modulus (GPa) = 35.96668 39.50649 37.73659
#
# Velocity S-wave (km/s) = 3.81117 3.99432 3.90382
# Velocity P-wave (km/s) = 5.94554 6.17605 6.06189
#
# Compressibility (1/GPa) = 0.02526772
#
# Stress axis : x y z
#
# Youngs Moduli (GPa) = 77.99783 86.24216 105.99567
#
# Poissons Ratio (x) = 0.06322 0.17901
# Poissons Ratio (y) = 0.05718 0.19816
# Poissons Ratio (z) = 0.13173 0.16123
#
# Static dielectric constant tensor:
#      x y z
#    x 4.731170 0.000000 0.034600 
#    y 0.000000 4.077650 0.000000 
#    z 0.034600 0.000000 4.703390 
# 
# 
# High freq. dielectric constant tensor:
#      x y z
#    x 1.997060 0.000000 0.001070 
#    y 0.000000 1.977610 0.000000 
#    z 0.001070 0.000000 2.002340 
# 
# From -- ./inp_files/28145.got.cif
#   From: 2010.03.12/outbox.cif.g09.slc.cpg/sg5_15_cif.got.tgz:28145.got - 2010.03.31 09:47:26.
