data_PCOD8052408
_publ_section_title
;
Structure prediction by ZEFSAII (Michael W. Deem and Ramdas Pophale) SiO2 
 PCOD8052408
Probable space group: P M
;
_chemical_formula_sum "Si O2"
_cell_formula_units_Z 16
_cell_length_a 12.530837
_cell_length_b 9.121544
_cell_length_c 12.562412
_cell_angle_alpha 90.000000
_cell_angle_beta 144.071424
_cell_angle_gamma 90.000000
_cell_volume 842.546786
_symmetry_space_group_name_H-M "P M"
_symmetry_group_IT_number 6
_symmetry_cell_setting 'monoclinic'
loop_
_space_group_symop_operation_xyz
x,y,z
x,-y,z
loop_
_atom_site_type_symbol
_atom_site_label
_atom_site_fract_x
_atom_site_fract_y
_atom_site_fract_z
Si Si1 0.391880 0.329366 0.734050
Si Si2 0.011847 0.674422 0.341414
Si Si3 0.789076 0.669168 0.655031
Si Si4 0.145989 0.831417 0.251589
Si Si5 0.499980 0.331928 0.591807
Si Si6 0.503500 0.673453 0.245710
Si Si7 0.130846 0.831313 0.997255
Si Si8 0.627658 0.325466 0.115512
O O1 0.374441 0.500000 0.742534
O O2 0.187993 0.267612 0.549743
O O3 0.517005 0.298440 0.731417
O O4 0.489248 0.257671 0.915468
O O5 0.016834 0.500000 0.332659
O O6 0.016420 0.741554 0.226658
O O7 0.831888 0.729827 0.256190
O O8 0.843489 0.500000 0.684512
O O9 0.691799 0.696605 0.690019
O O10 0.656610 0.720627 0.453605
O O11 0.971404 0.764205 0.795984
O O12 0.351156 0.771961 0.418642
O O13 0.072205 0.812247 0.072616
O O14 0.147660 0.000000 0.288400
O O15 0.436345 0.500000 0.522351
O O16 0.473070 0.500000 0.222910
O O17 0.315990 0.748135 0.123507
O O18 0.567840 0.730867 0.182493
O O19 0.157420 0.000000 0.987934
O O20 0.625804 0.500000 0.109195
#
# Coordination Sequence:
#
# PCOD8052408 Si02
#       8
#     2   2   2   2   2   2   2   2
#     4   8  15  28  48  79 110 135 167 213 267 324
#     4   9  18  32  53  79 108 141 177 221 272 324
#     4  10  21  35  57  86 111 142 186 236 282 326
#     4  10  20  34  53  79 113 148 181 222 273 329
#     4   9  17  32  55  82 111 141 178 225 278 328
#     4  10  21  39  60  84 113 144 187 238 279 323
#     4  11  24  38  55  81 114 153 189 225 279 339
#     4   9  18  32  55  82 106 138 179 224 274 323
#
# _framework density 18.990044000000001
#
# number of rings (size 3 to 8) (size 9 to 14) (size 15 to 20)
#    0.000    2.500    1.250    1.500    1.750    3.500 
#    0.000    4.375    0.000    6.000    0.000    0.000 
#    0.000    0.000    0.000    0.000    0.000    0.000 
#
# Total GULP energy -198376.210269 kJ/mol
# GULP energy per Si atom -12398.513142 kJ/mol
# Density = 1.894682 g / cm^3
# Si number density = 18.990044 Si / 1000 Ang^3
#
#
#
# Elastic Constant Matrix: (Units=GPa)
#
#
# Indices 1 2 3 4 5 6 
#
# 1 112.2046 36.0954 72.6838 0.0000 -5.8515 0.0000
# 2 36.0954 51.6635 41.6918 0.0000 4.3142 0.0000
# 3 72.6838 41.6918 143.8777 0.0000 0.4303 0.0000
# 4 0.0000 0.0000 0.0000 13.6907 0.0000 -4.3853
# 5 -5.8515 4.3142 0.4303 0.0000 25.2537 0.0000
# 6 0.0000 0.0000 0.0000 -4.3853 0.0000 11.6700
#
#
#
# Elastic Compliance Matrix: (Units=1/GPa)
#
#
# Indices 1 2 3 4 5 6 
#
# 1 0.014834 -0.006119 -0.005735 0.000000 0.004580 0.000000
# 2 -0.006119 0.028239 -0.005073 0.000000 -0.006156 0.000000
# 3 -0.005735 -0.005073 0.011319 0.000000 -0.000655 0.000000
# 4 0.000000 0.000000 0.000000 0.083037 0.000000 0.031203
# 5 0.004580 -0.006156 -0.000655 0.000000 0.041722 0.000000
# 6 0.000000 0.000000 0.000000 0.031203 0.000000 0.097415
#
#
# Mechanical properties :
#
#
# Convention : Reuss Voigt Hill
#
# Bulk Modulus (GPa) = 48.68737 67.63199 58.15968
# Shear Modulus (GPa) = 15.75956 20.60786 18.18371
#
# Velocity S-wave (km/s) = 2.88390 3.29780 3.09777
# Velocity P-wave (km/s) = 6.06491 7.08466 6.59453
#
# Compressibility (1/GPa) = 0.02053921
#
# Stress axis : x y z
#
# Youngs Moduli (GPa) = 67.41130 35.41157 88.34379
#
# Poissons Ratio (x) = 0.21668 0.50661
# Poissons Ratio (y) = 0.41249 0.44820
# Poissons Ratio (z) = 0.38657 0.17966
#
# Static dielectric constant tensor:
#      x y z
#    x 3.601480 0.000000 -0.093810 
#    y 0.000000 3.154510 0.000000 
#    z -0.093810 0.000000 3.603190 
# 
# 
# High freq. dielectric constant tensor:
#      x y z
#    x 1.738280 0.000000 -0.000430 
#    y 0.000000 1.701880 0.000000 
#    z -0.000430 0.000000 1.740740 
# 
# From -- ./inp_files/5081.got.cif
#   From: 2010.03.12/outbox.cif.g09.slc.cpg/sg6_3_cif.got.tgz:5081.got - 2010.03.30 10:24:59.
