data_PCOD8052951
_publ_section_title
;
Structure prediction by ZEFSAII (Michael W. Deem and Ramdas Pophale) SiO2 
 PCOD8052951
Probable space group: C M
;
_chemical_formula_sum "Si O2"
_cell_formula_units_Z 32
_cell_length_a 28.522712
_cell_length_b 8.585321
_cell_length_c 15.976666
_cell_angle_alpha 90.000000
_cell_angle_beta 153.593136
_cell_angle_gamma 90.000000
_cell_volume 1739.971464
_symmetry_space_group_name_H-M "C M"
_symmetry_group_IT_number 8
_symmetry_cell_setting 'monoclinic'
loop_
_space_group_symop_operation_xyz
x,y,z
x,-y,z
1/2+x,1/2+y,z
1/2+x,1/2-y,z
loop_
_atom_site_type_symbol
_atom_site_label
_atom_site_fract_x
_atom_site_fract_y
_atom_site_fract_z
Si Si1 0.934570 0.182895 0.829740
Si Si2 0.612197 0.814676 0.547891
Si Si3 0.353123 0.182923 0.535160
Si Si4 0.179773 0.184082 0.827287
Si Si5 0.888125 0.683858 0.246547
Si Si6 0.968675 0.316786 0.551399
Si Si7 0.636199 0.182802 0.239581
Si Si8 0.213071 0.683706 0.540818
O O1 0.930359 0.273061 0.734941
O O2 0.834691 0.237145 0.726163
O O3 0.928266 0.000000 0.800643
O O4 0.040845 0.222074 0.047752
O O5 0.678332 0.754804 0.732363
O O6 0.491562 0.755633 0.362320
O O7 0.662224 0.742511 0.543066
O O8 0.617217 0.000000 0.556053
O O9 0.410400 0.235941 0.542053
O O10 0.243869 0.276413 0.363991
O O11 0.328995 0.000000 0.497217
O O12 0.080447 0.231203 0.724827
O O13 0.185155 0.000000 0.828469
O O14 0.283258 0.255296 0.038018
O O15 0.882654 0.500000 0.230966
O O16 0.896425 0.733832 0.357077
O O17 0.991265 0.500000 0.585641
O O18 0.647077 0.236393 0.353662
O O19 0.614029 0.000000 0.195699
O O20 0.207817 0.500000 0.539543
#
# Coordination Sequence:
#
# PCOD8052951 Si02
#       8
#     4   4   4   4   4   4   4   4
#     4  10  20  35  53  76 107 140 175 214 260 312
#     4   9  17  34  54  70  97 137 173 207 253 304
#     4  10  20  35  55  78 103 134 175 220 266 312
#     4  10  19  31  49  76 104 130 166 211 255 300
#     4   8  16  31  50  70  96 129 162 199 247 301
#     4   9  19  36  54  72  97 133 171 205 251 310
#     4  10  20  35  54  78 106 136 174 216 262 314
#     4   8  17  33  53  74  98 133 174 214 256 305
#
# _framework density 18.391106000000001
#
# number of rings (size 3 to 8) (size 9 to 14) (size 15 to 20)
#    0.000    2.750    0.000    3.000    0.000    3.000 
#    0.000   11.250    0.000    0.000    0.000    0.000 
#    0.000    0.000    0.000    0.000    0.000    0.000 
#
# Total GULP energy -198376.069797 kJ/mol
# GULP energy per Si atom -12398.504362 kJ/mol
# Density = 1.834925 g / cm^3
# Si number density = 18.391106 Si / 1000 Ang^3
#
#
#
# Elastic Constant Matrix: (Units=GPa)
#
#
# Indices 1 2 3 4 5 6 
#
# 1 174.4685 20.1100 72.2828 0.0000 -9.4183 0.0000
# 2 20.1100 28.2409 9.8995 0.0000 -1.4342 0.0000
# 3 72.2828 9.8995 152.0671 0.0000 -4.7561 0.0000
# 4 0.0000 0.0000 0.0000 27.7257 0.0000 -0.6301
# 5 -9.4183 -1.4342 -4.7561 0.0000 13.1847 0.0000
# 6 0.0000 0.0000 0.0000 -0.6301 0.0000 23.7496
#
#
#
# Elastic Compliance Matrix: (Units=1/GPa)
#
#
# Indices 1 2 3 4 5 6 
#
# 1 0.007799 -0.004193 -0.003311 0.000000 0.003920 0.000000
# 2 -0.004193 0.038619 -0.000489 0.000000 0.001029 0.000000
# 3 -0.003311 -0.000489 0.008199 0.000000 0.000539 0.000000
# 4 0.000000 0.000000 0.000000 0.036089 0.000000 0.000958
# 5 0.003920 0.001029 0.000539 0.000000 0.078952 0.000000
# 6 0.000000 0.000000 0.000000 0.000958 0.000000 0.042131
#
#
# Mechanical properties :
#
#
# Convention : Reuss Voigt Hill
#
# Bulk Modulus (GPa) = 25.88674 62.15122 44.01898
# Shear Modulus (GPa) = 20.77678 29.76426 25.27052
#
# Velocity S-wave (km/s) = 3.36478 4.02730 3.71086
# Velocity P-wave (km/s) = 5.40387 7.44937 6.50749
#
# Compressibility (1/GPa) = 0.03862982
#
# Stress axis : x y z
#
# Youngs Moduli (GPa) = 128.22879 25.89377 121.97051
#
# Poissons Ratio (x) = 0.10858 0.40388
# Poissons Ratio (y) = 0.53772 0.05960
# Poissons Ratio (z) = 0.42461 0.01265
#
# Static dielectric constant tensor:
#      x y z
#    x 3.669710 0.000000 -0.012310 
#    y 0.000000 3.161430 0.000000 
#    z -0.012310 0.000000 3.534880 
# 
# 
# High freq. dielectric constant tensor:
#      x y z
#    x 1.717520 0.000000 -0.001260 
#    y 0.000000 1.695190 0.000000 
#    z -0.001260 0.000000 1.716650 
# 
# From -- ./inp_files/26399.got.cif
#   From: 2010.03.12/outbox.cif.g09.slc.cpg/sg8_14_cif.got.tgz:26399.got - 2010.03.31 10:45:26.
