data_PCOD8052871
_publ_section_title
;
Structure prediction by ZEFSAII (Michael W. Deem and Ramdas Pophale) SiO2 
 PCOD8052871
Probable space group: C M
;
_chemical_formula_sum "Si O2"
_cell_formula_units_Z 32
_cell_length_a 25.112003
_cell_length_b 8.686780
_cell_length_c 16.565420
_cell_angle_alpha 90.000000
_cell_angle_beta 26.330011
_cell_angle_gamma 90.000000
_cell_volume 1602.788094
_symmetry_space_group_name_H-M "C M"
_symmetry_group_IT_number 8
_symmetry_cell_setting 'monoclinic'
loop_
_space_group_symop_operation_xyz
x,y,z
x,-y,z
1/2+x,1/2+y,z
1/2+x,1/2-y,z
loop_
_atom_site_type_symbol
_atom_site_label
_atom_site_fract_x
_atom_site_fract_y
_atom_site_fract_z
Si Si1 0.083750 0.818300 0.058490
Si Si2 0.498531 0.318278 0.694692
Si Si3 0.977028 0.175025 0.482575
Si Si4 0.186165 0.821919 0.308753
Si Si5 0.451733 0.181945 0.926964
Si Si6 0.623021 0.319164 0.825127
Si Si7 0.815956 0.321086 0.828263
Si Si8 0.872353 0.176908 0.454306
O O1 0.950674 0.774474 0.269922
O O2 0.100940 0.000000 0.031086
O O3 0.104232 0.752164 0.940925
O O4 0.183457 0.756370 0.986285
O O5 0.503816 0.500000 0.693454
O O6 0.607061 0.253506 0.490608
O O7 0.512990 0.249090 0.763661
O O8 0.370851 0.269955 0.829522
O O9 0.115351 0.204592 0.320490
O O10 0.893872 0.295600 0.641877
O O11 0.961379 0.199846 0.409005
O O12 0.941614 0.000000 0.556322
O O13 0.205358 0.000000 0.301006
O O14 0.318029 0.746241 0.121894
O O15 0.530874 0.227776 0.895335
O O16 0.446921 0.000000 0.924185
O O17 0.596996 0.500000 0.854400
O O18 0.758465 0.287208 0.612871
O O19 0.814194 0.500000 0.853805
O O20 0.828924 0.000000 0.507456
#
# Coordination Sequence:
#
# PCOD8052871 Si02
#       8
#     4   4   4   4   4   4   4   4
#     4   9  20  36  58  85 115 154 196 239 291 343
#     4  10  21  39  59  87 121 154 189 237 295 344
#     4   9  17  32  57  85 118 153 188 237 293 344
#     4   8  18  36  58  84 117 153 190 231 286 346
#     4  11  23  40  63  87 111 153 204 242 284 347
#     4  11  23  42  59  81 120 157 193 244 295 340
#     4  10  18  33  58  86 120 156 192 235 287 346
#     4  10  20  36  60  87 114 152 198 239 287 348
#
# _framework density 19.965209999999999
#
# number of rings (size 3 to 8) (size 9 to 14) (size 15 to 20)
#    0.000    2.250    1.250    2.250    1.750    1.000 
#    0.000   11.250    0.000    0.000    0.000    0.000 
#    0.000    0.000    0.000    0.000    0.000    0.000 
#
# Total GULP energy -198369.467583 kJ/mol
# GULP energy per Si atom -12398.091724 kJ/mol
# Density = 1.991977 g / cm^3
# Si number density = 19.965210 Si / 1000 Ang^3
#
#
#
# Elastic Constant Matrix: (Units=GPa)
#
#
# Indices 1 2 3 4 5 6 
#
# 1 102.1713 20.8343 47.3161 -0.0003 -11.3790 0.0002
# 2 20.8343 46.3694 18.5942 -0.0008 1.1600 0.0005
# 3 47.3161 18.5942 108.1466 -0.0007 -8.5425 0.0005
# 4 -0.0003 -0.0008 -0.0007 25.0325 0.0006 0.3921
# 5 -11.3790 1.1600 -8.5425 0.0006 25.0454 -0.0003
# 6 0.0002 0.0005 0.0005 0.3921 -0.0003 29.4054
#
#
#
# Elastic Compliance Matrix: (Units=1/GPa)
#
#
# Indices 1 2 3 4 5 6 
#
# 1 0.013367 -0.004215 -0.004757 0.000000 0.004646 0.000000
# 2 -0.004215 0.024645 -0.002708 0.000001 -0.003980 0.000000
# 3 -0.004757 -0.002708 0.011955 0.000000 0.002042 0.000000
# 4 0.000000 0.000001 0.000000 0.039956 -0.000001 -0.000533
# 5 0.004646 -0.003980 0.002042 -0.000001 0.042919 0.000001
# 6 0.000000 0.000000 0.000000 -0.000533 0.000001 0.034014
#
#
# Mechanical properties :
#
#
# Convention : Reuss Voigt Hill
#
# Bulk Modulus (GPa) = 37.58195 47.79739 42.68967
# Shear Modulus (GPa) = 25.11490 27.22618 26.17054
#
# Velocity S-wave (km/s) = 3.55058 3.69681 3.62443
# Velocity P-wave (km/s) = 5.97272 6.49725 6.24050
#
# Compressibility (1/GPa) = 0.02660852
#
# Stress axis : x y z
#
# Youngs Moduli (GPa) = 74.80970 40.57607 83.64915
#
# Poissons Ratio (x) = 0.17102 0.39790
# Poissons Ratio (y) = 0.31531 0.22650
# Poissons Ratio (z) = 0.35585 0.10987
#
# Static dielectric constant tensor:
#      x y z
#    x 3.688190 0.000000 -0.020650 
#    y 0.000000 3.360950 0.000000 
#    z -0.020650 0.000000 3.790350 
# 
# 
# High freq. dielectric constant tensor:
#      x y z
#    x 1.781730 0.000000 -0.000600 
#    y 0.000000 1.752270 0.000000 
#    z -0.000600 0.000000 1.778960 
# 
# From -- ./inp_files/28183.got.cif
#   From: 2010.03.12/outbox.cif.g09.slc.cpg/sg8_15_cif.got.tgz:28183.got - 2010.03.31 10:45:26.
