data_PCOD8052727
_publ_section_title
;
Structure prediction by ZEFSAII (Michael W. Deem and Ramdas Pophale) SiO2 
 PCOD8052727
Probable space group: C M
;
_chemical_formula_sum "Si O2"
_cell_formula_units_Z 32
_cell_length_a 24.691275
_cell_length_b 9.169578
_cell_length_c 21.797550
_cell_angle_alpha 90.000000
_cell_angle_beta 23.098273
_cell_angle_gamma 90.000000
_cell_volume 1936.106544
_symmetry_space_group_name_H-M "C M"
_symmetry_group_IT_number 8
_symmetry_cell_setting 'monoclinic'
loop_
_space_group_symop_operation_xyz
x,y,z
x,-y,z
1/2+x,1/2+y,z
1/2+x,1/2-y,z
loop_
_atom_site_type_symbol
_atom_site_label
_atom_site_fract_x
_atom_site_fract_y
_atom_site_fract_z
Si Si1 0.883370 0.839269 0.109240
Si Si2 0.100076 0.337998 0.354005
Si Si3 0.103651 0.333098 0.585786
Si Si4 0.570229 0.331878 0.263512
Si Si5 0.780679 0.168328 0.517164
Si Si6 0.373705 0.166847 0.918305
Si Si7 0.062250 0.171757 0.815725
Si Si8 0.167005 0.827613 0.397596
O O1 0.766568 0.850262 0.177333
O O2 0.826941 0.726460 0.219640
O O3 0.904051 0.000000 0.117912
O O4 0.021656 0.789586 0.929004
O O5 0.033554 0.500000 0.428555
O O6 0.043840 0.260989 0.352020
O O7 0.065967 0.243455 0.451149
O O8 0.128340 0.500000 0.538679
O O9 0.218231 0.285329 0.516643
O O10 0.116188 0.223857 0.516474
O O11 0.949655 0.313848 0.773766
O O12 0.572118 0.500000 0.281925
O O13 0.444479 0.300387 0.347671
O O14 0.712189 0.290075 0.080790
O O15 0.709208 0.256901 0.646968
O O16 0.745699 0.000000 0.565344
O O17 0.444496 0.268615 0.894009
O O18 0.389676 0.000000 0.924083
O O19 0.073252 0.000000 0.795225
O O20 0.160524 0.000000 0.399898
#
# Coordination Sequence:
#
# PCOD8052727 Si02
#       8
#     4   4   4   4   4   4   4   4
#     4   8  16  28  44  68  94 119 148 189 236 276
#     4   9  17  29  46  70  96 122 150 189 238 280
#     4   9  17  31  46  65  94 127 158 193 235 279
#     4  10  18  31  50  74  99 125 158 193 233 283
#     4   9  20  33  47  69 101 133 156 187 235 285
#     4   9  17  28  47  69  92 123 158 195 235 277
#     4  10  17  28  46  70  96 122 157 196 233 276
#     4  10  18  28  46  71  92 117 159 204 239 274
#
# _framework density 16.528015
#
# number of rings (size 3 to 8) (size 9 to 14) (size 15 to 20)
#    0.750    2.000    1.250    2.250    0.000    3.500 
#    0.000    0.000    0.000    1.500    0.000    7.000 
#    0.000    0.000    0.000    0.000    0.000    0.000 
#
# Total GULP energy -198226.530907 kJ/mol
# GULP energy per Si atom -12389.158182 kJ/mol
# Density = 1.649040 g / cm^3
# Si number density = 16.528015 Si / 1000 Ang^3
#
#
#
# Elastic Constant Matrix: (Units=GPa)
#
#
# Indices 1 2 3 4 5 6 
#
# 1 69.9081 39.3575 43.8631 0.0002 9.6962 0.0001
# 2 39.3575 93.5030 38.8322 -0.0002 13.7576 0.0010
# 3 43.8631 38.8322 95.2523 -0.0007 1.3998 0.0012
# 4 0.0002 -0.0002 -0.0007 21.9303 0.0009 7.2844
# 5 9.6962 13.7576 1.3998 0.0009 25.6844 -0.0007
# 6 0.0001 0.0010 0.0012 7.2844 -0.0007 24.3998
#
#
#
# Elastic Compliance Matrix: (Units=1/GPa)
#
#
# Indices 1 2 3 4 5 6 
#
# 1 0.023516 -0.005581 -0.008474 -0.000001 -0.005427 0.000001
# 2 -0.005581 0.015430 -0.003633 0.000001 -0.005960 -0.000001
# 3 -0.008474 -0.003633 0.015819 0.000001 0.004283 -0.000001
# 4 -0.000001 0.000001 0.000001 0.050618 -0.000002 -0.015112
# 5 -0.005427 -0.005960 0.004283 -0.000002 0.043942 0.000002
# 6 0.000001 -0.000001 -0.000001 -0.015112 0.000002 0.045495
#
#
# Mechanical properties :
#
#
# Convention : Reuss Voigt Hill
#
# Bulk Modulus (GPa) = 51.57528 55.86324 53.71926
# Shear Modulus (GPa) = 21.12752 23.51028 22.31890
#
# Velocity S-wave (km/s) = 3.57919 3.77563 3.67872
# Velocity P-wave (km/s) = 6.95365 7.27184 7.11453
#
# Compressibility (1/GPa) = 0.01938913
#
# Stress axis : x y z
#
# Youngs Moduli (GPa) = 42.52425 64.81086 63.21587
#
# Poissons Ratio (x) = 0.36168 0.53570
# Poissons Ratio (y) = 0.23731 0.22965
# Poissons Ratio (z) = 0.36036 0.23545
#
# Static dielectric constant tensor:
#      x y z
#    x 2.769040 0.000000 0.040690 
#    y 0.000000 3.108890 0.000000 
#    z 0.040690 0.000000 3.135600 
# 
# 
# High freq. dielectric constant tensor:
#      x y z
#    x 1.596990 0.000000 0.014370 
#    y 0.000000 1.640830 0.000000 
#    z 0.014370 0.000000 1.624990 
# 
# From -- ./inp_files/32613.got.cif
#   From: 2010.03.12/outbox.cif.g09.slc.cpg/sg8_17_cif.got.tgz:32613.got - 2010.03.31 10:45:26.
