data_PCOD8052785
_publ_section_title
;
Structure prediction by ZEFSAII (Michael W. Deem and Ramdas Pophale) SiO2 
 PCOD8052785
Probable space group: C M
;
_chemical_formula_sum "Si O2"
_cell_formula_units_Z 32
_cell_length_a 20.154388
_cell_length_b 8.991771
_cell_length_c 25.124835
_cell_angle_alpha 90.000000
_cell_angle_beta 23.404075
_cell_angle_gamma 90.000000
_cell_volume 1808.596568
_symmetry_space_group_name_H-M "C M"
_symmetry_group_IT_number 8
_symmetry_cell_setting 'monoclinic'
loop_
_space_group_symop_operation_xyz
x,y,z
x,-y,z
1/2+x,1/2+y,z
1/2+x,1/2-y,z
loop_
_atom_site_type_symbol
_atom_site_label
_atom_site_fract_x
_atom_site_fract_y
_atom_site_fract_z
Si Si1 0.434610 0.672629 0.760580
Si Si2 0.704375 0.825787 0.490411
Si Si3 0.379994 0.177819 0.021273
Si Si4 0.518346 0.674305 0.816345
Si Si5 0.522255 0.674839 0.319419
Si Si6 0.512083 0.672159 0.546725
Si Si7 0.370646 0.325792 0.540456
Si Si8 0.201048 0.674093 0.842871
O O1 0.475273 0.500000 0.720236
O O2 0.585164 0.764462 0.624361
O O3 0.420364 0.707460 0.833391
O O4 0.258995 0.715292 0.860449
O O5 0.667226 0.757467 0.459569
O O6 0.894040 0.784756 0.366567
O O7 0.676620 0.000000 0.508022
O O8 0.203019 0.241947 0.172015
O O9 0.377540 0.000000 0.018902
O O10 0.414460 0.241844 0.937702
O O11 0.520434 0.239467 0.959406
O O12 0.525704 0.500000 0.823495
O O13 0.704952 0.735307 0.675299
O O14 0.539522 0.500000 0.314094
O O15 0.454988 0.739010 0.425018
O O16 0.535469 0.500000 0.543310
O O17 0.504704 0.700105 0.489077
O O18 0.341154 0.734015 0.698870
O O19 0.323297 0.500000 0.570680
O O20 0.185046 0.500000 0.846907
#
# Coordination Sequence:
#
# PCOD8052785 Si02
#       8
#     4   4   4   4   4   4   4   4
#     4   9  18  32  49  73 103 132 167 212 257 304
#     4  10  18  30  50  76 104 133 167 212 255 301
#     4  10  19  35  55  74 101 139 175 214 255 305
#     4  11  21  32  50  79 108 133 169 219 262 304
#     4   9  19  33  53  78 102 133 178 215 250 303
#     4   9  17  30  50  75 101 132 168 211 256 304
#     4  10  18  34  55  76 102 134 177 218 249 301
#     4   8  14  28  50  71  93 128 169 205 248 296
#
# _framework density 17.693276999999998
#
# number of rings (size 3 to 8) (size 9 to 14) (size 15 to 20)
#    0.000    2.500    2.500    1.500    0.000    1.000 
#    0.000    3.125    0.000    3.000    0.000    0.000 
#    0.000    0.000    0.000    0.000    0.000    0.000 
#
# Total GULP energy -198324.404072 kJ/mol
# GULP energy per Si atom -12395.275254 kJ/mol
# Density = 1.765301 g / cm^3
# Si number density = 17.693277 Si / 1000 Ang^3
#
#
#
# Elastic Constant Matrix: (Units=GPa)
#
#
# Indices 1 2 3 4 5 6 
#
# 1 135.9097 38.0906 58.3802 0.0195 -11.8442 -0.0030
# 2 38.0906 43.8132 27.9293 0.0402 -5.7704 -0.0002
# 3 58.3802 27.9293 106.4311 0.0633 -7.6988 -0.0019
# 4 0.0195 0.0402 0.0633 11.6176 0.0037 -3.1010
# 5 -11.8442 -5.7704 -7.6988 0.0037 27.7296 -0.0022
# 6 -0.0030 -0.0002 -0.0019 -3.1010 -0.0022 26.5143
#
#
#
# Elastic Compliance Matrix: (Units=1/GPa)
#
#
# Indices 1 2 3 4 5 6 
#
# 1 0.011282 -0.006813 -0.004240 0.000028 0.002224 0.000004
# 2 -0.006813 0.031918 -0.004458 -0.000078 0.002494 -0.000010
# 3 -0.004240 -0.004458 0.012953 -0.000050 0.000858 -0.000005
# 4 0.000028 -0.000078 -0.000050 0.088851 -0.000029 0.010392
# 5 0.002224 0.002494 0.000858 -0.000029 0.037770 0.000000
# 6 0.000004 -0.000010 -0.000005 0.010392 0.000000 0.038931
#
#
# Mechanical properties :
#
#
# Convention : Reuss Voigt Hill
#
# Bulk Modulus (GPa) = 39.79102 59.43936 49.61519
# Shear Modulus (GPa) = 19.14944 23.95590 21.55267
#
# Velocity S-wave (km/s) = 3.29340 3.68360 3.49395
# Velocity P-wave (km/s) = 6.08278 7.19438 6.66181
#
# Compressibility (1/GPa) = 0.02513130
#
# Stress axis : x y z
#
# Youngs Moduli (GPa) = 88.63375 31.33046 77.19951
#
# Poissons Ratio (x) = 0.21346 0.32732
# Poissons Ratio (y) = 0.60387 0.34417
# Poissons Ratio (z) = 0.37580 0.13968
#
# Static dielectric constant tensor:
#      x y z
#    x 3.667520 0.000000 -0.157880 
#    y 0.000000 3.066320 0.000000 
#    z -0.157880 0.000000 3.246770 
# 
# 
# High freq. dielectric constant tensor:
#      x y z
#    x 1.703420 0.000000 -0.012560 
#    y 0.000000 1.659150 0.000000 
#    z -0.012560 0.000000 1.654700 
# 
# From -- ./inp_files/16889.got.cif
#   From: 2010.03.12/outbox.cif.g09.slc.cpg/sg8_9_cif.got.tgz:16889.got - 2010.03.31 10:45:26.
