data_PCOD8052623
_publ_section_title
;
Structure prediction by ZEFSAII (Michael W. Deem and Ramdas Pophale) SiO2 
 PCOD8052623
Probable space group: P C
;
_chemical_formula_sum "Si O2"
_cell_formula_units_Z 12
_cell_length_a 6.306840
_cell_length_b 14.135068
_cell_length_c 5.234628
_cell_angle_alpha 90.000000
_cell_angle_beta 100.334753
_cell_angle_gamma 90.000000
_cell_volume 459.083772
_symmetry_space_group_name_H-M "P C"
_symmetry_group_IT_number 7
_symmetry_cell_setting 'monoclinic'
loop_
_space_group_symop_operation_xyz
x,y,z
x,-y,1/2+z
loop_
_atom_site_type_symbol
_atom_site_label
_atom_site_fract_x
_atom_site_fract_y
_atom_site_fract_z
Si Si1 0.400970 0.812977 0.821500
Si Si2 0.211480 0.742870 0.289385
Si Si3 0.768604 0.941665 0.809140
Si Si4 0.842678 0.736218 0.866327
Si Si5 0.888980 0.452926 0.106767
Si Si6 0.388911 0.455383 0.930327
O O1 0.221853 0.795041 0.564778
O O2 0.514656 0.913811 0.783189
O O3 0.584956 0.729533 0.850937
O O4 0.300961 0.810863 0.082041
O O5 0.361149 0.651193 0.331785
O O6 0.964474 0.716893 0.162997
O O7 0.902760 0.844255 0.795416
O O8 0.830287 0.008547 0.588217
O O9 0.922805 0.658492 0.677532
O O10 0.993554 0.520073 0.354345
O O11 0.639720 0.480661 0.021187
O O12 0.286071 0.525851 0.690006
#
# Coordination Sequence:
#
# PCOD8052623 Si02
#       6
#     2   2   2   2   2   2
#     4  10  25  42  68  93 134 165 220 267 330 389
#     4  12  23  43  66  98 127 182 216 265 340 386
#     4  10  22  44  71  96 130 173 213 272 335 387
#     4  10  26  43  71  95 139 173 217 278 327 389
#     4  10  22  37  63  92 129 177 218 263 324 380
#     4  10  20  35  59  88 129 170 222 275 310 377
#
# _framework density 26.139021
#
# number of rings (size 3 to 8) (size 9 to 14) (size 15 to 20)
#    1.000    0.667    1.667    2.000    4.667    6.667 
#    0.000    5.000    0.000    0.000    0.000    0.000 
#    0.000    0.000    0.000    0.000    0.000    0.000 
#
# Total GULP energy -148733.100570 kJ/mol
# GULP energy per Si atom -12394.425048 kJ/mol
# Density = 2.607953 g / cm^3
# Si number density = 26.139021 Si / 1000 Ang^3
#
#
#
# Elastic Constant Matrix: (Units=GPa)
#
#
# Indices 1 2 3 4 5 6 
#
# 1 67.0396 8.7756 51.0602 0.0000 -15.4655 0.0000
# 2 8.7756 134.6184 59.4143 0.0000 -24.2537 0.0000
# 3 51.0602 59.4143 205.3374 0.0000 -8.5973 0.0000
# 4 0.0000 0.0000 0.0000 44.4706 0.0000 -0.4985
# 5 -15.4655 -24.2537 -8.5973 0.0000 48.1694 0.0000
# 6 0.0000 0.0000 0.0000 -0.4985 0.0000 23.1177
#
#
#
# Elastic Compliance Matrix: (Units=1/GPa)
#
#
# Indices 1 2 3 4 5 6 
#
# 1 0.020295 0.002278 -0.005425 0.000000 0.006694 0.000000
# 2 0.002278 0.009556 -0.003123 0.000000 0.004986 0.000000
# 3 -0.005425 -0.003123 0.007037 0.000000 -0.002058 0.000000
# 4 0.000000 0.000000 0.000000 0.022492 0.000000 0.000485
# 5 0.006694 0.004986 -0.002058 0.000000 0.025052 0.000000
# 6 0.000000 0.000000 0.000000 0.000485 0.000000 0.043267
#
#
# Mechanical properties :
#
#
# Convention : Reuss Voigt Hill
#
# Bulk Modulus (GPa) = 41.07305 71.72175 56.39740
# Shear Modulus (GPa) = 33.70259 42.33455 38.01857
#
# Velocity S-wave (km/s) = 3.59466 4.02878 3.81790
# Velocity P-wave (km/s) = 5.74249 7.00996 6.40764
#
# Compressibility (1/GPa) = 0.02434686
#
# Stress axis : x y z
#
# Youngs Moduli (GPa) = 49.27331 104.64165 142.11556
#
# Poissons Ratio (x) = -0.23833 0.77103
# Poissons Ratio (y) = -0.11223 0.44379
# Poissons Ratio (z) = 0.26733 0.32677
#
# Static dielectric constant tensor:
#      x y z
#    x 4.617440 0.000000 0.161520 
#    y 0.000000 4.361060 0.000000 
#    z 0.161520 0.000000 5.143600 
# 
# 
# High freq. dielectric constant tensor:
#      x y z
#    x 2.057530 0.000000 0.013690 
#    y 0.000000 2.021490 0.000000 
#    z 0.013690 0.000000 2.074780 
# 
# From -- ./inp_files/697.got.cif
#   From: 2010.03.12/outbox.cif.g09.slc.cpg/sg7_cif.got.tgz:697.got - 2010.03.30 08:40:41.
