data_PCOD8052278
_publ_section_title
;
Structure prediction by ZEFSAII (Michael W. Deem and Ramdas Pophale) SiO2 
 PCOD8052278
Probable space group: P M
;
_chemical_formula_sum "Si O2"
_cell_formula_units_Z 16
_cell_length_a 9.976445
_cell_length_b 8.970130
_cell_length_c 12.175874
_cell_angle_alpha 90.000000
_cell_angle_beta 55.081848
_cell_angle_gamma 90.000000
_cell_volume 893.455571
_symmetry_space_group_name_H-M "P M"
_symmetry_group_IT_number 6
_symmetry_cell_setting 'monoclinic'
loop_
_space_group_symop_operation_xyz
x,y,z
x,-y,z
loop_
_atom_site_type_symbol
_atom_site_label
_atom_site_fract_x
_atom_site_fract_y
_atom_site_fract_z
Si Si1 0.183070 0.824219 0.018790
Si Si2 0.017266 0.176554 0.315615
Si Si3 0.348439 0.325954 0.566154
Si Si4 0.118027 0.671120 0.480809
Si Si5 0.072393 0.176020 0.835485
Si Si6 0.547987 0.175887 0.811756
Si Si7 0.647345 0.824586 0.519080
Si Si8 0.842660 0.324272 0.782008
O O1 0.095715 0.756859 0.167466
O O2 0.196001 0.000000 0.023885
O O3 0.076177 0.782451 0.962426
O O4 0.366948 0.762227 0.920732
O O5 0.830952 0.232517 0.412000
O O6 0.124196 0.232016 0.368053
O O7 0.022520 0.000000 0.313740
O O8 0.341310 0.500000 0.599731
O O9 0.282989 0.300199 0.473051
O O10 0.237486 0.237277 0.704142
O O11 0.531789 0.262857 0.487809
O O12 0.101322 0.500000 0.454197
O O13 0.962912 0.720663 0.626382
O O14 0.911131 0.251858 0.861524
O O15 0.066716 0.000000 0.818296
O O16 0.596672 0.219808 0.665650
O O17 0.664650 0.259088 0.842752
O O18 0.564719 0.000000 0.822147
O O19 0.629139 0.000000 0.506510
O O20 0.834737 0.500000 0.802523
#
# Coordination Sequence:
#
# PCOD8052278 Si02
#       8
#     2   2   2   2   2   2   2   2
#     4   9  19  35  54  77 107 136 169 216 266 309
#     4  10  20  35  55  78 104 136 174 215 259 312
#     4  10  20  33  52  79 108 137 173 217 264 307
#     4   9  19  34  50  74 107 138 169 210 259 311
#     4  10  18  33  55  78 106 140 173 213 264 309
#     4  10  18  33  54  79 104 134 176 219 259 304
#     4  10  19  32  53  81 104 131 178 222 255 304
#     4  10  20  33  51  80 110 136 172 218 262 306
#
# _framework density 17.907997000000002
#
# number of rings (size 3 to 8) (size 9 to 14) (size 15 to 20)
#    0.000    2.250    2.500    1.875    0.000    3.500 
#    0.000    3.125    0.000    6.000    0.000    0.000 
#    0.000    0.000    0.000    0.000    0.000    0.000 
#
# Total GULP energy -198421.789348 kJ/mol
# GULP energy per Si atom -12401.361834 kJ/mol
# Density = 1.786724 g / cm^3
# Si number density = 17.907997 Si / 1000 Ang^3
#
#
#
# Elastic Constant Matrix: (Units=GPa)
#
#
# Indices 1 2 3 4 5 6 
#
# 1 152.0187 47.8410 69.9918 0.0000 6.2090 0.0000
# 2 47.8410 54.3210 32.7296 0.0000 6.0068 0.0000
# 3 69.9918 32.7296 120.7299 0.0000 5.6226 0.0000
# 4 0.0000 0.0000 0.0000 11.4891 0.0000 0.0502
# 5 6.2090 6.0068 5.6226 0.0000 25.3538 0.0000
# 6 0.0000 0.0000 0.0000 0.0502 0.0000 26.6521
#
#
#
# Elastic Compliance Matrix: (Units=1/GPa)
#
#
# Indices 1 2 3 4 5 6 
#
# 1 0.010740 -0.006817 -0.004376 0.000000 -0.000045 0.000000
# 2 -0.006817 0.026725 -0.003108 0.000000 -0.003973 0.000000
# 3 -0.004376 -0.003108 0.011699 0.000000 -0.000786 0.000000
# 4 0.000000 0.000000 0.000000 0.087040 0.000000 -0.000164
# 5 -0.000045 -0.003973 -0.000786 0.000000 0.040568 0.000000
# 6 0.000000 0.000000 0.000000 -0.000164 0.000000 0.037521
#
#
# Mechanical properties :
#
#
# Convention : Reuss Voigt Hill
#
# Bulk Modulus (GPa) = 48.63428 69.79937 59.21683
# Shear Modulus (GPa) = 20.01996 24.46613 22.24304
#
# Velocity S-wave (km/s) = 3.34718 3.70024 3.52813
# Velocity P-wave (km/s) = 6.49268 7.57080 7.05237
#
# Compressibility (1/GPa) = 0.02056163
#
# Stress axis : x y z
#
# Youngs Moduli (GPa) = 93.10687 37.41815 85.47570
#
# Poissons Ratio (x) = 0.25509 0.37407
# Poissons Ratio (y) = 0.63474 0.26564
# Poissons Ratio (z) = 0.40747 0.11629
#
# Static dielectric constant tensor:
#      x y z
#    x 3.466050 0.000000 0.005910 
#    y 0.000000 3.136710 0.000000 
#    z 0.005910 0.000000 3.287390 
# 
# 
# High freq. dielectric constant tensor:
#      x y z
#    x 1.707680 0.000000 0.005820 
#    y 0.000000 1.682630 0.000000 
#    z 0.005820 0.000000 1.665220 
# 
# From -- ./inp_files/3483.got.cif
#   From: 2010.03.12/outbox.cif.g09.slc.cpg/sg6_2_cif.got.tgz:3483.got - 2010.03.30 10:24:59.
