data_PCOD8052335
_publ_section_title
;
Structure prediction by ZEFSAII (Michael W. Deem and Ramdas Pophale) SiO2 
 PCOD8052335
Probable space group: P M
;
_chemical_formula_sum "Si O2"
_cell_formula_units_Z 16
_cell_length_a 12.098598
_cell_length_b 8.662405
_cell_length_c 10.266388
_cell_angle_alpha 90.000000
_cell_angle_beta 127.780388
_cell_angle_gamma 90.000000
_cell_volume 850.391231
_symmetry_space_group_name_H-M "P M"
_symmetry_group_IT_number 6
_symmetry_cell_setting 'monoclinic'
loop_
_space_group_symop_operation_xyz
x,y,z
x,-y,z
loop_
_atom_site_type_symbol
_atom_site_label
_atom_site_fract_x
_atom_site_fract_y
_atom_site_fract_z
Si Si1 0.714090 0.320998 0.982230
Si Si2 0.006431 0.678102 0.079296
Si Si3 0.161016 0.679684 0.454897
Si Si4 0.406055 0.320077 0.015263
Si Si5 0.985173 0.178776 0.554627
Si Si6 0.690513 0.178376 0.240534
Si Si7 0.428851 0.180690 0.751594
Si Si8 0.139254 0.821148 0.927322
O O1 0.705457 0.500000 0.015957
O O2 0.570168 0.268263 0.809886
O O3 0.738427 0.223107 0.130101
O O4 0.841102 0.291063 0.975295
O O5 0.036283 0.500000 0.067494
O O6 0.083408 0.727855 0.267078
O O7 0.060370 0.784843 0.003228
O O8 0.196464 0.500000 0.483776
O O9 0.305647 0.773553 0.564408
O O10 0.062661 0.716895 0.505535
O O11 0.401728 0.500000 0.980505
O O12 0.555289 0.276586 0.187361
O O13 0.384262 0.227086 0.865539
O O14 0.282686 0.275523 0.024884
O O15 0.818963 0.212052 0.430596
O O16 0.037799 0.225450 0.735398
O O17 0.016933 0.000000 0.545095
O O18 0.647483 0.000000 0.210746
O O19 0.456246 0.000000 0.764769
O O20 0.178273 0.000000 0.950619
#
# Coordination Sequence:
#
# PCOD8052335 Si02
#       8
#     2   2   2   2   2   2   2   2
#     4  10  19  35  56  82 114 149 189 234 285 339
#     4  10  23  40  58  84 117 151 192 235 284 346
#     4  11  21  36  59  86 114 149 191 239 286 336
#     4  11  21  35  56  83 115 152 191 234 286 339
#     4  10  21  36  57  86 116 146 189 239 284 338
#     4  10  19  33  56  85 115 146 185 238 289 335
#     4  11  21  34  55  86 117 147 189 238 286 337
#     4  11  23  39  59  84 116 154 192 235 286 344
#
# _framework density 18.814869999999999
#
# number of rings (size 3 to 8) (size 9 to 14) (size 15 to 20)
#    0.000    1.500    2.500    5.250    0.000    3.000 
#    0.000    1.250    0.000    3.000    0.000    0.000 
#    0.000    0.000    0.000    0.000    0.000    0.000 
#
# Total GULP energy -198463.372171 kJ/mol
# GULP energy per Si atom -12403.960761 kJ/mol
# Density = 1.877205 g / cm^3
# Si number density = 18.814870 Si / 1000 Ang^3
#
#
#
# Elastic Constant Matrix: (Units=GPa)
#
#
# Indices 1 2 3 4 5 6 
#
# 1 116.0916 33.3734 52.7001 0.0000 13.7444 0.0000
# 2 33.3734 64.2232 28.9425 0.0000 6.9810 0.0000
# 3 52.7001 28.9425 92.6904 0.0000 9.9150 0.0000
# 4 0.0000 0.0000 0.0000 25.3332 0.0000 1.7916
# 5 13.7444 6.9810 9.9150 0.0000 30.7656 0.0000
# 6 0.0000 0.0000 0.0000 1.7916 0.0000 32.5011
#
#
#
# Elastic Compliance Matrix: (Units=1/GPa)
#
#
# Indices 1 2 3 4 5 6 
#
# 1 0.012608 -0.003656 -0.005710 0.000000 -0.002963 0.000000
# 2 -0.003656 0.019349 -0.003799 0.000000 -0.001533 0.000000
# 3 -0.005710 -0.003799 0.015386 0.000000 -0.001546 0.000000
# 4 0.000000 0.000000 0.000000 0.039628 0.000000 -0.002184
# 5 -0.002963 -0.001533 -0.001546 0.000000 0.034673 0.000000
# 6 0.000000 0.000000 0.000000 -0.002184 0.000000 0.030889
#
#
# Mechanical properties :
#
#
# Convention : Reuss Voigt Hill
#
# Bulk Modulus (GPa) = 47.58847 55.89302 51.74075
# Shear Modulus (GPa) = 26.90077 28.25260 27.57669
#
# Velocity S-wave (km/s) = 3.78532 3.87927 3.83258
# Velocity P-wave (km/s) = 6.66729 7.05948 6.86619
#
# Compressibility (1/GPa) = 0.02101349
#
# Stress axis : x y z
#
# Youngs Moduli (GPa) = 79.31687 51.68128 64.99233
#
# Poissons Ratio (x) = 0.18897 0.37108
# Poissons Ratio (y) = 0.29002 0.24690
# Poissons Ratio (z) = 0.45287 0.19633
#
# Static dielectric constant tensor:
#      x y z
#    x 3.428590 0.000000 0.349110 
#    y 0.000000 3.488670 0.000000 
#    z 0.349110 0.000000 3.475080 
# 
# 
# High freq. dielectric constant tensor:
#      x y z
#    x 1.726490 0.000000 0.029260 
#    y 0.000000 1.741940 0.000000 
#    z 0.029260 0.000000 1.716060 
# 
# From -- ./inp_files/3795.got.cif
#   From: 2010.03.12/outbox.cif.g09.slc.cpg/sg6_2_cif.got.tgz:3795.got - 2010.03.30 10:24:59.
