data_PCOD8052546
_publ_section_title
;
Structure prediction by ZEFSAII (Michael W. Deem and Ramdas Pophale) SiO2 
 PCOD8052546
Probable space group: P M
;
_chemical_formula_sum "Si O2"
_cell_formula_units_Z 16
_cell_length_a 9.717051
_cell_length_b 18.117545
_cell_length_c 8.328098
_cell_angle_alpha 90.000000
_cell_angle_beta 31.255910
_cell_angle_gamma 90.000000
_cell_volume 760.730893
_symmetry_space_group_name_H-M "P M"
_symmetry_group_IT_number 6
_symmetry_cell_setting 'monoclinic'
loop_
_space_group_symop_operation_xyz
x,y,z
x,-y,z
loop_
_atom_site_type_symbol
_atom_site_label
_atom_site_fract_x
_atom_site_fract_y
_atom_site_fract_z
Si Si1 0.339710 0.807509 0.879760
Si Si2 0.372108 0.652482 0.702426
Si Si3 0.874463 0.414776 0.344423
Si Si4 0.355867 0.913808 0.578267
Si Si5 0.849869 0.913241 0.877332
Si Si6 0.870055 0.359997 0.691164
Si Si7 0.370185 0.587383 0.368723
Si Si8 0.842050 0.197374 0.599233
O O1 0.369040 0.739906 0.727512
O O2 0.378648 0.879414 0.732170
O O3 0.551257 0.804661 0.811937
O O4 0.050571 0.807490 0.247046
O O5 0.275755 0.629706 0.622312
O O6 0.670626 0.624051 0.427529
O O7 0.170239 0.616870 0.031420
O O8 0.874435 0.500000 0.302694
O O9 0.775625 0.399081 0.622335
O O10 0.082577 0.891721 0.766973
O O11 0.383501 0.000000 0.581010
O O12 0.584026 0.886514 0.230208
O O13 0.881294 0.871513 0.677891
O O14 0.850065 0.000000 0.836742
O O15 0.161244 0.390562 0.440704
O O16 0.878320 0.271925 0.664820
O O17 0.662121 0.383968 0.033691
O O18 0.374155 0.500000 0.393572
#
# Coordination Sequence:
#
# PCOD8052546 Si02
#       8
#     2   2   2   2   2   2   2   2
#     4  12  24  43  65  96 133 169 212 261 314 380
#     4  12  25  43  63  95 126 165 214 266 318 382
#     4  12  23  43  67  87 125 170 211 261 322 378
#     4  10  23  43  70 101 132 169 212 256 311 375
#     4  10  23  43  69 100 132 169 212 256 311 375
#     4  12  25  43  63  95 126 165 215 266 317 383
#     4  12  26  43  64  92 125 165 218 271 325 379
#     4  12  25  43  65  96 133 170 212 261 314 380
#
# _framework density 21.032402999999999
#
# number of rings (size 3 to 8) (size 9 to 14) (size 15 to 20)
#    0.000    0.500    2.500    6.000    3.500    1.000 
#    0.000    0.000    0.000    0.000    0.000    0.000 
#    0.000    0.000    0.000    0.000    0.000    0.000 
#
# Total GULP energy -198543.538412 kJ/mol
# GULP energy per Si atom -12408.971151 kJ/mol
# Density = 2.098453 g / cm^3
# Si number density = 21.032403 Si / 1000 Ang^3
#
#
#
# Elastic Constant Matrix: (Units=GPa)
#
#
# Indices 1 2 3 4 5 6 
#
# 1 77.7180 44.0513 18.3086 0.0000 6.1058 0.0000
# 2 44.0513 96.7927 38.8492 0.0000 8.5198 0.0000
# 3 18.3086 38.8492 85.2216 0.0000 -8.1142 0.0000
# 4 0.0000 0.0000 0.0000 18.3351 0.0000 1.7718
# 5 6.1058 8.5198 -8.1142 0.0000 22.0092 0.0000
# 6 0.0000 0.0000 0.0000 1.7718 0.0000 33.2722
#
#
#
# Elastic Compliance Matrix: (Units=1/GPa)
#
#
# Indices 1 2 3 4 5 6 
#
# 1 0.017427 -0.007543 -0.000505 0.000000 -0.002101 0.000000
# 2 -0.007543 0.017144 -0.006868 0.000000 -0.007076 0.000000
# 3 -0.000505 -0.006868 0.015795 0.000000 0.008622 0.000000
# 4 0.000000 0.000000 0.000000 0.054822 0.000000 -0.002919
# 5 -0.002101 -0.007076 0.008622 0.000000 0.051936 0.000000
# 6 0.000000 0.000000 0.000000 -0.002919 0.000000 0.030211
#
#
# Mechanical properties :
#
#
# Convention : Reuss Voigt Hill
#
# Bulk Modulus (GPa) = 48.70589 51.35006 50.02798
# Shear Modulus (GPa) = 22.32020 25.29152 23.80586
#
# Velocity S-wave (km/s) = 3.26119 3.47147 3.36797
# Velocity P-wave (km/s) = 6.11459 6.36678 6.24196
#
# Compressibility (1/GPa) = 0.02053140
#
# Stress axis : x y z
#
# Youngs Moduli (GPa) = 57.38301 58.32933 63.31272
#
# Poissons Ratio (x) = 0.44000 0.03198
# Poissons Ratio (y) = 0.43287 0.43486
# Poissons Ratio (z) = 0.02899 0.40063
#
# Static dielectric constant tensor:
#      x y z
#    x 3.664870 0.000000 -0.112430 
#    y 0.000000 3.827640 0.000000 
#    z -0.112430 0.000000 3.961270 
# 
# 
# High freq. dielectric constant tensor:
#      x y z
#    x 1.829250 0.000000 -0.004120 
#    y 0.000000 1.830180 0.000000 
#    z -0.004120 0.000000 1.840560 
# 
# From -- ./inp_files/3233.got.cif
#   From: 2010.03.12/outbox.cif.g09.slc.cpg/sg6_2_cif.got.tgz:3233.got - 2010.03.30 10:24:59.
