data_PCOD8052981
_publ_section_title
;
Structure prediction by ZEFSAII (Michael W. Deem and Ramdas Pophale) SiO2 
 PCOD8052981
Probable space group: C M
;
_chemical_formula_sum "Si O2"
_cell_formula_units_Z 32
_cell_length_a 15.667943
_cell_length_b 14.422132
_cell_length_c 13.571699
_cell_angle_alpha 90.000000
_cell_angle_beta 33.494654
_cell_angle_gamma 90.000000
_cell_volume 1692.403587
_symmetry_space_group_name_H-M "C M"
_symmetry_group_IT_number 8
_symmetry_cell_setting 'monoclinic'
loop_
_space_group_symop_operation_xyz
x,y,z
x,-y,z
1/2+x,1/2+y,z
1/2+x,1/2-y,z
loop_
_atom_site_type_symbol
_atom_site_label
_atom_site_fract_x
_atom_site_fract_y
_atom_site_fract_z
Si Si1 0.279430 0.737391 0.294480
Si Si2 0.907148 0.761895 0.385751
Si Si3 0.171639 0.240718 0.007251
Si Si4 0.481863 0.307687 0.653380
Si Si5 0.018677 0.108527 0.995980
Si Si6 0.801017 0.897335 0.655213
Si Si7 0.183710 0.106301 0.630966
Si Si8 0.506779 0.893347 0.052135
O O1 0.333457 0.711816 0.352286
O O2 0.345504 0.653598 0.163148
O O3 0.347361 0.836496 0.190134
O O4 0.093012 0.743975 0.476662
O O5 0.849328 0.831950 0.521869
O O6 0.847125 0.660319 0.475720
O O7 0.094010 0.774095 0.190600
O O8 0.124997 0.162117 0.972757
O O9 0.101129 0.341460 0.047323
O O10 0.357873 0.243615 0.831674
O O11 0.388912 0.376144 0.672223
O O12 0.582746 0.364163 0.634108
O O13 0.010612 0.000000 0.030238
O O14 0.088244 0.125927 0.821528
O O15 0.846571 0.000000 0.578735
O O16 0.615726 0.889209 0.850207
O O17 0.228502 0.000000 0.577231
O O18 0.470059 0.000000 0.116693
#
# Coordination Sequence:
#
# PCOD8052981 Si02
#       8
#     4   4   4   4   4   4   4   4
#     4   9  19  32  52  74  98 132 165 205 245 289
#     4   9  18  32  50  72  99 134 171 201 236 294
#     4   9  19  33  51  74  99 131 165 205 247 288
#     4  10  20  33  49  74 106 129 158 206 259 295
#     4   9  18  35  56  73  95 132 172 203 236 291
#     4  10  19  32  52  76 102 131 163 204 249 295
#     4  10  19  32  52  76 101 130 164 205 251 296
#     4   8  15  29  49  71  96 127 163 199 240 290
#
# _framework density 18.90802
#
# number of rings (size 3 to 8) (size 9 to 14) (size 15 to 20)
#    0.000    3.000    0.000    2.625    0.000    8.500 
#    0.000    0.625    0.000    4.500    0.000    0.000 
#    0.000    0.000    0.000    0.000    0.000    0.000 
#
# Total GULP energy -198214.992010 kJ/mol
# GULP energy per Si atom -12388.437001 kJ/mol
# Density = 1.886498 g / cm^3
# Si number density = 18.908020 Si / 1000 Ang^3
#
#
#
# Elastic Constant Matrix: (Units=GPa)
#
#
# Indices 1 2 3 4 5 6 
#
# 1 30.1342 35.8451 36.2761 -0.0005 -2.0789 0.0005
# 2 35.8451 114.3135 55.0633 -0.0003 5.5509 0.0004
# 3 36.2761 55.0633 148.2063 -0.0007 -10.2464 0.0007
# 4 -0.0005 -0.0003 -0.0007 15.4324 0.0005 6.5463
# 5 -2.0789 5.5509 -10.2464 0.0005 34.4684 -0.0004
# 6 0.0005 0.0004 0.0007 6.5463 -0.0004 17.7076
#
#
#
# Elastic Compliance Matrix: (Units=1/GPa)
#
#
# Indices 1 2 3 4 5 6 
#
# 1 0.063189 -0.015405 -0.009504 0.000002 0.003467 -0.000002
# 2 -0.015405 0.014713 -0.001964 0.000000 -0.003882 0.000000
# 3 -0.009504 -0.001964 0.009991 0.000000 0.002713 0.000000
# 4 0.000002 0.000000 0.000000 0.076850 -0.000001 -0.028410
# 5 0.003467 -0.003882 0.002713 -0.000001 0.030653 0.000001
# 6 -0.000002 0.000000 0.000000 -0.028410 0.000001 0.066976
#
#
# Mechanical properties :
#
#
# Convention : Reuss Voigt Hill
#
# Bulk Modulus (GPa) = 29.28448 60.78033 45.03241
# Shear Modulus (GPa) = 15.26724 24.55297 19.91011
#
# Velocity S-wave (km/s) = 2.84465 3.60745 3.24851
# Velocity P-wave (km/s) = 5.12941 7.04036 6.15944
#
# Compressibility (1/GPa) = 0.03414778
#
# Stress axis : x y z
#
# Youngs Moduli (GPa) = 15.82562 67.96750 100.09164
#
# Poissons Ratio (x) = 1.04701 0.95123
# Poissons Ratio (y) = 0.24379 0.19660
# Poissons Ratio (z) = 0.15040 0.13350
#
# Static dielectric constant tensor:
#      x y z
#    x 3.054500 0.000000 -0.131130 
#    y 0.000000 3.487600 0.000000 
#    z -0.131130 0.000000 4.250880 
# 
# 
# High freq. dielectric constant tensor:
#      x y z
#    x 1.686380 0.000000 0.002370 
#    y 0.000000 1.726530 0.000000 
#    z 0.002370 0.000000 1.767340 
# 
# From -- ./inp_files/22227.got.cif
#   From: 2010.03.12/outbox.cif.g09.slc.cpg/sg8_12_cif.got.tgz:22227.got - 2010.03.31 10:45:26.
