data_PCOD8052644
_publ_section_title
;
Structure prediction by ZEFSAII (Michael W. Deem and Ramdas Pophale) SiO2 
 PCOD8052644
Probable space group: P C
;
_chemical_formula_sum "Si O2"
_cell_formula_units_Z 10
_cell_length_a 6.856530
_cell_length_b 13.058673
_cell_length_c 5.009888
_cell_angle_alpha 90.000000
_cell_angle_beta 71.956319
_cell_angle_gamma 90.000000
_cell_volume 426.510818
_symmetry_space_group_name_H-M "P C"
_symmetry_group_IT_number 7
_symmetry_cell_setting 'monoclinic'
loop_
_space_group_symop_operation_xyz
x,y,z
x,-y,1/2+z
loop_
_atom_site_type_symbol
_atom_site_label
_atom_site_fract_x
_atom_site_fract_y
_atom_site_fract_z
Si Si1 0.649450 0.212638 0.779260
Si Si2 0.065319 0.805891 0.867468
Si Si3 0.455961 0.066710 0.236628
Si Si4 0.562499 0.433501 0.765194
Si Si5 0.237713 0.716124 0.294240
O O1 0.702486 0.334654 0.780920
O O2 0.433548 0.204328 0.705952
O O3 0.836688 0.158016 0.544847
O O4 0.605356 0.161936 0.088977
O O5 0.215667 0.903227 0.816852
O O6 0.065581 0.755985 0.573734
O O7 0.142818 0.717668 0.040552
O O8 0.506841 0.025251 0.507855
O O9 0.610477 0.477530 0.453338
O O10 0.323422 0.395095 0.851321
#
# Coordination Sequence:
#
# PCOD8052644 Si02
#       5
#     2   2   2   2   2
#     4   9  24  41  68  88 138 166 208 268 318 368
#     4  11  21  42  64  93 121 177 205 261 322 368
#     4  11  24  41  64  96 127 164 217 263 315 383
#     4  10  21  40  65  93 130 171 208 256 316 374
#     4   9  22  38  63  88 128 164 208 260 305 371
#
# _framework density 23.446066999999999
#
# number of rings (size 3 to 8) (size 9 to 14) (size 15 to 20)
#    1.200    0.800    0.000    3.600    0.000    8.000 
#    0.000    6.000    0.000    0.000    0.000    0.000 
#    0.000    0.000    0.000    0.000    0.000    0.000 
#
# Total GULP energy -123896.717390 kJ/mol
# GULP energy per Si atom -12389.671739 kJ/mol
# Density = 2.339270 g / cm^3
# Si number density = 23.446067 Si / 1000 Ang^3
#
#
#
# Elastic Constant Matrix: (Units=GPa)
#
#
# Indices 1 2 3 4 5 6 
#
# 1 52.7926 13.8492 34.0142 0.0000 -29.8064 0.0000
# 2 13.8492 85.1795 18.0072 0.0000 0.6428 0.0000
# 3 34.0142 18.0072 107.5005 0.0000 -19.1029 0.0000
# 4 0.0000 0.0000 0.0000 38.5174 0.0000 -1.9241
# 5 -29.8064 0.6428 -19.1029 0.0000 47.8044 0.0000
# 6 0.0000 0.0000 0.0000 -1.9241 0.0000 17.8398
#
#
#
# Elastic Compliance Matrix: (Units=1/GPa)
#
#
# Indices 1 2 3 4 5 6 
#
# 1 0.035660 -0.004448 -0.007079 0.000000 0.019465 0.000000
# 2 -0.004448 0.012775 -0.001352 0.000000 -0.003486 0.000000
# 3 -0.007079 -0.001352 0.011827 0.000000 0.000331 0.000000
# 4 0.000000 0.000000 0.000000 0.026103 0.000000 0.002815
# 5 0.019465 -0.003486 0.000331 0.000000 0.033234 0.000000
# 6 0.000000 0.000000 0.000000 0.002815 0.000000 0.056358
#
#
# Mechanical properties :
#
#
# Convention : Reuss Voigt Hill
#
# Bulk Modulus (GPa) = 28.98197 41.91265 35.44731
# Shear Modulus (GPa) = 23.45022 32.80580 28.12801
#
# Velocity S-wave (km/s) = 3.16599 3.74465 3.46741
# Velocity P-wave (km/s) = 5.07470 6.05075 5.58409
#
# Compressibility (1/GPa) = 0.03450421
#
# Stress axis : x y z
#
# Youngs Moduli (GPa) = 28.04261 78.27640 84.54963
#
# Poissons Ratio (x) = 0.34819 0.59853
# Poissons Ratio (y) = 0.12474 0.11430
# Poissons Ratio (z) = 0.19852 0.10582
#
# Static dielectric constant tensor:
#      x y z
#    x 3.826250 0.000000 -0.109600 
#    y 0.000000 4.060300 0.000000 
#    z -0.109600 0.000000 4.157640 
# 
# 
# High freq. dielectric constant tensor:
#      x y z
#    x 1.898280 0.000000 0.001450 
#    y 0.000000 1.912340 0.000000 
#    z 0.001450 0.000000 1.937120 
# 
# From -- ./inp_files/138.got.cif
#   From: 2010.03.12/outbox.cif.g09.slc.cpg/sg7_cif.got.tgz:138.got - 2010.03.30 08:40:41.
