data_PCOD8052654
_publ_section_title
;
Structure prediction by ZEFSAII (Michael W. Deem and Ramdas Pophale) SiO2 
 PCOD8052654
Probable space group: P C
;
_chemical_formula_sum "Si O2"
_cell_formula_units_Z 12
_cell_length_a 7.697208
_cell_length_b 12.705149
_cell_length_c 5.084354
_cell_angle_alpha 90.000000
_cell_angle_beta 89.997624
_cell_angle_gamma 90.000000
_cell_volume 497.220202
_symmetry_space_group_name_H-M "P C"
_symmetry_group_IT_number 7
_symmetry_cell_setting 'monoclinic'
loop_
_space_group_symop_operation_xyz
x,y,z
x,-y,1/2+z
loop_
_atom_site_type_symbol
_atom_site_label
_atom_site_fract_x
_atom_site_fract_y
_atom_site_fract_z
Si Si1 0.527800 0.296111 0.611030
Si Si2 0.219803 0.571993 0.319479
Si Si3 0.015162 0.058751 0.563622
Si Si4 0.424464 0.058755 0.563568
Si Si5 0.719830 0.569583 0.756677
Si Si6 0.911843 0.296099 0.610993
O O1 0.389620 0.354123 0.796108
O O2 0.468582 0.180418 0.535251
O O3 0.548059 0.362140 0.335479
O O4 0.719822 0.292292 0.750452
O O5 0.219766 0.519920 0.604170
O O6 0.050048 0.645929 0.296087
O O7 0.219814 0.044630 0.566094
O O8 0.971015 0.180404 0.535147
O O9 0.933177 0.006853 0.823292
O O10 0.506461 0.006790 0.823138
O O11 0.719837 0.532222 0.456501
O O12 0.891602 0.637857 0.835471
#
# Coordination Sequence:
#
# PCOD8052654 Si02
#       6
#     2   2   2   2   2   2
#     4  10  24  44  67 100 129 172 218 268 322 388
#     4  12  26  44  68  96 134 176 216 264 324 384
#     4  10  22  42  65  93 128 167 214 267 322 385
#     4  10  22  42  65  93 128 167 214 267 322 385
#     4  10  22  40  60  90 128 162 204 258 308 370
#     4  10  24  44  67 100 129 172 218 268 322 388
#
# _framework density 24.134177000000001
#
# number of rings (size 3 to 8) (size 9 to 14) (size 15 to 20)
#    1.000    0.667    1.667    2.000    0.000    6.667 
#    0.000    0.000    0.000    0.000    0.000    0.000 
#    0.000    0.000    0.000    0.000    0.000    0.000 
#
# Total GULP energy -148699.177711 kJ/mol
# GULP energy per Si atom -12391.598143 kJ/mol
# Density = 2.407925 g / cm^3
# Si number density = 24.134177 Si / 1000 Ang^3
#
#
#
# Elastic Constant Matrix: (Units=GPa)
#
#
# Indices 1 2 3 4 5 6 
#
# 1 57.4005 -9.3796 25.6874 0.0000 1.5905 0.0000
# 2 -9.3796 162.4519 45.5735 0.0000 -4.8662 0.0000
# 3 25.6874 45.5735 84.0017 0.0000 -3.9401 0.0000
# 4 0.0000 0.0000 0.0000 14.6390 0.0000 2.8731
# 5 1.5905 -4.8662 -3.9401 0.0000 7.3434 0.0000
# 6 0.0000 0.0000 0.0000 2.8731 0.0000 47.1375
#
#
#
# Elastic Compliance Matrix: (Units=1/GPa)
#
#
# Indices 1 2 3 4 5 6 
#
# 1 0.022306 0.003631 -0.009135 0.000000 -0.007326 0.000000
# 2 0.003631 0.007907 -0.005325 0.000000 0.001596 0.000000
# 3 -0.009135 -0.005325 0.017966 0.000000 0.008089 0.000000
# 4 0.000000 0.000000 0.000000 0.069138 0.000000 -0.004214
# 5 -0.007326 0.001596 0.008089 0.000000 0.143162 0.000000
# 6 0.000000 0.000000 0.000000 -0.004214 0.000000 0.021471
#
#
# Mechanical properties :
#
#
# Convention : Reuss Voigt Hill
#
# Bulk Modulus (GPa) = 37.70545 47.51296 42.60920
# Shear Modulus (GPa) = 16.00265 29.95548 22.97907
#
# Velocity S-wave (km/s) = 2.57781 3.52690 3.08902
# Velocity P-wave (km/s) = 4.95150 6.02620 5.51509
#
# Compressibility (1/GPa) = 0.02652136
#
# Stress axis : x y z
#
# Youngs Moduli (GPa) = 44.83184 126.46935 55.65951
#
# Poissons Ratio (x) = -0.45921 0.50842
# Poissons Ratio (y) = -0.16278 0.29640
# Poissons Ratio (z) = 0.40952 0.67349
#
# Static dielectric constant tensor:
#      x y z
#    x 4.473300 0.000000 0.023970 
#    y 0.000000 4.397670 0.000000 
#    z 0.023970 0.000000 4.203440 
# 
# 
# High freq. dielectric constant tensor:
#      x y z
#    x 1.957430 0.000000 0.001530 
#    y 0.000000 1.975500 0.000000 
#    z 0.001530 0.000000 1.940230 
# 
# From -- ./inp_files/559.got.cif
#   From: 2010.03.12/outbox.cif.g09.slc.cpg/sg7_cif.got.tgz:559.got - 2010.03.30 08:40:41.
