data_PCOD8052398
_publ_section_title
;
Structure prediction by ZEFSAII (Michael W. Deem and Ramdas Pophale) SiO2 
 PCOD8052398
Probable space group: P M
;
_chemical_formula_sum "Si O2"
_cell_formula_units_Z 16
_cell_length_a 14.386696
_cell_length_b 8.792262
_cell_length_c 19.432415
_cell_angle_alpha 90.000000
_cell_angle_beta 160.595245
_cell_angle_gamma 90.000000
_cell_volume 816.656852
_symmetry_space_group_name_H-M "P M"
_symmetry_group_IT_number 6
_symmetry_cell_setting 'monoclinic'
loop_
_space_group_symop_operation_xyz
x,y,z
x,-y,z
loop_
_atom_site_type_symbol
_atom_site_label
_atom_site_fract_x
_atom_site_fract_y
_atom_site_fract_z
Si Si1 0.561670 0.167110 0.567980
Si Si2 0.138300 0.834220 0.147526
Si Si3 0.630612 0.819394 0.242926
Si Si4 0.605431 0.181971 0.381445
Si Si5 0.135323 0.678711 0.514204
Si Si6 0.708984 0.181739 0.951288
Si Si7 0.011130 0.819234 0.781263
Si Si8 0.120132 0.677876 0.345369
O O1 0.358483 0.147650 0.362119
O O2 0.426664 0.277424 0.530497
O O3 0.851352 0.236630 0.739469
O O4 0.609990 0.000000 0.635290
O O5 0.305339 0.752073 0.201275
O O6 0.866463 0.752230 0.991865
O O7 0.040473 0.000000 0.053227
O O8 0.656993 0.764004 0.340141
O O9 0.855957 0.730630 0.356451
O O10 0.673297 0.000000 0.265901
O O11 0.330431 0.764615 0.004878
O O12 0.861377 0.242954 0.607368
O O13 0.587137 0.000000 0.372909
O O14 0.176935 0.500000 0.550866
O O15 0.111212 0.728616 0.418284
O O16 0.393741 0.760237 0.732033
O O17 0.868068 0.237208 0.130661
O O18 0.717428 0.000000 0.957456
O O19 0.996165 0.000000 0.771763
O O20 0.074402 0.500000 0.303914
#
# Coordination Sequence:
#
# PCOD8052398 Si02
#       8
#     2   2   2   2   2   2   2   2
#     4   8  14  28  52  80 107 135 171 215 262 316
#     4   7  12  25  48  79 108 129 156 204 267 323
#     4  10  20  33  52  76  98 132 185 230 261 303
#     4   8  14  27  48  76 107 131 157 206 268 317
#     4  11  25  41  53  72 109 152 188 223 268 323
#     4  10  20  36  61  87 108 136 178 228 274 318
#     4   8  15  29  50  77 107 133 163 215 273 315
#     4  10  21  37  56  79 112 150 180 215 269 327
#
# _framework density 19.592072000000002
#
# number of rings (size 3 to 8) (size 9 to 14) (size 15 to 20)
#    0.000    3.000    0.000    3.375    0.000    4.000 
#    0.000    4.375    0.000    7.500    0.000    0.000 
#    0.000    0.000    0.000    0.000    0.000    0.000 
#
# Total GULP energy -198241.502295 kJ/mol
# GULP energy per Si atom -12390.093893 kJ/mol
# Density = 1.954748 g / cm^3
# Si number density = 19.592072 Si / 1000 Ang^3
#
#
#
# Elastic Constant Matrix: (Units=GPa)
#
#
# Indices 1 2 3 4 5 6 
#
# 1 104.2584 17.6128 23.3224 0.0000 5.8804 0.0000
# 2 17.6128 38.3400 10.6568 0.0000 -2.5464 0.0000
# 3 23.3224 10.6568 81.5539 0.0000 9.1869 0.0000
# 4 0.0000 0.0000 0.0000 9.1591 0.0000 -4.1061
# 5 5.8804 -2.5464 9.1869 0.0000 31.6597 0.0000
# 6 0.0000 0.0000 0.0000 -4.1061 0.0000 14.0507
#
#
#
# Elastic Compliance Matrix: (Units=1/GPa)
#
#
# Indices 1 2 3 4 5 6 
#
# 1 0.010976 -0.004501 -0.002357 0.000000 -0.001717 0.000000
# 2 -0.004501 0.029251 -0.002992 0.000000 0.004057 0.000000
# 3 -0.002357 -0.002992 0.013754 0.000000 -0.003794 0.000000
# 4 0.000000 0.000000 0.000000 0.125641 0.000000 0.036717
# 5 -0.001717 0.004057 -0.003794 0.000000 0.033332 0.000000
# 6 0.000000 0.000000 0.000000 0.036717 0.000000 0.081901
#
#
# Mechanical properties :
#
#
# Convention : Reuss Voigt Hill
#
# Bulk Modulus (GPa) = 29.17096 36.37070 32.77083
# Shear Modulus (GPa) = 15.33819 22.47793 18.90806
#
# Velocity S-wave (km/s) = 2.80103 3.39085 3.10996
# Velocity P-wave (km/s) = 5.03811 5.82536 5.44598
#
# Compressibility (1/GPa) = 0.03428066
#
# Stress axis : x y z
#
# Youngs Moduli (GPa) = 91.10712 34.18657 72.70428
#
# Poissons Ratio (x) = 0.15387 0.17139
# Poissons Ratio (y) = 0.41008 0.21754
# Poissons Ratio (z) = 0.21477 0.10229
#
# Static dielectric constant tensor:
#      x y z
#    x 3.797950 0.000000 0.181690 
#    y 0.000000 3.157540 0.000000 
#    z 0.181690 0.000000 3.749900 
# 
# 
# High freq. dielectric constant tensor:
#      x y z
#    x 1.768230 0.000000 0.008020 
#    y 0.000000 1.712200 0.000000 
#    z 0.008020 0.000000 1.765910 
# 
# From -- ./inp_files/5952.got.cif
#   From: 2010.03.12/outbox.cif.g09.slc.cpg/sg6_3_cif.got.tgz:5952.got - 2010.03.30 10:24:59.
