data_PCOD8052598
_publ_section_title
;
Structure prediction by ZEFSAII (Michael W. Deem and Ramdas Pophale) SiO2 
 PCOD8052598
Probable space group: P C
;
_chemical_formula_sum "Si O2"
_cell_formula_units_Z 16
_cell_length_a 18.480469
_cell_length_b 8.179631
_cell_length_c 5.169976
_cell_angle_alpha 90.000000
_cell_angle_beta 98.855007
_cell_angle_gamma 90.000000
_cell_volume 772.196446
_symmetry_space_group_name_H-M "P C"
_symmetry_group_IT_number 7
_symmetry_cell_setting 'monoclinic'
loop_
_space_group_symop_operation_xyz
x,y,z
x,-y,1/2+z
loop_
_atom_site_type_symbol
_atom_site_label
_atom_site_fract_x
_atom_site_fract_y
_atom_site_fract_z
Si Si1 0.094420 0.602822 0.388490
Si Si2 0.983893 0.107872 0.823951
Si Si3 0.263021 0.604922 0.483794
Si Si4 0.827773 0.100010 0.838875
Si Si5 0.669232 0.103996 0.659279
Si Si6 0.379191 0.887747 0.574038
Si Si7 0.469454 0.584185 0.685136
Si Si8 0.629427 0.443061 0.731045
O O1 0.075644 0.472263 0.599950
O O2 0.178503 0.658472 0.453451
O O3 0.046414 0.762035 0.407890
O O4 0.903341 0.195229 0.813463
O O5 0.991580 0.035020 0.540982
O O6 0.281389 0.524983 0.217959
O O7 0.309273 0.769194 0.551034
O O8 0.750309 0.188116 0.732785
O O9 0.827898 0.943787 0.643090
O O10 0.612473 0.251598 0.675718
O O11 0.656798 0.035973 0.365267
O O12 0.452652 0.776540 0.639964
O O13 0.378583 0.980961 0.302254
O O14 0.432819 0.483458 0.428573
O O15 0.555957 0.549025 0.750005
O O16 0.674363 0.526544 0.520748
#
# Coordination Sequence:
#
# PCOD8052598 Si02
#       8
#     2   2   2   2   2   2   2   2
#     4  10  21  36  54  80 113 147 183 223 270 321
#     4  10  19  33  54  78 108 148 186 223 270 321
#     4  10  21  39  60  79 110 153 181 213 276 333
#     4   8  16  30  50  76 106 140 178 222 274 319
#     4  10  19  35  58  82 106 138 186 233 265 311
#     4  12  24  38  60  89 111 135 183 235 267 309
#     4  10  21  41  60  77 110 149 174 209 272 337
#     4  10  21  38  56  79 110 144 175 214 274 335
#
# _framework density 20.720116999999998
#
# number of rings (size 3 to 8) (size 9 to 14) (size 15 to 20)
#    0.000    2.000    0.000    3.750    0.000    1.000 
#    0.000   16.250    0.000    0.000    0.000    0.000 
#    0.000    0.000    0.000    0.000    0.000    0.000 
#
# Total GULP energy -198257.571769 kJ/mol
# GULP energy per Si atom -12391.098236 kJ/mol
# Density = 2.067296 g / cm^3
# Si number density = 20.720117 Si / 1000 Ang^3
#
#
#
# Elastic Constant Matrix: (Units=GPa)
#
#
# Indices 1 2 3 4 5 6 
#
# 1 64.6418 33.4545 10.4924 0.0000 4.5685 0.0000
# 2 33.4545 83.9689 11.3278 0.0000 0.9457 0.0000
# 3 10.4924 11.3278 108.7272 0.0000 -15.5905 0.0000
# 4 0.0000 0.0000 0.0000 34.5470 0.0000 -1.9679
# 5 4.5685 0.9457 -15.5905 0.0000 19.2857 0.0000
# 6 0.0000 0.0000 0.0000 -1.9679 0.0000 22.0660
#
#
#
# Elastic Compliance Matrix: (Units=1/GPa)
#
#
# Indices 1 2 3 4 5 6 
#
# 1 0.020216 -0.007715 -0.002013 0.000000 -0.006038 0.000000
# 2 -0.007715 0.015080 -0.000759 0.000000 0.000475 0.000000
# 3 -0.002013 -0.000759 0.010796 0.000000 0.009241 0.000000
# 4 0.000000 0.000000 0.000000 0.029094 0.000000 0.002595
# 5 -0.006038 0.000475 0.009241 0.000000 0.060729 0.000000
# 6 0.000000 0.000000 0.000000 0.002595 0.000000 0.045550
#
#
# Mechanical properties :
#
#
# Convention : Reuss Voigt Hill
#
# Bulk Modulus (GPa) = 39.81027 40.87638 40.34332
# Shear Modulus (GPa) = 23.71803 28.65064 26.18433
#
# Velocity S-wave (km/s) = 3.38699 3.72256 3.55873
# Velocity P-wave (km/s) = 5.87798 6.18444 6.03316
#
# Compressibility (1/GPa) = 0.02511915
#
# Stress axis : x y z
#
# Youngs Moduli (GPa) = 49.46573 66.31363 92.62937
#
# Poissons Ratio (x) = 0.51160 0.18645
# Poissons Ratio (y) = 0.38162 0.07026
# Poissons Ratio (z) = 0.09957 0.05030
#
# Static dielectric constant tensor:
#      x y z
#    x 3.919240 0.000000 -0.049460 
#    y 0.000000 3.386310 0.000000 
#    z -0.049460 0.000000 4.742760 
# 
# 
# High freq. dielectric constant tensor:
#      x y z
#    x 1.806190 0.000000 -0.005020 
#    y 0.000000 1.776350 0.000000 
#    z -0.005020 0.000000 1.847560 
# 
# From -- ./inp_files/1439.got.cif
#   From: 2010.03.12/outbox.cif.g09.slc.cpg/sg7_cif.got.tgz:1439.got - 2010.03.30 08:40:41.
