data_PCOD8052178
_publ_section_title
;
Structure prediction by ZEFSAII (Michael W. Deem and Ramdas Pophale) SiO2 
 PCOD8052178
Probable space group: C 2
;
_chemical_formula_sum "Si O2"
_cell_formula_units_Z 26
_cell_length_a 4.785278
_cell_length_b 8.516620
_cell_length_c 23.968839
_cell_angle_alpha 90.000000
_cell_angle_beta 106.401103
_cell_angle_gamma 90.000000
_cell_volume 937.086652
_symmetry_space_group_name_H-M "C 2"
_symmetry_group_IT_number 5
_symmetry_cell_setting 'monoclinic'
loop_
_space_group_symop_operation_xyz
x,y,z
-x,y,-z
1/2+x,1/2+y,z
1/2-x,1/2+y,-z
loop_
_atom_site_type_symbol
_atom_site_label
_atom_site_fract_x
_atom_site_fract_y
_atom_site_fract_z
Si Si1 0.634670 0.326370 0.916079
Si Si2 0.182265 0.063267 0.461171
Si Si3 0.812372 0.311232 0.381511
Si Si4 0.500000 0.077699 0.000000
Si Si5 0.233334 0.023615 0.768195
Si Si6 0.296357 0.752271 0.693462
Si Si7 0.832750 0.080949 0.843408
O O1 0.616785 0.186817 0.958211
O O2 0.769219 0.471748 0.956096
O O3 0.827494 0.243542 0.878048
O O4 0.335140 0.412855 0.877802
O O5 0.500000 0.111727 0.500000
O O6 0.197032 0.968640 0.404318
O O7 0.000000 0.974180 0.500000
O O8 0.998069 0.219416 0.438073
O O9 0.525773 0.210885 0.347183
O O10 0.020639 0.355925 0.341064
O O11 0.999338 0.099395 0.712913
O O12 0.134811 0.059468 0.826129
O O13 0.259085 0.843024 0.750405
O O14 0.062636 0.589091 0.784770
#
# Coordination Sequence:
#
# PCOD8052178 Si02
#       7
#     4   4   4   2   4   4   4
#     4  12  26  47  77 112 153 200 254 313 381 454
#     4  12  27  50  77 113 154 202 256 316 382 455
#     4  12  27  49  78 112 153 202 255 316 382 455
#     4  12  26  48  76 112 152 200 252 314 378 452
#     4  12  26  48  76 111 152 199 253 314 380 453
#     4  12  26  48  76 112 152 200 255 315 382 455
#     4  12  26  47  77 112 152 201 253 314 381 455
#
# _framework density 27.745567000000001
#
# number of rings (size 3 to 8) (size 9 to 14) (size 15 to 20)
#    0.000    0.000    0.000    9.692    0.000    6.154 
#    0.000    0.000    0.000    0.000    0.000    0.000 
#    0.000    0.000    0.000    0.000    0.000    0.000 
#
# Total GULP energy -161116.619504 kJ/mol
# GULP energy per Si atom -12393.586116 kJ/mol
# Density = 2.768242 g / cm^3
# Si number density = 27.745567 Si / 1000 Ang^3
#
#
#
# Elastic Constant Matrix: (Units=GPa)
#
#
# Indices 1 2 3 4 5 6 
#
# 1 151.0406 38.9619 42.4849 0.0000 5.8291 0.0000
# 2 38.9619 104.7593 20.3109 0.0000 11.5309 0.0000
# 3 42.4849 20.3109 109.6234 0.0000 10.1190 0.0000
# 4 0.0000 0.0000 0.0000 10.2988 0.0000 -1.5502
# 5 5.8291 11.5309 10.1190 0.0000 34.4759 0.0000
# 6 0.0000 0.0000 0.0000 -1.5502 0.0000 47.4856
#
#
#
# Elastic Compliance Matrix: (Units=1/GPa)
#
#
# Indices 1 2 3 4 5 6 
#
# 1 0.008002 -0.002488 -0.002664 0.000000 0.000261 0.000000
# 2 -0.002488 0.010955 -0.000787 0.000000 -0.003012 0.000000
# 3 -0.002664 -0.000787 0.010520 0.000000 -0.002374 0.000000
# 4 0.000000 0.000000 0.000000 0.097578 0.000000 0.003186
# 5 0.000261 -0.003012 -0.002374 0.000000 0.030666 0.000000
# 6 0.000000 0.000000 0.000000 0.003186 0.000000 0.021163
#
#
# Mechanical properties :
#
#
# Convention : Reuss Voigt Hill
#
# Bulk Modulus (GPa) = 56.82755 63.21543 60.02149
# Shear Modulus (GPa) = 25.42854 36.02977 30.72916
#
# Velocity S-wave (km/s) = 3.03064 3.60749 3.33157
# Velocity P-wave (km/s) = 5.72473 6.33919 6.03978
#
# Compressibility (1/GPa) = 0.01759710
#
# Stress axis : x y z
#
# Youngs Moduli (GPa) = 124.96991 91.27953 95.05980
#
# Poissons Ratio (x) = 0.22713 0.25326
# Poissons Ratio (y) = 0.31096 0.07485
# Poissons Ratio (z) = 0.33295 0.07187
#
# Static dielectric constant tensor:
#      x y z
#    x 5.151470 0.000000 -0.100880 
#    y 0.000000 4.682810 0.000000 
#    z -0.100880 0.000000 5.478120 
# 
# 
# High freq. dielectric constant tensor:
#      x y z
#    x 2.125740 0.000000 -0.000190 
#    y 0.000000 2.116410 0.000000 
#    z -0.000190 0.000000 2.145000 
# 
# From -- ./inp_files/70067.got.cif
#   From: 2010.03.12/outbox.cif.g09.slc.cpg/sg5_36_cif.got.tgz:70067.got - 2010.03.31 09:47:26.
