data_PCOD8052579
_publ_section_title
;
Structure prediction by ZEFSAII (Michael W. Deem and Ramdas Pophale) SiO2 
 PCOD8052579
Probable space group: P C
;
_chemical_formula_sum "Si O2"
_cell_formula_units_Z 16
_cell_length_a 24.427698
_cell_length_b 8.308726
_cell_length_c 5.303529
_cell_angle_alpha 90.000000
_cell_angle_beta 130.996732
_cell_angle_gamma 90.000000
_cell_volume 812.425081
_symmetry_space_group_name_H-M "P C"
_symmetry_group_IT_number 7
_symmetry_cell_setting 'monoclinic'
loop_
_space_group_symop_operation_xyz
x,y,z
x,-y,1/2+z
loop_
_atom_site_type_symbol
_atom_site_label
_atom_site_fract_x
_atom_site_fract_y
_atom_site_fract_z
Si Si1 0.732500 0.809594 0.723300
Si Si2 0.219764 0.673195 0.684233
Si Si3 0.792189 0.840842 0.403695
Si Si4 0.960560 0.091378 0.414424
Si Si5 0.595000 0.605068 0.328968
Si Si6 0.053165 0.598140 0.164337
Si Si7 0.280321 0.689727 0.367027
Si Si8 0.434942 0.598669 0.795261
O O1 0.772242 0.738137 0.593015
O O2 0.649110 0.755498 0.474956
O O3 0.739476 0.002850 0.740836
O O4 0.774331 0.739457 0.096988
O O5 0.245494 0.769480 0.511823
O O6 0.257690 0.498559 0.792399
O O7 0.133635 0.666543 0.431201
O O8 0.246607 0.769890 0.013356
O O9 0.874189 0.898367 0.657205
O O10 0.993876 0.266712 0.530555
O O11 0.987555 0.993460 0.740296
O O12 0.607390 0.515046 0.631882
O O13 0.513724 0.680667 0.070768
O O14 0.040545 0.468815 0.346081
O O15 0.367180 0.717877 0.634268
O O16 0.428189 0.539290 0.487040
#
# Coordination Sequence:
#
# PCOD8052579 Si02
#       8
#     2   2   2   2   2   2   2   2
#     4  10  18  35  58  76  96 132 184 221 262 311
#     4  10  16  27  47  73 107 142 176 224 269 329
#     4  10  19  37  64  72  90 134 192 236 242 323
#     4  12  23  43  64  85 115 157 199 239 286 360
#     4  10  21  32  45  77 120 141 157 218 287 334
#     4  12  23  38  57  90 126 147 185 253 304 337
#     4  10  14  25  46  67 105 145 184 207 262 333
#     4  10  16  25  41  66 103 146 171 206 256 339
#
# _framework density 19.694123000000001
#
# number of rings (size 3 to 8) (size 9 to 14) (size 15 to 20)
#    0.000    1.500    7.500    1.500    0.000    0.000 
#    0.000    3.750    0.000    0.000    0.000    0.000 
#   22.500    0.000    0.000    0.000    0.000    0.000 
#
# Total GULP energy -198261.767207 kJ/mol
# GULP energy per Si atom -12391.360450 kJ/mol
# Density = 1.964930 g / cm^3
# Si number density = 19.694123 Si / 1000 Ang^3
#
#
#
# Elastic Constant Matrix: (Units=GPa)
#
#
# Indices 1 2 3 4 5 6 
#
# 1 129.3501 25.8336 62.0986 0.0000 -23.8824 0.0000
# 2 25.8336 27.2649 27.2139 0.0000 15.6638 0.0000
# 3 62.0986 27.2139 98.9255 0.0000 -16.6886 0.0000
# 4 0.0000 0.0000 0.0000 9.6305 0.0000 -2.7145
# 5 -23.8824 15.6638 -16.6886 0.0000 55.9078 0.0000
# 6 0.0000 0.0000 0.0000 -2.7145 0.0000 10.5747
#
#
#
# Elastic Compliance Matrix: (Units=1/GPa)
#
#
# Indices 1 2 3 4 5 6 
#
# 1 0.014078 -0.016197 -0.002739 0.000000 0.009734 0.000000
# 2 -0.016197 0.101613 -0.025015 0.000000 -0.042855 0.000000
# 3 -0.002739 -0.025015 0.020739 0.000000 0.012029 0.000000
# 4 0.000000 0.000000 0.000000 0.111936 0.000000 0.028734
# 5 0.009734 -0.042855 0.012029 0.000000 0.037642 0.000000
# 6 0.000000 0.000000 0.000000 0.028734 0.000000 0.101941
#
#
# Mechanical properties :
#
#
# Convention : Reuss Voigt Hill
#
# Bulk Modulus (GPa) = 20.60727 53.98138 37.29432
# Shear Modulus (GPa) = 10.16198 24.58223 17.37211
#
# Velocity S-wave (km/s) = 2.27401 3.53682 2.97323
# Velocity P-wave (km/s) = 4.16908 6.64441 5.54659
#
# Compressibility (1/GPa) = 0.04852656
#
# Stress axis : x y z
#
# Youngs Moduli (GPa) = 71.03167 9.84124 48.21792
#
# Poissons Ratio (x) = 0.15940 0.13209
# Poissons Ratio (y) = 1.15051 1.20619
# Poissons Ratio (z) = 0.19459 0.24618
#
# Static dielectric constant tensor:
#      x y z
#    x 4.698640 0.000000 -0.829900 
#    y 0.000000 2.788660 0.000000 
#    z -0.829900 0.000000 4.435960 
# 
# 
# High freq. dielectric constant tensor:
#      x y z
#    x 1.800770 0.000000 -0.018800 
#    y 0.000000 1.676910 0.000000 
#    z -0.018800 0.000000 1.792460 
# 
# From -- ./inp_files/1472.got.cif
#   From: 2010.03.12/outbox.cif.g09.slc.cpg/sg7_cif.got.tgz:1472.got - 2010.03.30 08:40:41.
