data_PCOD8052994
_publ_section_title
;
Structure prediction by ZEFSAII (Michael W. Deem and Ramdas Pophale) SiO2 
 PCOD8052994
Probable space group: C M
;
_chemical_formula_sum "Si O2"
_cell_formula_units_Z 32
_cell_length_a 20.668668
_cell_length_b 8.855538
_cell_length_c 12.245487
_cell_angle_alpha 90.000000
_cell_angle_beta 128.001715
_cell_angle_gamma 90.000000
_cell_volume 1766.141475
_symmetry_space_group_name_H-M "C M"
_symmetry_group_IT_number 8
_symmetry_cell_setting 'monoclinic'
loop_
_space_group_symop_operation_xyz
x,y,z
x,-y,z
1/2+x,1/2+y,z
1/2+x,1/2-y,z
loop_
_atom_site_type_symbol
_atom_site_label
_atom_site_fract_x
_atom_site_fract_y
_atom_site_fract_z
Si Si1 0.716830 0.678820 0.224080
Si Si2 0.487596 0.177578 0.260713
Si Si3 0.299307 0.178455 0.088147
Si Si4 0.376124 0.176341 0.809044
Si Si5 0.546413 0.175913 0.083016
Si Si6 0.740640 0.821519 0.815051
Si Si7 0.264308 0.177196 0.505047
Si Si8 0.127327 0.178820 0.530098
O O1 0.715796 0.500000 0.226743
O O2 0.768629 0.734785 0.174489
O O3 0.623501 0.733198 0.118567
O O4 0.759730 0.747458 0.378565
O O5 0.393514 0.227587 0.172867
O O6 0.521402 0.229431 0.178153
O O7 0.536742 0.262252 0.407653
O O8 0.497355 0.000000 0.287914
O O9 0.288554 0.000000 0.060971
O O10 0.243739 0.264050 0.942246
O O11 0.323369 0.269772 0.840551
O O12 0.348637 0.219307 0.656531
O O13 0.357998 0.000000 0.814712
O O14 0.471688 0.213232 0.922871
O O15 0.567651 0.000000 0.104687
O O16 0.659161 0.751102 0.675745
O O17 0.733633 0.000000 0.804631
O O18 0.187688 0.236339 0.496504
O O19 0.256331 0.000000 0.484637
O O20 0.127268 0.000000 0.542776
#
# Coordination Sequence:
#
# PCOD8052994 Si02
#       8
#     4   4   4   4   4   4   4   4
#     4  10  20  35  55  79 108 144 185 223 264 325
#     4  10  19  33  53  80 110 142 185 226 267 315
#     4  10  21  38  56  75 111 154 185 219 271 329
#     4   9  17  33  54  77 108 145 180 218 272 326
#     4  10  19  32  53  79 111 143 177 227 271 313
#     4  11  21  33  53  81 110 139 183 232 273 320
#     4   8  15  29  51  77 101 131 176 217 255 313
#     4  10  19  33  55  80 109 140 177 224 277 329
#
# _framework density 18.118594000000002
#
# number of rings (size 3 to 8) (size 9 to 14) (size 15 to 20)
#    0.000    2.250    2.500    2.250    0.000    1.500 
#    0.000    1.250    0.000    3.000    0.000    0.000 
#    0.000    0.000    0.000    0.000    0.000    0.000 
#
# Total GULP energy -198384.266998 kJ/mol
# GULP energy per Si atom -12399.016687 kJ/mol
# Density = 1.807735 g / cm^3
# Si number density = 18.118594 Si / 1000 Ang^3
#
#
#
# Elastic Constant Matrix: (Units=GPa)
#
#
# Indices 1 2 3 4 5 6 
#
# 1 81.9230 26.3161 52.5121 0.0000 -3.5845 0.0000
# 2 26.3161 51.9816 44.1181 0.0000 -3.2323 0.0000
# 3 52.5121 44.1181 165.6681 0.0000 -1.9344 0.0000
# 4 0.0000 0.0000 0.0000 28.4436 0.0000 4.9270
# 5 -3.5845 -3.2323 -1.9344 0.0000 25.0689 0.0000
# 6 0.0000 0.0000 0.0000 4.9270 0.0000 20.0620
#
#
#
# Elastic Compliance Matrix: (Units=1/GPa)
#
#
# Indices 1 2 3 4 5 6 
#
# 1 0.016309 -0.004904 -0.003847 0.000000 0.001403 0.000000
# 2 -0.004904 0.026514 -0.005479 0.000000 0.002295 0.000000
# 3 -0.003847 -0.005479 0.008708 0.000000 -0.000585 0.000000
# 4 0.000000 0.000000 0.000000 0.036719 0.000000 -0.009018
# 5 0.001403 0.002295 -0.000585 0.000000 0.040341 0.000000
# 6 0.000000 0.000000 0.000000 -0.009018 0.000000 0.052060
#
#
# Mechanical properties :
#
#
# Convention : Reuss Voigt Hill
#
# Bulk Modulus (GPa) = 43.34785 60.60725 51.97755
# Shear Modulus (GPa) = 23.06238 26.49000 24.77619
#
# Velocity S-wave (km/s) = 3.57158 3.82780 3.70191
# Velocity P-wave (km/s) = 6.40193 7.28416 6.85725
#
# Compressibility (1/GPa) = 0.02306919
#
# Stress axis : x y z
#
# Youngs Moduli (GPa) = 61.31438 37.71655 114.83739
#
# Poissons Ratio (x) = 0.18497 0.44180
# Poissons Ratio (y) = 0.30070 0.62923
# Poissons Ratio (z) = 0.23589 0.20666
#
# Static dielectric constant tensor:
#      x y z
#    x 3.176270 0.000000 -0.087770 
#    y 0.000000 3.106270 0.000000 
#    z -0.087770 0.000000 3.756380 
# 
# 
# High freq. dielectric constant tensor:
#      x y z
#    x 1.669400 0.000000 0.003320 
#    y 0.000000 1.684030 0.000000 
#    z 0.003320 0.000000 1.722860 
# 
# From -- ./inp_files/23727.got.cif
#   From: 2010.03.12/outbox.cif.g09.slc.cpg/sg8_12_cif.got.tgz:23727.got - 2010.03.31 10:45:26.
