data_PCOD8052117
_publ_section_title
;
Structure prediction by ZEFSAII (Michael W. Deem and Ramdas Pophale) SiO2 
 PCOD8052117
Probable space group: C 2
;
_chemical_formula_sum "Si O2"
_cell_formula_units_Z 30
_cell_length_a 8.453231
_cell_length_b 11.989749
_cell_length_c 13.900320
_cell_angle_alpha 90.000000
_cell_angle_beta 65.190339
_cell_angle_gamma 90.000000
_cell_volume 1278.801646
_symmetry_space_group_name_H-M "C 2"
_symmetry_group_IT_number 5
_symmetry_cell_setting 'monoclinic'
loop_
_space_group_symop_operation_xyz
x,y,z
-x,y,-z
1/2+x,1/2+y,z
1/2-x,1/2+y,-z
loop_
_atom_site_type_symbol
_atom_site_label
_atom_site_fract_x
_atom_site_fract_y
_atom_site_fract_z
Si Si1 0.500000 0.734961 0.000000
Si Si2 0.561537 0.594228 0.168715
Si Si3 0.782572 0.598269 0.624365
Si Si4 0.686323 0.567037 0.438276
Si Si5 0.663329 0.347441 0.138947
Si Si6 0.176447 0.709319 0.761592
Si Si7 0.059288 0.378421 0.377314
Si Si8 0.729104 0.341567 0.342014
O O1 0.481134 0.659701 0.099477
O O2 0.328079 0.810958 0.032840
O O3 0.416826 0.591467 0.289272
O O4 0.600685 0.469291 0.120673
O O5 0.732287 0.657957 0.166588
O O6 0.791850 0.563189 0.510315
O O7 0.905605 0.510234 0.647545
O O8 0.862430 0.722003 0.615740
O O9 0.500000 0.631307 0.500000
O O10 0.812586 0.616744 0.324886
O O11 0.632378 0.441303 0.421438
O O12 0.519365 0.249071 0.163942
O O13 0.731129 0.364212 0.229236
O O14 0.261317 0.818557 0.693353
O O15 0.000000 0.347516 0.500000
O O16 0.924955 0.334875 0.332315
#
# Coordination Sequence:
#
# PCOD8052117 Si02
#       8
#     2   4   4   4   4   4   4   4
#     4  12  30  54  80 104 146 194 256 334 390 454
#     4  12  26  52  76 111 151 190 256 330 379 459
#     4  12  24  43  71 109 155 205 250 299 376 457
#     4  12  24  41  69 109 159 204 241 301 372 454
#     4  12  28  51  80 110 143 201 258 326 394 451
#     4  12  25  45  77 107 152 195 251 308 383 457
#     4  12  24  41  68 107 154 204 246 295 363 451
#     4  12  25  44  70 107 156 198 258 313 364 450
#
# _framework density 23.459461000000001
#
# number of rings (size 3 to 8) (size 9 to 14) (size 15 to 20)
#    0.000    0.000    8.000    1.200    1.867    3.200 
#    2.400    0.000    0.000    0.000    0.000    0.000 
#    0.000    0.000    0.000    0.000    0.000    0.000 
#
# Total GULP energy -186020.312986 kJ/mol
# GULP energy per Si atom -12401.354199 kJ/mol
# Density = 2.340607 g / cm^3
# Si number density = 23.459461 Si / 1000 Ang^3
#
#
#
# Elastic Constant Matrix: (Units=GPa)
#
#
# Indices 1 2 3 4 5 6 
#
# 1 47.6754 7.4562 17.1413 0.0000 -18.1072 0.0000
# 2 7.4562 154.2440 23.4892 0.0000 -11.8811 0.0000
# 3 17.1413 23.4892 62.0344 0.0000 -10.8927 0.0000
# 4 0.0000 0.0000 0.0000 23.6838 0.0000 6.9567
# 5 -18.1072 -11.8811 -10.8927 0.0000 48.4300 0.0000
# 6 0.0000 0.0000 0.0000 6.9567 0.0000 23.2852
#
#
#
# Elastic Compliance Matrix: (Units=1/GPa)
#
#
# Indices 1 2 3 4 5 6 
#
# 1 0.026300 0.000283 -0.005867 0.000000 0.008583 0.000000
# 2 0.000283 0.006945 -0.002488 0.000000 0.001250 0.000000
# 3 -0.005867 -0.002488 0.018939 0.000000 0.001456 0.000000
# 4 0.000000 0.000000 0.000000 0.046285 0.000000 -0.013828
# 5 0.008583 0.001250 0.001456 0.000000 0.024491 0.000000
# 6 0.000000 0.000000 0.000000 -0.013828 0.000000 0.047077
#
#
# Mechanical properties :
#
#
# Convention : Reuss Voigt Hill
#
# Bulk Modulus (GPa) = 27.74757 40.01410 33.88084
# Shear Modulus (GPa) = 25.22759 33.47093 29.34926
#
# Velocity S-wave (km/s) = 3.28284 3.78134 3.54087
# Velocity P-wave (km/s) = 5.12083 6.01319 5.58486
#
# Compressibility (1/GPa) = 0.03603919
#
# Stress axis : x y z
#
# Youngs Moduli (GPa) = 38.02234 143.99317 52.80058
#
# Poissons Ratio (x) = -0.04079 0.30980
# Poissons Ratio (y) = -0.01077 0.13139
# Poissons Ratio (z) = 0.22309 0.35832
#
# Static dielectric constant tensor:
#      x y z
#    x 4.103880 0.000000 -0.022290 
#    y 0.000000 4.576800 0.000000 
#    z -0.022290 0.000000 3.943500 
# 
# 
# High freq. dielectric constant tensor:
#      x y z
#    x 1.931740 0.000000 -0.000400 
#    y 0.000000 1.950240 0.000000 
#    z -0.000400 0.000000 1.906200 
# 
# From -- ./inp_files/50485.got.cif
#   From: 2010.03.12/outbox.cif.g09.slc.cpg/sg5_26_cif.got.tgz:50485.got - 2010.03.31 09:47:26.
