data_PCOD8052477
_publ_section_title
;
Structure prediction by ZEFSAII (Michael W. Deem and Ramdas Pophale) SiO2 
 PCOD8052477
Probable space group: P M
;
_chemical_formula_sum "Si O2"
_cell_formula_units_Z 16
_cell_length_a 12.402345
_cell_length_b 8.480772
_cell_length_c 12.325237
_cell_angle_alpha 90.000000
_cell_angle_beta 143.812674
_cell_angle_gamma 90.000000
_cell_volume 765.421744
_symmetry_space_group_name_H-M "P M"
_symmetry_group_IT_number 6
_symmetry_cell_setting 'monoclinic'
loop_
_space_group_symop_operation_xyz
x,y,z
x,-y,z
loop_
_atom_site_type_symbol
_atom_site_label
_atom_site_fract_x
_atom_site_fract_y
_atom_site_fract_z
Si Si1 0.452310 0.314264 0.696860
Si Si2 0.085119 0.817692 0.350824
Si Si3 0.814822 0.683317 0.607128
Si Si4 0.076968 0.681360 0.118231
Si Si5 0.710140 0.182979 0.738508
Si Si6 0.592818 0.819212 0.236549
Si Si7 0.215535 0.683299 0.998045
Si Si8 0.703112 0.317359 0.102006
O O1 0.439187 0.500000 0.668809
O O2 0.253542 0.241990 0.560605
O O3 0.522697 0.232734 0.643590
O O4 0.581990 0.267125 0.901234
O O5 0.136685 0.790295 0.266597
O O6 0.912234 0.714480 0.243629
O O7 0.044406 0.000000 0.339907
O O8 0.798647 0.500000 0.623390
O O9 0.698017 0.780851 0.600526
O O10 0.729303 0.715364 0.420434
O O11 0.028354 0.733457 0.784815
O O12 0.099139 0.500000 0.170960
O O13 0.200206 0.721273 0.113676
O O14 0.866660 0.710582 0.918846
O O15 0.752446 0.000000 0.792394
O O16 0.638382 0.787234 0.149267
O O17 0.630489 0.000000 0.294573
O O18 0.380713 0.782504 0.083867
O O19 0.256957 0.500000 0.012387
O O20 0.675990 0.500000 0.108948
#
# Coordination Sequence:
#
# PCOD8052477 Si02
#       8
#     2   2   2   2   2   2   2   2
#     4  11  24  42  66  93 126 171 218 262 319 390
#     4  12  25  40  64  97 132 166 211 270 328 378
#     4  10  22  42  66  92 128 171 217 261 314 386
#     4  10  20  38  63  92 130 173 214 258 319 389
#     4  11  21  36  62  96 134 167 208 268 329 377
#     4  12  26  42  66  96 130 168 213 268 327 380
#     4   9  21  41  65  92 124 168 216 261 312 377
#     4  11  25  47  70  90 124 172 223 266 316 387
#
# _framework density 20.903509
#
# number of rings (size 3 to 8) (size 9 to 14) (size 15 to 20)
#    0.000    1.250    1.250    5.625    1.750    5.500 
#    0.000    1.250    0.000    0.000    0.000    0.000 
#    0.000    0.000    0.000    0.000    0.000    0.000 
#
# Total GULP energy -198501.344819 kJ/mol
# GULP energy per Si atom -12406.334051 kJ/mol
# Density = 2.085593 g / cm^3
# Si number density = 20.903509 Si / 1000 Ang^3
#
#
#
# Elastic Constant Matrix: (Units=GPa)
#
#
# Indices 1 2 3 4 5 6 
#
# 1 103.9764 21.8777 57.5580 0.0000 1.7326 0.0000
# 2 21.8777 71.4771 28.5246 0.0000 -2.5328 0.0000
# 3 57.5580 28.5246 87.9137 0.0000 22.3099 0.0000
# 4 0.0000 0.0000 0.0000 22.9353 0.0000 -4.6444
# 5 1.7326 -2.5328 22.3099 0.0000 22.9605 0.0000
# 6 0.0000 0.0000 0.0000 -4.6444 0.0000 28.7025
#
#
#
# Elastic Compliance Matrix: (Units=1/GPa)
#
#
# Indices 1 2 3 4 5 6 
#
# 1 0.017724 0.001272 -0.015547 0.000000 0.013909 0.000000
# 2 0.001272 0.017727 -0.009366 0.000000 0.010960 0.000000
# 3 -0.015547 -0.009366 0.032594 0.000000 -0.031530 0.000000
# 4 0.000000 0.000000 0.000000 0.045078 0.000000 0.007294
# 5 0.013909 0.010960 -0.031530 0.000000 0.074349 0.000000
# 6 0.000000 0.000000 0.000000 0.007294 0.000000 0.036020
#
#
# Mechanical properties :
#
#
# Convention : Reuss Voigt Hill
#
# Bulk Modulus (GPa) = 48.16038 53.25421 50.70730
# Shear Modulus (GPa) = 18.00535 25.28011 21.64273
#
# Velocity S-wave (km/s) = 2.93807 3.48137 3.22120
# Velocity P-wave (km/s) = 5.88210 6.45689 6.17619
#
# Compressibility (1/GPa) = 0.02076395
#
# Stress axis : x y z
#
# Youngs Moduli (GPa) = 56.41979 56.41035 30.68082
#
# Poissons Ratio (x) = -0.07176 0.47699
# Poissons Ratio (y) = -0.07177 0.28736
# Poissons Ratio (z) = 0.87714 0.52834
#
# Static dielectric constant tensor:
#      x y z
#    x 3.778920 0.000000 -0.010440 
#    y 0.000000 3.690990 0.000000 
#    z -0.010440 0.000000 3.782730 
# 
# 
# High freq. dielectric constant tensor:
#      x y z
#    x 1.814550 0.000000 0.004760 
#    y 0.000000 1.822230 0.000000 
#    z 0.004760 0.000000 1.822410 
# 
# From -- ./inp_files/5079.got.cif
#   From: 2010.03.12/outbox.cif.g09.slc.cpg/sg6_3_cif.got.tgz:5079.got - 2010.03.30 10:24:59.
