data_PCOD8052123
_publ_section_title
;
Structure prediction by ZEFSAII (Michael W. Deem and Ramdas Pophale) SiO2 
 PCOD8052123
Probable space group: C 2
;
_chemical_formula_sum "Si O2"
_cell_formula_units_Z 18
_cell_length_a 5.680641
_cell_length_b 7.631145
_cell_length_c 18.113268
_cell_angle_alpha 90.000000
_cell_angle_beta 61.164072
_cell_angle_gamma 90.000000
_cell_volume 687.844326
_symmetry_space_group_name_H-M "C 2"
_symmetry_group_IT_number 5
_symmetry_cell_setting 'monoclinic'
loop_
_space_group_symop_operation_xyz
x,y,z
-x,y,-z
1/2+x,1/2+y,z
1/2-x,1/2+y,-z
loop_
_atom_site_type_symbol
_atom_site_label
_atom_site_fract_x
_atom_site_fract_y
_atom_site_fract_z
Si Si1 0.271520 0.632000 0.775240
Si Si2 0.500000 0.682386 0.000000
Si Si3 0.770186 0.358971 0.340196
Si Si4 0.821775 0.631334 0.451642
Si Si5 0.073454 0.927715 0.112913
O O1 0.151852 0.501423 0.733211
O O2 0.567717 0.681157 0.701787
O O3 0.245352 0.539205 0.858445
O O4 0.117164 0.815924 0.805219
O O5 0.755987 0.808817 0.969667
O O6 0.573321 0.569195 0.916626
O O7 0.851887 0.443110 0.406528
O O8 0.457971 0.295469 0.387021
O O9 0.500000 0.670958 0.500000
O O10 0.000000 0.618112 0.500000
#
# Coordination Sequence:
#
# PCOD8052123 Si02
#       5
#     4   2   4   4   4
#     4  12  25  45  70 102 142 188 240 298 362 436
#     4  12  24  42  68 100 138 184 236 294 358 428
#     4  12  27  47  74 106 145 192 246 304 371 442
#     4  12  29  51  78 112 151 197 252 313 377 448
#     4  12  24  43  68 100 140 184 238 296 360 430
#
# _framework density 26.168710000000001
#
# number of rings (size 3 to 8) (size 9 to 14) (size 15 to 20)
#    0.000    0.000    0.000   10.000    0.000   10.667 
#    0.000    0.000    0.000    0.000    0.000    0.000 
#    0.000    0.000    0.000    0.000    0.000    0.000 
#
# Total GULP energy -111556.916288 kJ/mol
# GULP energy per Si atom -12395.212921 kJ/mol
# Density = 2.610915 g / cm^3
# Si number density = 26.168710 Si / 1000 Ang^3
#
#
#
# Elastic Constant Matrix: (Units=GPa)
#
#
# Indices 1 2 3 4 5 6 
#
# 1 99.9292 29.0165 21.6286 0.0000 1.0842 0.0000
# 2 29.0165 119.0089 30.5560 0.0000 -2.2291 0.0000
# 3 21.6286 30.5560 87.1139 -0.0001 -1.8355 0.0001
# 4 0.0000 0.0000 -0.0001 28.9051 0.0001 -0.6237
# 5 1.0842 -2.2291 -1.8355 0.0001 37.7185 0.0000
# 6 0.0000 0.0000 0.0001 -0.6237 0.0000 43.1657
#
#
#
# Elastic Compliance Matrix: (Units=1/GPa)
#
#
# Indices 1 2 3 4 5 6 
#
# 1 0.011083 -0.002201 -0.001991 0.000000 -0.000546 0.000000
# 2 -0.002201 0.009677 -0.002837 0.000000 0.000497 0.000000
# 3 -0.001991 -0.002837 0.012980 0.000000 0.000521 0.000000
# 4 0.000000 0.000000 0.000000 0.034607 0.000000 0.000500
# 5 -0.000546 0.000497 0.000521 0.000000 0.026583 0.000000
# 6 0.000000 0.000000 0.000000 0.000500 0.000000 0.023174
#
#
# Mechanical properties :
#
#
# Convention : Reuss Voigt Hill
#
# Bulk Modulus (GPa) = 50.81121 52.05048 51.43084
# Shear Modulus (GPa) = 36.04302 36.94790 36.49546
#
# Velocity S-wave (km/s) = 3.71527 3.76162 3.73852
# Velocity P-wave (km/s) = 6.15331 6.22896 6.19125
#
# Compressibility (1/GPa) = 0.01968070
#
# Stress axis : x y z
#
# Youngs Moduli (GPa) = 90.22716 103.33499 77.04289
#
# Poissons Ratio (x) = 0.22747 0.15340
# Poissons Ratio (y) = 0.19861 0.21860
# Poissons Ratio (z) = 0.17965 0.29320
#
# Static dielectric constant tensor:
#      x y z
#    x 4.428170 0.000000 -0.103850 
#    y 0.000000 4.874890 0.000000 
#    z -0.103850 0.000000 5.102960 
# 
# 
# High freq. dielectric constant tensor:
#      x y z
#    x 2.030990 0.000000 -0.004820 
#    y 0.000000 2.073950 0.000000 
#    z -0.004820 0.000000 2.059580 
# 
# From -- ./inp_files/58453.got.cif
#   From: 2010.03.12/outbox.cif.g09.slc.cpg/sg5_30_cif.got.tgz:58453.got - 2010.03.31 09:47:26.
