data_PCOD8052599
_publ_section_title
;
Structure prediction by ZEFSAII (Michael W. Deem and Ramdas Pophale) SiO2 
 PCOD8052599
Probable space group: P C
;
_chemical_formula_sum "Si O2"
_cell_formula_units_Z 16
_cell_length_a 22.561722
_cell_length_b 8.033327
_cell_length_c 5.012782
_cell_angle_alpha 90.000000
_cell_angle_beta 115.191397
_cell_angle_gamma 90.000000
_cell_volume 822.134291
_symmetry_space_group_name_H-M "P C"
_symmetry_group_IT_number 7
_symmetry_cell_setting 'monoclinic'
loop_
_space_group_symop_operation_xyz
x,y,z
x,-y,1/2+z
loop_
_atom_site_type_symbol
_atom_site_label
_atom_site_fract_x
_atom_site_fract_y
_atom_site_fract_z
Si Si1 0.430490 0.607246 0.174000
Si Si2 0.283606 0.609313 0.957539
Si Si3 0.680973 0.112508 0.251017
Si Si4 0.039095 0.105481 0.998362
Si Si5 0.897786 0.884658 0.129855
Si Si6 0.787192 0.385980 0.416907
Si Si7 0.530598 0.105794 0.993138
Si Si8 0.178204 0.112312 0.151732
O O1 0.440833 0.451504 0.391130
O O2 0.483307 0.744759 0.337998
O O3 0.357346 0.680376 0.070038
O O4 0.271602 0.457544 0.731577
O O5 0.234997 0.758044 0.808732
O O6 0.720366 0.284026 0.326891
O O7 0.700237 0.000171 0.538052
O O8 0.605173 0.166422 0.103012
O O9 0.970733 0.198097 0.798626
O O10 0.039795 0.939578 0.812654
O O11 0.106765 0.202578 0.056675
O O12 0.887429 0.033032 0.321813
O O13 0.847930 0.735837 0.080110
O O14 0.789749 0.538172 0.627165
O O15 0.516785 0.953287 0.766644
O O16 0.184652 0.957164 0.365737
#
# Coordination Sequence:
#
# PCOD8052599 Si02
#       8
#     2   2   2   2   2   2   2   2
#     4  10  21  36  54  75 106 142 173 206 256 316
#     4  10  21  36  51  74 107 142 173 206 256 316
#     4  10  21  39  58  77 104 141 175 206 254 316
#     4   8  16  30  51  76  99 128 172 214 252 302
#     4  10  19  36  58  75 100 142 177 206 254 316
#     4  12  24  36  53  82 111 134 170 220 258 296
#     4  10  21  36  57  82 105 130 173 222 256 296
#     4  10  19  33  54  79 102 131 175 222 256 296
#
# _framework density 19.461538999999998
#
# number of rings (size 3 to 8) (size 9 to 14) (size 15 to 20)
#    0.000    2.000    0.000    3.750    0.000    2.000 
#    0.000    1.250    0.000    0.000    0.000    0.000 
#    0.000    0.000    0.000    0.000    0.000    0.000 
#
# Total GULP energy -198388.064152 kJ/mol
# GULP energy per Si atom -12399.254010 kJ/mol
# Density = 1.941724 g / cm^3
# Si number density = 19.461539 Si / 1000 Ang^3
#
#
#
# Elastic Constant Matrix: (Units=GPa)
#
#
# Indices 1 2 3 4 5 6 
#
# 1 96.1450 46.2248 34.1954 0.0000 24.0717 0.0000
# 2 46.2248 63.1616 22.3513 0.0000 26.0140 0.0000
# 3 34.1954 22.3513 92.3063 0.0000 8.8105 0.0000
# 4 0.0000 0.0000 0.0000 -23.7039 0.0000 -53.6113
# 5 24.0717 26.0140 8.8105 0.0000 45.3855 0.0000
# 6 0.0000 0.0000 0.0000 -53.6113 0.0000 -48.7571
#
#
#
# Elastic Compliance Matrix: (Units=1/GPa)
#
#
# Indices 1 2 3 4 5 6 
#
# 1 0.017304 -0.010314 -0.003669 0.000000 -0.002554 0.000000
# 2 -0.010314 0.028396 -0.002062 0.000000 -0.010405 0.000000
# 3 -0.003669 -0.002062 0.012627 0.000000 0.000677 0.000000
# 4 0.000000 0.000000 0.000000 0.028373 0.000000 -0.031198
# 5 -0.002554 -0.010405 0.000677 0.000000 0.029221 0.000000
# 6 0.000000 0.000000 0.000000 -0.031198 0.000000 0.013794
#
#
# Mechanical properties :
#
#
# Convention : Reuss Voigt Hill
#
# Bulk Modulus (GPa) = 38.11314 50.79510 44.45412
# Shear Modulus (GPa) = 29.31692 4.50767 16.91230
#
# Velocity S-wave (km/s) = 3.88545 1.52356 2.95110
# Velocity P-wave (km/s) = 6.30518 5.40850 5.87398
#
# Compressibility (1/GPa) = 0.02623767
#
# Stress axis : x y z
#
# Youngs Moduli (GPa) = 57.79026 35.21668 79.19247
#
# Poissons Ratio (x) = 0.36321 0.29057
# Poissons Ratio (y) = 0.59602 0.16329
# Poissons Ratio (z) = 0.21204 0.07261
#
# Static dielectric constant tensor:
#      x y z
#    x 3.855260 0.000000 0.014850 
#    y 0.000000 3.055290 0.000000 
#    z 0.014850 0.000000 3.896800 
# 
# 
# High freq. dielectric constant tensor:
#      x y z
#    x 1.776510 0.000000 0.000760 
#    y 0.000000 1.712840 0.000000 
#    z 0.000760 0.000000 1.786330 
# 
# From -- ./inp_files/1347.got.cif
#   From: 2010.03.12/outbox.cif.g09.slc.cpg/sg7_cif.got.tgz:1347.got - 2010.03.30 08:40:41.
