data_PCOD8052551
_publ_section_title
;
Structure prediction by ZEFSAII (Michael W. Deem and Ramdas Pophale) SiO2 
 PCOD8052551
Probable space group: P M
;
_chemical_formula_sum "Si O2"
_cell_formula_units_Z 16
_cell_length_a 17.272970
_cell_length_b 9.204265
_cell_length_c 11.614941
_cell_angle_alpha 90.000000
_cell_angle_beta 31.840363
_cell_angle_gamma 90.000000
_cell_volume 974.182624
_symmetry_space_group_name_H-M "P M"
_symmetry_group_IT_number 6
_symmetry_cell_setting 'monoclinic'
loop_
_space_group_symop_operation_xyz
x,y,z
x,-y,z
loop_
_atom_site_type_symbol
_atom_site_label
_atom_site_fract_x
_atom_site_fract_y
_atom_site_fract_z
Si Si1 0.111480 0.327900 0.436300
Si Si2 0.874096 0.839667 0.155487
Si Si3 0.197480 0.839497 0.771516
Si Si4 0.257633 0.664703 0.906755
Si Si5 0.707365 0.172686 0.586768
Si Si6 0.408640 0.329151 0.949987
Si Si7 0.054775 0.672292 0.764800
Si Si8 0.950735 0.667623 0.416813
O O1 0.116341 0.500000 0.423370
O O2 0.064078 0.272836 0.621883
O O3 0.993445 0.275015 0.490772
O O4 0.275058 0.273364 0.198892
O O5 0.756561 0.778901 0.395543
O O6 0.827506 0.000000 0.168749
O O7 0.029016 0.852796 0.027910
O O8 0.899733 0.730469 0.014652
O O9 0.292195 0.765363 0.752833
O O10 0.193075 0.742023 0.659978
O O11 0.262874 0.000000 0.662907
O O12 0.282763 0.500000 0.835274
O O13 0.369779 0.706026 0.866442
O O14 0.091250 0.685318 0.157902
O O15 0.548595 0.238115 0.812000
O O16 0.817558 0.234375 0.542495
O O17 0.704115 0.000000 0.601323
O O18 0.438849 0.500000 0.928216
O O19 0.061684 0.500000 0.766770
O O20 0.899684 0.500000 0.483392
#
# Coordination Sequence:
#
# PCOD8052551 Si02
#       8
#     2   2   2   2   2   2   2   2
#     4   8  16  31  49  71  94 118 152 194 233 268
#     4   8  17  29  42  65  95 121 146 185 229 268
#     4   9  16  26  42  66  94 120 143 181 231 269
#     4   9  16  28  47  70  91 115 154 194 228 272
#     4  11  20  31  45  69  99 126 154 185 227 278
#     4   9  19  33  48  68  97 126 150 185 232 278
#     4   9  15  26  47  71  91 115 154 195 227 267
#     4   9  16  28  48  68  89 119 153 191 233 272
#
# _framework density 16.424025
#
# number of rings (size 3 to 8) (size 9 to 14) (size 15 to 20)
#    0.750    2.250    1.250    2.250    0.000    1.500 
#    0.000    4.375    0.000    1.500    0.000    3.500 
#    0.000    0.000    0.000    0.000    0.000    0.000 
#
# Total GULP energy -198233.651264 kJ/mol
# GULP energy per Si atom -12389.603204 kJ/mol
# Density = 1.638664 g / cm^3
# Si number density = 16.424025 Si / 1000 Ang^3
#
#
#
# Elastic Constant Matrix: (Units=GPa)
#
#
# Indices 1 2 3 4 5 6 
#
# 1 105.3243 53.9755 54.9315 0.0000 10.7914 0.0000
# 2 53.9755 79.8194 35.0374 0.0000 7.7725 0.0000
# 3 54.9315 35.0374 71.7907 0.0000 5.2929 0.0000
# 4 0.0000 0.0000 0.0000 17.2815 0.0000 1.3088
# 5 10.7914 7.7725 5.2929 0.0000 30.9432 0.0000
# 6 0.0000 0.0000 0.0000 1.3088 0.0000 10.2381
#
#
#
# Elastic Compliance Matrix: (Units=1/GPa)
#
#
# Indices 1 2 3 4 5 6 
#
# 1 0.019663 -0.008274 -0.010791 0.000000 -0.002933 0.000000
# 2 -0.008274 0.019653 -0.003149 0.000000 -0.001512 0.000000
# 3 -0.010791 -0.003149 0.023686 0.000000 0.000503 0.000000
# 4 0.000000 0.000000 0.000000 0.058431 0.000000 -0.007469
# 5 -0.002933 -0.001512 0.000503 0.000000 0.033634 0.000000
# 6 0.000000 0.000000 0.000000 -0.007469 0.000000 0.098629
#
#
# Mechanical properties :
#
#
# Convention : Reuss Voigt Hill
#
# Bulk Modulus (GPa) = 53.83948 60.53591 57.18769
# Shear Modulus (GPa) = 16.43022 19.22524 17.82773
#
# Velocity S-wave (km/s) = 3.16631 3.42505 3.29822
# Velocity P-wave (km/s) = 6.79849 7.25117 7.02847
#
# Compressibility (1/GPa) = 0.01857373
#
# Stress axis : x y z
#
# Youngs Moduli (GPa) = 50.85576 50.88271 42.21874
#
# Poissons Ratio (x) = 0.42102 0.45559
# Poissons Ratio (y) = 0.42080 0.13295
# Poissons Ratio (z) = 0.54879 0.16023
#
# Static dielectric constant tensor:
#      x y z
#    x 3.045220 0.000000 0.140750 
#    y 0.000000 2.984520 0.000000 
#    z 0.140750 0.000000 2.839870 
# 
# 
# High freq. dielectric constant tensor:
#      x y z
#    x 1.621430 0.000000 0.009940 
#    y 0.000000 1.627700 0.000000 
#    z 0.009940 0.000000 1.594670 
# 
# From -- ./inp_files/5343.got.cif
#   From: 2010.03.12/outbox.cif.g09.slc.cpg/sg6_3_cif.got.tgz:5343.got - 2010.03.30 10:24:59.
