data_PCOD8052874
_publ_section_title
;
Structure prediction by ZEFSAII (Michael W. Deem and Ramdas Pophale) SiO2 
 PCOD8052874
Probable space group: C M
;
_chemical_formula_sum "Si O2"
_cell_formula_units_Z 24
_cell_length_a 20.540446
_cell_length_b 8.597590
_cell_length_c 19.086845
_cell_angle_alpha 90.000000
_cell_angle_beta 158.356143
_cell_angle_gamma 90.000000
_cell_volume 1243.237830
_symmetry_space_group_name_H-M "C M"
_symmetry_group_IT_number 8
_symmetry_cell_setting 'monoclinic'
loop_
_space_group_symop_operation_xyz
x,y,z
x,-y,z
1/2+x,1/2+y,z
1/2+x,1/2-y,z
loop_
_atom_site_type_symbol
_atom_site_label
_atom_site_fract_x
_atom_site_fract_y
_atom_site_fract_z
Si Si1 0.826490 0.184968 0.008740
Si Si2 0.519251 0.816314 0.604289
Si Si3 0.127089 0.814753 0.207481
Si Si4 0.807635 0.182956 0.148582
Si Si5 0.630732 0.681161 0.570330
Si Si6 0.498244 0.682853 0.927164
O O1 0.835112 0.242856 0.096907
O O2 0.996144 0.250301 0.136229
O O3 0.829676 0.000000 0.008180
O O4 0.647732 0.249178 0.793473
O O5 0.322847 0.745924 0.417518
O O6 0.598891 0.775629 0.608985
O O7 0.509615 0.000000 0.599799
O O8 0.131860 0.000000 0.212526
O O9 0.062349 0.755689 0.067009
O O10 0.983566 0.226616 0.366478
O O11 0.766735 0.000000 0.110569
O O12 0.643441 0.276153 0.014971
O O13 0.625730 0.500000 0.582662
O O14 0.818865 0.729462 0.726607
O O15 0.463336 0.500000 0.893148
#
# Coordination Sequence:
#
# PCOD8052874 Si02
#       6
#     4   4   4   4   4   4
#     4   9  18  34  56  83 112 143 185 233 278 326
#     4  10  18  33  59  85 107 142 193 237 272 323
#     4   9  17  30  55  85 105 135 185 235 272 314
#     4  10  22  38  57  85 119 149 181 231 289 336
#     4  11  22  35  55  85 119 150 183 228 284 342
#     4  11  21  36  60  85 112 147 193 236 273 331
#
# _framework density 19.304431999999998
#
# number of rings (size 3 to 8) (size 9 to 14) (size 15 to 20)
#    0.000    2.000    3.333    1.000    0.000    2.000 
#    0.000    5.833    0.000    0.000    0.000    0.000 
#    0.000    0.000    0.000    0.000    0.000    0.000 
#
# Total GULP energy -148817.433447 kJ/mol
# GULP energy per Si atom -12401.452787 kJ/mol
# Density = 1.926049 g / cm^3
# Si number density = 19.304432 Si / 1000 Ang^3
#
#
#
# Elastic Constant Matrix: (Units=GPa)
#
#
# Indices 1 2 3 4 5 6 
#
# 1 136.5091 2.4590 59.2139 -0.0001 0.7820 -0.0002
# 2 2.4590 7.3111 13.5286 0.0013 -1.8342 0.0007
# 3 59.2139 13.5286 159.9689 0.0011 8.9829 0.0006
# 4 -0.0001 0.0013 0.0011 21.9703 0.0007 3.3927
# 5 0.7820 -1.8342 8.9829 0.0007 38.8677 0.0003
# 6 -0.0002 0.0007 0.0006 3.3927 0.0003 24.8727
#
#
#
# Elastic Compliance Matrix: (Units=1/GPa)
#
#
# Indices 1 2 3 4 5 6 
#
# 1 0.008835 0.004012 -0.003658 0.000000 0.000857 0.000000
# 2 0.004012 0.168723 -0.016410 -0.000009 0.011674 -0.000003
# 3 -0.003658 -0.016410 0.009151 0.000001 -0.002816 0.000000
# 4 0.000000 -0.000009 0.000001 0.046495 -0.000001 -0.006342
# 5 0.000857 0.011674 -0.002816 -0.000001 0.026913 0.000000
# 6 0.000000 -0.000003 0.000000 -0.006342 0.000000 0.041070
#
#
# Mechanical properties :
#
#
# Convention : Reuss Voigt Hill
#
# Bulk Modulus (GPa) = 6.46837 50.46580 28.46709
# Shear Modulus (GPa) = 12.99271 32.38128 22.68700
#
# Velocity S-wave (km/s) = 2.59712 4.10005 3.43187
# Velocity P-wave (km/s) = 3.51445 6.97228 5.52106
#
# Compressibility (1/GPa) = 0.15459837
#
# Stress axis : x y z
#
# Youngs Moduli (GPa) = 113.18652 5.92686 109.27728
#
# Poissons Ratio (x) = -0.02378 0.39971
# Poissons Ratio (y) = -0.45408 1.79319
# Poissons Ratio (z) = 0.41401 0.09726
#
# Static dielectric constant tensor:
#      x y z
#    x 3.565810 0.000000 0.008500 
#    y 0.000000 3.121440 0.000000 
#    z 0.008500 0.000000 3.940020 
# 
# 
# High freq. dielectric constant tensor:
#      x y z
#    x 1.748870 0.000000 0.005390 
#    y 0.000000 1.713330 0.000000 
#    z 0.005390 0.000000 1.770940 
# 
# From -- ./inp_files/15696.got.cif
#   From: 2010.03.12/outbox.cif.g09.slc.cpg/sg8_8_cif.got.tgz:15696.got - 2010.03.31 10:45:26.
