data_PCOD8052396
_publ_section_title
;
Structure prediction by ZEFSAII (Michael W. Deem and Ramdas Pophale) SiO2 
 PCOD8052396
Probable space group: P M
;
_chemical_formula_sum "Si O2"
_cell_formula_units_Z 12
_cell_length_a 9.266841
_cell_length_b 9.266054
_cell_length_c 9.052399
_cell_angle_alpha 90.000000
_cell_angle_beta 63.897394
_cell_angle_gamma 90.000000
_cell_volume 698.023785
_symmetry_space_group_name_H-M "P M"
_symmetry_group_IT_number 6
_symmetry_cell_setting 'monoclinic'
loop_
_space_group_symop_operation_xyz
x,y,z
x,-y,z
loop_
_atom_site_type_symbol
_atom_site_label
_atom_site_fract_x
_atom_site_fract_y
_atom_site_fract_z
Si Si1 0.287180 0.163148 0.424340
Si Si2 0.591480 0.832025 0.083742
Si Si3 0.223158 0.331537 0.744677
Si Si4 0.935805 0.165971 0.028607
Si Si5 0.137973 0.837827 0.201966
Si Si6 0.413588 0.666385 0.936538
O O1 0.448517 0.203463 0.261848
O O2 0.268115 0.274968 0.563787
O O3 0.132594 0.178152 0.382734
O O4 0.297938 0.000000 0.481900
O O5 0.602240 0.000000 0.046036
O O6 0.757891 0.773480 0.077732
O O7 0.562636 0.755253 0.937843
O O8 0.182772 0.500000 0.754464
O O9 0.379765 0.303824 0.778129
O O10 0.065219 0.252616 0.875408
O O11 0.949382 0.000000 0.972901
O O12 0.968992 0.180922 0.191299
O O13 0.207740 0.000000 0.136192
O O14 0.252347 0.713507 0.091324
O O15 0.447324 0.500000 0.952849
#
# Coordination Sequence:
#
# PCOD8052396 Si02
#       6
#     2   2   2   2   2   2
#     4   9  17  30  48  70  96 125 157 193 232 275
#     4   9  18  32  51  74  95 119 156 197 236 279
#     4  10  20  32  47  70  98 127 159 192 229 277
#     4   9  17  32  53  73  94 121 154 195 239 279
#     4   8  15  29  49  70  92 120 156 194 231 277
#     4   9  17  29  46  67  93 126 160 191 227 275
#
# _framework density 17.191392
#
# number of rings (size 3 to 8) (size 9 to 14) (size 15 to 20)
#    0.000    3.000    0.000    2.000    0.000    5.333 
#    0.000    1.667    0.000    4.000    0.000    0.000 
#    0.000    0.000    0.000    0.000    0.000    0.000 
#
# Total GULP energy -148669.591424 kJ/mol
# GULP energy per Si atom -12389.132619 kJ/mol
# Density = 1.715226 g / cm^3
# Si number density = 17.191392 Si / 1000 Ang^3
#
#
#
# Elastic Constant Matrix: (Units=GPa)
#
#
# Indices 1 2 3 4 5 6 
#
# 1 152.0226 50.8680 53.4451 0.0000 25.2629 0.0000
# 2 50.8680 65.9208 45.3186 0.0000 13.9169 0.0000
# 3 53.4451 45.3186 80.0493 0.0000 23.1092 0.0000
# 4 0.0000 0.0000 0.0000 20.4213 0.0000 7.5553
# 5 25.2629 13.9169 23.1092 0.0000 23.9816 0.0000
# 6 0.0000 0.0000 0.0000 7.5553 0.0000 22.7155
#
#
#
# Elastic Compliance Matrix: (Units=1/GPa)
#
#
# Indices 1 2 3 4 5 6 
#
# 1 0.009933 -0.004973 -0.002257 0.000000 -0.005403 0.000000
# 2 -0.004973 0.027350 -0.012599 0.000000 0.001507 0.000000
# 3 -0.002257 -0.012599 0.025401 0.000000 -0.014788 0.000000
# 4 0.000000 0.000000 0.000000 0.055840 0.000000 -0.018572
# 5 -0.005403 0.001507 -0.014788 0.000000 0.060766 0.000000
# 6 0.000000 0.000000 0.000000 -0.018572 0.000000 0.050200
#
#
# Mechanical properties :
#
#
# Convention : Reuss Voigt Hill
#
# Bulk Modulus (GPa) = 43.42668 66.36179 54.89424
# Shear Modulus (GPa) = 18.06211 23.31444 20.68827
#
# Velocity S-wave (km/s) = 3.24489 3.68662 3.47278
# Velocity P-wave (km/s) = 6.27333 7.53705 6.93403
#
# Compressibility (1/GPa) = 0.02302732
#
# Stress axis : x y z
#
# Youngs Moduli (GPa) = 100.67214 36.56292 39.36875
#
# Poissons Ratio (x) = 0.18182 0.08885
# Poissons Ratio (y) = 0.50062 0.49600
# Poissons Ratio (z) = 0.22719 0.46065
#
# Static dielectric constant tensor:
#      x y z
#    x 3.568060 0.000000 0.420840 
#    y 0.000000 3.190620 0.000000 
#    z 0.420840 0.000000 2.969990 
# 
# 
# High freq. dielectric constant tensor:
#      x y z
#    x 1.666220 0.000000 0.035920 
#    y 0.000000 1.665550 0.000000 
#    z 0.035920 0.000000 1.628400 
# 
# From -- ./inp_files/2410.got.cif
#   From: 2010.03.12/outbox.cif.g09.slc.cpg/sg6_2_cif.got.tgz:2410.got - 2010.03.30 10:24:59.
