data_PCOD8052523
_publ_section_title
;
Structure prediction by ZEFSAII (Michael W. Deem and Ramdas Pophale) SiO2 
 PCOD8052523
Probable space group: P M
;
_chemical_formula_sum "Si O2"
_cell_formula_units_Z 16
_cell_length_a 11.937991
_cell_length_b 8.771638
_cell_length_c 9.666354
_cell_angle_alpha 90.000000
_cell_angle_beta 128.233081
_cell_angle_gamma 90.000000
_cell_volume 795.098021
_symmetry_space_group_name_H-M "P M"
_symmetry_group_IT_number 6
_symmetry_cell_setting 'monoclinic'
loop_
_space_group_symop_operation_xyz
x,y,z
x,-y,z
loop_
_atom_site_type_symbol
_atom_site_label
_atom_site_fract_x
_atom_site_fract_y
_atom_site_fract_z
Si Si1 0.369330 0.319468 0.164370
Si Si2 0.359215 0.178594 0.451765
Si Si3 0.063024 0.827875 0.354120
Si Si4 0.861700 0.827123 0.952483
Si Si5 0.623446 0.680725 0.162483
Si Si6 0.930521 0.678514 0.501467
Si Si7 0.583968 0.320979 0.819798
Si Si8 0.069560 0.179294 0.870918
O O1 0.365887 0.500000 0.163847
O O2 0.401472 0.261445 0.342716
O O3 0.496386 0.259172 0.162940
O O4 0.221636 0.260813 0.988608
O O5 0.197597 0.221930 0.365538
O O6 0.453469 0.233704 0.651306
O O7 0.378332 0.000000 0.442451
O O8 0.043399 0.712449 0.466004
O O9 0.084261 0.000000 0.426821
O O10 0.923543 0.817436 0.153388
O O11 0.725606 0.717332 0.840555
O O12 0.980111 0.768409 0.935972
O O13 0.815451 0.000000 0.880759
O O14 0.627668 0.500000 0.160896
O O15 0.774236 0.739134 0.337995
O O16 0.598575 0.741418 0.987704
O O17 0.931950 0.500000 0.536817
O O18 0.977682 0.773575 0.669405
O O19 0.555009 0.500000 0.792192
O O20 0.097841 0.000000 0.894354
#
# Coordination Sequence:
#
# PCOD8052523 Si02
#       8
#     2   2   2   2   2   2   2   2
#     4  11  23  42  65  92 124 165 208 255 310 369
#     4  11  24  43  63  92 127 164 206 255 310 371
#     4  10  21  41  65  89 121 159 205 258 309 367
#     4  10  21  41  65  89 121 159 205 258 309 367
#     4   9  22  42  61  88 126 159 200 255 308 361
#     4  11  23  41  64  93 124 161 206 257 311 368
#     4  11  23  41  64  93 124 161 206 257 311 368
#     4  11  24  43  63  92 127 164 206 255 310 371
#
# _framework density 20.123305999999999
#
# number of rings (size 3 to 8) (size 9 to 14) (size 15 to 20)
#    0.000    1.500    2.500    1.875    3.500    2.000 
#    0.000    3.750    0.000    0.000    0.000    0.000 
#    0.000    0.000    0.000    0.000    0.000    0.000 
#
# Total GULP energy -198470.232493 kJ/mol
# GULP energy per Si atom -12404.389531 kJ/mol
# Density = 2.007750 g / cm^3
# Si number density = 20.123306 Si / 1000 Ang^3
#
#
#
# Elastic Constant Matrix: (Units=GPa)
#
#
# Indices 1 2 3 4 5 6 
#
# 1 108.2082 37.5368 28.9357 0.0000 -12.9007 0.0000
# 2 37.5368 52.5268 20.0563 0.0000 -2.7272 0.0000
# 3 28.9357 20.0563 107.2567 0.0000 -10.3463 0.0000
# 4 0.0000 0.0000 0.0000 31.1865 0.0000 0.3040
# 5 -12.9007 -2.7272 -10.3463 0.0000 26.4167 0.0000
# 6 0.0000 0.0000 0.0000 0.3040 0.0000 32.5575
#
#
#
# Elastic Compliance Matrix: (Units=1/GPa)
#
#
# Indices 1 2 3 4 5 6 
#
# 1 0.013223 -0.008628 -0.001473 0.000000 0.004990 0.000000
# 2 -0.008628 0.026142 -0.002813 0.000000 -0.002617 0.000000
# 3 -0.001473 -0.002813 0.010548 0.000000 0.003122 0.000000
# 4 0.000000 0.000000 0.000000 0.032068 0.000000 -0.000299
# 5 0.004990 -0.002617 0.003122 0.000000 0.041244 0.000000
# 6 0.000000 0.000000 0.000000 -0.000299 0.000000 0.030718
#
#
# Mechanical properties :
#
#
# Convention : Reuss Voigt Hill
#
# Bulk Modulus (GPa) = 41.51895 49.00547 45.26221
# Shear Modulus (GPa) = 26.62412 30.12965 28.37688
#
# Velocity S-wave (km/s) = 3.64132 3.87363 3.75927
# Velocity P-wave (km/s) = 6.19322 6.66424 6.43305
#
# Compressibility (1/GPa) = 0.02408539
#
# Stress axis : x y z
#
# Youngs Moduli (GPa) = 75.62435 38.25242 94.80619
#
# Poissons Ratio (x) = 0.33005 0.13961
# Poissons Ratio (y) = 0.65251 0.26670
# Poissons Ratio (z) = 0.11136 0.10761
#
# Static dielectric constant tensor:
#      x y z
#    x 3.778700 0.000000 -0.002680 
#    y 0.000000 3.502270 0.000000 
#    z -0.002680 0.000000 3.998280 
# 
# 
# High freq. dielectric constant tensor:
#      x y z
#    x 1.796030 0.000000 0.000180 
#    y 0.000000 1.776580 0.000000 
#    z 0.000180 0.000000 1.793940 
# 
# From -- ./inp_files/3730.got.cif
#   From: 2010.03.12/outbox.cif.g09.slc.cpg/sg6_2_cif.got.tgz:3730.got - 2010.03.30 10:24:59.
