data_PCOD8052349
_publ_section_title
;
Structure prediction by ZEFSAII (Michael W. Deem and Ramdas Pophale) SiO2 
 PCOD8052349
Probable space group: P M
;
_chemical_formula_sum "Si O2"
_cell_formula_units_Z 16
_cell_length_a 10.341663
_cell_length_b 8.558927
_cell_length_c 12.300419
_cell_angle_alpha 90.000000
_cell_angle_beta 128.241035
_cell_angle_gamma 90.000000
_cell_volume 855.122102
_symmetry_space_group_name_H-M "P M"
_symmetry_group_IT_number 6
_symmetry_cell_setting 'monoclinic'
loop_
_space_group_symop_operation_xyz
x,y,z
x,-y,z
loop_
_atom_site_type_symbol
_atom_site_label
_atom_site_fract_x
_atom_site_fract_y
_atom_site_fract_z
Si Si1 0.948430 0.684003 0.741000
Si Si2 0.054707 0.315389 0.023753
Si Si3 0.292314 0.683177 0.329294
Si Si4 0.596899 0.819570 0.595326
Si Si5 0.476589 0.681258 0.755020
Si Si6 0.101845 0.315655 0.599092
Si Si7 0.012636 0.818315 0.331620
Si Si8 0.783435 0.682231 0.049556
O O1 0.971688 0.500000 0.751671
O O2 0.756362 0.720618 0.648271
O O3 0.029275 0.752664 0.673859
O O4 0.044070 0.755321 0.896427
O O5 0.045885 0.500000 0.011756
O O6 0.220858 0.265637 0.173894
O O7 0.895961 0.257261 0.008319
O O8 0.331964 0.500000 0.355263
O O9 0.457902 0.779446 0.434267
O O10 0.157879 0.718886 0.351859
O O11 0.529386 0.781967 0.679486
O O12 0.642728 0.000000 0.611829
O O13 0.490529 0.500000 0.728547
O O14 0.294143 0.727660 0.695975
O O15 0.594714 0.717333 0.919431
O O16 0.073188 0.500000 0.572530
O O17 0.003608 0.228005 0.452903
O O18 0.836641 0.776556 0.185181
O O19 0.051949 0.000000 0.338510
O O20 0.813451 0.500000 0.088323
#
# Coordination Sequence:
#
# PCOD8052349 Si02
#       8
#     2   2   2   2   2   2   2   2
#     4  10  20  38  59  82 111 147 188 231 280 332
#     4   8  15  30  54  80 105 138 181 228 275 321
#     4  10  19  34  56  81 109 144 187 233 277 325
#     4  12  23  34  53  85 115 147 186 229 283 335
#     4  10  19  35  58  83 110 144 188 237 277 321
#     4  10  21  36  59  84 110 148 190 230 276 333
#     4  11  21  33  52  81 116 149 182 226 282 333
#     4   9  17  32  55  80 108 143 184 230 278 326
#
# _framework density 18.710778999999999
#
# number of rings (size 3 to 8) (size 9 to 14) (size 15 to 20)
#    0.000    2.000    2.500    3.375    0.000    1.000 
#    0.000    1.875    0.000    4.500    0.000    0.000 
#    0.000    0.000    0.000    0.000    0.000    0.000 
#
# Total GULP energy -198390.616880 kJ/mol
# GULP energy per Si atom -12399.413555 kJ/mol
# Density = 1.866819 g / cm^3
# Si number density = 18.710779 Si / 1000 Ang^3
#
#
#
# Elastic Constant Matrix: (Units=GPa)
#
#
# Indices 1 2 3 4 5 6 
#
# 1 86.2323 6.5012 60.5030 0.0000 -10.9906 0.0000
# 2 6.5012 34.9509 21.3752 0.0000 -5.8491 0.0000
# 3 60.5030 21.3752 167.8596 0.0000 -9.3039 0.0000
# 4 0.0000 0.0000 0.0000 11.8079 0.0000 1.2411
# 5 -10.9906 -5.8491 -9.3039 0.0000 27.4480 0.0000
# 6 0.0000 0.0000 0.0000 1.2411 0.0000 7.8052
#
#
#
# Elastic Compliance Matrix: (Units=1/GPa)
#
#
# Indices 1 2 3 4 5 6 
#
# 1 0.016114 0.001295 -0.005708 0.000000 0.004794 0.000000
# 2 0.001295 0.031930 -0.004206 0.000000 0.005897 0.000000
# 3 -0.005708 -0.004206 0.008534 0.000000 -0.000289 0.000000
# 4 0.000000 0.000000 0.000000 0.086128 0.000000 -0.013695
# 5 0.004794 0.005897 -0.000289 0.000000 0.039511 0.000000
# 6 0.000000 0.000000 0.000000 -0.013695 0.000000 0.130297
#
#
# Mechanical properties :
#
#
# Convention : Reuss Voigt Hill
#
# Bulk Modulus (GPa) = 25.41800 51.75575 38.58687
# Shear Modulus (GPa) = 14.58301 22.78979 18.68640
#
# Velocity S-wave (km/s) = 2.79479 3.49378 3.16365
# Velocity P-wave (km/s) = 4.90190 6.63297 5.83202
#
# Compressibility (1/GPa) = 0.03934220
#
# Stress axis : x y z
#
# Youngs Moduli (GPa) = 62.05595 31.31875 117.17632
#
# Poissons Ratio (x) = -0.04057 0.66879
# Poissons Ratio (y) = -0.08039 0.49284
# Poissons Ratio (z) = 0.35419 0.13173
#
# Static dielectric constant tensor:
#      x y z
#    x 3.269670 0.000000 -0.043460 
#    y 0.000000 3.169990 0.000000 
#    z -0.043460 0.000000 3.908820 
# 
# 
# High freq. dielectric constant tensor:
#      x y z
#    x 1.691980 0.000000 0.006170 
#    y 0.000000 1.705870 0.000000 
#    z 0.006170 0.000000 1.747740 
# 
# From -- ./inp_files/4649.got.cif
#   From: 2010.03.12/outbox.cif.g09.slc.cpg/sg6_3_cif.got.tgz:4649.got - 2010.03.30 10:24:59.
