data_PCOD8052658
_publ_section_title
;
Structure prediction by ZEFSAII (Michael W. Deem and Ramdas Pophale) SiO2 
 PCOD8052658
Probable space group: P C
;
_chemical_formula_sum "Si O2"
_cell_formula_units_Z 16
_cell_length_a 7.581398
_cell_length_b 18.669271
_cell_length_c 5.093913
_cell_angle_alpha 90.000000
_cell_angle_beta 114.521274
_cell_angle_gamma 90.000000
_cell_volume 655.960313
_symmetry_space_group_name_H-M "P C"
_symmetry_group_IT_number 7
_symmetry_cell_setting 'monoclinic'
loop_
_space_group_symop_operation_xyz
x,y,z
x,-y,1/2+z
loop_
_atom_site_type_symbol
_atom_site_label
_atom_site_fract_x
_atom_site_fract_y
_atom_site_fract_z
Si Si1 0.770630 0.953488 0.088190
Si Si2 0.581924 0.302767 0.416973
Si Si3 0.050072 0.538834 0.145914
Si Si4 0.230471 0.749153 0.937682
Si Si5 0.027931 0.697347 0.299736
Si Si6 0.451050 0.844333 0.743577
Si Si7 0.593133 0.460663 0.300303
Si Si8 0.212468 0.047191 0.804585
O O1 0.991376 0.926590 0.196021
O O2 0.727332 0.986077 0.345928
O O3 0.633338 0.885629 0.975467
O O4 0.430527 0.297482 0.568670
O O5 0.529448 0.234256 0.195415
O O6 0.544568 0.376610 0.241620
O O7 0.797348 0.297516 0.660209
O O8 0.139389 0.513069 0.925285
O O9 0.102356 0.620202 0.248260
O O10 0.821146 0.528292 0.974204
O O11 0.124482 0.753482 0.153363
O O12 0.287406 0.829855 0.871170
O O13 0.088927 0.712867 0.634068
O O14 0.355063 0.885806 0.440714
O O15 0.499432 0.498782 0.495618
O O16 0.258599 0.013977 0.549995
#
# Coordination Sequence:
#
# PCOD8052658 Si02
#       8
#     2   2   2   2   2   2   2   2
#     4  10  22  42  67  98 129 170 218 258 320 390
#     4   9  24  44  65 100 128 179 223 277 331 398
#     4   9  17  32  60  87 113 162 216 264 331 393
#     4  10  26  40  64  96 130 169 219 268 323 401
#     4  11  22  45  62  89 136 168 213 282 330 388
#     4  10  23  43  66  98 134 172 218 272 321 387
#     4   9  18  36  61  87 123 168 216 273 333 387
#     4  10  22  42  67  97 133 170 213 264 319 384
#
# _framework density 24.391715000000001
#
# number of rings (size 3 to 8) (size 9 to 14) (size 15 to 20)
#    0.750    1.500    0.000    1.500    1.750    7.000 
#    4.500    3.750    0.000    0.000    0.000    0.000 
#    0.000    0.000    0.000    0.000    0.000    0.000 
#
# Total GULP energy -198307.162001 kJ/mol
# GULP energy per Si atom -12394.197625 kJ/mol
# Density = 2.433620 g / cm^3
# Si number density = 24.391715 Si / 1000 Ang^3
#
#
#
# Elastic Constant Matrix: (Units=GPa)
#
#
# Indices 1 2 3 4 5 6 
#
# 1 75.6120 12.9838 28.7205 0.0000 18.3952 0.0000
# 2 12.9838 130.4429 38.7231 0.0000 27.4883 0.0000
# 3 28.7205 38.7231 90.2905 0.0000 3.1134 0.0000
# 4 0.0000 0.0000 0.0000 12.4512 0.0000 4.8247
# 5 18.3952 27.4883 3.1134 0.0000 29.0250 0.0000
# 6 0.0000 0.0000 0.0000 4.8247 0.0000 22.5863
#
#
#
# Elastic Compliance Matrix: (Units=1/GPa)
#
#
# Indices 1 2 3 4 5 6 
#
# 1 0.018698 0.003126 -0.006803 0.000000 -0.014081 0.000000
# 2 0.003126 0.011611 -0.005547 0.000000 -0.012382 0.000000
# 3 -0.006803 -0.005547 0.015345 0.000000 0.007919 0.000000
# 4 0.000000 0.000000 0.000000 0.087561 0.000000 -0.018704
# 5 -0.014081 -0.012382 0.007919 0.000000 0.054254 0.000000
# 6 0.000000 0.000000 0.000000 -0.018704 0.000000 0.048270
#
#
# Mechanical properties :
#
#
# Convention : Reuss Voigt Hill
#
# Bulk Modulus (GPa) = 36.75615 50.80002 43.77809
# Shear Modulus (GPa) = 18.99286 27.20703 23.09994
#
# Velocity S-wave (km/s) = 2.79348 3.34341 3.08074
# Velocity P-wave (km/s) = 5.05040 5.98135 5.53548
#
# Compressibility (1/GPa) = 0.02720633
#
# Stress axis : x y z
#
# Youngs Moduli (GPa) = 53.48093 86.12507 65.16751
#
# Poissons Ratio (x) = -0.26919 0.44331
# Poissons Ratio (y) = -0.16716 0.36148
# Poissons Ratio (z) = 0.36381 0.47773
#
# Static dielectric constant tensor:
#      x y z
#    x 4.358770 0.000000 0.153150 
#    y 0.000000 4.308250 0.000000 
#    z 0.153150 0.000000 4.342050 
# 
# 
# High freq. dielectric constant tensor:
#      x y z
#    x 1.967710 0.000000 0.017210 
#    y 0.000000 1.966810 0.000000 
#    z 0.017210 0.000000 1.966710 
# 
# From -- ./inp_files/931.got.cif
#   From: 2010.03.12/outbox.cif.g09.slc.cpg/sg7_cif.got.tgz:931.got - 2010.03.30 08:40:41.
