data_PCOD8052428
_publ_section_title
;
Structure prediction by ZEFSAII (Michael W. Deem and Ramdas Pophale) SiO2 
 PCOD8052428
Probable space group: P M
;
_chemical_formula_sum "Si O2"
_cell_formula_units_Z 16
_cell_length_a 19.264831
_cell_length_b 9.019568
_cell_length_c 14.303336
_cell_angle_alpha 90.000000
_cell_angle_beta 19.404330
_cell_angle_gamma 90.000000
_cell_volume 825.715205
_symmetry_space_group_name_H-M "P M"
_symmetry_group_IT_number 6
_symmetry_cell_setting 'monoclinic'
loop_
_space_group_symop_operation_xyz
x,y,z
x,-y,z
loop_
_atom_site_type_symbol
_atom_site_label
_atom_site_fract_x
_atom_site_fract_y
_atom_site_fract_z
Si Si1 0.115000 0.673113 0.276650
Si Si2 0.470629 0.836571 0.298865
Si Si3 0.258686 0.674655 0.723695
Si Si4 0.851935 0.324955 0.131397
Si Si5 0.391128 0.675539 0.755221
Si Si6 0.283744 0.673183 0.266482
Si Si7 0.048761 0.834304 0.718677
Si Si8 0.679501 0.176338 0.850628
O O1 0.061692 0.500000 0.331555
O O2 0.234224 0.702200 0.221446
O O3 0.903703 0.765378 0.535411
O O4 0.265672 0.735693 0.003730
O O5 0.447413 0.730804 0.417652
O O6 0.257727 0.840965 0.512384
O O7 0.528111 0.000000 0.262935
O O8 0.645172 0.779260 0.003695
O O9 0.276321 0.500000 0.701453
O O10 0.288693 0.738755 0.789819
O O11 0.033664 0.727858 0.971462
O O12 0.863225 0.500000 0.099790
O O13 0.632887 0.274919 0.454907
O O14 0.872961 0.247415 0.003596
O O15 0.378409 0.500000 0.770377
O O16 0.299829 0.500000 0.270288
O O17 0.093326 0.743520 0.567504
O O18 0.504751 0.749391 0.007297
O O19 0.972171 0.000000 0.789949
O O20 0.662586 0.000000 0.859621
#
# Coordination Sequence:
#
# PCOD8052428 Si02
#       8
#     2   2   2   2   2   2   2   2
#     4  10  22  38  56  79 107 143 187 229 267 315
#     4   8  16  31  50  74 104 134 165 205 258 319
#     4   9  17  30  52  77 100 130 165 207 258 308
#     4   9  17  31  52  76 102 133 169 212 262 314
#     4   9  19  35  52  74 102 132 175 222 260 308
#     4  10  20  35  57  83 110 142 181 224 268 318
#     4   9  17  31  52  78 108 139 171 212 266 324
#     4  10  21  37  57  81 111 145 177 219 275 326
#
# _framework density 19.377140000000001
#
# number of rings (size 3 to 8) (size 9 to 14) (size 15 to 20)
#    0.000    2.750    0.000    1.875    0.000    6.500 
#    0.000    9.375    0.000    3.000    0.000    0.000 
#    0.000    0.000    0.000    0.000    0.000    0.000 
#
# Total GULP energy -198358.381055 kJ/mol
# GULP energy per Si atom -12397.398816 kJ/mol
# Density = 1.933304 g / cm^3
# Si number density = 19.377140 Si / 1000 Ang^3
#
#
#
# Elastic Constant Matrix: (Units=GPa)
#
#
# Indices 1 2 3 4 5 6 
#
# 1 103.7373 31.3128 40.7037 0.0000 17.1656 0.0000
# 2 31.3128 58.8009 20.3532 0.0000 4.8194 0.0000
# 3 40.7037 20.3532 100.7439 0.0000 16.9070 0.0000
# 4 0.0000 0.0000 0.0000 17.3310 0.0000 1.4958
# 5 17.1656 4.8194 16.9070 0.0000 33.2843 0.0000
# 6 0.0000 0.0000 0.0000 1.4958 0.0000 4.8566
#
#
#
# Elastic Compliance Matrix: (Units=1/GPa)
#
#
# Indices 1 2 3 4 5 6 
#
# 1 0.013437 -0.005562 -0.003583 0.000000 -0.004304 0.000000
# 2 -0.005562 0.020610 -0.002074 0.000000 0.000938 0.000000
# 3 -0.003583 -0.002074 0.012498 0.000000 -0.004200 0.000000
# 4 0.000000 0.000000 0.000000 0.059276 0.000000 -0.018257
# 5 -0.004304 0.000938 -0.004200 0.000000 0.034262 0.000000
# 6 0.000000 0.000000 0.000000 -0.018257 0.000000 0.211527
#
#
# Mechanical properties :
#
#
# Convention : Reuss Voigt Hill
#
# Bulk Modulus (GPa) = 41.48335 49.78018 45.63176
# Shear Modulus (GPa) = 13.08620 22.48856 17.78738
#
# Velocity S-wave (km/s) = 2.60155 3.41041 3.03307
# Velocity P-wave (km/s) = 5.52078 6.42291 5.98886
#
# Compressibility (1/GPa) = 0.02410606
#
# Stress axis : x y z
#
# Youngs Moduli (GPa) = 74.42269 48.52108 80.01574
#
# Poissons Ratio (x) = 0.26990 0.28667
# Poissons Ratio (y) = 0.41397 0.16593
# Poissons Ratio (z) = 0.26664 0.10062
#
# Static dielectric constant tensor:
#      x y z
#    x 3.617940 0.000000 0.176890 
#    y 0.000000 3.473960 0.000000 
#    z 0.176890 0.000000 3.744520 
# 
# 
# High freq. dielectric constant tensor:
#      x y z
#    x 1.750860 0.000000 0.002240 
#    y 0.000000 1.737750 0.000000 
#    z 0.002240 0.000000 1.755380 
# 
# From -- ./inp_files/4279.got.cif
#   From: 2010.03.12/outbox.cif.g09.slc.cpg/sg6_3_cif.got.tgz:4279.got - 2010.03.30 10:24:59.
