data_PCOD8052631
_publ_section_title
;
Structure prediction by ZEFSAII (Michael W. Deem and Ramdas Pophale) SiO2 
 PCOD8052631
Probable space group: P C
;
_chemical_formula_sum "Si O2"
_cell_formula_units_Z 16
_cell_length_a 8.920652
_cell_length_b 18.059599
_cell_length_c 5.105755
_cell_angle_alpha 90.000000
_cell_angle_beta 118.226759
_cell_angle_gamma 90.000000
_cell_volume 724.738488
_symmetry_space_group_name_H-M "P C"
_symmetry_group_IT_number 7
_symmetry_cell_setting 'monoclinic'
loop_
_space_group_symop_operation_xyz
x,y,z
x,-y,1/2+z
loop_
_atom_site_type_symbol
_atom_site_label
_atom_site_fract_x
_atom_site_fract_y
_atom_site_fract_z
Si Si1 0.302820 0.287985 0.060020
Si Si2 0.662506 0.341449 0.354868
Si Si3 0.958480 0.671135 0.491943
Si Si4 0.756589 0.210897 0.079984
Si Si5 0.866725 0.549369 0.756148
Si Si6 0.267395 0.955832 0.057480
Si Si7 0.391262 0.795822 0.120064
Si Si8 0.866087 0.954134 0.737622
O O1 0.462199 0.342027 0.263180
O O2 0.303552 0.220634 0.269579
O O3 0.313485 0.259016 0.773761
O O4 0.123664 0.330328 0.942866
O O5 0.790481 0.359908 0.701202
O O6 0.714157 0.259288 0.300831
O O7 0.688407 0.404730 0.149285
O O8 0.919309 0.754473 0.563552
O O9 0.993899 0.615789 0.768473
O O10 0.593190 0.215709 0.754621
O O11 0.787567 0.127251 0.194495
O O12 0.891863 0.514062 0.061956
O O13 0.066945 0.943994 0.905889
O O14 0.327921 0.987772 0.830769
O O15 0.358178 0.878724 0.184171
O O16 0.802327 0.996350 0.426698
#
# Coordination Sequence:
#
# PCOD8052631 Si02
#       8
#     2   2   2   2   2   2   2   2
#     4  11  25  40  65  99 128 163 221 265 320 379
#     4  10  23  44  67 100 131 170 216 268 319 385
#     4  11  23  42  73  95 133 174 212 271 321 379
#     4  10  23  39  64  93 128 166 223 270 327 384
#     4  11  23  43  71 100 136 175 211 258 322 384
#     4  10  21  37  54  80 120 163 212 265 328 391
#     4  11  23  40  60  91 126 163 215 279 321 386
#     4  10  23  37  56  86 122 166 216 268 324 390
#
# _framework density 22.076929
#
# number of rings (size 3 to 8) (size 9 to 14) (size 15 to 20)
#    0.000    1.500    2.500    1.500    7.000    2.000 
#    0.000    1.250    0.000    0.000    0.000    0.000 
#    0.000    0.000    0.000    0.000    0.000    0.000 
#
# Total GULP energy -198284.695093 kJ/mol
# GULP energy per Si atom -12392.793443 kJ/mol
# Density = 2.202668 g / cm^3
# Si number density = 22.076929 Si / 1000 Ang^3
#
#
#
# Elastic Constant Matrix: (Units=GPa)
#
#
# Indices 1 2 3 4 5 6 
#
# 1 106.5936 20.0939 18.0316 0.0000 1.2284 0.0000
# 2 20.0939 86.1540 5.9850 0.0000 -5.0224 0.0000
# 3 18.0316 5.9850 63.8000 0.0000 -14.6408 0.0000
# 4 0.0000 0.0000 0.0000 28.7494 0.0000 -11.9054
# 5 1.2284 -5.0224 -14.6408 0.0000 30.4197 0.0000
# 6 0.0000 0.0000 0.0000 -11.9054 0.0000 24.2409
#
#
#
# Elastic Compliance Matrix: (Units=1/GPa)
#
#
# Indices 1 2 3 4 5 6 
#
# 1 0.010402 -0.002338 -0.003266 0.000000 -0.002378 0.000000
# 2 -0.002338 0.012276 -0.000005 0.000000 0.002119 0.000000
# 3 -0.003266 -0.000005 0.018692 0.000000 0.009128 0.000000
# 4 0.000000 0.000000 0.000000 0.043664 0.000000 0.021445
# 5 -0.002378 0.002119 0.009128 0.000000 0.037712 0.000000
# 6 0.000000 0.000000 0.000000 0.021445 0.000000 0.051785
#
#
# Mechanical properties :
#
#
# Convention : Reuss Voigt Hill
#
# Bulk Modulus (GPa) = 33.16426 38.30761 35.73593
# Shear Modulus (GPa) = 25.53629 30.84446 28.19038
#
# Velocity S-wave (km/s) = 3.40471 3.74188 3.57727
# Velocity P-wave (km/s) = 5.52366 6.00487 5.76928
#
# Compressibility (1/GPa) = 0.03015294
#
# Stress axis : x y z
#
# Youngs Moduli (GPa) = 96.13469 81.45824 53.49839
#
# Poissons Ratio (x) = 0.19043 0.17474
# Poissons Ratio (y) = 0.22475 0.00025
# Poissons Ratio (z) = 0.31401 0.00038
#
# Static dielectric constant tensor:
#      x y z
#    x 4.046150 0.000000 -0.141790 
#    y 0.000000 4.009120 0.000000 
#    z -0.141790 0.000000 3.906440 
# 
# 
# High freq. dielectric constant tensor:
#      x y z
#    x 1.868560 0.000000 -0.020240 
#    y 0.000000 1.867940 0.000000 
#    z -0.020240 0.000000 1.857960 
# 
# From -- ./inp_files/863.got.cif
#   From: 2010.03.12/outbox.cif.g09.slc.cpg/sg7_cif.got.tgz:863.got - 2010.03.30 08:40:41.
