data_PCOD8052720
_publ_section_title
;
Structure prediction by ZEFSAII (Michael W. Deem and Ramdas Pophale) SiO2 
 PCOD8052720
Probable space group: C M
;
_chemical_formula_sum "Si O2"
_cell_formula_units_Z 32
_cell_length_a 23.044858
_cell_length_b 8.543989
_cell_length_c 11.468182
_cell_angle_alpha 90.000000
_cell_angle_beta 131.588495
_cell_angle_gamma 90.000000
_cell_volume 1688.849910
_symmetry_space_group_name_H-M "C M"
_symmetry_group_IT_number 8
_symmetry_cell_setting 'monoclinic'
loop_
_space_group_symop_operation_xyz
x,y,z
x,-y,z
1/2+x,1/2+y,z
1/2+x,1/2-y,z
loop_
_atom_site_type_symbol
_atom_site_label
_atom_site_fract_x
_atom_site_fract_y
_atom_site_fract_z
Si Si1 0.204350 0.319900 0.623030
Si Si2 0.539434 0.176997 0.283251
Si Si3 0.982835 0.680779 0.448810
Si Si4 0.636613 0.681968 0.751530
Si Si5 0.003089 0.818856 0.995802
Si Si6 0.065391 0.684085 0.864983
Si Si7 0.408458 0.683170 0.550648
Si Si8 0.348064 0.817548 0.689032
O O1 0.230013 0.500000 0.651452
O O2 0.123209 0.290723 0.450370
O O3 0.198279 0.268710 0.750407
O O4 0.267382 0.212784 0.644983
O O5 0.474661 0.204704 0.298675
O O6 0.523241 0.295689 0.157911
O O7 0.533620 0.000000 0.227935
O O8 0.004550 0.500000 0.503970
O O9 0.050869 0.791700 0.586618
O O10 0.905985 0.732635 0.419158
O O11 0.657112 0.500000 0.783619
O O12 0.638459 0.753997 0.885833
O O13 0.006386 0.000000 0.969118
O O14 0.916817 0.757030 0.856685
O O15 0.069441 0.729917 0.007149
O O16 0.056804 0.500000 0.837231
O O17 0.988824 0.773529 0.719889
O O18 0.398090 0.500000 0.518608
O O19 0.342145 0.745959 0.549939
O O20 0.364521 0.000000 0.700662
#
# Coordination Sequence:
#
# PCOD8052720 Si02
#       8
#     4   4   4   4   4   4   4   4
#     4  10  20  35  53  75 103 133 167 205 249 297
#     4   9  19  34  52  74 102 134 165 202 249 299
#     4   9  16  28  46  69  97 128 163 204 248 290
#     4  10  17  27  45  71  99 126 162 204 247 291
#     4  11  21  33  51  75 103 133 168 208 250 297
#     4  10  17  28  46  68  96 128 164 205 249 291
#     4  10  17  27  45  70  98 126 162 206 249 291
#     4  11  21  34  52  74 102 134 169 206 249 298
#
# _framework density 18.947806
#
# number of rings (size 3 to 8) (size 9 to 14) (size 15 to 20)
#    0.000    2.000    0.000   10.125    0.000    3.000 
#    0.000    0.000    0.000    1.500    0.000    3.500 
#    0.000    0.000    0.000    0.000    0.000    0.000 
#
# Total GULP energy -198315.405932 kJ/mol
# GULP energy per Si atom -12394.712871 kJ/mol
# Density = 1.890468 g / cm^3
# Si number density = 18.947806 Si / 1000 Ang^3
#
#
#
# Elastic Constant Matrix: (Units=GPa)
#
#
# Indices 1 2 3 4 5 6 
#
# 1 132.1783 31.1550 35.3169 0.0000 -35.8962 0.0000
# 2 31.1550 97.9863 25.5223 0.0000 -13.6100 0.0000
# 3 35.3169 25.5223 46.7675 0.0000 -24.5116 0.0000
# 4 0.0000 0.0000 0.0000 21.8669 0.0000 -7.7620
# 5 -35.8962 -13.6100 -24.5116 0.0000 29.0398 0.0000
# 6 0.0000 0.0000 0.0000 -7.7620 0.0000 35.3740
#
#
#
# Elastic Compliance Matrix: (Units=1/GPa)
#
#
# Indices 1 2 3 4 5 6 
#
# 1 0.011733 -0.001624 -0.001384 0.000000 0.012574 0.000000
# 2 -0.001624 0.012122 -0.006211 0.000000 -0.001568 0.000000
# 3 -0.001384 -0.006211 0.041955 0.000000 0.030791 0.000000
# 4 0.000000 0.000000 0.000000 0.049594 0.000000 0.010882
# 5 0.012574 -0.001568 0.030791 0.000000 0.075233 0.000000
# 6 0.000000 0.000000 0.000000 0.010882 0.000000 0.030657
#
#
# Mechanical properties :
#
#
# Convention : Reuss Voigt Hill
#
# Bulk Modulus (GPa) = 21.10930 51.21339 36.16135
# Shear Modulus (GPa) = 19.56781 29.58536 24.57658
#
# Velocity S-wave (km/s) = 3.21708 3.95576 3.60539
# Velocity P-wave (km/s) = 4.99644 6.92469 6.03804
#
# Compressibility (1/GPa) = 0.04737248
#
# Stress axis : x y z
#
# Youngs Moduli (GPa) = 85.23192 82.49693 23.83490
#
# Poissons Ratio (x) = 0.13393 0.03299
# Poissons Ratio (y) = 0.13837 0.14804
# Poissons Ratio (z) = 0.11796 0.51240
#
# Static dielectric constant tensor:
#      x y z
#    x 4.092240 0.000000 -0.671310 
#    y 0.000000 3.464750 0.000000 
#    z -0.671310 0.000000 3.077550 
# 
# 
# High freq. dielectric constant tensor:
#      x y z
#    x 1.748430 0.000000 -0.048820 
#    y 0.000000 1.752070 0.000000 
#    z -0.048820 0.000000 1.673690 
# 
# From -- ./inp_files/23750.got.cif
#   From: 2010.03.12/outbox.cif.g09.slc.cpg/sg8_12_cif.got.tgz:23750.got - 2010.03.31 10:45:26.
