data_PCOD8052426
_publ_section_title
;
Structure prediction by ZEFSAII (Michael W. Deem and Ramdas Pophale) SiO2 
 PCOD8052426
Probable space group: P M
;
_chemical_formula_sum "Si O2"
_cell_formula_units_Z 16
_cell_length_a 15.858870
_cell_length_b 8.773469
_cell_length_c 19.999749
_cell_angle_alpha 90.000000
_cell_angle_beta 161.651003
_cell_angle_gamma 90.000000
_cell_volume 876.009303
_symmetry_space_group_name_H-M "P M"
_symmetry_group_IT_number 6
_symmetry_cell_setting 'monoclinic'
loop_
_space_group_symop_operation_xyz
x,y,z
x,-y,z
loop_
_atom_site_type_symbol
_atom_site_label
_atom_site_fract_x
_atom_site_fract_y
_atom_site_fract_z
Si Si1 0.366180 0.178351 0.681110
Si Si2 0.805128 0.180838 0.905106
Si Si3 0.816413 0.320538 0.772994
Si Si4 0.368329 0.320693 0.328924
Si Si5 0.400107 0.823970 0.858460
Si Si6 0.788500 0.822781 0.391191
Si Si7 0.804635 0.678040 0.262856
Si Si8 0.379927 0.180815 0.197026
O O1 0.595649 0.233874 0.803536
O O2 0.457538 0.220653 0.824766
O O3 0.088436 0.256679 0.452366
O O4 0.312812 0.000000 0.635338
O O5 0.717989 0.259160 0.770401
O O6 0.810215 0.000000 0.899582
O O7 0.096710 0.237695 0.147164
O O8 0.869751 0.500000 0.817545
O O9 0.592362 0.277812 0.550952
O O10 0.087379 0.236678 0.954405
O O11 0.315450 0.500000 0.284727
O O12 0.466152 0.259469 0.331025
O O13 0.090505 0.788847 0.642032
O O14 0.469956 0.000000 0.924702
O O15 0.580038 0.719119 0.040112
O O16 0.715226 0.738418 0.267765
O O17 0.590487 0.765175 0.299845
O O18 0.749227 0.000000 0.346669
O O19 0.833478 0.500000 0.289309
O O20 0.379107 0.000000 0.206114
#
# Coordination Sequence:
#
# PCOD8052426 Si02
#       8
#     2   2   2   2   2   2   2   2
#     4   9  20  38  57  77 103 138 177 216 260 307
#     4  10  20  35  57  81 103 133 177 223 260 301
#     4  10  21  36  53  77 110 144 173 207 260 317
#     4  10  21  36  53  75 108 144 173 209 260 315
#     4   9  18  36  57  75 103 139 173 213 260 310
#     4   9  20  38  57  77 103 138 177 216 260 307
#     4  11  22  34  53  81 109 137 171 213 260 312
#     4  10  20  35  57  81 103 133 177 223 260 301
#
# _framework density 18.264647
#
# number of rings (size 3 to 8) (size 9 to 14) (size 15 to 20)
#    0.000    2.250    0.000    4.875    0.000    8.000 
#    0.000    7.500    0.000    0.000    0.000    0.000 
#    0.000    0.000    0.000    0.000    0.000    0.000 
#
# Total GULP energy -198444.280885 kJ/mol
# GULP energy per Si atom -12402.767555 kJ/mol
# Density = 1.822308 g / cm^3
# Si number density = 18.264647 Si / 1000 Ang^3
#
#
#
# Elastic Constant Matrix: (Units=GPa)
#
#
# Indices 1 2 3 4 5 6 
#
# 1 143.1835 23.5142 72.1886 0.0000 21.1011 0.0000
# 2 23.5142 39.5419 25.0799 0.0000 -1.8129 0.0000
# 3 72.1886 25.0799 117.6841 0.0000 -12.3348 0.0000
# 4 0.0000 0.0000 0.0000 28.0983 0.0000 -6.7667
# 5 21.1011 -1.8129 -12.3348 0.0000 27.2525 0.0000
# 6 0.0000 0.0000 0.0000 -6.7667 0.0000 17.4962
#
#
#
# Elastic Compliance Matrix: (Units=1/GPa)
#
#
# Indices 1 2 3 4 5 6 
#
# 1 0.015217 -0.003219 -0.010399 0.000000 -0.016703 0.000000
# 2 -0.003219 0.029945 -0.004133 0.000000 0.002614 0.000000
# 3 -0.010399 -0.004133 0.017397 0.000000 0.015651 0.000000
# 4 0.000000 0.000000 0.000000 0.039244 0.000000 0.015178
# 5 -0.016703 0.002614 0.015651 0.000000 0.056884 0.000000
# 6 0.000000 0.000000 0.000000 0.015178 0.000000 0.063025
#
#
# Mechanical properties :
#
#
# Convention : Reuss Voigt Hill
#
# Bulk Modulus (GPa) = 36.95859 60.21944 48.58902
# Shear Modulus (GPa) = 18.78038 26.54454 22.66246
#
# Velocity S-wave (km/s) = 3.21009 3.81639 3.52630
# Velocity P-wave (km/s) = 5.83254 7.24306 6.57573
#
# Compressibility (1/GPa) = 0.02705731
#
# Stress axis : x y z
#
# Youngs Moduli (GPa) = 65.71549 33.39429 57.47986
#
# Poissons Ratio (x) = 0.10750 0.59773
# Poissons Ratio (y) = 0.21155 0.23757
# Poissons Ratio (z) = 0.68337 0.13802
#
# Static dielectric constant tensor:
#      x y z
#    x 3.688740 0.000000 0.120820 
#    y 0.000000 3.360870 0.000000 
#    z 0.120820 0.000000 3.357260 
# 
# 
# High freq. dielectric constant tensor:
#      x y z
#    x 1.712820 0.000000 0.000920 
#    y 0.000000 1.713450 0.000000 
#    z 0.000920 0.000000 1.710080 
# 
# From -- ./inp_files/5857.got.cif
#   From: 2010.03.12/outbox.cif.g09.slc.cpg/sg6_3_cif.got.tgz:5857.got - 2010.03.30 10:24:59.
