data_PCOD8052280
_publ_section_title
;
Structure prediction by ZEFSAII (Michael W. Deem and Ramdas Pophale) SiO2 
 PCOD8052280
Probable space group: P M
;
_chemical_formula_sum "Si O2"
_cell_formula_units_Z 16
_cell_length_a 12.309654
_cell_length_b 8.537033
_cell_length_c 10.289284
_cell_angle_alpha 90.000000
_cell_angle_beta 51.780830
_cell_angle_gamma 90.000000
_cell_volume 849.507160
_symmetry_space_group_name_H-M "P M"
_symmetry_group_IT_number 6
_symmetry_cell_setting 'monoclinic'
loop_
_space_group_symop_operation_xyz
x,y,z
x,-y,z
loop_
_atom_site_type_symbol
_atom_site_label
_atom_site_fract_x
_atom_site_fract_y
_atom_site_fract_z
Si Si1 0.968490 0.318216 0.076010
Si Si2 0.666474 0.684370 0.290727
Si Si3 0.674397 0.683911 0.580364
Si Si4 0.403246 0.818604 0.872502
Si Si5 0.250754 0.318163 0.744412
Si Si6 0.390324 0.314547 0.377947
Si Si7 0.244079 0.684220 0.230159
Si Si8 0.965052 0.182114 0.356420
O O1 0.963116 0.500000 0.123197
O O2 0.819492 0.268797 0.125262
O O3 0.001047 0.219511 0.180192
O O4 0.086957 0.286875 0.882499
O O5 0.647100 0.500000 0.305627
O O6 0.651336 0.743585 0.449876
O O7 0.544377 0.756284 0.291668
O O8 0.650529 0.500000 0.612908
O O9 0.564953 0.772762 0.752762
O O10 0.830060 0.726309 0.507658
O O11 0.338337 0.782620 0.780518
O O12 0.385402 0.000000 0.919588
O O13 0.325142 0.717955 0.038134
O O14 0.287917 0.500000 0.740670
O O15 0.289628 0.265362 0.570576
O O16 0.398311 0.500000 0.360198
O O17 0.331583 0.246576 0.286813
O O18 0.219802 0.500000 0.260510
O O19 0.095527 0.767194 0.345794
O O20 0.936747 0.000000 0.393767
#
# Coordination Sequence:
#
# PCOD8052280 Si02
#       8
#     2   2   2   2   2   2   2   2
#     4   9  17  29  53  82 109 141 181 225 279 333
#     4   8  14  28  51  81 108 134 173 226 276 321
#     4  10  19  35  60  84 110 142 184 233 283 336
#     4  12  23  35  54  84 116 147 188 236 284 330
#     4  10  18  33  56  82 110 142 186 236 281 326
#     4   9  18  33  55  81 109 144 189 236 275 327
#     4  11  22  37  56  79 113 157 199 231 272 332
#     4  11  21  34  53  81 117 147 184 233 284 333
#
# _framework density 18.834451000000001
#
# number of rings (size 3 to 8) (size 9 to 14) (size 15 to 20)
#    0.000    2.000    2.500    3.750    0.000    0.000 
#    0.000    2.500    0.000    4.500    0.000    0.000 
#    0.000    0.000    0.000    0.000    0.000    0.000 
#
# Total GULP energy -198381.482861 kJ/mol
# GULP energy per Si atom -12398.842679 kJ/mol
# Density = 1.879158 g / cm^3
# Si number density = 18.834451 Si / 1000 Ang^3
#
#
#
# Elastic Constant Matrix: (Units=GPa)
#
#
# Indices 1 2 3 4 5 6 
#
# 1 128.9421 14.9286 46.0943 0.0000 -19.4874 0.0000
# 2 14.9286 46.5269 9.7305 0.0000 -1.3739 0.0000
# 3 46.0943 9.7305 83.5324 0.0000 -21.8902 0.0000
# 4 0.0000 0.0000 0.0000 14.8897 0.0000 -7.9608
# 5 -19.4874 -1.3739 -21.8902 0.0000 33.2322 0.0000
# 6 0.0000 0.0000 0.0000 -7.9608 0.0000 12.9685
#
#
#
# Elastic Compliance Matrix: (Units=1/GPa)
#
#
# Indices 1 2 3 4 5 6 
#
# 1 0.010064 -0.002192 -0.004563 0.000000 0.002805 0.000000
# 2 -0.002192 0.022532 -0.001822 0.000000 -0.001554 0.000000
# 3 -0.004563 -0.001822 0.016898 0.000000 0.008379 0.000000
# 4 0.000000 0.000000 0.000000 0.099971 0.000000 0.061367
# 5 0.002805 -0.001554 0.008379 0.000000 0.037192 0.000000
# 6 0.000000 0.000000 0.000000 0.061367 0.000000 0.114780
#
#
# Mechanical properties :
#
#
# Convention : Reuss Voigt Hill
#
# Bulk Modulus (GPa) = 30.92310 44.50092 37.71201
# Shear Modulus (GPa) = 15.18046 24.76796 19.97421
#
# Velocity S-wave (km/s) = 2.84208 3.63028 3.26009
# Velocity P-wave (km/s) = 5.21766 6.42266 5.85126
#
# Compressibility (1/GPa) = 0.03233828
#
# Stress axis : x y z
#
# Youngs Moduli (GPa) = 99.35963 44.38229 59.18021
#
# Poissons Ratio (x) = 0.09729 0.27005
# Poissons Ratio (y) = 0.21781 0.10785
# Poissons Ratio (z) = 0.45340 0.08088
#
# Static dielectric constant tensor:
#      x y z
#    x 3.713710 0.000000 -0.301400 
#    y 0.000000 3.181250 0.000000 
#    z -0.301400 0.000000 3.506770 
# 
# 
# High freq. dielectric constant tensor:
#      x y z
#    x 1.722920 0.000000 -0.030710 
#    y 0.000000 1.707280 0.000000 
#    z -0.030710 0.000000 1.727060 
# 
# From -- ./inp_files/5053.got.cif
#   From: 2010.03.12/outbox.cif.g09.slc.cpg/sg6_3_cif.got.tgz:5053.got - 2010.03.30 10:24:59.
