data_PCOD8052451
_publ_section_title
;
Structure prediction by ZEFSAII (Michael W. Deem and Ramdas Pophale) SiO2 
 PCOD8052451
Probable space group: P M
;
_chemical_formula_sum "Si O2"
_cell_formula_units_Z 16
_cell_length_a 9.216047
_cell_length_b 8.457946
_cell_length_c 11.215288
_cell_angle_alpha 90.000000
_cell_angle_beta 114.140619
_cell_angle_gamma 90.000000
_cell_volume 797.763305
_symmetry_space_group_name_H-M "P M"
_symmetry_group_IT_number 6
_symmetry_cell_setting 'monoclinic'
loop_
_space_group_symop_operation_xyz
x,y,z
x,-y,z
loop_
_atom_site_type_symbol
_atom_site_label
_atom_site_fract_x
_atom_site_fract_y
_atom_site_fract_z
Si Si1 0.016690 0.312134 0.439830
Si Si2 0.314377 0.313235 0.680581
Si Si3 0.459716 0.315338 0.973522
Si Si4 0.766978 0.817716 0.963684
Si Si5 0.644190 0.314943 0.690479
Si Si6 0.683994 0.313986 0.432028
Si Si7 0.383317 0.181809 0.200053
Si Si8 0.064554 0.315921 0.187529
O O1 0.024112 0.500000 0.448325
O O2 0.152759 0.239112 0.572424
O O3 0.048141 0.252341 0.316831
O O4 0.845297 0.252441 0.425250
O O5 0.301685 0.500000 0.672584
O O6 0.343890 0.259759 0.826906
O O7 0.462242 0.258903 0.648302
O O8 0.440956 0.500000 0.996617
O O9 0.642317 0.285049 0.998293
O O10 0.411174 0.214470 0.070702
O O11 0.757651 0.776821 0.820394
O O12 0.727184 0.000000 0.971245
O O13 0.944883 0.780619 0.064447
O O14 0.661357 0.500000 0.723631
O O15 0.697330 0.272584 0.575589
O O16 0.655669 0.500000 0.401834
O O17 0.541542 0.218591 0.326199
O O18 0.242926 0.290163 0.202798
O O19 0.336943 0.000000 0.201781
O O20 0.022319 0.500000 0.165723
#
# Coordination Sequence:
#
# PCOD8052451 Si02
#       8
#     2   2   2   2   2   2   2   2
#     4   9  18  33  57  87 112 138 182 239 288 332
#     4   8  15  30  53  82 112 142 182 232 278 326
#     4  10  20  37  61  86 114 152 196 236 283 348
#     4  11  22  37  58  86 121 154 188 237 295 346
#     4   9  18  34  57  83 114 154 197 236 279 339
#     4  10  20  36  60  87 114 148 193 241 288 345
#     4  12  25  39  56  82 117 152 191 244 303 351
#     4  11  22  38  60  83 112 152 197 241 288 349
#
# _framework density 20.056073000000001
#
# number of rings (size 3 to 8) (size 9 to 14) (size 15 to 20)
#    0.000    2.000    0.000    5.250    0.000    4.500 
#    0.000    3.125    0.000    6.000    0.000    0.000 
#    0.000    0.000    0.000    0.000    0.000    0.000 
#
# Total GULP energy -198447.279236 kJ/mol
# GULP energy per Si atom -12402.954952 kJ/mol
# Density = 2.001042 g / cm^3
# Si number density = 20.056073 Si / 1000 Ang^3
#
#
#
# Elastic Constant Matrix: (Units=GPa)
#
#
# Indices 1 2 3 4 5 6 
#
# 1 111.1951 7.7585 70.2486 0.0000 0.1551 0.0000
# 2 7.7585 51.2873 28.0773 0.0000 -1.5281 0.0000
# 3 70.2486 28.0773 136.0917 0.0000 6.8963 0.0000
# 4 0.0000 0.0000 0.0000 15.3646 0.0000 -0.5426
# 5 0.1551 -1.5281 6.8963 0.0000 40.5038 0.0000
# 6 0.0000 0.0000 0.0000 -0.5426 0.0000 18.7014
#
#
#
# Elastic Compliance Matrix: (Units=1/GPa)
#
#
# Indices 1 2 3 4 5 6 
#
# 1 0.013593 0.002097 -0.007515 0.000000 0.001307 0.000000
# 2 0.002097 0.022409 -0.005798 0.000000 0.001825 0.000000
# 3 -0.007515 -0.005798 0.012541 0.000000 -0.002325 0.000000
# 4 0.000000 0.000000 0.000000 0.065151 0.000000 0.001890
# 5 0.001307 0.001825 -0.002325 0.000000 0.025149 0.000000
# 6 0.000000 0.000000 0.000000 0.001890 0.000000 0.053527
#
#
# Mechanical properties :
#
#
# Convention : Reuss Voigt Hill
#
# Bulk Modulus (GPa) = 38.29873 56.74921 47.52397
# Shear Modulus (GPa) = 22.37067 27.74663 25.05865
#
# Velocity S-wave (km/s) = 3.34339 3.72351 3.53856
# Velocity P-wave (km/s) = 5.83452 6.84418 6.35942
#
# Compressibility (1/GPa) = 0.02611052
#
# Stress axis : x y z
#
# Youngs Moduli (GPa) = 73.56759 44.62420 79.73626
#
# Poissons Ratio (x) = -0.09357 0.59924
# Poissons Ratio (y) = -0.15427 0.46233
# Poissons Ratio (z) = 0.55288 0.25874
#
# Static dielectric constant tensor:
#      x y z
#    x 3.680680 0.000000 0.026470 
#    y 0.000000 3.301680 0.000000 
#    z 0.026470 0.000000 3.875740 
# 
# 
# High freq. dielectric constant tensor:
#      x y z
#    x 1.782210 0.000000 -0.000560 
#    y 0.000000 1.755020 0.000000 
#    z -0.000560 0.000000 1.798240 
# 
# From -- ./inp_files/4543.got.cif
#   From: 2010.03.12/outbox.cif.g09.slc.cpg/sg6_3_cif.got.tgz:4543.got - 2010.03.30 10:24:59.
