data_PCOD8052320
_publ_section_title
;
Structure prediction by ZEFSAII (Michael W. Deem and Ramdas Pophale) SiO2 
 PCOD8052320
Probable space group: P M
;
_chemical_formula_sum "Si O2"
_cell_formula_units_Z 16
_cell_length_a 5.134287
_cell_length_b 8.324140
_cell_length_c 20.602500
_cell_angle_alpha 90.000000
_cell_angle_beta 120.235772
_cell_angle_gamma 90.000000
_cell_volume 760.734946
_symmetry_space_group_name_H-M "P M"
_symmetry_group_IT_number 6
_symmetry_cell_setting 'monoclinic'
loop_
_space_group_symop_operation_xyz
x,y,z
x,-y,z
loop_
_atom_site_type_symbol
_atom_site_label
_atom_site_fract_x
_atom_site_fract_y
_atom_site_fract_z
Si Si1 0.625000 0.191991 0.310290
Si Si2 0.302445 0.191055 0.397610
Si Si3 0.195254 0.685575 0.887620
Si Si4 0.575540 0.187281 0.566724
Si Si5 0.253951 0.809719 0.141859
Si Si6 0.568512 0.190581 0.051385
Si Si7 0.543384 0.187148 0.809302
Si Si8 0.236058 0.313972 0.646432
O O1 0.478871 0.259750 0.357789
O O2 0.443088 0.261786 0.225796
O O3 0.964007 0.257865 0.350870
O O4 0.617679 0.000000 0.308653
O O5 0.464888 0.252084 0.483112
O O6 0.302478 0.000000 0.396492
O O7 0.106016 0.500000 0.877432
O O8 0.329912 0.727889 0.834660
O O9 0.896368 0.785872 0.867380
O O10 0.446919 0.723264 0.972405
O O11 0.389483 0.284566 0.596598
O O12 0.931416 0.213517 0.617235
O O13 0.502616 0.000000 0.566854
O O14 0.385953 0.746055 0.090659
O O15 0.910852 0.753663 0.104830
O O16 0.280756 0.000000 0.146846
O O17 0.542745 0.000000 0.038534
O O18 0.473722 0.259094 0.730236
O O19 0.470954 0.000000 0.802492
O O20 0.157252 0.500000 0.644388
#
# Coordination Sequence:
#
# PCOD8052320 Si02
#       8
#     2   2   2   2   2   2   2   2
#     4   9  15  26  44  75 113 147 182 237 300 342
#     4   9  17  28  48  77 112 146 186 239 294 342
#     4  12  25  42  63  91 123 158 197 244 296 354
#     4  11  22  39  61  89 121 159 202 247 296 354
#     4   9  17  28  48  77 112 147 188 239 292 342
#     4  10  19  33  52  79 112 151 193 238 288 346
#     4  12  25  44  67  91 119 156 197 244 296 354
#     4  12  25  42  62  89 122 158 197 244 296 354
#
# _framework density 21.032291000000001
#
# number of rings (size 3 to 8) (size 9 to 14) (size 15 to 20)
#    0.000    1.500    0.000    6.750    0.000    6.000 
#    0.000    0.000    0.000    0.000    0.000   17.500 
#    0.000    0.000    0.000    0.000    0.000    0.000 
#
# Total GULP energy -198486.294546 kJ/mol
# GULP energy per Si atom -12405.393409 kJ/mol
# Density = 2.098442 g / cm^3
# Si number density = 21.032291 Si / 1000 Ang^3
#
#
#
# Elastic Constant Matrix: (Units=GPa)
#
#
# Indices 1 2 3 4 5 6 
#
# 1 117.0470 12.0686 16.0906 0.0000 2.3428 0.0000
# 2 12.0686 46.8406 29.3788 0.0000 -4.2826 0.0000
# 3 16.0906 29.3788 105.5196 0.0000 -1.1710 0.0000
# 4 0.0000 0.0000 0.0000 0.5342 0.0000 -7.0426
# 5 2.3428 -4.2826 -1.1710 0.0000 36.6413 0.0000
# 6 0.0000 0.0000 0.0000 -7.0426 0.0000 20.9181
#
#
#
# Elastic Compliance Matrix: (Units=1/GPa)
#
#
# Indices 1 2 3 4 5 6 
#
# 1 0.008865 -0.001823 -0.000853 0.000000 -0.000807 0.000000
# 2 -0.001823 0.026530 -0.007075 0.000000 0.002991 0.000000
# 3 -0.000853 -0.007075 0.011572 0.000000 -0.000403 0.000000
# 4 0.000000 0.000000 0.000000 -0.544418 0.000000 -0.183290
# 5 -0.000807 0.002991 -0.000403 0.000000 0.027680 0.000000
# 6 0.000000 0.000000 0.000000 -0.183290 0.000000 -0.013903
#
#
# Mechanical properties :
#
#
# Convention : Reuss Voigt Hill
#
# Bulk Modulus (GPa) = 36.41040 42.72035 39.56538
# Shear Modulus (GPa) = -10.98862 25.74334 7.37736
#
# Velocity S-wave (km/s) = -2.28823 3.50235 1.87490
# Velocity P-wave (km/s) = 3.21993 6.05898 4.85176
#
# Compressibility (1/GPa) = 0.02746468
#
# Stress axis : x y z
#
# Youngs Moduli (GPa) = 112.80353 37.69347 86.41200
#
# Poissons Ratio (x) = 0.06870 0.07374
# Poissons Ratio (y) = 0.20560 0.61139
# Poissons Ratio (z) = 0.09626 0.26669
#
# Static dielectric constant tensor:
#      x y z
#    x 3.992680 0.000000 -0.032500 
#    y 0.000000 3.385280 0.000000 
#    z -0.032500 0.000000 4.009980 
# 
# 
# High freq. dielectric constant tensor:
#      x y z
#    x 1.840780 0.000000 -0.001050 
#    y 0.000000 1.785410 0.000000 
#    z -0.001050 0.000000 1.842130 
# 
# From -- ./inp_files/5887.got.cif
#   From: 2010.03.12/outbox.cif.g09.slc.cpg/sg6_3_cif.got.tgz:5887.got - 2010.03.30 10:24:59.
