data_PCOD8052762
_publ_section_title
;
Structure prediction by ZEFSAII (Michael W. Deem and Ramdas Pophale) SiO2 
 PCOD8052762
Probable space group: C M
;
_chemical_formula_sum "Si O2"
_cell_formula_units_Z 32
_cell_length_a 25.015814
_cell_length_b 9.209533
_cell_length_c 22.081204
_cell_angle_alpha 90.000000
_cell_angle_beta 157.666045
_cell_angle_gamma 90.000000
_cell_volume 1933.141388
_symmetry_space_group_name_H-M "C M"
_symmetry_group_IT_number 8
_symmetry_cell_setting 'monoclinic'
loop_
_space_group_symop_operation_xyz
x,y,z
x,-y,z
1/2+x,1/2+y,z
1/2+x,1/2-y,z
loop_
_atom_site_type_symbol
_atom_site_label
_atom_site_fract_x
_atom_site_fract_y
_atom_site_fract_z
Si Si1 0.522860 0.669325 0.904190
Si Si2 0.218596 0.161046 0.770395
Si Si3 0.922970 0.161451 0.503066
Si Si4 0.266186 0.831264 0.686283
Si Si5 0.202252 0.334042 0.996398
Si Si6 0.947462 0.834615 0.339963
Si Si7 0.772584 0.331369 0.251985
Si Si8 0.141086 0.670468 0.796968
O O1 0.505308 0.500000 0.873973
O O2 0.370893 0.738127 0.755499
O O3 0.591624 0.736801 0.916648
O O4 0.618553 0.700740 0.063583
O O5 0.278790 0.219147 0.769838
O O6 0.250884 0.268835 0.860800
O O7 0.048303 0.150676 0.584267
O O8 0.278506 0.000000 0.847804
O O9 0.790611 0.243928 0.334000
O O10 0.987710 0.252381 0.627621
O O11 0.876064 0.000000 0.475011
O O12 0.110349 0.802092 0.497167
O O13 0.305910 0.000000 0.722646
O O14 0.152329 0.500000 0.951184
O O15 0.201842 0.287300 0.925884
O O16 0.360767 0.312649 0.186760
O O17 0.889618 0.720273 0.327408
O O18 0.926583 0.000000 0.342058
O O19 0.796884 0.500000 0.290586
O O20 0.122901 0.500000 0.768716
#
# Coordination Sequence:
#
# PCOD8052762 Si02
#       8
#     4   4   4   4   4   4   4   4
#     4  10  22  33  45  69 101 130 157 193 237 281
#     4   8  16  28  45  71  94 119 154 191 234 279
#     4   9  16  27  45  69  93 119 150 188 233 277
#     4  10  18  31  49  70  95 125 159 193 236 287
#     4   9  18  32  50  72  96 126 161 195 233 278
#     4   9  16  29  49  69  92 122 159 197 231 278
#     4  10  18  29  45  69  96 121 154 197 240 278
#     4   9  16  27  46  73  97 120 156 198 236 274
#
# _framework density 16.553367999999999
#
# number of rings (size 3 to 8) (size 9 to 14) (size 15 to 20)
#    0.750    2.000    1.250    1.125    0.000    3.500 
#    0.000    0.000    0.000    1.500    0.000    7.000 
#    0.000    0.000    0.000    0.000    0.000    0.000 
#
# Total GULP energy -198270.963624 kJ/mol
# GULP energy per Si atom -12391.935227 kJ/mol
# Density = 1.651569 g / cm^3
# Si number density = 16.553368 Si / 1000 Ang^3
#
#
#
# Elastic Constant Matrix: (Units=GPa)
#
#
# Indices 1 2 3 4 5 6 
#
# 1 80.4374 46.6117 47.6323 0.0003 -10.7022 0.0001
# 2 46.6117 96.5081 47.9678 0.0007 -9.1670 0.0003
# 3 47.6323 47.9678 80.5984 0.0009 -6.4724 0.0005
# 4 0.0003 0.0007 0.0009 22.4432 0.0005 -1.6752
# 5 -10.7022 -9.1670 -6.4724 0.0005 28.9179 0.0002
# 6 0.0001 0.0003 0.0005 -1.6752 0.0002 25.4961
#
#
#
# Elastic Compliance Matrix: (Units=1/GPa)
#
#
# Indices 1 2 3 4 5 6 
#
# 1 0.021590 -0.005473 -0.009164 0.000000 0.004204 0.000000
# 2 -0.005473 0.016321 -0.006340 0.000000 0.001729 0.000000
# 3 -0.009164 -0.006340 0.021550 -0.000001 -0.000578 0.000000
# 4 0.000000 0.000000 -0.000001 0.044776 -0.000001 0.002942
# 5 0.004204 0.001729 -0.000578 -0.000001 0.036555 0.000000
# 6 0.000000 0.000000 0.000000 0.002942 0.000000 0.039415
#
#
# Mechanical properties :
#
#
# Convention : Reuss Voigt Hill
#
# Bulk Modulus (GPa) = 57.12398 60.21862 58.67130
# Shear Modulus (GPa) = 21.93021 23.06026 22.49524
#
# Velocity S-wave (km/s) = 3.64375 3.73646 3.69040
# Velocity P-wave (km/s) = 7.23094 7.42107 7.32662
#
# Compressibility (1/GPa) = 0.01750578
#
# Stress axis : x y z
#
# Youngs Moduli (GPa) = 46.31845 61.27236 46.40435
#
# Poissons Ratio (x) = 0.33536 0.42526
# Poissons Ratio (y) = 0.25351 0.29419
# Poissons Ratio (z) = 0.42447 0.38845
#
# Static dielectric constant tensor:
#      x y z
#    x 2.785670 0.000000 -0.184690 
#    y 0.000000 3.154040 0.000000 
#    z -0.184690 0.000000 3.024370 
# 
# 
# High freq. dielectric constant tensor:
#      x y z
#    x 1.602010 0.000000 -0.019920 
#    y 0.000000 1.646230 0.000000 
#    z -0.019920 0.000000 1.620310 
# 
# From -- ./inp_files/32616.got.cif
#   From: 2010.03.12/outbox.cif.g09.slc.cpg/sg8_17_cif.got.tgz:32616.got - 2010.03.31 10:45:26.
