data_PCOD8052333
_publ_section_title
;
Structure prediction by ZEFSAII (Michael W. Deem and Ramdas Pophale) SiO2 
 PCOD8052333
Probable space group: P M
;
_chemical_formula_sum "Si O2"
_cell_formula_units_Z 16
_cell_length_a 9.890422
_cell_length_b 17.159779
_cell_length_c 8.605179
_cell_angle_alpha 90.000000
_cell_angle_beta 30.633213
_cell_angle_gamma 90.000000
_cell_volume 744.157639
_symmetry_space_group_name_H-M "P M"
_symmetry_group_IT_number 6
_symmetry_cell_setting 'monoclinic'
loop_
_space_group_symop_operation_xyz
x,y,z
x,-y,z
loop_
_atom_site_type_symbol
_atom_site_label
_atom_site_fract_x
_atom_site_fract_y
_atom_site_fract_z
Si Si1 0.992590 0.848771 0.597540
Si Si2 0.309310 0.586958 0.836571
Si Si3 0.824612 0.680614 0.691569
Si Si4 0.498490 0.911063 0.253015
Si Si5 0.177402 0.089930 0.085845
Si Si6 0.324167 0.413691 0.190677
Si Si7 0.806638 0.317406 0.340848
Si Si8 0.678343 0.144302 0.408968
O O1 0.890666 0.760616 0.712166
O O2 0.245585 0.858737 0.458708
O O3 0.082698 0.868591 0.335357
O O4 0.745009 0.902138 0.891577
O O5 0.268101 0.500000 0.808062
O O6 0.078681 0.645347 0.009915
O O7 0.323070 0.581388 0.007186
O O8 0.582842 0.622705 0.505218
O O9 0.814970 0.694965 0.517144
O O10 0.041513 0.617046 0.526853
O O11 0.546854 0.646841 0.028323
O O12 0.585027 0.889232 0.339043
O O13 0.403210 0.000000 0.341057
O O14 0.939706 0.096130 0.197640
O O15 0.248635 0.000000 0.045641
O O16 0.441942 0.134216 0.767507
O O17 0.374002 0.500000 0.210816
O O18 0.756884 0.234311 0.311300
#
# Coordination Sequence:
#
# PCOD8052333 Si02
#       8
#     2   2   2   2   2   2   2   2
#     4  12  25  42  65  92 123 165 205 259 315 364
#     4   9  17  29  50  83 123 158 189 238 304 358
#     4  10  19  33  55  85 120 155 198 251 296 357
#     4  12  26  45  63  88 126 165 210 259 310 374
#     4  12  24  41  65  92 120 157 208 258 318 375
#     4   9  17  29  50  83 123 158 189 238 304 358
#     4  10  19  33  55  85 120 155 198 251 296 357
#     4  12  25  42  65  92 123 165 205 258 315 365
#
# _framework density 21.500821999999999
#
# number of rings (size 3 to 8) (size 9 to 14) (size 15 to 20)
#    0.000    1.250    1.250    6.000    3.500    3.000 
#    0.000    0.000    0.000    0.000    0.000   17.500 
#    0.000    0.000    0.000    0.000    0.000    0.000 
#
# Total GULP energy -198457.386526 kJ/mol
# GULP energy per Si atom -12403.586658 kJ/mol
# Density = 2.145188 g / cm^3
# Si number density = 21.500822 Si / 1000 Ang^3
#
#
#
# Elastic Constant Matrix: (Units=GPa)
#
#
# Indices 1 2 3 4 5 6 
#
# 1 46.4410 25.2727 16.7008 0.0000 -13.1536 0.0000
# 2 25.2727 135.4187 32.5896 0.0000 -6.9922 0.0000
# 3 16.7008 32.5896 98.6562 0.0000 -25.9152 0.0000
# 4 0.0000 0.0000 0.0000 31.2598 0.0000 -15.5489
# 5 -13.1536 -6.9922 -25.9152 0.0000 32.2034 0.0000
# 6 0.0000 0.0000 0.0000 -15.5489 0.0000 22.4282
#
#
#
# Elastic Compliance Matrix: (Units=1/GPa)
#
#
# Indices 1 2 3 4 5 6 
#
# 1 0.026824 -0.004371 -0.000594 0.000000 0.009530 0.000000
# 2 -0.004371 0.008741 -0.002686 0.000000 -0.002049 0.000000
# 3 -0.000594 -0.002686 0.013831 0.000000 0.010304 0.000000
# 4 0.000000 0.000000 0.000000 0.048828 0.000000 0.033851
# 5 0.009530 -0.002049 0.010304 0.000000 0.042793 0.000000
# 6 0.000000 0.000000 0.000000 0.033851 0.000000 0.068055
#
#
# Mechanical properties :
#
#
# Convention : Reuss Voigt Hill
#
# Bulk Modulus (GPa) = 29.33014 47.73800 38.53407
# Shear Modulus (GPa) = 21.21016 30.90847 26.05932
#
# Velocity S-wave (km/s) = 3.14424 3.79561 3.48518
# Velocity P-wave (km/s) = 5.18196 6.43894 5.84434
#
# Compressibility (1/GPa) = 0.03409462
#
# Stress axis : x y z
#
# Youngs Moduli (GPa) = 37.28002 114.40592 72.30323
#
# Poissons Ratio (x) = 0.50009 0.04292
# Poissons Ratio (y) = 0.16296 0.19418
# Poissons Ratio (z) = 0.02213 0.30725
#
# Static dielectric constant tensor:
#      x y z
#    x 3.606880 0.000000 -0.316970 
#    y 0.000000 4.352390 0.000000 
#    z -0.316970 0.000000 4.070460 
# 
# 
# High freq. dielectric constant tensor:
#      x y z
#    x 1.812020 0.000000 -0.029310 
#    y 0.000000 1.860140 0.000000 
#    z -0.029310 0.000000 1.850320 
# 
# From -- ./inp_files/3236.got.cif
#   From: 2010.03.12/outbox.cif.g09.slc.cpg/sg6_2_cif.got.tgz:3236.got - 2010.03.30 10:24:59.
