data_PCOD8052802
_publ_section_title
;
Structure prediction by ZEFSAII (Michael W. Deem and Ramdas Pophale) SiO2 
 PCOD8052802
Probable space group: C M
;
_chemical_formula_sum "Si O2"
_cell_formula_units_Z 32
_cell_length_a 19.953746
_cell_length_b 9.145020
_cell_length_c 25.068964
_cell_angle_alpha 90.000000
_cell_angle_beta 23.690341
_cell_angle_gamma 90.000000
_cell_volume 1838.011788
_symmetry_space_group_name_H-M "C M"
_symmetry_group_IT_number 8
_symmetry_cell_setting 'monoclinic'
loop_
_space_group_symop_operation_xyz
x,y,z
x,-y,z
1/2+x,1/2+y,z
1/2+x,1/2-y,z
loop_
_atom_site_type_symbol
_atom_site_label
_atom_site_fract_x
_atom_site_fract_y
_atom_site_fract_z
Si Si1 0.048780 0.827096 0.736770
Si Si2 0.066363 0.328394 0.238220
Si Si3 0.433950 0.827095 0.447441
Si Si4 0.013888 0.169387 0.491798
Si Si5 0.968687 0.669380 0.692547
Si Si6 0.231540 0.168185 0.430673
Si Si7 0.251039 0.168174 0.753668
Si Si8 0.416282 0.671601 0.946043
O O1 0.241359 0.779228 0.592097
O O2 0.942498 0.753326 0.767037
O O3 0.974809 0.766165 0.846210
O O4 0.030498 0.000000 0.744921
O O5 0.091655 0.500000 0.226475
O O6 0.007967 0.266168 0.337975
O O7 0.926659 0.293662 0.295253
O O8 0.241311 0.255858 0.092128
O O9 0.540134 0.753312 0.417264
O O10 0.452233 0.000000 0.439294
O O11 0.853380 0.229741 0.639485
O O12 0.178581 0.195037 0.408033
O O13 0.983923 0.000000 0.501825
O O14 0.998669 0.500000 0.682514
O O15 0.803974 0.695003 0.776331
O O16 0.129184 0.729740 0.544865
O O17 0.196708 0.000000 0.473080
O O18 0.055915 0.206303 0.889090
O O19 0.285901 0.000000 0.711234
O O20 0.390962 0.500000 0.957798
#
# Coordination Sequence:
#
# PCOD8052802 Si02
#       8
#     4   4   4   4   4   4   4   4
#     4  10  18  31  51  73  97 125 162 205 238 277
#     4   9  17  31  52  73  93 125 167 202 234 281
#     4  10  18  31  51  73  97 125 162 205 238 277
#     4  10  19  29  48  75 101 127 157 200 245 285
#     4  10  19  29  48  75 101 127 157 200 245 285
#     4   9  17  32  50  71  99 128 162 199 238 284
#     4   9  17  32  50  71  99 128 162 199 238 284
#     4   9  17  31  52  73  93 125 167 202 234 281
#
# _framework density 17.410117
#
# number of rings (size 3 to 8) (size 9 to 14) (size 15 to 20)
#    0.000    2.500    2.500    0.750    0.000    1.500 
#    0.000    1.250    0.000    3.000    0.000    0.000 
#    0.000    0.000    0.000    0.000    0.000    0.000 
#
# Total GULP energy -198366.555761 kJ/mol
# GULP energy per Si atom -12397.909735 kJ/mol
# Density = 1.737049 g / cm^3
# Si number density = 17.410117 Si / 1000 Ang^3
#
#
#
# Elastic Constant Matrix: (Units=GPa)
#
#
# Indices 1 2 3 4 5 6 
#
# 1 147.9491 38.8029 75.5642 -0.0087 -5.4858 -0.0035
# 2 38.8029 36.3353 23.3819 0.0417 -1.2761 0.0041
# 3 75.5642 23.3819 128.9800 0.0689 -4.0109 0.0045
# 4 -0.0087 0.0417 0.0689 9.9426 0.0060 -0.5140
# 5 -5.4858 -1.2761 -4.0109 0.0060 26.1242 -0.0013
# 6 -0.0035 0.0041 0.0045 -0.5140 -0.0013 31.6114
#
#
#
# Elastic Compliance Matrix: (Units=1/GPa)
#
#
# Indices 1 2 3 4 5 6 
#
# 1 0.011939 -0.009317 -0.005267 0.000085 0.001243 0.000005
# 2 -0.009317 0.038438 -0.001520 -0.000159 -0.000312 -0.000008
# 3 -0.005267 -0.001520 0.011131 -0.000076 0.000529 -0.000003
# 4 0.000085 -0.000159 -0.000076 0.100663 -0.000024 0.001637
# 5 0.001243 -0.000312 0.000529 -0.000024 0.038606 0.000001
# 6 0.000005 -0.000008 -0.000003 0.001637 0.000001 0.031661
#
#
# Mechanical properties :
#
#
# Convention : Reuss Voigt Hill
#
# Bulk Modulus (GPa) = 34.12822 65.41803 49.77313
# Shear Modulus (GPa) = 18.22090 25.23667 21.72879
#
# Velocity S-wave (km/s) = 3.23858 3.81141 3.53662
# Velocity P-wave (km/s) = 5.79911 7.55152 6.73257
#
# Compressibility (1/GPa) = 0.02930126
#
# Stress axis : x y z
#
# Youngs Moduli (GPa) = 83.76139 26.01601 89.84161
#
# Poissons Ratio (x) = 0.24238 0.47318
# Poissons Ratio (y) = 0.78038 0.13652
# Poissons Ratio (z) = 0.44116 0.03953
#
# Static dielectric constant tensor:
#      x y z
#    x 3.499730 0.000000 -0.072560 
#    y 0.000000 3.018170 0.000010 
#    z -0.072560 0.000010 3.230730 
# 
# 
# High freq. dielectric constant tensor:
#      x y z
#    x 1.688280 0.000000 -0.009910 
#    y 0.000000 1.646700 0.000000 
#    z -0.009910 0.000000 1.644090 
# 
# From -- ./inp_files/23596.got.cif
#   From: 2010.03.12/outbox.cif.g09.slc.cpg/sg8_12_cif.got.tgz:23596.got - 2010.03.31 10:45:26.
