data_PCOD8052521
_publ_section_title
;
Structure prediction by ZEFSAII (Michael W. Deem and Ramdas Pophale) SiO2 
 PCOD8052521
Probable space group: P M
;
_chemical_formula_sum "Si O2"
_cell_formula_units_Z 16
_cell_length_a 11.864097
_cell_length_b 8.944394
_cell_length_c 9.467742
_cell_angle_alpha 90.000000
_cell_angle_beta 52.048395
_cell_angle_gamma 90.000000
_cell_volume 792.228601
_symmetry_space_group_name_H-M "P M"
_symmetry_group_IT_number 6
_symmetry_cell_setting 'monoclinic'
loop_
_space_group_symop_operation_xyz
x,y,z
x,-y,z
loop_
_atom_site_type_symbol
_atom_site_label
_atom_site_fract_x
_atom_site_fract_y
_atom_site_fract_z
Si Si1 0.302890 0.826000 0.205200
Si Si2 0.295741 0.825602 0.534846
Si Si3 0.846096 0.671370 0.197821
Si Si4 0.540528 0.323537 0.841875
Si Si5 0.815877 0.831264 0.711140
Si Si6 0.005466 0.672751 0.787230
Si Si7 0.565123 0.175587 0.519421
Si Si8 0.003372 0.166503 0.304554
O O1 0.326062 0.779498 0.349676
O O2 0.140821 0.787649 0.288976
O O3 0.340144 0.000000 0.152411
O O4 0.398131 0.724245 0.031421
O O5 0.162424 0.735178 0.701592
O O6 0.433748 0.782913 0.519330
O O7 0.258264 0.000000 0.573301
O O8 0.806320 0.500000 0.258432
O O9 0.708390 0.772796 0.330633
O O10 0.977191 0.718352 0.198139
O O11 0.898359 0.696817 0.999270
O O12 0.549718 0.500000 0.823285
O O13 0.672523 0.265161 0.834328
O O14 0.541622 0.256562 0.685173
O O15 0.864386 0.829929 0.511231
O O16 0.942650 0.762673 0.704678
O O17 0.785066 0.000000 0.786234
O O18 0.018883 0.500000 0.736217
O O19 0.575082 0.000000 0.540483
O O20 0.023471 0.000000 0.225882
#
# Coordination Sequence:
#
# PCOD8052521 Si02
#       8
#     2   2   2   2   2   2   2   2
#     4  10  22  43  66  94 125 161 211 265 310 370
#     4  10  23  44  67  92 124 166 216 262 311 370
#     4  11  25  42  62  93 131 167 208 259 316 379
#     4  12  26  42  63  95 130 168 207 257 321 380
#     4  11  22  42  69  94 122 163 214 264 310 370
#     4  11  25  42  63  96 132 167 207 257 321 379
#     4  11  24  43  66  93 124 168 217 262 311 371
#     4  10  21  40  68  93 120 160 212 264 312 369
#
# _framework density 20.196192
#
# number of rings (size 3 to 8) (size 9 to 14) (size 15 to 20)
#    0.000    1.250    2.500    2.625    3.500    4.500 
#    0.000    0.000    0.000    0.000    0.000    0.000 
#    0.000    0.000    0.000    0.000    0.000    0.000 
#
# Total GULP energy -198496.957626 kJ/mol
# GULP energy per Si atom -12406.059852 kJ/mol
# Density = 2.015022 g / cm^3
# Si number density = 20.196192 Si / 1000 Ang^3
#
#
#
# Elastic Constant Matrix: (Units=GPa)
#
#
# Indices 1 2 3 4 5 6 
#
# 1 115.8683 56.6735 34.2728 0.0000 -4.5830 0.0000
# 2 56.6735 125.0709 53.4397 0.0000 -4.5028 0.0000
# 3 34.2728 53.4397 89.4225 0.0000 -10.7937 0.0000
# 4 0.0000 0.0000 0.0000 32.9923 0.0000 0.9948
# 5 -4.5830 -4.5028 -10.7937 0.0000 27.8352 0.0000
# 6 0.0000 0.0000 0.0000 0.9948 0.0000 20.4983
#
#
#
# Elastic Compliance Matrix: (Units=1/GPa)
#
#
# Indices 1 2 3 4 5 6 
#
# 1 0.011285 -0.004396 -0.001636 0.000000 0.000512 0.000000
# 2 -0.004396 0.012466 -0.005884 0.000000 -0.000989 0.000000
# 3 -0.001636 -0.005884 0.015924 0.000000 0.004954 0.000000
# 4 0.000000 0.000000 0.000000 0.030355 0.000000 -0.001473
# 5 0.000512 -0.000989 0.004954 0.000000 0.037771 0.000000
# 6 0.000000 0.000000 0.000000 -0.001473 0.000000 0.048856
#
#
# Mechanical properties :
#
#
# Convention : Reuss Voigt Hill
#
# Bulk Modulus (GPa) = 63.12213 68.79265 65.95739
# Shear Modulus (GPa) = 26.91487 28.66354 27.78921
#
# Velocity S-wave (km/s) = 3.65454 3.77139 3.71342
# Velocity P-wave (km/s) = 7.00927 7.28702 7.14949
#
# Compressibility (1/GPa) = 0.01584230
#
# Stress axis : x y z
#
# Youngs Moduli (GPa) = 88.61409 80.21791 62.79648
#
# Poissons Ratio (x) = 0.35264 0.10275
# Poissons Ratio (y) = 0.38954 0.36952
# Poissons Ratio (z) = 0.14499 0.47203
#
# Static dielectric constant tensor:
#      x y z
#    x 3.758010 0.000000 -0.016680 
#    y 0.000000 3.693060 0.000000 
#    z -0.016680 0.000000 3.587470 
# 
# 
# High freq. dielectric constant tensor:
#      x y z
#    x 1.801690 0.000000 -0.002550 
#    y 0.000000 1.791190 0.000000 
#    z -0.002550 0.000000 1.790230 
# 
# From -- ./inp_files/2702.got.cif
#   From: 2010.03.12/outbox.cif.g09.slc.cpg/sg6_2_cif.got.tgz:2702.got - 2010.03.30 10:24:59.
