data_PCOD8052306
_publ_section_title
;
Structure prediction by ZEFSAII (Michael W. Deem and Ramdas Pophale) SiO2 
 PCOD8052306
Probable space group: P M
;
_chemical_formula_sum "Si O2"
_cell_formula_units_Z 16
_cell_length_a 12.339994
_cell_length_b 8.716436
_cell_length_c 10.485742
_cell_angle_alpha 90.000000
_cell_angle_beta 52.071391
_cell_angle_gamma 90.000000
_cell_volume 889.625953
_symmetry_space_group_name_H-M "P M"
_symmetry_group_IT_number 6
_symmetry_cell_setting 'monoclinic'
loop_
_space_group_symop_operation_xyz
x,y,z
x,-y,z
loop_
_atom_site_type_symbol
_atom_site_label
_atom_site_fract_x
_atom_site_fract_y
_atom_site_fract_z
Si Si1 0.940180 0.819439 0.974200
Si Si2 0.199819 0.318834 0.385251
Si Si3 0.344601 0.316794 0.029057
Si Si4 0.656323 0.680995 0.194936
Si Si5 0.926186 0.319757 0.708561
Si Si6 0.369539 0.318160 0.501405
Si Si7 0.625411 0.680234 0.929770
Si Si8 0.214603 0.682740 0.862524
O O1 0.958073 0.767188 0.815825
O O2 0.060650 0.746271 0.971226
O O3 0.950173 0.000000 0.975443
O O4 0.795260 0.764665 0.138873
O O5 0.220426 0.500000 0.369454
O O6 0.250827 0.252767 0.213143
O O7 0.288974 0.249501 0.437453
O O8 0.039643 0.274658 0.521284
O O9 0.342624 0.500000 0.028159
O O10 0.500045 0.251533 0.937128
O O11 0.286636 0.252891 0.938183
O O12 0.684099 0.500000 0.176367
O O13 0.530522 0.727927 0.378536
O O14 0.616623 0.737995 0.081707
O O15 0.932190 0.500000 0.737201
O O16 0.775017 0.274175 0.764147
O O17 0.354774 0.500000 0.509959
O O18 0.302800 0.253070 0.679179
O O19 0.605650 0.500000 0.944494
O O20 0.209250 0.500000 0.865416
#
# Coordination Sequence:
#
# PCOD8052306 Si02
#       8
#     2   2   2   2   2   2   2   2
#     4  11  21  32  47  70 101 133 168 206 246 290
#     4   9  14  24  45  75 103 124 154 196 241 286
#     4   9  16  26  44  73 104 128 156 197 243 292
#     4   9  16  29  51  73  94 125 165 206 250 293
#     4   9  16  28  50  74  99 127 160 201 248 291
#     4   9  15  26  48  75 100 125 160 202 244 288
#     4   8  13  23  41  68  94 119 150 192 240 284
#     4  10  19  32  50  74 103 133 163 200 246 294
#
# _framework density 17.985085999999999
#
# number of rings (size 3 to 8) (size 9 to 14) (size 15 to 20)
#    0.000    2.750    2.500    1.875    0.000    0.000 
#    0.000    1.875    0.000    9.750    0.000    0.000 
#    0.000    0.000    0.000    0.000    0.000    0.000 
#
# Total GULP energy -198297.424668 kJ/mol
# GULP energy per Si atom -12393.589042 kJ/mol
# Density = 1.794415 g / cm^3
# Si number density = 17.985086 Si / 1000 Ang^3
#
#
#
# Elastic Constant Matrix: (Units=GPa)
#
#
# Indices 1 2 3 4 5 6 
#
# 1 156.0447 18.3303 86.3946 0.0000 -14.7206 0.0000
# 2 18.3303 23.1057 13.4224 0.0000 -2.2684 0.0000
# 3 86.3946 13.4224 138.2689 0.0000 -14.1212 0.0000
# 4 0.0000 0.0000 0.0000 4.7647 0.0000 0.3145
# 5 -14.7206 -2.2684 -14.1212 0.0000 32.8982 0.0000
# 6 0.0000 0.0000 0.0000 0.3145 0.0000 2.9091
#
#
#
# Elastic Compliance Matrix: (Units=1/GPa)
#
#
# Indices 1 2 3 4 5 6 
#
# 1 0.010355 -0.004648 -0.005834 0.000000 0.001809 0.000000
# 2 -0.004648 0.048006 -0.001705 0.000000 0.000498 0.000000
# 3 -0.005834 -0.001705 0.011258 0.000000 0.002104 0.000000
# 4 0.000000 0.000000 0.000000 0.211385 0.000000 -0.022856
# 5 0.001809 0.000498 0.002104 0.000000 0.032144 0.000000
# 6 0.000000 0.000000 0.000000 -0.022856 0.000000 0.346217
#
#
# Mechanical properties :
#
#
# Convention : Reuss Voigt Hill
#
# Bulk Modulus (GPa) = 22.10206 61.52377 41.81291
# Shear Modulus (GPa) = 7.15490 21.39922 14.27706
#
# Velocity S-wave (km/s) = 1.99672 3.45314 2.82055
# Velocity P-wave (km/s) = 4.19900 7.08388 5.82293
#
# Compressibility (1/GPa) = 0.04524465
#
# Stress axis : x y z
#
# Youngs Moduli (GPa) = 96.56917 20.83063 88.82447
#
# Poissons Ratio (x) = 0.09683 0.51823
# Poissons Ratio (y) = 0.44888 0.15144
# Poissons Ratio (z) = 0.56342 0.03551
#
# Static dielectric constant tensor:
#      x y z
#    x 3.506740 0.000000 -0.218130 
#    y 0.000000 2.721260 0.000000 
#    z -0.218130 0.000000 3.561150 
# 
# 
# High freq. dielectric constant tensor:
#      x y z
#    x 1.689100 0.000000 -0.026180 
#    y 0.000000 1.634740 0.000000 
#    z -0.026180 0.000000 1.697930 
# 
# From -- ./inp_files/3793.got.cif
#   From: 2010.03.12/outbox.cif.g09.slc.cpg/sg6_2_cif.got.tgz:3793.got - 2010.03.30 10:24:59.
