data_PCOD8052386
_publ_section_title
;
Structure prediction by ZEFSAII (Michael W. Deem and Ramdas Pophale) SiO2 
 PCOD8052386
Probable space group: P M
;
_chemical_formula_sum "Si O2"
_cell_formula_units_Z 16
_cell_length_a 11.870843
_cell_length_b 9.121125
_cell_length_c 9.827258
_cell_angle_alpha 90.000000
_cell_angle_beta 50.766536
_cell_angle_gamma 90.000000
_cell_volume 824.187309
_symmetry_space_group_name_H-M "P M"
_symmetry_group_IT_number 6
_symmetry_cell_setting 'monoclinic'
loop_
_space_group_symop_operation_xyz
x,y,z
x,-y,z
loop_
_atom_site_type_symbol
_atom_site_label
_atom_site_fract_x
_atom_site_fract_y
_atom_site_fract_z
Si Si1 0.289410 0.174547 0.962890
Si Si2 0.969426 0.826201 0.287333
Si Si3 0.221077 0.833062 0.475446
Si Si4 0.395305 0.331066 0.129965
Si Si5 0.724973 0.174348 0.263313
Si Si6 0.903057 0.167142 0.641633
Si Si7 0.710665 0.669626 0.995513
Si Si8 0.405220 0.826294 0.587574
O O1 0.341799 0.234812 0.776999
O O2 0.298109 0.000000 0.965124
O O3 0.402696 0.243051 0.983149
O O4 0.126174 0.232914 0.117748
O O5 0.845573 0.770869 0.278315
O O6 0.932276 0.770477 0.467569
O O7 0.975816 0.000000 0.284614
O O8 0.261712 0.732853 0.317270
O O9 0.296755 0.770382 0.552969
O O10 0.047922 0.826214 0.623117
O O11 0.272194 0.000000 0.406791
O O12 0.367349 0.500000 0.118766
O O13 0.539500 0.306260 0.107734
O O14 0.568437 0.231466 0.435858
O O15 0.727204 0.000000 0.244346
O O16 0.762838 0.243990 0.088880
O O17 0.785134 0.268774 0.803070
O O18 0.845136 0.000000 0.678474
O O19 0.751433 0.500000 0.981111
O O20 0.406222 0.000000 0.591514
#
# Coordination Sequence:
#
# PCOD8052386 Si02
#       8
#     2   2   2   2   2   2   2   2
#     4  10  20  37  60  86 117 149 186 240 290 340
#     4   9  19  35  58  89 118 143 184 237 289 340
#     4  10  19  37  63  88 111 145 195 244 292 342
#     4  11  23  39  58  82 115 155 198 241 284 338
#     4  10  20  37  60  86 116 150 189 237 287 343
#     4  10  21  37  61  89 114 149 193 241 291 343
#     4  11  25  41  56  82 118 158 198 238 284 339
#     4   9  19  33  58  90 113 141 187 238 289 337
#
# _framework density 19.413063999999999
#
# number of rings (size 3 to 8) (size 9 to 14) (size 15 to 20)
#    0.000    2.000    2.500    0.750    3.500    2.000 
#    0.000    2.500    0.000    0.000    0.000    0.000 
#    0.000    0.000    0.000    0.000    0.000    0.000 
#
# Total GULP energy -198432.001409 kJ/mol
# GULP energy per Si atom -12402.000088 kJ/mol
# Density = 1.936888 g / cm^3
# Si number density = 19.413064 Si / 1000 Ang^3
#
#
#
# Elastic Constant Matrix: (Units=GPa)
#
#
# Indices 1 2 3 4 5 6 
#
# 1 92.0480 29.6025 30.3118 0.0000 18.7399 0.0000
# 2 29.6025 50.5651 32.9116 0.0000 2.0013 0.0000
# 3 30.3118 32.9116 125.7106 0.0000 13.4104 0.0000
# 4 0.0000 0.0000 0.0000 6.4208 0.0000 -2.1082
# 5 18.7399 2.0013 13.4104 0.0000 34.3078 0.0000
# 6 0.0000 0.0000 0.0000 -2.1082 0.0000 18.4815
#
#
#
# Elastic Compliance Matrix: (Units=1/GPa)
#
#
# Indices 1 2 3 4 5 6 
#
# 1 0.015275 -0.008162 -0.000738 0.000000 -0.007579 0.000000
# 2 -0.008162 0.028240 -0.005974 0.000000 0.005146 0.000000
# 3 -0.000738 -0.005974 0.010035 0.000000 -0.003171 0.000000
# 4 0.000000 0.000000 0.000000 0.161804 0.000000 0.018457
# 5 -0.007579 0.005146 -0.003171 0.000000 0.034227 0.000000
# 6 0.000000 0.000000 0.000000 0.018457 0.000000 0.056213
#
#
# Mechanical properties :
#
#
# Convention : Reuss Voigt Hill
#
# Bulk Modulus (GPa) = 42.01458 50.44171 46.22814
# Shear Modulus (GPa) = 14.55705 23.54188 19.04946
#
# Velocity S-wave (km/s) = 2.74133 3.48614 3.13592
# Velocity P-wave (km/s) = 5.63109 6.49954 6.08084
#
# Compressibility (1/GPa) = 0.02380126
#
# Stress axis : x y z
#
# Youngs Moduli (GPa) = 65.46741 35.41123 99.65127
#
# Poissons Ratio (x) = 0.28903 0.07351
# Poissons Ratio (y) = 0.53436 0.59533
# Poissons Ratio (z) = 0.04830 0.21155
#
# Static dielectric constant tensor:
#      x y z
#    x 3.685680 0.000000 0.069110 
#    y 0.000000 3.167680 0.000000 
#    z 0.069110 0.000000 3.602740 
# 
# 
# High freq. dielectric constant tensor:
#      x y z
#    x 1.766290 0.000000 0.005250 
#    y 0.000000 1.716730 0.000000 
#    z 0.005250 0.000000 1.761710 
# 
# From -- ./inp_files/3453.got.cif
#   From: 2010.03.12/outbox.cif.g09.slc.cpg/sg6_2_cif.got.tgz:3453.got - 2010.03.30 10:24:59.
