data_PCOD8052078
_publ_section_title
;
Structure prediction by ZEFSAII (Michael W. Deem and Ramdas Pophale) SiO2 
 PCOD8052078
Probable space group: C 2
;
_chemical_formula_sum "Si O2"
_cell_formula_units_Z 18
_cell_length_a 8.349801
_cell_length_b 16.560166
_cell_length_c 7.796843
_cell_angle_alpha 90.000000
_cell_angle_beta 126.843483
_cell_angle_gamma 90.000000
_cell_volume 862.779226
_symmetry_space_group_name_H-M "C 2"
_symmetry_group_IT_number 5
_symmetry_cell_setting 'monoclinic'
loop_
_space_group_symop_operation_xyz
x,y,z
-x,y,-z
1/2+x,1/2+y,z
1/2-x,1/2+y,-z
loop_
_atom_site_type_symbol
_atom_site_label
_atom_site_fract_x
_atom_site_fract_y
_atom_site_fract_z
Si Si1 0.061183 0.812150 0.862902
Si Si2 0.663227 0.437358 0.455428
Si Si3 0.794223 0.063102 0.778834
Si Si4 0.000000 0.701272 0.500000
Si Si5 0.423035 0.927953 0.131553
O O1 0.989354 0.758499 0.658113
O O2 0.916333 0.889950 0.762319
O O3 0.287683 0.847780 0.011293
O O4 0.000000 0.766546 0.000000
O O5 0.500000 0.431792 0.500000
O O6 0.681535 0.528032 0.397568
O O7 0.876166 0.399356 0.642876
O O8 0.688181 0.146829 0.668716
O O9 0.675809 0.001396 0.826869
O O10 0.000000 0.087114 0.000000
O O11 0.500000 0.964352 0.000000
#
# Coordination Sequence:
#
# PCOD8052078 Si02
#       5
#     4   4   4   2   4
#     4  12  25  45  70 104 142 182 236 289 348 418
#     4  12  21  42  74 103 134 185 245 281 333 430
#     4  12  24  45  70 103 141 185 233 291 347 416
#     4  12  28  46  68 108 154 170 228 306 364 384
#     4  12  21  39  76 103 132 187 242 281 338 423
#
# _framework density 20.862811000000001
#
# number of rings (size 3 to 8) (size 9 to 14) (size 15 to 20)
#    0.000    0.000   10.000    0.000    0.000    3.556 
#    4.000    0.000    0.000    0.000    0.000    0.000 
#    0.000    0.000    0.000    0.000    0.000    0.000 
#
# Total GULP energy -111505.651090 kJ/mol
# GULP energy per Si atom -12389.516788 kJ/mol
# Density = 2.081533 g / cm^3
# Si number density = 20.862811 Si / 1000 Ang^3
#
#
#
# Elastic Constant Matrix: (Units=GPa)
#
#
# Indices 1 2 3 4 5 6 
#
# 1 111.9206 47.4187 74.1219 0.0000 -1.1985 0.0000
# 2 47.4187 67.9856 31.6343 0.0000 -7.6998 0.0000
# 3 74.1219 31.6343 161.3917 0.0000 15.4985 0.0000
# 4 0.0000 0.0000 0.0000 50.3839 0.0000 8.1305
# 5 -1.1985 -7.6998 15.4985 0.0000 54.8559 0.0000
# 6 0.0000 0.0000 0.0000 8.1305 0.0000 0.4068
#
#
#
# Elastic Compliance Matrix: (Units=1/GPa)
#
#
# Indices 1 2 3 4 5 6 
#
# 1 0.016601 -0.008691 -0.006001 0.000000 0.000838 0.000000
# 2 -0.008691 0.021322 -0.000470 0.000000 0.002936 0.000000
# 3 -0.006001 -0.000470 0.009316 0.000000 -0.002829 0.000000
# 4 0.000000 0.000000 0.000000 -0.008918 0.000000 0.178259
# 5 0.000838 0.002936 -0.002829 0.000000 0.019459 0.000000
# 6 0.000000 0.000000 0.000000 0.178259 0.000000 -1.104661
#
#
# Mechanical properties :
#
#
# Convention : Reuss Voigt Hill
#
# Bulk Modulus (GPa) = 59.12044 71.96086 65.54065
# Shear Modulus (GPa) = -4.94599 33.67085 14.36243
#
# Velocity S-wave (km/s) = -1.54139 4.02172 2.62663
# Velocity P-wave (km/s) = 5.02309 7.49219 6.37826
#
# Compressibility (1/GPa) = 0.01691462
#
# Stress axis : x y z
#
# Youngs Moduli (GPa) = 60.23908 46.89996 107.34353
#
# Poissons Ratio (x) = 0.40762 0.64417
# Poissons Ratio (y) = 0.52356 0.05041
# Poissons Ratio (z) = 0.36149 0.02202
#
# Static dielectric constant tensor:
#      x y z
#    x 3.907750 0.000000 0.081940 
#    y 0.000000 3.643450 0.000000 
#    z 0.081940 0.000000 4.239970 
# 
# 
# High freq. dielectric constant tensor:
#      x y z
#    x 1.822440 0.000000 -0.000970 
#    y 0.000000 1.789580 0.000000 
#    z -0.000970 0.000000 1.854430 
# 
# From -- ./inp_files/15517.got.cif
#   From: 2010.03.12/outbox.cif.g09.slc.cpg/sg5_8_cif.got.tgz:15517.got - 2010.03.31 09:47:26.
