data_PCOD8052197
_publ_section_title
;
Structure prediction by ZEFSAII (Michael W. Deem and Ramdas Pophale) SiO2 
 PCOD8052197
Probable space group: C 2
;
_chemical_formula_sum "Si O2"
_cell_formula_units_Z 20
_cell_length_a 25.675499
_cell_length_b 5.030347
_cell_length_c 10.825118
_cell_angle_alpha 90.000000
_cell_angle_beta 147.483984
_cell_angle_gamma 90.000000
_cell_volume 751.547613
_symmetry_space_group_name_H-M "C 2"
_symmetry_group_IT_number 5
_symmetry_cell_setting 'monoclinic'
loop_
_space_group_symop_operation_xyz
x,y,z
-x,y,-z
1/2+x,1/2+y,z
1/2-x,1/2+y,-z
loop_
_atom_site_type_symbol
_atom_site_label
_atom_site_fract_x
_atom_site_fract_y
_atom_site_fract_z
Si Si1 0.018961 0.450160 0.906653
Si Si2 0.636313 0.632965 0.522628
Si Si3 0.269775 0.450042 0.959656
Si Si4 0.730226 0.815927 0.380552
Si Si5 0.981035 0.815843 0.330803
O O1 0.010872 0.633012 0.771745
O O2 0.932537 0.234860 0.725848
O O3 0.121764 0.302429 0.110917
O O4 0.000000 0.602133 0.000000
O O5 0.701476 0.868441 0.708996
O O6 0.701460 0.397457 0.596877
O O7 0.567467 0.531118 0.495718
O O8 0.238260 0.739725 0.943888
O O9 0.378235 0.463598 0.123866
O O10 0.738293 0.026227 0.509212
O O11 0.000000 0.663857 0.500000
#
# Coordination Sequence:
#
# PCOD8052197 Si02
#       5
#     4   4   4   4   4
#     4  12  27  50  83 117 162 216 270 335 406 485
#     4  12  28  48  82 116 164 216 272 336 408 484
#     4  12  28  52  81 117 165 215 271 337 409 484
#     4  12  28  52  81 117 165 215 271 337 409 484
#     4  12  27  50  83 117 162 216 270 335 406 485
#
# _framework density 26.611756
#
# number of rings (size 3 to 8) (size 9 to 14) (size 15 to 20)
#    0.000    0.000    6.000    2.400    5.600    1.600 
#    0.000    0.000    0.000    0.000    0.000    0.000 
#    0.000    0.000    0.000    0.000    0.000    0.000 
#
# Total GULP energy -124045.834697 kJ/mol
# GULP energy per Si atom -12404.583470 kJ/mol
# Density = 2.655119 g / cm^3
# Si number density = 26.611756 Si / 1000 Ang^3
#
#
#
# Elastic Constant Matrix: (Units=GPa)
#
#
# Indices 1 2 3 4 5 6 
#
# 1 162.5374 1.5020 50.9229 -0.0003 -9.9593 -0.0004
# 2 1.5020 23.5170 -8.5259 -0.0011 -7.8635 -0.0018
# 3 50.9229 -8.5259 160.6280 -0.0003 8.4988 -0.0006
# 4 -0.0003 -0.0011 -0.0003 22.0629 -0.0001 -13.2605
# 5 -9.9593 -7.8635 8.4988 -0.0001 63.9764 -0.0002
# 6 -0.0004 -0.0018 -0.0006 -13.2605 -0.0002 38.9566
#
#
#
# Elastic Compliance Matrix: (Units=1/GPa)
#
#
# Indices 1 2 3 4 5 6 
#
# 1 0.006967 -0.000856 -0.002322 0.000000 0.001288 0.000000
# 2 -0.000856 0.045151 0.002398 0.000005 0.005098 0.000004
# 3 -0.002322 0.002398 0.007143 0.000000 -0.001016 0.000000
# 4 0.000000 0.000005 0.000000 0.056983 0.000001 0.019396
# 5 0.001288 0.005098 -0.001016 0.000001 0.016593 0.000001
# 6 0.000000 0.000004 0.000000 0.019396 0.000001 0.032272
#
#
# Mechanical properties :
#
#
# Convention : Reuss Voigt Hill
#
# Bulk Modulus (GPa) = 17.33088 48.27557 32.80323
# Shear Modulus (GPa) = 26.89587 45.18475 36.04031
#
# Velocity S-wave (km/s) = 3.18256 4.12506 3.68407
# Velocity P-wave (km/s) = 4.47566 6.39283 5.51814
#
# Compressibility (1/GPa) = 0.05770047
#
# Stress axis : x y z
#
# Youngs Moduli (GPa) = 143.53783 22.14779 140.00110
#
# Poissons Ratio (x) = 0.01896 0.32511
# Poissons Ratio (y) = 0.12291 -0.33577
# Poissons Ratio (z) = 0.33333 -0.05312
#
# Static dielectric constant tensor:
#      x y z
#    x 5.121430 0.000000 0.153220 
#    y 0.000000 4.379420 0.000000 
#    z 0.153220 0.000000 5.315810 
# 
# 
# High freq. dielectric constant tensor:
#      x y z
#    x 2.096400 0.000000 0.003790 
#    y 0.000000 2.035150 0.000000 
#    z 0.003790 0.000000 2.101230 
# 
# From -- ./inp_files/47752.got.cif
#   From: 2010.03.12/outbox.cif.g09.slc.cpg/sg5_24_cif.got.tgz:47752.got - 2010.03.31 09:47:26.
