data_PCOD8052555
_publ_section_title
;
Structure prediction by ZEFSAII (Michael W. Deem and Ramdas Pophale) SiO2 
 PCOD8052555
Probable space group: P M
;
_chemical_formula_sum "Si O2"
_cell_formula_units_Z 16
_cell_length_a 8.504334
_cell_length_b 18.015789
_cell_length_c 9.697305
_cell_angle_alpha 90.000000
_cell_angle_beta 149.310939
_cell_angle_gamma 90.000000
_cell_volume 758.293319
_symmetry_space_group_name_H-M "P M"
_symmetry_group_IT_number 6
_symmetry_cell_setting 'monoclinic'
loop_
_space_group_symop_operation_xyz
x,y,z
x,-y,z
loop_
_atom_site_type_symbol
_atom_site_label
_atom_site_fract_x
_atom_site_fract_y
_atom_site_fract_z
Si Si1 0.818440 0.915196 0.939430
Si Si2 0.624378 0.161094 0.054391
Si Si3 0.261883 0.320718 0.346508
Si Si4 0.575798 0.683582 0.869493
Si Si5 0.451639 0.157251 0.424946
Si Si6 0.139935 0.646954 0.768795
Si Si7 0.500059 0.414736 0.290826
Si Si8 0.956547 0.184451 0.588221
O O1 0.751638 0.903847 0.052096
O O2 0.594916 0.862969 0.680960
O O3 0.753132 0.000000 0.850585
O O4 0.174257 0.897370 0.176692
O O5 0.615569 0.233716 0.953966
O O6 0.282355 0.142141 0.852136
O O7 0.853792 0.174868 0.353270
O O8 0.349160 0.318883 0.570766
O O9 0.316689 0.240163 0.321562
O O10 0.458240 0.381785 0.412440
O O11 0.906723 0.346514 0.072110
O O12 0.414209 0.633830 0.865843
O O13 0.712028 0.147301 0.505345
O O14 0.859964 0.591634 0.522761
O O15 0.002121 0.729634 0.660717
O O16 0.280309 0.632317 0.024854
O O17 0.398734 0.500000 0.209096
#
# Coordination Sequence:
#
# PCOD8052555 Si02
#       8
#     2   2   2   2   2   2   2   2
#     4  12  26  44  65  95 138 178 213 264 338 399
#     4  11  21  40  63  97 127 164 214 270 321 385
#     4  12  22  40  66  99 128 166 217 276 317 378
#     4  11  22  38  66  98 125 157 218 275 316 364
#     4  12  23  42  67 101 127 174 221 274 322 383
#     4  11  23  42  66  97 128 169 214 271 325 390
#     4  12  26  44  65  95 136 177 214 264 338 399
#     4  11  23  38  68  98 125 159 223 278 313 368
#
# _framework density 21.100014999999999
#
# number of rings (size 3 to 8) (size 9 to 14) (size 15 to 20)
#    0.000    0.500    3.750    6.750    1.750    0.000 
#    0.000    7.500    0.000    0.000    0.000    0.000 
#    0.000    0.000    0.000    0.000    0.000    0.000 
#
# Total GULP energy -198483.874389 kJ/mol
# GULP energy per Si atom -12405.242149 kJ/mol
# Density = 2.105199 g / cm^3
# Si number density = 21.100015 Si / 1000 Ang^3
#
#
#
# Elastic Constant Matrix: (Units=GPa)
#
#
# Indices 1 2 3 4 5 6 
#
# 1 104.6431 39.7222 15.2136 0.0000 17.5942 0.0000
# 2 39.7222 72.7152 17.4974 0.0000 1.5904 0.0000
# 3 15.2136 17.4974 97.7789 0.0000 6.6460 0.0000
# 4 0.0000 0.0000 0.0000 20.5750 0.0000 3.0348
# 5 17.5942 1.5904 6.6460 0.0000 46.5232 0.0000
# 6 0.0000 0.0000 0.0000 3.0348 0.0000 23.3372
#
#
#
# Elastic Compliance Matrix: (Units=1/GPa)
#
#
# Indices 1 2 3 4 5 6 
#
# 1 0.013021 -0.006897 -0.000478 0.000000 -0.004620 0.000000
# 2 -0.006897 0.018025 -0.002310 0.000000 0.002322 0.000000
# 3 -0.000478 -0.002310 0.010802 0.000000 -0.001283 0.000000
# 4 0.000000 0.000000 0.000000 0.049553 0.000000 -0.006444
# 5 -0.004620 0.002322 -0.001283 0.000000 0.023346 0.000000
# 6 0.000000 0.000000 0.000000 -0.006444 0.000000 0.043688
#
#
# Mechanical properties :
#
#
# Convention : Reuss Voigt Hill
#
# Bulk Modulus (GPa) = 44.48770 46.66708 45.57739
# Shear Modulus (GPa) = 26.98373 31.60067 29.29220
#
# Velocity S-wave (km/s) = 3.57998 3.87416 3.72997
# Velocity P-wave (km/s) = 6.18210 6.49440 6.34017
#
# Compressibility (1/GPa) = 0.02247813
#
# Stress axis : x y z
#
# Youngs Moduli (GPa) = 76.80177 55.47880 92.57416
#
# Poissons Ratio (x) = 0.38262 0.04422
# Poissons Ratio (y) = 0.52968 0.21387
# Poissons Ratio (z) = 0.03669 0.12817
#
# Static dielectric constant tensor:
#      x y z
#    x 4.137730 0.000000 0.211290 
#    y 0.000000 3.442390 0.000000 
#    z 0.211290 0.000000 3.986140 
# 
# 
# High freq. dielectric constant tensor:
#      x y z
#    x 1.843280 0.000000 0.007660 
#    y 0.000000 1.787770 0.000000 
#    z 0.007660 0.000000 1.846430 
# 
# From -- ./inp_files/3255.got.cif
#   From: 2010.03.12/outbox.cif.g09.slc.cpg/sg6_2_cif.got.tgz:3255.got - 2010.03.30 10:24:59.
