data_PCOD8052113
_publ_section_title
;
Structure prediction by ZEFSAII (Michael W. Deem and Ramdas Pophale) SiO2 
 PCOD8052113
Probable space group: C 2
;
_chemical_formula_sum "Si O2"
_cell_formula_units_Z 22
_cell_length_a 11.594374
_cell_length_b 7.333195
_cell_length_c 13.338804
_cell_angle_alpha 90.000000
_cell_angle_beta 117.836026
_cell_angle_gamma 90.000000
_cell_volume 1002.884549
_symmetry_space_group_name_H-M "C 2"
_symmetry_group_IT_number 5
_symmetry_cell_setting 'monoclinic'
loop_
_space_group_symop_operation_xyz
x,y,z
-x,y,-z
1/2+x,1/2+y,z
1/2-x,1/2+y,-z
loop_
_atom_site_type_symbol
_atom_site_label
_atom_site_fract_x
_atom_site_fract_y
_atom_site_fract_z
Si Si1 0.114048 0.072510 0.220875
Si Si2 0.821774 0.535765 0.141935
Si Si3 0.500000 0.321759 0.500000
Si Si4 0.172199 0.126167 0.888932
Si Si5 0.925737 0.728952 0.673868
Si Si6 0.754830 0.952633 0.290382
O O1 0.169077 0.271350 0.271666
O O2 0.964451 0.052997 0.124540
O O3 0.197937 0.005971 0.162086
O O4 0.118608 0.935591 0.317906
O O5 0.873144 0.331486 0.154324
O O6 0.928736 0.674168 0.229861
O O7 0.781519 0.621186 0.018989
O O8 0.423718 0.201440 0.552177
O O9 0.399078 0.442114 0.395231
O O10 0.230130 0.010789 0.819500
O O11 0.817318 0.606279 0.678243
#
# Coordination Sequence:
#
# PCOD8052113 Si02
#       6
#     4   4   2   4   4   4
#     4  12  23  48  72 108 146 192 243 292 370 426
#     4  12  25  45  74 110 150 190 241 300 365 439
#     4  12  28  48  74 106 144 190 252 302 352 432
#     4  12  25  45  74 110 150 190 241 300 365 439
#     4  12  27  48  72 107 145 193 246 302 364 427
#     4  12  27  48  72 107 145 193 246 302 364 427
#
# _framework density 21.936720999999999
#
# number of rings (size 3 to 8) (size 9 to 14) (size 15 to 20)
#    0.000    0.000    7.273    2.727    2.545    0.727 
#    0.000    1.818    0.000    0.000    0.000    0.000 
#    0.000    0.000    0.000    0.000    0.000    0.000 
#
# Total GULP energy -136346.458437 kJ/mol
# GULP energy per Si atom -12395.132585 kJ/mol
# Density = 2.188679 g / cm^3
# Si number density = 21.936721 Si / 1000 Ang^3
#
#
#
# Elastic Constant Matrix: (Units=GPa)
#
#
# Indices 1 2 3 4 5 6 
#
# 1 118.1668 15.9061 34.4544 0.0000 -22.5096 0.0000
# 2 15.9061 92.0259 11.5961 0.0000 -1.0542 0.0000
# 3 34.4544 11.5961 127.2643 0.0000 -12.4865 0.0000
# 4 0.0000 0.0000 0.0000 20.7542 0.0000 3.4340
# 5 -22.5096 -1.0542 -12.4865 0.0000 31.6045 0.0000
# 6 0.0000 0.0000 0.0000 3.4340 0.0000 34.2400
#
#
#
# Elastic Compliance Matrix: (Units=1/GPa)
#
#
# Indices 1 2 3 4 5 6 
#
# 1 0.010528 -0.001484 -0.002064 0.000000 0.006633 0.000000
# 2 -0.001484 0.011202 -0.000714 0.000000 -0.000965 0.000000
# 3 -0.002064 -0.000714 0.008671 0.000000 0.001932 0.000000
# 4 0.000000 0.000000 0.000000 0.048996 0.000000 -0.004914
# 5 0.006633 -0.000965 0.001932 0.000000 0.037096 0.000000
# 6 0.000000 0.000000 0.000000 -0.004914 0.000000 0.029698
#
#
# Mechanical properties :
#
#
# Convention : Reuss Voigt Hill
#
# Bulk Modulus (GPa) = 45.70872 51.26337 48.48604
# Shear Modulus (GPa) = 30.86285 35.68643 33.27464
#
# Velocity S-wave (km/s) = 3.75494 4.03772 3.89890
# Velocity P-wave (km/s) = 6.29931 6.71990 6.51300
#
# Compressibility (1/GPa) = 0.02187766
#
# Stress axis : x y z
#
# Youngs Moduli (GPa) = 94.98735 89.27128 115.32589
#
# Poissons Ratio (x) = 0.13244 0.23805
# Poissons Ratio (y) = 0.14092 0.08231
# Poissons Ratio (z) = 0.19607 0.06372
#
# Static dielectric constant tensor:
#      x y z
#    x 4.274160 0.000000 -0.177230 
#    y 0.000000 4.126620 0.000000 
#    z -0.177230 0.000000 3.833140 
# 
# 
# High freq. dielectric constant tensor:
#      x y z
#    x 1.887890 0.000000 -0.009660 
#    y 0.000000 1.869860 0.000000 
#    z -0.009660 0.000000 1.852840 
# 
# From -- ./inp_files/38418.got.cif
#   From: 2010.03.12/outbox.cif.g09.slc.cpg/sg5_20_cif.got.tgz:38418.got - 2010.03.31 09:47:26.
