data_PCOD8052646
_publ_section_title
;
Structure prediction by ZEFSAII (Michael W. Deem and Ramdas Pophale) SiO2 
 PCOD8052646
Probable space group: P C
;
_chemical_formula_sum "Si O2"
_cell_formula_units_Z 14
_cell_length_a 23.777153
_cell_length_b 7.486964
_cell_length_c 5.188885
_cell_angle_alpha 90.000000
_cell_angle_beta 138.433886
_cell_angle_gamma 90.000000
_cell_volume 612.872292
_symmetry_space_group_name_H-M "P C"
_symmetry_group_IT_number 7
_symmetry_cell_setting 'monoclinic'
loop_
_space_group_symop_operation_xyz
x,y,z
x,-y,1/2+z
loop_
_atom_site_type_symbol
_atom_site_label
_atom_site_fract_x
_atom_site_fract_y
_atom_site_fract_z
Si Si1 0.440910 0.582424 0.261960
Si Si2 0.548700 0.884705 0.552416
Si Si3 0.253127 0.568250 0.088777
Si Si4 0.856294 0.120538 0.118232
Si Si5 0.164715 0.111641 0.165102
Si Si6 0.012149 0.382690 0.644691
Si Si7 0.700510 0.379073 0.590242
O O1 0.484910 0.529279 0.682459
O O2 0.454654 0.794782 0.257821
O O3 0.343241 0.524031 0.962435
O O4 0.562481 0.968853 0.319769
O O5 0.609392 0.714763 0.794960
O O6 0.204039 0.538133 0.191819
O O7 0.253137 0.779387 0.018675
O O8 0.927852 0.268507 0.393314
O O9 0.865002 0.975541 0.373514
O O10 0.766469 0.217425 0.832433
O O11 0.159524 0.953701 0.354210
O O12 0.091118 0.252997 0.963299
O O13 0.013232 0.462456 0.361689
O O14 0.712976 0.484943 0.367698
#
# Coordination Sequence:
#
# PCOD8052646 Si02
#       7
#     2   2   2   2   2   2   2
#     4  10  21  41  63  86 120 161 202 249 310 377
#     4  12  24  41  64  95 125 161 209 264 314 364
#     4  10  21  41  63  86 120 161 202 249 310 377
#     4  12  24  42  64  96 134 166 208 266 310 356
#     4  12  24  41  64  95 125 161 209 264 314 364
#     4  12  24  42  66  93 127 172 213 252 308 378
#     4  12  24  42  66  93 127 172 213 252 308 378
#
# _framework density 22.843256
#
# number of rings (size 3 to 8) (size 9 to 14) (size 15 to 20)
#    0.000    0.571    0.000    9.429    0.000    0.000 
#    0.000   17.143    0.000    0.000    0.000    0.000 
#    0.000    0.000    0.000    0.000    0.000    0.000 
#
# Total GULP energy -173549.734936 kJ/mol
# GULP energy per Si atom -12396.409638 kJ/mol
# Density = 2.279126 g / cm^3
# Si number density = 22.843256 Si / 1000 Ang^3
#
#
#
# Elastic Constant Matrix: (Units=GPa)
#
#
# Indices 1 2 3 4 5 6 
#
# 1 67.2598 16.8680 31.6745 0.0000 -25.4529 0.0000
# 2 16.8680 89.4520 30.5290 0.0000 0.8623 0.0000
# 3 31.6745 30.5290 66.4974 0.0000 -4.5596 0.0000
# 4 0.0000 0.0000 0.0000 52.3444 0.0000 -2.1352
# 5 -25.4529 0.8623 -4.5596 0.0000 44.2141 0.0000
# 6 0.0000 0.0000 0.0000 -2.1352 0.0000 65.3137
#
#
#
# Elastic Compliance Matrix: (Units=1/GPa)
#
#
# Indices 1 2 3 4 5 6 
#
# 1 0.025237 -0.001306 -0.010498 0.000000 0.013471 0.000000
# 2 -0.001306 0.013359 -0.005620 0.000000 -0.001592 0.000000
# 3 -0.010498 -0.005620 0.022370 0.000000 -0.003627 0.000000
# 4 0.000000 0.000000 0.000000 0.019130 0.000000 0.000625
# 5 0.013471 -0.001592 -0.003627 0.000000 0.030029 0.000000
# 6 0.000000 0.000000 0.000000 0.000625 0.000000 0.015331
#
#
# Mechanical properties :
#
#
# Convention : Reuss Voigt Hill
#
# Bulk Modulus (GPa) = 38.28776 42.37246 40.33011
# Shear Modulus (GPa) = 29.58418 41.98363 35.78390
#
# Velocity S-wave (km/s) = 3.60265 4.29172 3.96219
# Velocity P-wave (km/s) = 5.83977 6.56872 6.21494
#
# Compressibility (1/GPa) = 0.02611801
#
# Stress axis : x y z
#
# Youngs Moduli (GPa) = 39.62484 74.85649 44.70273
#
# Poissons Ratio (x) = 0.09776 0.46927
# Poissons Ratio (y) = 0.05175 0.25123
# Poissons Ratio (z) = 0.41597 0.42070
#
# Static dielectric constant tensor:
#      x y z
#    x 4.594490 0.000000 -0.302700 
#    y 0.000000 4.264720 0.000000 
#    z -0.302700 0.000000 4.609340 
# 
# 
# High freq. dielectric constant tensor:
#      x y z
#    x 1.919910 0.000000 -0.019600 
#    y 0.000000 1.909490 0.000000 
#    z -0.019600 0.000000 1.912820 
# 
# From -- ./inp_files/1192.got.cif
#   From: 2010.03.12/outbox.cif.g09.slc.cpg/sg7_cif.got.tgz:1192.got - 2010.03.30 08:40:41.
