data_PCOD8052502
_publ_section_title
;
Structure prediction by ZEFSAII (Michael W. Deem and Ramdas Pophale) SiO2 
 PCOD8052502
Probable space group: P M
;
_chemical_formula_sum "Si O2"
_cell_formula_units_Z 12
_cell_length_a 9.303270
_cell_length_b 8.416311
_cell_length_c 12.096818
_cell_angle_alpha 90.000000
_cell_angle_beta 38.876907
_cell_angle_gamma 90.000000
_cell_volume 594.491461
_symmetry_space_group_name_H-M "P M"
_symmetry_group_IT_number 6
_symmetry_cell_setting 'monoclinic'
loop_
_space_group_symop_operation_xyz
x,y,z
x,-y,z
loop_
_atom_site_type_symbol
_atom_site_label
_atom_site_fract_x
_atom_site_fract_y
_atom_site_fract_z
Si Si1 0.127320 0.812985 0.577180
Si Si2 0.921839 0.683024 0.276453
Si Si3 0.419097 0.815735 0.976658
Si Si4 0.646980 0.183385 0.243525
Si Si5 0.798172 0.312922 0.597087
Si Si6 0.753852 0.316969 0.949965
O O1 0.389935 0.758125 0.421564
O O2 0.017869 0.761526 0.526331
O O3 0.003487 0.726158 0.753308
O O4 0.099127 0.000000 0.610001
O O5 0.874597 0.500000 0.276593
O O6 0.800113 0.792449 0.259549
O O7 0.815491 0.729085 0.458225
O O8 0.191649 0.712009 0.115132
O O9 0.566436 0.764583 0.782054
O O10 0.560948 0.786455 0.003860
O O11 0.354659 0.000000 0.006787
O O12 0.648935 0.000000 0.208091
O O13 0.753505 0.283932 0.080087
O O14 0.795470 0.500000 0.621249
O O15 0.700804 0.500000 0.958125
#
# Coordination Sequence:
#
# PCOD8052502 Si02
#       6
#     2   2   2   2   2   2
#     4  10  21  38  61  87 115 149 193 241 288 341
#     4  11  24  40  59  85 118 155 194 237 288 345
#     4  11  22  38  62  88 117 152 193 240 287 340
#     4  11  24  40  59  85 118 155 194 237 288 345
#     4  10  21  38  61  87 115 149 193 241 288 341
#     4  11  22  38  62  88 117 152 193 240 287 340
#
# _framework density 20.185320000000001
#
# number of rings (size 3 to 8) (size 9 to 14) (size 15 to 20)
#    0.000    1.333    0.000    8.000    0.000    9.333 
#    0.000    3.333    0.000    0.000    0.000    0.000 
#    0.000    0.000    0.000    0.000    0.000    0.000 
#
# Total GULP energy -148886.406353 kJ/mol
# GULP energy per Si atom -12407.200529 kJ/mol
# Density = 2.013938 g / cm^3
# Si number density = 20.185320 Si / 1000 Ang^3
#
#
#
# Elastic Constant Matrix: (Units=GPa)
#
#
# Indices 1 2 3 4 5 6 
#
# 1 66.6121 5.8710 60.2611 0.0000 24.4175 0.0000
# 2 5.8710 66.8162 35.8369 0.0000 6.9322 0.0000
# 3 60.2611 35.8369 105.1692 0.0000 18.4569 0.0000
# 4 0.0000 0.0000 0.0000 31.2444 0.0000 1.0804
# 5 24.4175 6.9322 18.4569 0.0000 20.4077 0.0000
# 6 0.0000 0.0000 0.0000 1.0804 0.0000 31.0403
#
#
#
# Elastic Compliance Matrix: (Units=1/GPa)
#
#
# Indices 1 2 3 4 5 6 
#
# 1 0.059879 0.016655 -0.031403 0.000000 -0.048900 0.000000
# 2 0.016655 0.022954 -0.014858 0.000000 -0.014287 0.000000
# 3 -0.031403 -0.014858 0.029818 0.000000 0.015653 0.000000
# 4 0.000000 0.000000 0.000000 0.032044 0.000000 -0.001115
# 5 -0.048900 -0.014287 0.015653 0.000000 0.098205 0.000000
# 6 0.000000 0.000000 0.000000 -0.001115 0.000000 0.032255
#
#
# Mechanical properties :
#
#
# Convention : Reuss Voigt Hill
#
# Bulk Modulus (GPa) = 18.71287 49.17060 33.94174
# Shear Modulus (GPa) = 14.19726 25.64705 19.92215
#
# Velocity S-wave (km/s) = 2.65494 3.56839 3.14500
# Velocity P-wave (km/s) = 4.32307 6.43353 5.48084
#
# Compressibility (1/GPa) = 0.05343916
#
# Stress axis : x y z
#
# Youngs Moduli (GPa) = 16.70046 43.56500 33.53656
#
# Poissons Ratio (x) = -0.72558 1.05316
# Poissons Ratio (y) = -0.27815 0.49827
# Poissons Ratio (z) = 0.52445 0.64727
#
# Static dielectric constant tensor:
#      x y z
#    x 3.467470 0.000000 0.014530 
#    y 0.000000 3.686600 0.000000 
#    z 0.014530 0.000000 3.819510 
# 
# 
# High freq. dielectric constant tensor:
#      x y z
#    x 1.778280 0.000000 0.003100 
#    y 0.000000 1.801810 0.000000 
#    z 0.003100 0.000000 1.801550 
# 
# From -- ./inp_files/3668.got.cif
#   From: 2010.03.12/outbox.cif.g09.slc.cpg/sg6_2_cif.got.tgz:3668.got - 2010.03.30 10:24:59.
