data_PCOD8052072
_publ_section_title
;
Structure prediction by ZEFSAII (Michael W. Deem and Ramdas Pophale) SiO2 
 PCOD8052072
Probable space group: C 2
;
_chemical_formula_sum "Si O2"
_cell_formula_units_Z 28
_cell_length_a 20.788578
_cell_length_b 9.812548
_cell_length_c 11.574604
_cell_angle_alpha 90.000000
_cell_angle_beta 148.297210
_cell_angle_gamma 90.000000
_cell_volume 1240.784185
_symmetry_space_group_name_H-M "C 2"
_symmetry_group_IT_number 5
_symmetry_cell_setting 'monoclinic'
loop_
_space_group_symop_operation_xyz
x,y,z
-x,y,-z
1/2+x,1/2+y,z
1/2-x,1/2+y,-z
loop_
_atom_site_type_symbol
_atom_site_label
_atom_site_fract_x
_atom_site_fract_y
_atom_site_fract_z
Si Si1 0.239063 0.099740 0.436197
Si Si2 0.145326 0.879766 0.455941
Si Si3 0.146498 0.428668 0.579092
Si Si4 0.547007 0.768313 0.826210
Si Si5 0.883163 0.961791 0.088436
Si Si6 0.190930 0.851336 0.796459
Si Si7 0.500000 0.126811 0.500000
Si Si8 0.500000 0.723871 0.000000
O O1 0.306309 0.248292 0.543532
O O2 0.205267 0.023713 0.505127
O O3 0.313681 0.987465 0.481951
O O4 0.114804 0.123572 0.177692
O O5 0.174855 0.878475 0.636798
O O6 0.998031 0.872010 0.220708
O O7 0.070860 0.289266 0.437365
O O8 0.043607 0.533999 0.462229
O O9 0.259413 0.405174 0.838536
O O10 0.584177 0.612961 0.897009
O O11 0.510825 0.817735 0.901412
O O12 0.664825 0.845683 0.956362
O O13 0.864748 0.961986 0.199850
O O14 0.118157 0.713910 0.719929
#
# Coordination Sequence:
#
# PCOD8052072 Si02
#       8
#     4   4   4   4   4   4   2   2
#     4  12  23  44  77 105 145 191 253 303 383 447
#     4  12  24  46  77 106 145 200 246 313 380 457
#     4  12  25  45  76 109 145 200 248 307 376 461
#     4  12  26  45  76 108 141 199 254 305 377 461
#     4  12  24  48  73 107 153 193 248 318 378 451
#     4  12  24  47  75 101 151 196 241 310 387 438
#     4  12  20  48  72 106 140 194 240 298 378 444
#     4  12  20  48  76  96 152 192 242 316 386 434
#
# _framework density 22.566375000000001
#
# number of rings (size 3 to 8) (size 9 to 14) (size 15 to 20)
#    0.000    0.000    8.571    1.714    0.000    0.000 
#    7.714    0.000    9.429    0.000    0.000    0.000 
#    0.000    0.000    0.000    0.000    0.000    0.000 
#
# Total GULP energy -173456.218745 kJ/mol
# GULP energy per Si atom -12389.729910 kJ/mol
# Density = 2.251501 g / cm^3
# Si number density = 22.566375 Si / 1000 Ang^3
#
#
#
# Elastic Constant Matrix: (Units=GPa)
#
#
# Indices 1 2 3 4 5 6 
#
# 1 143.6695 45.9984 56.2804 0.0000 12.2776 0.0000
# 2 45.9984 65.3263 51.4587 0.0000 3.2711 0.0000
# 3 56.2804 51.4587 155.5100 0.0000 21.8848 0.0000
# 4 0.0000 0.0000 0.0000 34.6701 0.0000 5.4774
# 5 12.2776 3.2711 21.8848 0.0000 35.6925 0.0000
# 6 0.0000 0.0000 0.0000 5.4774 0.0000 50.6384
#
#
#
# Elastic Compliance Matrix: (Units=1/GPa)
#
#
# Indices 1 2 3 4 5 6 
#
# 1 0.009396 -0.005483 -0.001315 0.000000 -0.001923 0.000000
# 2 -0.005483 0.024114 -0.006511 0.000000 0.003669 0.000000
# 3 -0.001315 -0.006511 0.009755 0.000000 -0.004932 0.000000
# 4 0.000000 0.000000 0.000000 0.029345 0.000000 -0.003174
# 5 -0.001923 0.003669 -0.004932 0.000000 0.031366 0.000000
# 6 0.000000 0.000000 0.000000 -0.003174 0.000000 0.020091
#
#
# Mechanical properties :
#
#
# Convention : Reuss Voigt Hill
#
# Bulk Modulus (GPa) = 60.07772 74.66452 67.37112
# Shear Modulus (GPa) = 32.00300 38.25143 35.12721
#
# Velocity S-wave (km/s) = 3.76995 4.12158 3.94968
# Velocity P-wave (km/s) = 6.75503 7.47050 7.12176
#
# Compressibility (1/GPa) = 0.01664511
#
# Stress axis : x y z
#
# Youngs Moduli (GPa) = 106.43291 41.46952 102.51012
#
# Poissons Ratio (x) = 0.22739 0.13483
# Poissons Ratio (y) = 0.58361 0.66746
# Poissons Ratio (z) = 0.13999 0.27002
#
# Static dielectric constant tensor:
#      x y z
#    x 4.646710 0.000000 0.671480 
#    y 0.000000 3.965400 0.000000 
#    z 0.671480 0.000000 3.431700 
# 
# 
# High freq. dielectric constant tensor:
#      x y z
#    x 1.921090 0.000000 0.026020 
#    y 0.000000 1.861990 0.000000 
#    z 0.026020 0.000000 1.887670 
# 
# From -- ./inp_files/46449.got.cif
#   From: 2010.03.12/outbox.cif.g09.slc.cpg/sg5_24_cif.got.tgz:46449.got - 2010.03.31 09:47:26.
