data_PCOD8052903
_publ_section_title
;
Structure prediction by ZEFSAII (Michael W. Deem and Ramdas Pophale) SiO2 
 PCOD8052903
Probable space group: C M
;
_chemical_formula_sum "Si O2"
_cell_formula_units_Z 32
_cell_length_a 20.737796
_cell_length_b 8.400363
_cell_length_c 25.467883
_cell_angle_alpha 90.000000
_cell_angle_beta 22.185341
_cell_angle_gamma 90.000000
_cell_volume 1675.289860
_symmetry_space_group_name_H-M "C M"
_symmetry_group_IT_number 8
_symmetry_cell_setting 'monoclinic'
loop_
_space_group_symop_operation_xyz
x,y,z
x,-y,z
1/2+x,1/2+y,z
1/2+x,1/2-y,z
loop_
_atom_site_type_symbol
_atom_site_label
_atom_site_fract_x
_atom_site_fract_y
_atom_site_fract_z
Si Si1 0.322560 0.811257 0.358280
Si Si2 0.352327 0.814446 0.057884
Si Si3 0.550806 0.686609 0.478527
Si Si4 0.767630 0.311322 0.516463
Si Si5 0.203162 0.686195 0.066009
Si Si6 0.104484 0.314673 0.323785
Si Si7 0.032895 0.683656 0.776973
Si Si8 0.187506 0.814253 0.764266
O O1 0.186534 0.749126 0.418691
O O2 0.276514 0.744186 0.450615
O O3 0.511355 0.754038 0.198852
O O4 0.320806 0.000000 0.363318
O O5 0.547946 0.754448 0.910100
O O6 0.348738 0.000000 0.047039
O O7 0.244873 0.718884 0.095422
O O8 0.268240 0.779744 0.177747
O O9 0.572306 0.500000 0.451807
O O10 0.585297 0.781396 0.399447
O O11 0.363728 0.723087 0.642066
O O12 0.747405 0.500000 0.533677
O O13 0.602596 0.231416 0.667498
O O14 0.935501 0.254960 0.421227
O O15 0.224349 0.500000 0.039032
O O16 0.330433 0.781524 0.931650
O O17 0.134578 0.500000 0.291466
O O18 0.068649 0.500000 0.762144
O O19 0.127630 0.788196 0.749595
O O20 0.214775 0.000000 0.753551
#
# Coordination Sequence:
#
# PCOD8052903 Si02
#       8
#     4   4   4   4   4   4   4   4
#     4   9  20  38  60  83 111 150 190 229 276 340
#     4  11  21  34  56  87 116 144 186 241 287 324
#     4  11  22  38  59  85 116 149 191 235 281 333
#     4  10  19  36  59  83 111 147 192 231 275 335
#     4  10  18  35  58  82 112 150 190 227 279 341
#     4  11  21  36  59  85 115 149 190 233 280 337
#     4  11  21  33  53  86 117 144 185 238 286 325
#     4  11  21  36  56  81 114 153 190 228 284 343
#
# _framework density 19.101172999999999
#
# number of rings (size 3 to 8) (size 9 to 14) (size 15 to 20)
#    0.000    1.500    2.500    6.000    0.000    0.500 
#    0.000    5.000    0.000    3.000    0.000    0.000 
#    0.000    0.000    0.000    0.000    0.000    0.000 
#
# Total GULP energy -198461.056034 kJ/mol
# GULP energy per Si atom -12403.816002 kJ/mol
# Density = 1.905770 g / cm^3
# Si number density = 19.101173 Si / 1000 Ang^3
#
#
#
# Elastic Constant Matrix: (Units=GPa)
#
#
# Indices 1 2 3 4 5 6 
#
# 1 105.0145 11.2414 66.0969 -0.0007 -1.9440 -0.0016
# 2 11.2414 56.2762 19.1947 -0.0005 4.4030 0.0002
# 3 66.0969 19.1947 158.4357 -0.0261 1.9550 -0.0037
# 4 -0.0007 -0.0005 -0.0261 28.7802 -0.0008 1.4401
# 5 -1.9440 4.4030 1.9550 -0.0008 31.0403 0.0000
# 6 -0.0016 0.0002 -0.0037 1.4401 0.0000 19.6879
#
#
#
# Elastic Compliance Matrix: (Units=1/GPa)
#
#
# Indices 1 2 3 4 5 6 
#
# 1 0.012995 -0.000877 -0.005331 -0.000005 0.001274 0.000000
# 2 -0.000877 0.018789 -0.001878 -0.000001 -0.002602 0.000000
# 3 -0.005331 -0.001878 0.008771 0.000008 -0.000620 0.000001
# 4 -0.000005 -0.000001 0.000008 0.034874 0.000000 -0.002551
# 5 0.001274 -0.002602 -0.000620 0.000000 0.032704 0.000000
# 6 0.000000 0.000000 0.000001 -0.002551 0.000000 0.050979
#
#
# Mechanical properties :
#
#
# Convention : Reuss Voigt Hill
#
# Bulk Modulus (GPa) = 41.01329 56.97694 48.99512
# Shear Modulus (GPa) = 27.26100 30.78124 29.02112
#
# Velocity S-wave (km/s) = 3.78191 4.01868 3.90210
# Velocity P-wave (km/s) = 6.37093 7.17125 6.78291
#
# Compressibility (1/GPa) = 0.02438234
#
# Stress axis : x y z
#
# Youngs Moduli (GPa) = 76.95100 53.22287 114.01391
#
# Poissons Ratio (x) = 0.04669 0.60779
# Poissons Ratio (y) = 0.06751 0.21414
# Poissons Ratio (z) = 0.41022 0.09996
#
# Static dielectric constant tensor:
#      x y z
#    x 3.297270 0.000010 0.021530 
#    y 0.000010 3.348630 0.000000 
#    z 0.021530 0.000000 3.816860 
# 
# 
# High freq. dielectric constant tensor:
#      x y z
#    x 1.707320 0.000000 0.011630 
#    y 0.000000 1.741290 0.000000 
#    z 0.011630 0.000000 1.760550 
# 
# From -- ./inp_files/31641.got.cif
#   From: 2010.03.12/outbox.cif.g09.slc.cpg/sg8_16_cif.got.tgz:31641.got - 2010.03.31 10:45:26.
