data_PCOD8052302
_publ_section_title
;
Structure prediction by ZEFSAII (Michael W. Deem and Ramdas Pophale) SiO2 
 PCOD8052302
Probable space group: P M
;
_chemical_formula_sum "Si O2"
_cell_formula_units_Z 16
_cell_length_a 18.478920
_cell_length_b 8.553265
_cell_length_c 5.163929
_cell_angle_alpha 90.000000
_cell_angle_beta 106.293745
_cell_angle_gamma 90.000000
_cell_volume 783.403986
_symmetry_space_group_name_H-M "P M"
_symmetry_group_IT_number 6
_symmetry_cell_setting 'monoclinic'
loop_
_space_group_symop_operation_xyz
x,y,z
x,-y,z
loop_
_atom_site_type_symbol
_atom_site_label
_atom_site_fract_x
_atom_site_fract_y
_atom_site_fract_z
Si Si1 0.079010 0.818420 0.716020
Si Si2 0.334659 0.318735 0.558679
Si Si3 0.842343 0.185511 0.024605
Si Si4 0.239296 0.682048 0.961434
Si Si5 0.497809 0.816188 0.703243
Si Si6 0.004940 0.317487 0.143653
Si Si7 0.582639 0.187138 0.288318
Si Si8 0.751983 0.815064 0.437068
O O1 0.059779 0.725813 0.435006
O O2 0.066511 0.000000 0.647348
O O3 0.164915 0.785484 0.875950
O O4 0.025948 0.770887 0.901085
O O5 0.356430 0.500000 0.576521
O O6 0.279697 0.275325 0.269167
O O7 0.410039 0.220602 0.606809
O O8 0.294303 0.270862 0.783657
O O9 0.789542 0.238275 0.207834
O O10 0.920932 0.272304 0.139975
O O11 0.856165 0.000000 0.036478
O O12 0.802308 0.247035 0.724627
O O13 0.216803 0.500000 0.924962
O O14 0.540170 0.745281 0.496869
O O15 0.508532 0.000000 0.713636
O O16 0.537329 0.745233 0.997085
O O17 0.012507 0.500000 0.096498
O O18 0.667663 0.253994 0.368928
O O19 0.583146 0.000000 0.287166
O O20 0.747106 0.000000 0.450249
#
# Coordination Sequence:
#
# PCOD8052302 Si02
#       8
#     2   2   2   2   2   2   2   2
#     4  12  25  42  65  93 121 152 197 252 296 344
#     4  10  21  36  55  78 109 146 185 226 276 342
#     4  10  19  33  55  82 109 143 189 240 284 334
#     4  10  21  38  58  81 110 148 187 228 284 350
#     4  10  19  31  51  76 105 139 181 230 278 330
#     4  12  25  42  63  88 123 164 197 236 296 364
#     4   9  17  30  49  77 107 139 180 229 282 334
#     4   9  17  30  52  79 108 141 182 233 288 338
#
# _framework density 20.423690000000001
#
# number of rings (size 3 to 8) (size 9 to 14) (size 15 to 20)
#    0.000    1.750    0.000    5.250    0.000    6.000 
#    0.000    0.000    0.000    4.500    0.000    0.000 
#    0.000    0.000    0.000    0.000    0.000    0.000 
#
# Total GULP energy -198475.365411 kJ/mol
# GULP energy per Si atom -12404.710338 kJ/mol
# Density = 2.037721 g / cm^3
# Si number density = 20.423690 Si / 1000 Ang^3
#
#
#
# Elastic Constant Matrix: (Units=GPa)
#
#
# Indices 1 2 3 4 5 6 
#
# 1 89.1907 21.3007 8.1163 0.0000 1.1634 0.0000
# 2 21.3007 36.7531 16.2289 0.0000 0.5974 0.0000
# 3 8.1163 16.2289 98.9441 0.0000 -6.7179 0.0000
# 4 0.0000 0.0000 0.0000 15.1773 0.0000 2.3429
# 5 1.1634 0.5974 -6.7179 0.0000 40.4260 0.0000
# 6 0.0000 0.0000 0.0000 2.3429 0.0000 -3.8391
#
#
#
# Elastic Compliance Matrix: (Units=1/GPa)
#
#
# Indices 1 2 3 4 5 6 
#
# 1 0.013018 -0.007614 0.000165 0.000000 -0.000235 0.000000
# 2 -0.007614 0.033848 -0.005003 0.000000 -0.001112 0.000000
# 3 0.000165 -0.005003 0.011043 0.000000 0.001904 0.000000
# 4 0.000000 0.000000 0.000000 0.060215 0.000000 0.036748
# 5 -0.000235 -0.001112 0.001904 0.000000 0.025076 0.000000
# 6 0.000000 0.000000 0.000000 0.036748 0.000000 -0.238051
#
#
# Mechanical properties :
#
#
# Convention : Reuss Voigt Hill
#
# Bulk Modulus (GPa) = 30.29722 35.13107 32.71415
# Shear Modulus (GPa) = -84.82556 22.30230 -31.26163
#
# Velocity S-wave (km/s) = -6.45160 3.30810 -3.91660
# Velocity P-wave (km/s) = 6.37424 5.64179 2.09774
#
# Compressibility (1/GPa) = 0.03300633
#
# Stress axis : x y z
#
# Youngs Moduli (GPa) = 76.81463 29.54342 90.55471
#
# Poissons Ratio (x) = 0.22494 -0.01495
# Poissons Ratio (y) = 0.58487 0.45303
# Poissons Ratio (z) = -0.01268 0.14780
#
# Static dielectric constant tensor:
#      x y z
#    x 3.791520 0.000000 -0.108060 
#    y 0.000000 3.338060 0.000000 
#    z -0.108060 0.000000 4.020720 
# 
# 
# High freq. dielectric constant tensor:
#      x y z
#    x 1.814580 0.000000 -0.002460 
#    y 0.000000 1.760060 0.000000 
#    z -0.002460 0.000000 1.819450 
# 
# From -- ./inp_files/1892.got.cif
#   From: 2010.03.12/outbox.cif.g09.slc.cpg/sg6_1_cif.got.tgz:1892.got - 2010.03.30 10:24:59.
