data_PCOD8052469
_publ_section_title
;
Structure prediction by ZEFSAII (Michael W. Deem and Ramdas Pophale) SiO2 
 PCOD8052469
Probable space group: P M
;
_chemical_formula_sum "Si O2"
_cell_formula_units_Z 16
_cell_length_a 17.079519
_cell_length_b 8.468771
_cell_length_c 11.053327
_cell_angle_alpha 90.000000
_cell_angle_beta 150.544747
_cell_angle_gamma 90.000000
_cell_volume 786.190566
_symmetry_space_group_name_H-M "P M"
_symmetry_group_IT_number 6
_symmetry_cell_setting 'monoclinic'
loop_
_space_group_symop_operation_xyz
x,y,z
x,-y,z
loop_
_atom_site_type_symbol
_atom_site_label
_atom_site_fract_x
_atom_site_fract_y
_atom_site_fract_z
Si Si1 0.587420 0.680707 0.150750
Si Si2 0.903293 0.182833 0.474672
Si Si3 0.542696 0.816396 0.349531
Si Si4 0.985351 0.683245 0.333115
Si Si5 0.149270 0.316099 0.203732
Si Si6 0.847934 0.183223 0.911645
Si Si7 0.290954 0.184035 0.627318
Si Si8 0.217796 0.816105 0.042383
O O1 0.544951 0.500000 0.067164
O O2 0.766208 0.714070 0.350293
O O3 0.572289 0.712458 0.272045
O O4 0.468286 0.789468 0.913790
O O5 0.915497 0.216858 0.349276
O O6 0.863797 0.000000 0.442040
O O7 0.067392 0.231629 0.759301
O O8 0.675823 0.774501 0.627656
O O9 0.373011 0.770013 0.175551
O O10 0.550883 0.000000 0.323776
O O11 0.980775 0.500000 0.360724
O O12 0.166434 0.734168 0.550610
O O13 0.874925 0.715102 0.068405
O O14 0.118967 0.500000 0.183641
O O15 0.275814 0.255412 0.472862
O O16 0.220435 0.284619 0.167980
O O17 0.981678 0.225241 0.992126
O O18 0.861905 0.000000 0.964128
O O19 0.251598 0.000000 0.569879
O O20 0.217296 0.000000 0.076008
#
# Coordination Sequence:
#
# PCOD8052469 Si02
#       8
#     2   2   2   2   2   2   2   2
#     4  12  25  40  60  88 121 153 193 248 304 351
#     4  11  23  40  62  86 117 160 205 243 289 352
#     4  10  22  40  62  87 116 154 199 243 290 351
#     4  11  22  38  61  90 123 155 195 246 299 347
#     4  11  22  37  59  88 121 154 193 241 295 348
#     4  10  20  37  61  87 118 157 200 240 287 350
#     4  11  22  40  64  87 117 157 200 240 289 357
#     4  10  22  40  61  85 115 154 199 243 289 348
#
# _framework density 20.351300999999999
#
# number of rings (size 3 to 8) (size 9 to 14) (size 15 to 20)
#    0.000    1.250    0.000    8.250    0.000    7.500 
#    0.000    3.750    0.000    0.000    0.000    0.000 
#    0.000    0.000    0.000    0.000    0.000    0.000 
#
# Total GULP energy -198526.080787 kJ/mol
# GULP energy per Si atom -12407.880049 kJ/mol
# Density = 2.030498 g / cm^3
# Si number density = 20.351301 Si / 1000 Ang^3
#
#
#
# Elastic Constant Matrix: (Units=GPa)
#
#
# Indices 1 2 3 4 5 6 
#
# 1 120.9404 18.9308 52.1765 0.0000 -3.9361 0.0000
# 2 18.9308 69.2694 24.5962 0.0000 -5.1676 0.0000
# 3 52.1765 24.5962 127.8461 0.0000 13.7118 0.0000
# 4 0.0000 0.0000 0.0000 23.2746 0.0000 -2.7376
# 5 -3.9361 -5.1676 13.7118 0.0000 23.9903 0.0000
# 6 0.0000 0.0000 0.0000 -2.7376 0.0000 26.3620
#
#
#
# Elastic Compliance Matrix: (Units=1/GPa)
#
#
# Indices 1 2 3 4 5 6 
#
# 1 0.010515 -0.000950 -0.004550 0.000000 0.004121 0.000000
# 2 -0.000950 0.016259 -0.003301 0.000000 0.005233 0.000000
# 3 -0.004550 -0.003301 0.011154 0.000000 -0.007833 0.000000
# 4 0.000000 0.000000 0.000000 0.043497 0.000000 0.004517
# 5 0.004121 0.005233 -0.007833 0.000000 0.047964 0.000000
# 6 0.000000 0.000000 0.000000 0.004517 0.000000 0.038402
#
#
# Mechanical properties :
#
#
# Convention : Reuss Voigt Hill
#
# Bulk Modulus (GPa) = 49.20459 56.60699 52.90579
# Shear Modulus (GPa) = 26.01871 29.54887 27.78379
#
# Velocity S-wave (km/s) = 3.57946 3.81457 3.69888
# Velocity P-wave (km/s) = 6.42756 6.87579 6.65545
#
# Compressibility (1/GPa) = 0.02032331
#
# Stress axis : x y z
#
# Youngs Moduli (GPa) = 95.10619 61.50517 89.65177
#
# Poissons Ratio (x) = 0.05845 0.40795
# Poissons Ratio (y) = 0.09039 0.29598
# Poissons Ratio (z) = 0.43277 0.20305
#
# Static dielectric constant tensor:
#      x y z
#    x 3.628570 0.000000 0.006780 
#    y 0.000000 3.655250 0.000000 
#    z 0.006780 0.000000 3.738540 
# 
# 
# High freq. dielectric constant tensor:
#      x y z
#    x 1.797440 0.000000 -0.004190 
#    y 0.000000 1.801420 0.000000 
#    z -0.004190 0.000000 1.803170 
# 
# From -- ./inp_files/5346.got.cif
#   From: 2010.03.12/outbox.cif.g09.slc.cpg/sg6_3_cif.got.tgz:5346.got - 2010.03.30 10:24:59.
