data_PCOD8052241
_publ_section_title
;
Structure prediction by ZEFSAII (Michael W. Deem and Ramdas Pophale) SiO2 
 PCOD8052241
Probable space group: P M
;
_chemical_formula_sum "Si O2"
_cell_formula_units_Z 16
_cell_length_a 19.325435
_cell_length_b 8.712681
_cell_length_c 7.762294
_cell_angle_alpha 90.000000
_cell_angle_beta 38.089440
_cell_angle_gamma 90.000000
_cell_volume 806.268127
_symmetry_space_group_name_H-M "P M"
_symmetry_group_IT_number 6
_symmetry_cell_setting 'monoclinic'
loop_
_space_group_symop_operation_xyz
x,y,z
x,-y,z
loop_
_atom_site_type_symbol
_atom_site_label
_atom_site_fract_x
_atom_site_fract_y
_atom_site_fract_z
Si Si1 0.361190 0.182140 0.611970
Si Si2 0.597031 0.181820 0.286972
Si Si3 0.961677 0.817091 0.205735
Si Si4 0.112829 0.181700 0.596757
Si Si5 0.720049 0.318937 0.725726
Si Si6 0.122191 0.182181 0.197072
Si Si7 0.355305 0.182236 0.232532
Si Si8 0.577539 0.319018 0.677646
O O1 0.470891 0.242957 0.496282
O O2 0.370274 0.238283 0.398322
O O3 0.357347 0.000000 0.625517
O O4 0.247187 0.249387 0.918872
O O5 0.636716 0.248669 0.392442
O O6 0.602129 0.000000 0.282595
O O7 0.681812 0.238179 0.975245
O O8 0.845710 0.729545 0.439131
O O9 0.036120 0.759679 0.221288
O O10 0.943714 0.000000 0.244435
O O11 0.022096 0.759805 0.912311
O O12 0.079720 0.236451 0.468886
O O13 0.236075 0.244762 0.400148
O O14 0.118141 0.000000 0.598647
O O15 0.711475 0.500000 0.766300
O O16 0.643378 0.261052 0.717665
O O17 0.129351 0.000000 0.173378
O O18 0.365609 0.000000 0.192319
O O19 0.450439 0.259431 0.930669
O O20 0.580985 0.500000 0.656630
#
# Coordination Sequence:
#
# PCOD8052241 Si02
#       8
#     2   2   2   2   2   2   2   2
#     4   9  16  29  55  89 119 144 178 232 292 340
#     4  11  22  38  64  92 116 147 192 245 289 340
#     4  10  20  35  56  81 108 145 196 245 280 328
#     4   9  17  30  54  85 116 145 179 233 291 336
#     4  11  25  43  59  79 115 160 198 239 291 346
#     4   9  16  29  51  84 118 143 174 228 293 338
#     4  10  17  32  59  88 117 150 189 234 283 340
#     4  11  24  40  58  84 121 160 192 232 289 352
#
# _framework density 19.844515000000001
#
# number of rings (size 3 to 8) (size 9 to 14) (size 15 to 20)
#    0.000    2.000    2.500    1.875    0.000    4.500 
#    0.000    1.875    0.000    3.750    0.000    0.000 
#    0.000    0.000    0.000    0.000    0.000    0.000 
#
# Total GULP energy -198407.866707 kJ/mol
# GULP energy per Si atom -12400.491669 kJ/mol
# Density = 1.979935 g / cm^3
# Si number density = 19.844515 Si / 1000 Ang^3
#
#
#
# Elastic Constant Matrix: (Units=GPa)
#
#
# Indices 1 2 3 4 5 6 
#
# 1 92.5335 21.0815 67.5794 0.0000 25.8226 0.0000
# 2 21.0815 36.0661 23.8161 0.0000 4.4140 0.0000
# 3 67.5794 23.8161 143.2868 0.0000 11.4484 0.0000
# 4 0.0000 0.0000 0.0000 7.4673 0.0000 7.0035
# 5 25.8226 4.4140 11.4484 0.0000 40.9781 0.0000
# 6 0.0000 0.0000 0.0000 7.0035 0.0000 16.6782
#
#
#
# Elastic Compliance Matrix: (Units=1/GPa)
#
#
# Indices 1 2 3 4 5 6 
#
# 1 0.020854 -0.005593 -0.008085 0.000000 -0.010280 0.000000
# 2 -0.005593 0.032799 -0.002877 0.000000 0.000795 0.000000
# 3 -0.008085 -0.002877 0.011086 0.000000 0.002307 0.000000
# 4 0.000000 0.000000 0.000000 0.220928 0.000000 -0.092772
# 5 -0.010280 0.000795 0.002307 0.000000 0.030151 0.000000
# 6 0.000000 0.000000 0.000000 -0.092772 0.000000 0.098915
#
#
# Mechanical properties :
#
#
# Convention : Reuss Voigt Hill
#
# Bulk Modulus (GPa) = 31.61642 55.20451 43.41047
# Shear Modulus (GPa) = 10.90782 23.65200 17.27991
#
# Velocity S-wave (km/s) = 2.34704 3.45609 2.95407
# Velocity P-wave (km/s) = 4.82819 6.61853 5.79294
#
# Compressibility (1/GPa) = 0.03162913
#
# Stress axis : x y z
#
# Youngs Moduli (GPa) = 47.95131 30.48897 90.20437
#
# Poissons Ratio (x) = 0.17053 0.72928
# Poissons Ratio (y) = 0.26820 0.25954
# Poissons Ratio (z) = 0.38767 0.08772
#
# Static dielectric constant tensor:
#      x y z
#    x 3.890670 0.000000 0.114110 
#    y 0.000000 3.111420 0.000000 
#    z 0.114110 0.000000 3.708760 
# 
# 
# High freq. dielectric constant tensor:
#      x y z
#    x 1.785270 0.000000 0.010750 
#    y 0.000000 1.727200 0.000000 
#    z 0.010750 0.000000 1.782470 
# 
# From -- ./inp_files/4267.got.cif
#   From: 2010.03.12/outbox.cif.g09.slc.cpg/sg6_3_cif.got.tgz:4267.got - 2010.03.30 10:24:59.
