data_PCOD8052173
_publ_section_title
;
Structure prediction by ZEFSAII (Michael W. Deem and Ramdas Pophale) SiO2 
 PCOD8052173
Probable space group: C 2
;
_chemical_formula_sum "Si O2"
_cell_formula_units_Z 26
_cell_length_a 10.811573
_cell_length_b 10.889663
_cell_length_c 12.135801
_cell_angle_alpha 90.000000
_cell_angle_beta 61.667728
_cell_angle_gamma 90.000000
_cell_volume 1257.645264
_symmetry_space_group_name_H-M "C 2"
_symmetry_group_IT_number 5
_symmetry_cell_setting 'monoclinic'
loop_
_space_group_symop_operation_xyz
x,y,z
-x,y,-z
1/2+x,1/2+y,z
1/2-x,1/2+y,-z
loop_
_atom_site_type_symbol
_atom_site_label
_atom_site_fract_x
_atom_site_fract_y
_atom_site_fract_z
Si Si1 0.929825 0.870610 0.329225
Si Si2 0.000000 0.029770 0.500000
Si Si3 0.254932 0.181071 0.300732
Si Si4 0.348514 0.776647 0.879513
Si Si5 0.771826 0.768284 0.836995
Si Si6 0.064442 0.072523 0.857645
Si Si7 0.444159 0.972232 0.141073
O O1 0.070272 0.789343 0.268050
O O2 0.798995 0.776313 0.378071
O O3 0.917771 0.945765 0.447214
O O4 0.919121 0.958359 0.228867
O O5 0.888898 0.114916 0.608291
O O6 0.235648 0.258410 0.197124
O O7 0.383689 0.086305 0.234117
O O8 0.460148 0.668581 0.845841
O O9 0.429346 0.907715 0.844773
O O10 0.237821 0.772064 0.026463
O O11 0.714776 0.638032 0.815491
O O12 0.680094 0.876561 0.824836
O O13 0.000000 0.025396 0.000000
O O14 0.500000 0.019706 0.000000
#
# Coordination Sequence:
#
# PCOD8052173 Si02
#       7
#     4   2   4   4   4   4   4
#     4  12  26  42  68  96 126 182 224 269 324 396
#     4  12  28  52  60  88 140 188 228 266 320 388
#     4  12  26  42  68  96 126 182 224 269 324 396
#     4   9  19  38  65  99 137 168 206 269 335 390
#     4   9  19  38  65  99 137 168 206 269 335 390
#     4   9  19  38  65  99 137 168 206 269 335 390
#     4   9  19  38  65  99 137 168 206 269 335 390
#
# _framework density 20.673556000000001
#
# number of rings (size 3 to 8) (size 9 to 14) (size 15 to 20)
#    0.000    1.846    3.077    1.846    4.308    3.692 
#    0.000    0.000    0.000    0.000    0.000    0.000 
#    0.000    0.000    0.000    0.000    0.000    0.000 
#
# Total GULP energy -161208.834049 kJ/mol
# GULP energy per Si atom -12400.679542 kJ/mol
# Density = 2.062650 g / cm^3
# Si number density = 20.673556 Si / 1000 Ang^3
#
#
#
# Elastic Constant Matrix: (Units=GPa)
#
#
# Indices 1 2 3 4 5 6 
#
# 1 56.9231 21.0245 16.1546 0.0000 15.8683 0.0000
# 2 21.0245 74.3750 23.1742 0.0000 15.1698 0.0000
# 3 16.1546 23.1742 53.6557 0.0000 14.9793 0.0000
# 4 0.0000 0.0000 0.0000 -3.7479 0.0000 -12.4756
# 5 15.8683 15.1698 14.9793 0.0000 30.2629 0.0000
# 6 0.0000 0.0000 0.0000 -12.4756 0.0000 -13.7725
#
#
#
# Elastic Compliance Matrix: (Units=1/GPa)
#
#
# Indices 1 2 3 4 5 6 
#
# 1 0.022026 -0.003676 -0.002708 0.000000 -0.008366 0.000000
# 2 -0.003676 0.016883 -0.005060 0.000000 -0.004031 0.000000
# 3 -0.002708 -0.005060 0.023826 0.000000 -0.007837 0.000000
# 4 0.000000 0.000000 0.000000 0.132398 0.000000 -0.119931
# 5 -0.008366 -0.004031 -0.007837 0.000000 0.043330 0.000000
# 6 0.000000 0.000000 0.000000 -0.119931 0.000000 0.036029
#
#
# Mechanical properties :
#
#
# Convention : Reuss Voigt Hill
#
# Bulk Modulus (GPa) = 25.09604 33.96227 29.52916
# Shear Modulus (GPa) = 16.09461 10.85522 13.47492
#
# Velocity S-wave (km/s) = 2.79321 2.29394 2.55580
# Velocity P-wave (km/s) = 4.75060 4.84559 4.79833
#
# Compressibility (1/GPa) = 0.03984692
#
# Stress axis : x y z
#
# Youngs Moduli (GPa) = 45.40061 59.23011 41.97103
#
# Poissons Ratio (x) = 0.21774 0.11367
# Poissons Ratio (y) = 0.16690 0.21237
# Poissons Ratio (z) = 0.12296 0.29969
#
# Static dielectric constant tensor:
#      x y z
#    x 3.878300 0.000000 0.009970 
#    y 0.000000 3.893900 0.000000 
#    z 0.009970 0.000000 3.603980 
# 
# 
# High freq. dielectric constant tensor:
#      x y z
#    x 1.812090 0.000000 0.004800 
#    y 0.000000 1.815560 0.000000 
#    z 0.004800 0.000000 1.782570 
# 
# From -- ./inp_files/38746.got.cif
#   From: 2010.03.12/outbox.cif.g09.slc.cpg/sg5_20_cif.got.tgz:38746.got - 2010.03.31 09:47:26.
