data_PCOD8052020
_publ_section_title
;
Structure prediction by ZEFSAII (Michael W. Deem and Ramdas Pophale) SiO2 
 PCOD8052020
Probable space group: C 2
;
_chemical_formula_sum "Si O2"
_cell_formula_units_Z 26
_cell_length_a 20.618914
_cell_length_b 10.927669
_cell_length_c 5.943589
_cell_angle_alpha 90.000000
_cell_angle_beta 124.681146
_cell_angle_gamma 90.000000
_cell_volume 1101.257614
_symmetry_space_group_name_H-M "C 2"
_symmetry_group_IT_number 5
_symmetry_cell_setting 'monoclinic'
loop_
_space_group_symop_operation_xyz
x,y,z
-x,y,-z
1/2+x,1/2+y,z
1/2-x,1/2+y,-z
loop_
_atom_site_type_symbol
_atom_site_label
_atom_site_fract_x
_atom_site_fract_y
_atom_site_fract_z
Si Si1 0.119813 0.150190 0.442279
Si Si2 0.735904 0.695066 0.057086
Si Si3 0.500000 0.502963 0.500000
Si Si4 0.274408 0.489486 0.635552
Si Si5 0.866736 0.361256 0.852403
Si Si6 0.632137 0.311802 0.913914
Si Si7 0.038806 0.580031 0.828460
O O1 0.148642 0.054149 0.314343
O O2 0.099741 0.284462 0.296700
O O3 0.041390 0.093595 0.402421
O O4 0.198348 0.159948 0.745853
O O5 0.760115 0.570782 0.229636
O O6 0.665008 0.762603 0.039026
O O7 0.815148 0.778099 0.201595
O O8 0.565998 0.413985 0.735334
O O9 0.200495 0.460673 0.333735
O O10 0.305346 0.359755 0.782667
O O11 0.932702 0.439951 0.109802
O O12 0.602806 0.186304 0.961587
O O13 0.000000 0.597609 0.500000
O O14 0.000000 0.600999 0.000000
#
# Coordination Sequence:
#
# PCOD8052020 Si02
#       7
#     4   4   2   4   4   4   4
#     4  11  25  47  73 114 149 207 258 334 409 479
#     4  11  25  48  75 109 149 202 267 334 399 477
#     4  12  26  46  76 114 164 208 266 336 414 486
#     4  11  25  45  77 112 144 201 266 337 395 481
#     4  11  27  47  78 108 153 204 274 332 401 490
#     4  12  26  46  79 111 158 206 265 339 407 487
#     4  12  32  52  77 115 163 218 265 330 415 495
#
# _framework density 23.609369999999998
#
# number of rings (size 3 to 8) (size 9 to 14) (size 15 to 20)
#    0.000    0.615    3.846    1.846   10.769    1.231 
#    0.000    0.000    0.000    0.000    0.000    0.000 
#    0.000    0.000    0.000    0.000    0.000    0.000 
#
# Total GULP energy -161051.075242 kJ/mol
# GULP energy per Si atom -12388.544249 kJ/mol
# Density = 2.355563 g / cm^3
# Si number density = 23.609370 Si / 1000 Ang^3
#
#
#
# Elastic Constant Matrix: (Units=GPa)
#
#
# Indices 1 2 3 4 5 6 
#
# 1 131.5018 49.5111 22.9725 0.0000 -12.3392 0.0000
# 2 49.5111 126.0515 14.4399 0.0000 -9.7202 0.0000
# 3 22.9725 14.4399 62.2140 0.0000 -17.4073 0.0000
# 4 0.0000 0.0000 0.0000 -5.8459 0.0000 6.9433
# 5 -12.3392 -9.7202 -17.4073 0.0000 27.3736 0.0000
# 6 0.0000 0.0000 0.0000 6.9433 0.0000 54.0920
#
#
#
# Elastic Compliance Matrix: (Units=1/GPa)
#
#
# Indices 1 2 3 4 5 6 
#
# 1 0.009395 -0.003307 -0.002245 0.000000 0.001633 0.000000
# 2 -0.003307 0.009410 -0.000542 0.000000 0.001506 0.000000
# 3 -0.002245 -0.000542 0.020304 0.000000 0.011707 0.000000
# 4 0.000000 0.000000 0.000000 -0.148431 0.000000 0.019053
# 5 0.001633 0.001506 0.011707 0.000000 0.045248 0.000000
# 6 0.000000 0.000000 0.000000 0.019053 0.000000 0.016041
#
#
# Mechanical properties :
#
#
# Convention : Reuss Voigt Hill
#
# Bulk Modulus (GPa) = 37.14315 54.84605 45.99460
# Shear Modulus (GPa) = -186.06994 30.64685 -77.71155
#
# Velocity S-wave (km/s) = -8.88724 3.60680 -5.74343
# Velocity P-wave (km/s) = 9.46278 6.37388 4.94559
#
# Compressibility (1/GPa) = 0.02692286
#
# Stress axis : x y z
#
# Youngs Moduli (GPa) = 106.43986 106.26474 49.25203
#
# Poissons Ratio (x) = 0.35143 0.11055
# Poissons Ratio (y) = 0.35201 0.02667
# Poissons Ratio (z) = 0.23890 0.05754
#
# Static dielectric constant tensor:
#      x y z
#    x 4.350260 0.000000 -0.188900 
#    y 0.000000 4.418750 0.000000 
#    z -0.188900 0.000000 4.210830 
# 
# 
# High freq. dielectric constant tensor:
#      x y z
#    x 1.937920 0.000000 -0.006060 
#    y 0.000000 1.960750 0.000000 
#    z -0.006060 0.000000 1.929210 
# 
# From -- ./inp_files/9621.got.cif
#   From: 2010.03.12/outbox.cif.g09.slc.cpg/sg5_5_cif.got.tgz:9621.got - 2010.03.31 09:47:26.
