data_PCOD8052953
_publ_section_title
;
Structure prediction by ZEFSAII (Michael W. Deem and Ramdas Pophale) SiO2 
 PCOD8052953
Probable space group: C M
;
_chemical_formula_sum "Si O2"
_cell_formula_units_Z 32
_cell_length_a 18.511927
_cell_length_b 9.068475
_cell_length_c 14.062241
_cell_angle_alpha 90.000000
_cell_angle_beta 47.311261
_cell_angle_gamma 90.000000
_cell_volume 1735.226005
_symmetry_space_group_name_H-M "C M"
_symmetry_group_IT_number 8
_symmetry_cell_setting 'monoclinic'
loop_
_space_group_symop_operation_xyz
x,y,z
x,-y,z
1/2+x,1/2+y,z
1/2+x,1/2-y,z
loop_
_atom_site_type_symbol
_atom_site_label
_atom_site_fract_x
_atom_site_fract_y
_atom_site_fract_z
Si Si1 0.407950 0.166463 0.391680
Si Si2 0.211235 0.674952 0.100836
Si Si3 0.429388 0.675175 0.868837
Si Si4 0.463897 0.327314 0.628756
Si Si5 0.787883 0.174377 0.647937
Si Si6 0.043975 0.828535 0.134412
Si Si7 0.584844 0.837298 0.381663
Si Si8 0.588397 0.328862 0.878065
O O1 0.315813 0.250569 0.522099
O O2 0.445893 0.251501 0.263913
O O3 0.496166 0.164632 0.386874
O O4 0.375972 0.000000 0.393101
O O5 0.200109 0.500000 0.092300
O O6 0.143560 0.757473 0.085278
O O7 0.180284 0.714213 0.237061
O O8 0.321401 0.734247 0.991040
O O9 0.426131 0.500000 0.870079
O O10 0.458167 0.739076 0.739764
O O11 0.507568 0.730764 0.876032
O O12 0.474505 0.500000 0.623666
O O13 0.367056 0.280198 0.657334
O O14 0.562538 0.268271 0.490097
O O15 0.684671 0.231916 0.777817
O O16 0.784063 0.000000 0.636188
O O17 0.041532 0.000000 0.164947
O O18 0.043041 0.805291 0.022439
O O19 0.600517 0.000000 0.409885
O O20 0.614676 0.500000 0.836831
#
# Coordination Sequence:
#
# PCOD8052953 Si02
#       8
#     4   4   4   4   4   4   4   4
#     4   9  17  31  52  76 102 131 163 202 249 300
#     4   9  17  32  54  74  93 126 169 207 246 293
#     4   9  18  34  52  69  94 131 172 205 238 289
#     4   9  17  30  51  74  95 124 160 200 243 287
#     4  10  19  32  53  79 103 127 162 209 253 294
#     4  10  19  31  50  77 105 131 164 207 250 293
#     4   8  15  27  46  73  99 121 151 196 246 293
#     4  10  21  35  50  70 101 139 171 202 245 297
#
# _framework density 18.441400999999999
#
# number of rings (size 3 to 8) (size 9 to 14) (size 15 to 20)
#    0.000    2.750    0.000    2.625    0.000    5.500 
#    0.000    3.125    0.000    1.500    0.000    0.000 
#    0.000    0.000    0.000    0.000    0.000    0.000 
#
# Total GULP energy -198367.662687 kJ/mol
# GULP energy per Si atom -12397.978918 kJ/mol
# Density = 1.839943 g / cm^3
# Si number density = 18.441401 Si / 1000 Ang^3
#
#
#
# Elastic Constant Matrix: (Units=GPa)
#
#
# Indices 1 2 3 4 5 6 
#
# 1 74.1645 34.2995 51.4040 0.0000 16.1453 0.0000
# 2 34.2995 68.0304 48.1983 0.0000 7.5157 0.0001
# 3 51.4040 48.1983 143.9053 0.0000 24.2662 0.0000
# 4 0.0000 0.0000 0.0000 34.5712 0.0000 0.2017
# 5 16.1453 7.5157 24.2662 0.0000 10.4393 0.0000
# 6 0.0000 0.0001 0.0000 0.2017 0.0000 15.0911
#
#
#
# Elastic Compliance Matrix: (Units=1/GPa)
#
#
# Indices 1 2 3 4 5 6 
#
# 1 0.024463 -0.008403 -0.000928 0.000000 -0.029627 0.000000
# 2 -0.008403 0.022181 -0.006457 0.000000 0.012036 0.000000
# 3 -0.000928 -0.006457 0.013843 0.000000 -0.026095 0.000000
# 4 0.000000 0.000000 0.000000 0.028928 0.000000 -0.000387
# 5 -0.029627 0.012036 -0.026095 0.000000 0.193604 0.000000
# 6 0.000000 0.000000 0.000000 -0.000387 0.000000 0.066270
#
#
# Mechanical properties :
#
#
# Convention : Reuss Voigt Hill
#
# Bulk Modulus (GPa) = 34.58912 61.54485 48.06699
# Shear Modulus (GPa) = 12.80404 22.16687 17.48545
#
# Velocity S-wave (km/s) = 2.63783 3.47077 3.08257
# Velocity P-wave (km/s) = 5.29854 7.03614 6.22824
#
# Compressibility (1/GPa) = 0.02891082
#
# Stress axis : x y z
#
# Youngs Moduli (GPa) = 40.87880 45.08372 72.23610
#
# Poissons Ratio (x) = 0.37884 0.06703
# Poissons Ratio (y) = 0.34351 0.46644
# Poissons Ratio (z) = 0.03793 0.29111
#
# Static dielectric constant tensor:
#      x y z
#    x 3.152440 0.000000 0.088930 
#    y 0.000000 3.338670 0.000000 
#    z 0.088930 0.000000 3.773030 
# 
# 
# High freq. dielectric constant tensor:
#      x y z
#    x 1.677220 0.000000 0.005840 
#    y 0.000000 1.703650 0.000000 
#    z 0.005840 0.000000 1.735470 
# 
# From -- ./inp_files/27692.got.cif
#   From: 2010.03.12/outbox.cif.g09.slc.cpg/sg8_14_cif.got.tgz:27692.got - 2010.03.31 10:45:26.
