data_PCOD8052125
_publ_section_title
;
Structure prediction by ZEFSAII (Michael W. Deem and Ramdas Pophale) SiO2 
 PCOD8052125
Probable space group: C 2
;
_chemical_formula_sum "Si O2"
_cell_formula_units_Z 28
_cell_length_a 9.198553
_cell_length_b 13.144357
_cell_length_c 21.228672
_cell_angle_alpha 90.000000
_cell_angle_beta 29.932324
_cell_angle_gamma 90.000000
_cell_volume 1280.742967
_symmetry_space_group_name_H-M "C 2"
_symmetry_group_IT_number 5
_symmetry_cell_setting 'monoclinic'
loop_
_space_group_symop_operation_xyz
x,y,z
-x,y,-z
1/2+x,1/2+y,z
1/2-x,1/2+y,-z
loop_
_atom_site_type_symbol
_atom_site_label
_atom_site_fract_x
_atom_site_fract_y
_atom_site_fract_z
Si Si1 0.268782 0.289880 0.857104
Si Si2 0.678722 0.408542 0.618230
Si Si3 0.302876 0.956807 0.857140
Si Si4 0.126257 0.123334 0.686891
Si Si5 0.017865 0.628385 0.858707
Si Si6 0.151617 0.838156 0.381782
Si Si7 0.047746 0.118313 0.858564
O O1 0.482271 0.378040 0.752627
O O2 0.438247 0.212055 0.837358
O O3 0.167355 0.230531 0.831927
O O4 0.000000 0.334879 0.000000
O O5 0.727516 0.530210 0.604563
O O6 0.534826 0.373326 0.607593
O O7 0.000000 0.357255 0.500000
O O8 0.507298 0.868682 0.752631
O O9 0.504832 0.016155 0.832065
O O10 0.212450 0.034680 0.837404
O O11 0.000000 0.911760 0.000000
O O12 0.354161 0.216503 0.604552
O O13 0.092153 0.085454 0.770778
O O14 0.824461 0.161178 0.771069
O O15 0.794159 0.623379 0.000098
O O16 0.000000 0.889464 0.500000
#
# Coordination Sequence:
#
# PCOD8052125 Si02
#       7
#     4   4   4   4   4   4   4
#     4   9  20  44  71  98 139 184 229 284 357 420
#     4  12  28  49  68 101 141 187 238 292 350 421
#     4   9  20  44  71  98 139 184 229 284 357 420
#     4  12  24  42  68 100 139 178 235 294 341 420
#     4   9  19  38  68 106 139 177 228 289 350 418
#     4  12  28  49  68 101 141 187 238 292 350 421
#     4   9  19  38  68 106 139 177 228 289 350 418
#
# _framework density 21.862310000000001
#
# number of rings (size 3 to 8) (size 9 to 14) (size 15 to 20)
#    0.000    1.714    2.857    2.571    4.000    2.286 
#    0.000    2.857    0.000    0.000    0.000    0.000 
#    0.000    0.000    0.000    0.000    0.000    0.000 
#
# Total GULP energy -173533.370739 kJ/mol
# GULP energy per Si atom -12395.240767 kJ/mol
# Density = 2.181255 g / cm^3
# Si number density = 21.862310 Si / 1000 Ang^3
#
#
#
# Elastic Constant Matrix: (Units=GPa)
#
#
# Indices 1 2 3 4 5 6 
#
# 1 106.1950 24.5094 62.6930 -0.0476 0.0890 -0.0075
# 2 24.5094 96.3413 49.6200 0.0406 0.2280 -0.0038
# 3 62.6930 49.6200 140.9308 -0.3185 0.4216 -0.0976
# 4 -0.0476 0.0406 -0.3185 14.7088 0.0343 -0.1581
# 5 0.0890 0.2280 0.4216 0.0343 26.4114 0.0516
# 6 -0.0075 -0.0038 -0.0976 -0.1581 0.0516 24.4420
#
#
#
# Elastic Compliance Matrix: (Units=1/GPa)
#
#
# Indices 1 2 3 4 5 6 
#
# 1 0.012783 -0.000395 -0.005548 -0.000078 0.000049 -0.000019
# 2 -0.000395 0.012691 -0.004293 -0.000129 -0.000040 -0.000016
# 3 -0.005548 -0.004293 0.011076 0.000234 -0.000121 0.000044
# 4 -0.000078 -0.000129 0.000234 0.067997 -0.000091 0.000441
# 5 0.000049 -0.000040 -0.000121 -0.000091 0.037865 -0.000081
# 6 -0.000019 -0.000016 0.000044 0.000441 -0.000081 0.040916
#
#
# Mechanical properties :
#
#
# Convention : Reuss Voigt Hill
#
# Bulk Modulus (GPa) = 62.19226 68.56799 65.38012
# Shear Modulus (GPa) = 23.90524 26.88876 25.39700
#
# Velocity S-wave (km/s) = 3.31032 3.51082 3.41204
# Velocity P-wave (km/s) = 6.56658 6.91853 6.74485
#
# Compressibility (1/GPa) = 0.01607917
#
# Stress axis : x y z
#
# Youngs Moduli (GPa) = 78.22982 78.79314 90.28449
#
# Poissons Ratio (x) = 0.03110 0.50088
# Poissons Ratio (y) = 0.03088 0.38760
# Poissons Ratio (z) = 0.43400 0.33827
#
# Static dielectric constant tensor:
#      x y z
#    x 3.966170 0.005290 0.002060 
#    y 0.005290 4.011930 -0.000950 
#    z 0.002060 -0.000950 4.087560 
# 
# 
# High freq. dielectric constant tensor:
#      x y z
#    x 1.864300 0.000000 -0.000010 
#    y 0.000000 1.848420 0.000000 
#    z -0.000010 0.000000 1.863490 
# 
# From -- ./inp_files/64700.got.cif
#   From: 2010.03.12/outbox.cif.g09.slc.cpg/sg5_33_cif.got.tgz:64700.got - 2010.03.31 09:47:26.
