data_PCOD8052930
_publ_section_title
;
Structure prediction by ZEFSAII (Michael W. Deem and Ramdas Pophale) SiO2 
 PCOD8052930
Probable space group: C M
;
_chemical_formula_sum "Si O2"
_cell_formula_units_Z 24
_cell_length_a 19.052948
_cell_length_b 9.457099
_cell_length_c 24.924820
_cell_angle_alpha 90.000000
_cell_angle_beta 161.903118
_cell_angle_gamma 90.000000
_cell_volume 1395.044749
_symmetry_space_group_name_H-M "C M"
_symmetry_group_IT_number 8
_symmetry_cell_setting 'monoclinic'
loop_
_space_group_symop_operation_xyz
x,y,z
x,-y,z
1/2+x,1/2+y,z
1/2+x,1/2-y,z
loop_
_atom_site_type_symbol
_atom_site_label
_atom_site_fract_x
_atom_site_fract_y
_atom_site_fract_z
Si Si1 0.287840 0.163189 0.356920
Si Si2 0.807600 0.167996 0.046058
Si Si3 0.342879 0.841843 0.668395
Si Si4 0.166814 0.666681 0.060704
Si Si5 0.182749 0.844648 0.673668
Si Si6 0.437763 0.164770 0.344918
O O1 0.475145 0.237601 0.530412
O O2 0.333709 0.188905 0.327913
O O3 0.041934 0.227029 0.192457
O O4 0.298311 0.000000 0.380054
O O5 0.778689 0.219110 0.086298
O O6 0.798462 0.000000 0.038813
O O7 0.599666 0.219236 0.856961
O O8 0.258459 0.849787 0.667513
O O9 0.185806 0.735570 0.520383
O O10 0.331876 0.000000 0.634884
O O11 0.210252 0.500000 0.101868
O O12 0.270325 0.758962 0.182914
O O13 0.898824 0.700793 0.866008
O O14 0.099512 0.000000 0.630982
O O15 0.460015 0.000000 0.346962
#
# Coordination Sequence:
#
# PCOD8052930 Si02
#       6
#     4   4   4   4   4   4
#     4   9  17  30  48  69  92 116 145 184 226 265
#     4   8  15  30  51  70  85 111 155 193 217 252
#     4   8  14  28  49  66  84 116 155 187 213 254
#     4   9  17  31  50  67  86 117 155 188 215 255
#     4   8  15  28  46  67  88 115 152 185 216 260
#     4  10  19  29  44  69  97 119 142 179 227 272
#
# _framework density 17.203749999999999
#
# number of rings (size 3 to 8) (size 9 to 14) (size 15 to 20)
#    0.000    3.333    0.000    2.500    0.000    1.333 
#    0.000    5.833    0.000    8.000    0.000    0.000 
#    0.000    0.000    0.000    0.000    0.000    0.000 
#
# Total GULP energy -148726.059679 kJ/mol
# GULP energy per Si atom -12393.838307 kJ/mol
# Density = 1.716459 g / cm^3
# Si number density = 17.203750 Si / 1000 Ang^3
#
#
#
# Elastic Constant Matrix: (Units=GPa)
#
#
# Indices 1 2 3 4 5 6 
#
# 1 34.5823 32.0709 47.2272 0.0074 2.5569 0.0000
# 2 32.0709 85.2179 81.2665 0.0063 -6.4523 0.0039
# 3 47.2272 81.2665 178.3242 0.0052 2.0405 -0.0059
# 4 0.0074 0.0063 0.0052 32.8115 0.0036 -3.8509
# 5 2.5569 -6.4523 2.0405 0.0036 31.0326 -0.0004
# 6 0.0000 0.0039 -0.0059 -3.8509 -0.0004 16.9909
#
#
#
# Elastic Compliance Matrix: (Units=1/GPa)
#
#
# Indices 1 2 3 4 5 6 
#
# 1 0.051750 -0.012293 -0.008031 -0.000008 -0.006292 -0.000002
# 2 -0.012293 0.024460 -0.007967 -0.000002 0.006623 -0.000009
# 3 -0.008031 -0.007967 0.011385 0.000002 -0.001743 0.000006
# 4 -0.000008 -0.000002 0.000002 0.031310 -0.000004 0.007096
# 5 -0.006292 0.006623 -0.001743 -0.000004 0.034234 -0.000002
# 6 -0.000002 -0.000009 0.000006 0.007096 -0.000002 0.060464
#
#
# Mechanical properties :
#
#
# Convention : Reuss Voigt Hill
#
# Bulk Modulus (GPa) = 32.24496 68.80595 50.52545
# Shear Modulus (GPa) = 17.82382 25.33766 21.58074
#
# Velocity S-wave (km/s) = 3.22225 3.84187 3.54562
# Velocity P-wave (km/s) = 5.71205 7.73056 6.79666
#
# Compressibility (1/GPa) = 0.03101260
#
# Stress axis : x y z
#
# Youngs Moduli (GPa) = 19.32376 40.88276 87.83139
#
# Poissons Ratio (x) = 0.50258 0.70538
# Poissons Ratio (y) = 0.23755 0.69976
# Poissons Ratio (z) = 0.15519 0.32572
#
# Static dielectric constant tensor:
#      x y z
#    x 2.910470 -0.000010 0.175630 
#    y -0.000010 3.170290 -0.000070 
#    z 0.175630 -0.000070 3.700770 
# 
# 
# High freq. dielectric constant tensor:
#      x y z
#    x 1.623020 0.000000 0.000640 
#    y 0.000000 1.646970 -0.000010 
#    z 0.000640 -0.000010 1.681460 
# 
# From -- ./inp_files/14194.got.cif
#   From: 2010.03.12/outbox.cif.g09.slc.cpg/sg8_8_cif.got.tgz:14194.got - 2010.03.31 10:45:26.
