data_PCOD8052433
_publ_section_title
;
Structure prediction by ZEFSAII (Michael W. Deem and Ramdas Pophale) SiO2 
 PCOD8052433
Probable space group: P M
;
_chemical_formula_sum "Si O2"
_cell_formula_units_Z 16
_cell_length_a 14.383036
_cell_length_b 8.588768
_cell_length_c 19.417049
_cell_angle_alpha 90.000000
_cell_angle_beta 19.163484
_cell_angle_gamma 90.000000
_cell_volume 787.388118
_symmetry_space_group_name_H-M "P M"
_symmetry_group_IT_number 6
_symmetry_cell_setting 'monoclinic'
loop_
_space_group_symop_operation_xyz
x,y,z
x,-y,z
loop_
_atom_site_type_symbol
_atom_site_label
_atom_site_fract_x
_atom_site_fract_y
_atom_site_fract_z
Si Si1 0.857010 0.179596 0.573050
Si Si2 0.958323 0.821389 0.995030
Si Si3 0.279861 0.315575 0.168307
Si Si4 0.457436 0.176399 0.736748
Si Si5 0.399482 0.314270 0.580204
Si Si6 0.861506 0.323262 0.353451
Si Si7 0.379076 0.681104 0.436410
Si Si8 0.851420 0.182364 0.730755
O O1 0.545478 0.201664 0.755187
O O2 0.845593 0.252171 0.657344
O O3 0.106030 0.260522 0.356125
O O4 0.941134 0.000000 0.519138
O O5 0.682493 0.714401 0.190413
O O6 0.867767 0.000000 0.047144
O O7 0.125537 0.801972 0.951248
O O8 0.149771 0.769021 0.796784
O O9 0.266116 0.500000 0.176568
O O10 0.141526 0.246287 0.192960
O O11 0.601311 0.259906 0.949998
O O12 0.620541 0.308200 0.580292
O O13 0.549622 0.000000 0.649849
O O14 0.375658 0.500000 0.607151
O O15 0.711137 0.253549 0.389843
O O16 0.375427 0.264444 0.518105
O O17 0.936147 0.500000 0.285619
O O18 0.308043 0.500000 0.478841
O O19 0.148047 0.780321 0.558028
O O20 0.798163 0.000000 0.767158
#
# Coordination Sequence:
#
# PCOD8052433 Si02
#       8
#     2   2   2   2   2   2   2   2
#     4   9  19  37  59  82 110 145 182 221 268 321
#     4  10  20  35  58  86 114 143 175 219 274 327
#     4  10  20  35  58  86 114 143 175 219 274 327
#     4   8  15  30  53  82 112 139 172 214 264 324
#     4   9  19  37  59  82 110 145 182 221 268 321
#     4   8  15  30  53  82 112 139 172 214 264 324
#     4  11  24  40  57  78 107 145 189 232 270 316
#     4  11  24  40  57  78 107 145 189 232 270 316
#
# _framework density 20.320347999999999
#
# number of rings (size 3 to 8) (size 9 to 14) (size 15 to 20)
#    0.000    2.500    0.000    1.500    0.000    5.000 
#    0.000    0.000    0.000    0.000    0.000    0.000 
#    0.000    0.000    0.000    0.000    0.000    0.000 
#
# Total GULP energy -198239.773885 kJ/mol
# GULP energy per Si atom -12389.985868 kJ/mol
# Density = 2.027410 g / cm^3
# Si number density = 20.320348 Si / 1000 Ang^3
#
#
#
# Elastic Constant Matrix: (Units=GPa)
#
#
# Indices 1 2 3 4 5 6 
#
# 1 83.7946 15.1446 9.7128 0.0000 -4.4381 0.0000
# 2 15.1446 37.7531 11.6146 0.0000 3.9366 0.0000
# 3 9.7128 11.6146 76.3006 0.0000 -9.0971 0.0000
# 4 0.0000 0.0000 0.0000 19.8751 0.0000 -1.5368
# 5 -4.4381 3.9366 -9.0971 0.0000 27.3702 0.0000
# 6 0.0000 0.0000 0.0000 -1.5368 0.0000 25.6593
#
#
#
# Elastic Compliance Matrix: (Units=1/GPa)
#
#
# Indices 1 2 3 4 5 6 
#
# 1 0.013112 -0.005383 -0.000525 0.000000 0.002726 0.000000
# 2 -0.005383 0.030857 -0.004837 0.000000 -0.006918 0.000000
# 3 -0.000525 -0.004837 0.014559 0.000000 0.005449 0.000000
# 4 0.000000 0.000000 0.000000 0.050548 0.000000 0.003028
# 5 0.002726 -0.006918 0.005449 0.000000 0.039784 0.000000
# 6 0.000000 0.000000 0.000000 0.003028 0.000000 0.039154
#
#
# Mechanical properties :
#
#
# Convention : Reuss Voigt Hill
#
# Bulk Modulus (GPa) = 26.99845 30.08802 28.54324
# Shear Modulus (GPa) = 22.53794 25.33935 23.93865
#
# Velocity S-wave (km/s) = 3.33398 3.53511 3.43602
# Velocity P-wave (km/s) = 5.30432 5.61263 5.46065
#
# Compressibility (1/GPa) = 0.03703916
#
# Stress axis : x y z
#
# Youngs Moduli (GPa) = 76.26617 32.40804 68.68686
#
# Poissons Ratio (x) = 0.17444 0.03604
# Poissons Ratio (y) = 0.41051 0.33222
# Poissons Ratio (z) = 0.04002 0.15675
#
# Static dielectric constant tensor:
#      x y z
#    x 3.954410 0.000000 -0.235650 
#    y 0.000000 3.544730 0.000000 
#    z -0.235650 0.000000 3.467470 
# 
# 
# High freq. dielectric constant tensor:
#      x y z
#    x 1.797640 0.000000 -0.017980 
#    y 0.000000 1.785620 0.000000 
#    z -0.017980 0.000000 1.777560 
# 
# From -- ./inp_files/5935.got.cif
#   From: 2010.03.12/outbox.cif.g09.slc.cpg/sg6_3_cif.got.tgz:5935.got - 2010.03.30 10:24:59.
