data_PCOD8052429
_publ_section_title
;
Structure prediction by ZEFSAII (Michael W. Deem and Ramdas Pophale) SiO2 
 PCOD8052429
Probable space group: P M
;
_chemical_formula_sum "Si O2"
_cell_formula_units_Z 16
_cell_length_a 12.137727
_cell_length_b 8.674181
_cell_length_c 10.265457
_cell_angle_alpha 90.000000
_cell_angle_beta 128.308588
_cell_angle_gamma 90.000000
_cell_volume 848.083539
_symmetry_space_group_name_H-M "P M"
_symmetry_group_IT_number 6
_symmetry_cell_setting 'monoclinic'
loop_
_space_group_symop_operation_xyz
x,y,z
x,-y,z
loop_
_atom_site_type_symbol
_atom_site_label
_atom_site_fract_x
_atom_site_fract_y
_atom_site_fract_z
Si Si1 0.782510 0.679728 0.833770
Si Si2 0.498202 0.823834 0.004716
Si Si3 0.766066 0.322033 0.289581
Si Si4 0.940613 0.179563 0.189208
Si Si5 0.504077 0.177781 0.703952
Si Si6 0.923455 0.321331 0.666686
Si Si7 0.185849 0.820416 0.746594
Si Si8 0.209449 0.319943 0.487991
O O1 0.801380 0.500000 0.878557
O O2 0.618154 0.721911 0.710307
O O3 0.845913 0.726076 0.741460
O O4 0.859843 0.779739 0.998772
O O5 0.599956 0.714626 0.162974
O O6 0.529891 0.000000 0.065164
O O7 0.525599 0.794636 0.872699
O O8 0.337207 0.779886 0.919744
O O9 0.793043 0.500000 0.274816
O O10 0.844443 0.217218 0.242409
O O11 0.820005 0.280244 0.472438
O O12 0.085860 0.273946 0.298560
O O13 0.975653 0.000000 0.216967
O O14 0.349669 0.231337 0.548200
O O15 0.522499 0.000000 0.680016
O O16 0.964940 0.500000 0.696078
O O17 0.066322 0.222733 0.762389
O O18 0.158859 0.723864 0.595904
O O19 0.181582 0.000000 0.705378
O O20 0.238958 0.500000 0.502027
#
# Coordination Sequence:
#
# PCOD8052429 Si02
#       8
#     2   2   2   2   2   2   2   2
#     4  11  23  40  60  84 117 159 199 241 291 348
#     4   9  19  34  54  84 117 146 186 238 286 338
#     4  11  21  35  58  87 115 149 194 239 286 345
#     4  12  23  37  58  87 118 150 193 247 294 344
#     4  10  20  36  57  85 119 152 191 240 293 346
#     4  10  23  40  58  84 119 155 196 239 288 350
#     4  10  20  35  57  84 116 153 194 237 290 345
#     4  11  21  35  58  87 117 150 193 243 292 344
#
# _framework density 18.866064999999999
#
# number of rings (size 3 to 8) (size 9 to 14) (size 15 to 20)
#    0.000    1.500    2.500    4.500    0.000    4.000 
#    0.000    1.250    0.000    4.500    0.000    0.000 
#    0.000    0.000    0.000    0.000    0.000    0.000 
#
# Total GULP energy -198485.649650 kJ/mol
# GULP energy per Si atom -12405.353103 kJ/mol
# Density = 1.882312 g / cm^3
# Si number density = 18.866065 Si / 1000 Ang^3
#
#
#
# Elastic Constant Matrix: (Units=GPa)
#
#
# Indices 1 2 3 4 5 6 
#
# 1 118.0100 29.0084 48.9270 0.0000 10.7858 0.0000
# 2 29.0084 71.6308 26.2247 0.0000 -0.2120 0.0000
# 3 48.9270 26.2247 85.2878 0.0000 9.1318 0.0000
# 4 0.0000 0.0000 0.0000 21.1910 0.0000 13.3399
# 5 10.7858 -0.2120 9.1318 0.0000 31.4542 0.0000
# 6 0.0000 0.0000 0.0000 13.3399 0.0000 28.6163
#
#
#
# Elastic Compliance Matrix: (Units=1/GPa)
#
#
# Indices 1 2 3 4 5 6 
#
# 1 0.011682 -0.002680 -0.005621 0.000000 -0.002392 0.000000
# 2 -0.002680 0.016421 -0.003738 0.000000 0.002115 0.000000
# 3 -0.005621 -0.003738 0.016406 0.000000 -0.002860 0.000000
# 4 0.000000 0.000000 0.000000 0.066790 0.000000 -0.031135
# 5 -0.002392 0.002115 -0.002860 0.000000 0.033457 0.000000
# 6 0.000000 0.000000 0.000000 -0.031135 0.000000 0.049459
#
#
# Mechanical properties :
#
#
# Convention : Reuss Voigt Hill
#
# Bulk Modulus (GPa) = 48.94980 53.69434 51.32207
# Shear Modulus (GPa) = 22.21210 27.63686 24.92448
#
# Velocity S-wave (km/s) = 3.43499 3.83155 3.63868
# Velocity P-wave (km/s) = 6.46022 6.93520 6.70192
#
# Compressibility (1/GPa) = 0.02042909
#
# Stress axis : x y z
#
# Youngs Moduli (GPa) = 85.60294 60.89920 60.95497
#
# Poissons Ratio (x) = 0.16320 0.34265
# Poissons Ratio (y) = 0.22940 0.22786
# Poissons Ratio (z) = 0.48121 0.22765
#
# Static dielectric constant tensor:
#      x y z
#    x 3.453370 0.000000 0.228860 
#    y 0.000000 3.449740 0.000000 
#    z 0.228860 0.000000 3.446500 
# 
# 
# High freq. dielectric constant tensor:
#      x y z
#    x 1.726210 0.000000 0.027330 
#    y 0.000000 1.742440 0.000000 
#    z 0.027330 0.000000 1.721740 
# 
# From -- ./inp_files/3811.got.cif
#   From: 2010.03.12/outbox.cif.g09.slc.cpg/sg6_2_cif.got.tgz:3811.got - 2010.03.30 10:24:59.
