data_PCOD8052170
_publ_section_title
;
Structure prediction by ZEFSAII (Michael W. Deem and Ramdas Pophale) SiO2 
 PCOD8052170
Probable space group: C 2
;
_chemical_formula_sum "Si O2"
_cell_formula_units_Z 32
_cell_length_a 11.862386
_cell_length_b 8.918696
_cell_length_c 14.623916
_cell_angle_alpha 90.000000
_cell_angle_beta 68.552223
_cell_angle_gamma 90.000000
_cell_volume 1440.027272
_symmetry_space_group_name_H-M "C 2"
_symmetry_group_IT_number 5
_symmetry_cell_setting 'monoclinic'
loop_
_space_group_symop_operation_xyz
x,y,z
-x,y,-z
1/2+x,1/2+y,z
1/2-x,1/2+y,-z
loop_
_atom_site_type_symbol
_atom_site_label
_atom_site_fract_x
_atom_site_fract_y
_atom_site_fract_z
Si Si1 0.165192 0.770650 0.098996
Si Si2 0.222269 0.683767 0.594387
Si Si3 0.711283 0.612599 0.102341
Si Si4 0.583320 0.911057 0.394168
Si Si5 0.576358 0.102493 0.815378
Si Si6 0.512656 0.793620 0.758834
Si Si7 0.637274 0.393546 0.463409
Si Si8 0.230626 0.692309 0.283296
O O1 0.213529 0.716737 0.181811
O O2 0.029186 0.714225 0.122408
O O3 0.164442 0.948992 0.089103
O O4 0.255646 0.701043 0.998612
O O5 0.337673 0.773557 0.594746
O O6 0.127699 0.656624 0.703251
O O7 0.272689 0.528539 0.538076
O O8 0.149789 0.764513 0.535206
O O9 0.824023 0.603259 0.136221
O O10 0.606904 0.701624 0.184785
O O11 0.500000 0.976930 0.500000
O O12 0.492409 0.853362 0.343160
O O13 0.671037 0.037167 0.329243
O O14 0.525169 0.933909 0.823813
O O15 0.627388 0.683529 0.734385
O O16 0.500000 0.451919 0.500000
O O17 0.671632 0.332813 0.353046
#
# Coordination Sequence:
#
# PCOD8052170 Si02
#       8
#     4   4   4   4   4   4   4   4
#     4  12  27  49  79 109 148 194 250 309 378 447
#     4  12  26  46  72 106 150 195 253 305 377 438
#     4  12  28  51  77 112 147 197 250 313 378 446
#     4  12  27  47  74 109 151 200 253 309 372 449
#     4  12  25  52  73 107 151 193 244 315 372 445
#     4  12  26  49  78 104 157 195 242 311 377 447
#     4  12  26  46  70 107 149 199 249 307 368 446
#     4  12  26  46  74 109 149 195 248 303 378 441
#
# _framework density 22.221803999999999
#
# number of rings (size 3 to 8) (size 9 to 14) (size 15 to 20)
#    0.000    0.000    5.000    4.125    3.500    1.500 
#    2.250    0.000    0.000    0.000    0.000    0.000 
#    0.000    0.000    0.000    0.000    0.000    0.000 
#
# Total GULP energy -198563.017429 kJ/mol
# GULP energy per Si atom -12410.188589 kJ/mol
# Density = 2.217123 g / cm^3
# Si number density = 22.221804 Si / 1000 Ang^3
#
#
#
# Elastic Constant Matrix: (Units=GPa)
#
#
# Indices 1 2 3 4 5 6 
#
# 1 113.5308 37.5529 25.9004 0.0000 -4.5365 0.0000
# 2 37.5529 125.5546 44.9892 0.0000 3.8508 0.0000
# 3 25.9004 44.9892 113.3053 0.0000 5.7788 0.0000
# 4 0.0000 0.0000 0.0000 34.6659 0.0000 -1.9661
# 5 -4.5365 3.8508 5.7788 0.0000 27.8163 0.0000
# 6 0.0000 0.0000 0.0000 -1.9661 0.0000 37.8396
#
#
#
# Elastic Compliance Matrix: (Units=1/GPa)
#
#
# Indices 1 2 3 4 5 6 
#
# 1 0.010072 -0.002583 -0.001393 0.000000 0.002290 0.000000
# 2 -0.002583 0.009956 -0.003306 0.000000 -0.001113 0.000000
# 3 -0.001393 -0.003306 0.010557 0.000000 -0.001963 0.000000
# 4 0.000000 0.000000 0.000000 0.028932 0.000000 0.001503
# 5 0.002290 -0.001113 -0.001963 0.000000 0.036885 0.000000
# 6 0.000000 0.000000 0.000000 0.001503 0.000000 0.026505
#
#
# Mechanical properties :
#
#
# Convention : Reuss Voigt Hill
#
# Bulk Modulus (GPa) = 62.42302 63.25284 62.83793
# Shear Modulus (GPa) = 35.01075 36.32758 35.66917
#
# Velocity S-wave (km/s) = 3.97358 4.04762 4.01077
# Velocity P-wave (km/s) = 7.01458 7.09721 7.05602
#
# Compressibility (1/GPa) = 0.01601973
#
# Stress axis : x y z
#
# Youngs Moduli (GPa) = 99.28416 100.44124 94.72430
#
# Poissons Ratio (x) = 0.25949 0.13198
# Poissons Ratio (y) = 0.25650 0.31315
# Poissons Ratio (z) = 0.13834 0.33204
#
# Static dielectric constant tensor:
#      x y z
#    x 4.144970 0.000000 -0.007740 
#    y 0.000000 4.274250 0.000000 
#    z -0.007740 0.000000 4.202830 
# 
# 
# High freq. dielectric constant tensor:
#      x y z
#    x 1.893050 0.000000 -0.000340 
#    y 0.000000 1.885750 0.000000 
#    z -0.000340 0.000000 1.883840 
# 
# From -- ./inp_files/52427.got.cif
#   From: 2010.03.12/outbox.cif.g09.slc.cpg/sg5_27_cif.got.tgz:52427.got - 2010.03.31 09:47:26.
