data_PCOD8052987
_publ_section_title
;
Structure prediction by ZEFSAII (Michael W. Deem and Ramdas Pophale) SiO2 
 PCOD8052987
Probable space group: C M
;
_chemical_formula_sum "Si O2"
_cell_formula_units_Z 32
_cell_length_a 20.697539
_cell_length_b 9.202606
_cell_length_c 13.456848
_cell_angle_alpha 90.000000
_cell_angle_beta 42.888023
_cell_angle_gamma 90.000000
_cell_volume 1744.392595
_symmetry_space_group_name_H-M "C M"
_symmetry_group_IT_number 8
_symmetry_cell_setting 'monoclinic'
loop_
_space_group_symop_operation_xyz
x,y,z
x,-y,z
1/2+x,1/2+y,z
1/2+x,1/2-y,z
loop_
_atom_site_type_symbol
_atom_site_label
_atom_site_fract_x
_atom_site_fract_y
_atom_site_fract_z
Si Si1 0.711620 0.328091 0.085140
Si Si2 0.575307 0.327750 0.615842
Si Si3 0.404555 0.339317 0.442598
Si Si4 0.556743 0.673361 0.416137
Si Si5 0.561124 0.339139 0.096300
Si Si6 0.394761 0.327055 0.946936
Si Si7 0.929305 0.668566 0.112616
Si Si8 0.776569 0.332930 0.455816
O O1 0.732526 0.500000 0.068274
O O2 0.647765 0.275345 0.250263
O O3 0.658715 0.289767 0.040545
O O4 0.808212 0.237287 0.980704
O O5 0.582288 0.500000 0.597909
O O6 0.561666 0.261570 0.521066
O O7 0.489910 0.280099 0.782525
O O8 0.673546 0.265211 0.548734
O O9 0.365470 0.500000 0.510153
O O10 0.458202 0.270695 0.477676
O O11 0.480714 0.346949 0.269469
O O12 0.315744 0.241996 0.511090
O O13 0.554274 0.500000 0.416341
O O14 0.574194 0.500000 0.034468
O O15 0.528633 0.228593 0.046170
O O16 0.384487 0.500000 0.967193
O O17 0.398725 0.257557 0.050857
O O18 0.943219 0.500000 0.070120
O O19 0.844246 0.691980 0.285622
O O20 0.767418 0.500000 0.493297
#
# Coordination Sequence:
#
# PCOD8052987 Si02
#       8
#     4   4   4   4   4   4   4   4
#     4   9  17  32  55  77  97 125 160 199 242 288
#     4   9  18  32  48  67  94 129 165 196 231 280
#     4   8  14  26  48  76  99 118 147 193 242 284
#     4   8  14  29  53  74  92 121 160 195 232 284
#     4   8  15  29  50  76 102 125 153 194 244 293
#     4  11  22  33  47  69 100 135 166 200 240 283
#     4  10  19  32  53  76  97 125 162 204 244 284
#     4   9  17  31  52  73  93 122 159 197 237 284
#
# _framework density 18.344494999999998
#
# number of rings (size 3 to 8) (size 9 to 14) (size 15 to 20)
#    0.000    3.000    0.000    3.000    0.000    3.000 
#    0.000    4.375    0.000    6.750    0.000    0.000 
#    0.000    0.000    0.000    0.000    0.000    0.000 
#
# Total GULP energy -198326.758311 kJ/mol
# GULP energy per Si atom -12395.422394 kJ/mol
# Density = 1.830274 g / cm^3
# Si number density = 18.344495 Si / 1000 Ang^3
#
#
#
# Elastic Constant Matrix: (Units=GPa)
#
#
# Indices 1 2 3 4 5 6 
#
# 1 157.2422 54.1412 48.3247 0.0001 -36.7817 0.0000
# 2 54.1412 66.8614 31.0048 -0.0004 -14.3097 0.0001
# 3 48.3247 31.0048 56.0526 -0.0004 -19.8146 0.0001
# 4 0.0001 -0.0004 -0.0004 16.0998 0.0002 -5.4083
# 5 -36.7817 -14.3097 -19.8146 0.0002 16.6752 0.0000
# 6 0.0000 0.0001 0.0001 -5.4083 0.0000 33.4909
#
#
#
# Elastic Compliance Matrix: (Units=1/GPa)
#
#
# Indices 1 2 3 4 5 6 
#
# 1 0.014987 -0.006355 0.000608 -0.000001 0.028327 0.000000
# 2 -0.006355 0.023292 -0.009129 0.000000 -0.004879 0.000000
# 3 0.000608 -0.009129 0.034608 0.000000 0.034631 0.000000
# 4 -0.000001 0.000000 0.000000 0.065675 -0.000002 0.010606
# 5 0.028327 -0.004879 0.034631 -0.000002 0.159418 0.000000
# 6 0.000000 0.000000 0.000000 0.010606 0.000000 0.031571
#
#
# Mechanical properties :
#
#
# Convention : Reuss Voigt Hill
#
# Bulk Modulus (GPa) = 23.18338 60.78862 41.98600
# Shear Modulus (GPa) = 13.38039 23.03222 18.20631
#
# Velocity S-wave (km/s) = 2.70366 3.54720 3.15376
# Velocity P-wave (km/s) = 4.73409 7.07008 6.01655
#
# Compressibility (1/GPa) = 0.04313434
#
# Stress axis : x y z
#
# Youngs Moduli (GPa) = 66.72337 42.93365 28.89535
#
# Poissons Ratio (x) = 0.27286 -0.01757
# Poissons Ratio (y) = 0.42405 0.26378
# Poissons Ratio (z) = -0.04058 0.39194
#
# Static dielectric constant tensor:
#      x y z
#    x 3.805920 0.000000 -0.096840 
#    y 0.000000 3.218640 0.000000 
#    z -0.096840 0.000000 3.106960 
# 
# 
# High freq. dielectric constant tensor:
#      x y z
#    x 1.732200 0.000000 -0.008830 
#    y 0.000000 1.683380 0.000000 
#    z -0.008830 0.000000 1.677110 
# 
# From -- ./inp_files/27756.got.cif
#   From: 2010.03.12/outbox.cif.g09.slc.cpg/sg8_14_cif.got.tgz:27756.got - 2010.03.31 10:45:26.
