data_PCOD8052134
_publ_section_title
;
Structure prediction by ZEFSAII (Michael W. Deem and Ramdas Pophale) SiO2 
 PCOD8052134
Probable space group: C 2
;
_chemical_formula_sum "Si O2"
_cell_formula_units_Z 14
_cell_length_a 7.694248
_cell_length_b 5.442234
_cell_length_c 14.634796
_cell_angle_alpha 90.000000
_cell_angle_beta 57.223820
_cell_angle_gamma 90.000000
_cell_volume 515.250593
_symmetry_space_group_name_H-M "C 2"
_symmetry_group_IT_number 5
_symmetry_cell_setting 'monoclinic'
loop_
_space_group_symop_operation_xyz
x,y,z
-x,y,-z
1/2+x,1/2+y,z
1/2-x,1/2+y,-z
loop_
_atom_site_type_symbol
_atom_site_label
_atom_site_fract_x
_atom_site_fract_y
_atom_site_fract_z
Si Si1 0.440863 0.742690 0.856573
Si Si2 0.795913 0.066426 0.712773
Si Si3 0.173975 0.789005 0.566969
Si Si4 0.000000 0.906909 0.000000
O O1 0.576086 0.991854 0.820839
O O2 0.444905 0.668881 0.749528
O O3 0.557285 0.558399 0.892183
O O4 0.207248 0.754855 0.961945
O O5 0.925513 0.835577 0.634363
O O6 0.758783 0.270610 0.646533
O O7 0.214464 0.527339 0.507643
#
# Coordination Sequence:
#
# PCOD8052134 Si02
#       4
#     4   4   4   2
#     4  12  25  45  72 106 146 192 244 305 369 444
#     4  12  27  47  74 108 150 196 250 309 373 444
#     4  12  29  51  78 112 154 202 254 313 377 448
#     4  12  24  44  72 104 146 192 244 302 372 444
#
# _framework density 27.171244000000002
#
# number of rings (size 3 to 8) (size 9 to 14) (size 15 to 20)
#    0.000    0.000    0.000    9.429    0.000   13.714 
#    0.000    0.000    0.000    0.000    0.000    0.000 
#    0.000    0.000    0.000    0.000    0.000    0.000 
#
# Total GULP energy -86801.865819 kJ/mol
# GULP energy per Si atom -12400.266546 kJ/mol
# Density = 2.710940 g / cm^3
# Si number density = 27.171244 Si / 1000 Ang^3
#
#
#
# Elastic Constant Matrix: (Units=GPa)
#
#
# Indices 1 2 3 4 5 6 
#
# 1 115.1869 14.3987 17.4756 0.0000 -14.0601 0.0000
# 2 14.3987 83.2276 3.9793 0.0000 -6.2776 0.0000
# 3 17.4756 3.9793 80.3228 0.0000 -22.0334 0.0000
# 4 0.0000 0.0000 0.0000 26.9954 0.0000 -2.1799
# 5 -14.0601 -6.2776 -22.0334 0.0000 30.1581 0.0000
# 6 0.0000 0.0000 0.0000 -2.1799 0.0000 43.0317
#
#
#
# Elastic Compliance Matrix: (Units=1/GPa)
#
#
# Indices 1 2 3 4 5 6 
#
# 1 0.009416 -0.001327 -0.001069 0.000000 0.003333 0.000000
# 2 -0.001327 0.012395 0.000266 0.000000 0.002156 0.000000
# 3 -0.001069 0.000266 0.015693 0.000000 0.011022 0.000000
# 4 0.000000 0.000000 0.000000 0.037195 0.000000 0.001884
# 5 0.003333 0.002156 0.011022 0.000000 0.043214 0.000000
# 6 0.000000 0.000000 0.000000 0.001884 0.000000 0.023334
#
#
# Mechanical properties :
#
#
# Convention : Reuss Voigt Hill
#
# Bulk Modulus (GPa) = 30.07965 38.93827 34.50896
# Shear Modulus (GPa) = 31.93105 36.22929 34.08017
#
# Velocity S-wave (km/s) = 3.43181 3.65549 3.54541
# Velocity P-wave (km/s) = 5.17663 5.67262 5.43029
#
# Compressibility (1/GPa) = 0.03324507
#
# Stress axis : x y z
#
# Youngs Moduli (GPa) = 106.19826 80.68000 63.72440
#
# Poissons Ratio (x) = 0.10703 0.06810
# Poissons Ratio (y) = 0.14088 -0.01695
# Poissons Ratio (z) = 0.11349 -0.02146
#
# Static dielectric constant tensor:
#      x y z
#    x 5.017160 0.000000 0.117740 
#    y 0.000000 4.633610 0.000000 
#    z 0.117740 0.000000 5.014660 
# 
# 
# High freq. dielectric constant tensor:
#      x y z
#    x 2.116260 0.000000 0.006020 
#    y 0.000000 2.077880 0.000000 
#    z 0.006020 0.000000 2.109270 
# 
# From -- ./inp_files/32723.got.cif
#   From: 2010.03.12/outbox.cif.g09.slc.cpg/sg5_17_cif.got.tgz:32723.got - 2010.03.31 09:47:26.
