data_PCOD8052066
_publ_section_title
;
Structure prediction by ZEFSAII (Michael W. Deem and Ramdas Pophale) SiO2 
 PCOD8052066
Probable space group: C 2
;
_chemical_formula_sum "Si O2"
_cell_formula_units_Z 22
_cell_length_a 7.988140
_cell_length_b 12.857975
_cell_length_c 9.255990
_cell_angle_alpha 90.000000
_cell_angle_beta 103.472687
_cell_angle_gamma 90.000000
_cell_volume 924.532725
_symmetry_space_group_name_H-M "C 2"
_symmetry_group_IT_number 5
_symmetry_cell_setting 'monoclinic'
loop_
_space_group_symop_operation_xyz
x,y,z
-x,y,-z
1/2+x,1/2+y,z
1/2-x,1/2+y,-z
loop_
_atom_site_type_symbol
_atom_site_label
_atom_site_fract_x
_atom_site_fract_y
_atom_site_fract_z
Si Si1 0.000000 0.952030 0.500000
Si Si2 0.442206 0.629300 0.690749
Si Si3 0.000000 0.523308 0.000000
Si Si4 0.754540 0.868554 0.987950
Si Si5 0.175616 0.695208 0.223942
Si Si6 0.840809 0.775132 0.297332
Si Si7 0.000000 0.041126 0.000000
O O1 0.137173 0.881948 0.611830
O O2 0.099501 0.024227 0.404409
O O3 0.630774 0.673417 0.677938
O O4 0.286854 0.708467 0.626771
O O5 0.424750 0.614229 0.860039
O O6 0.912245 0.437610 0.089724
O O7 0.871053 0.595956 0.884071
O O8 0.743728 0.794476 0.125580
O O9 0.820887 0.801206 0.867866
O O10 0.875410 0.963545 0.059222
O O11 0.026670 0.716172 0.313292
#
# Coordination Sequence:
#
# PCOD8052066 Si02
#       7
#     2   4   2   4   4   4   2
#     4  12  28  52  72 102 150 190 244 302 350 432
#     4  12  27  46  75 106 144 190 240 296 360 425
#     4  12  21  37  70 108 148 186 229 291 370 422
#     4  12  21  40  70 109 145 180 232 296 356 419
#     4  12  23  44  73 109 145 183 239 298 355 424
#     4  12  25  47  71 103 144 193 240 292 357 425
#     4  12  19  43  70 102 146 178 225 301 352 406
#
# _framework density 23.795805999999999
#
# number of rings (size 3 to 8) (size 9 to 14) (size 15 to 20)
#    0.000    0.000    7.273    3.273    2.545    0.000 
#    0.000    1.818    0.000    0.000    0.000    0.000 
#    0.000    0.000    0.000    0.000    0.000    0.000 
#
# Total GULP energy -136270.620830 kJ/mol
# GULP energy per Si atom -12388.238257 kJ/mol
# Density = 2.374165 g / cm^3
# Si number density = 23.795806 Si / 1000 Ang^3
#
#
#
# Elastic Constant Matrix: (Units=GPa)
#
#
# Indices 1 2 3 4 5 6 
#
# 1 156.6136 87.1453 29.0744 0.0000 4.1446 0.0000
# 2 87.1453 142.1948 34.5436 0.0000 -0.5564 0.0000
# 3 29.0744 34.5436 52.8108 0.0000 -13.4110 0.0000
# 4 0.0000 0.0000 0.0000 41.5213 0.0000 -23.2603
# 5 4.1446 -0.5564 -13.4110 0.0000 22.2914 0.0000
# 6 0.0000 0.0000 0.0000 -23.2603 0.0000 79.6126
#
#
#
# Elastic Compliance Matrix: (Units=1/GPa)
#
#
# Indices 1 2 3 4 5 6 
#
# 1 0.010077 -0.005481 -0.002919 0.000000 -0.003766 0.000000
# 2 -0.005481 0.011600 -0.005002 0.000000 -0.001701 0.000000
# 3 -0.002919 -0.005002 0.028234 0.000000 0.017404 0.000000
# 4 0.000000 0.000000 0.000000 0.028797 0.000000 0.008414
# 5 -0.003766 -0.001701 0.017404 0.000000 0.055989 0.000000
# 6 0.000000 0.000000 0.000000 0.008414 0.000000 0.015019
#
#
# Mechanical properties :
#
#
# Convention : Reuss Voigt Hill
#
# Bulk Modulus (GPa) = 43.27727 72.57173 57.92450
# Shear Modulus (GPa) = 27.14115 42.07544 34.60829
#
# Velocity S-wave (km/s) = 3.38092 4.20954 3.81778
# Velocity P-wave (km/s) = 5.78509 7.36145 6.62035
#
# Compressibility (1/GPa) = 0.02310682
#
# Stress axis : x y z
#
# Youngs Moduli (GPa) = 99.23988 86.20456 35.41853
#
# Poissons Ratio (x) = 0.47251 0.10338
# Poissons Ratio (y) = 0.54396 0.17716
# Poissons Ratio (z) = 0.28965 0.43120
#
# Static dielectric constant tensor:
#      x y z
#    x -2.919170 0.000000 -0.801410 
#    y 0.000000 4.499450 0.000000 
#    z -0.801410 0.000000 3.844900 
# 
# 
# High freq. dielectric constant tensor:
#      x y z
#    x 1.945000 0.000000 -0.000830 
#    y 0.000000 1.967980 0.000000 
#    z -0.000830 0.000000 1.914350 
# 
# From -- ./inp_files/35198.got.cif
#   From: 2010.03.12/outbox.cif.g09.slc.cpg/sg5_18_cif.got.tgz:35198.got - 2010.03.31 09:47:26.
