data_PCOD8052483
_publ_section_title
;
Structure prediction by ZEFSAII (Michael W. Deem and Ramdas Pophale) SiO2 
 PCOD8052483
Probable space group: P M
;
_chemical_formula_sum "Si O2"
_cell_formula_units_Z 16
_cell_length_a 11.572504
_cell_length_b 9.183394
_cell_length_c 9.584540
_cell_angle_alpha 90.000000
_cell_angle_beta 109.996066
_cell_angle_gamma 90.000000
_cell_volume 957.190765
_symmetry_space_group_name_H-M "P M"
_symmetry_group_IT_number 6
_symmetry_cell_setting 'monoclinic'
loop_
_space_group_symop_operation_xyz
x,y,z
x,-y,z
loop_
_atom_site_type_symbol
_atom_site_label
_atom_site_fract_x
_atom_site_fract_y
_atom_site_fract_z
Si Si1 0.952010 0.172662 0.030740
Si Si2 0.016330 0.670075 0.321053
Si Si3 0.849366 0.836533 0.443074
Si Si4 0.043193 0.165496 0.766034
Si Si5 0.731704 0.333012 0.848545
Si Si6 0.210721 0.329764 0.637392
Si Si7 0.474191 0.333774 0.655146
Si Si8 0.653535 0.830398 0.566555
O O1 0.037024 0.239523 0.187680
O O2 0.941549 0.000000 0.041224
O O3 0.816027 0.245372 0.993341
O O4 0.008684 0.222475 0.906149
O O5 0.006618 0.500000 0.283886
O O6 0.129738 0.708627 0.468356
O O7 0.889507 0.721776 0.342494
O O8 0.706956 0.809566 0.431489
O O9 0.929136 0.817863 0.615467
O O10 0.864995 0.000000 0.388922
O O11 0.158969 0.255215 0.754968
O O12 0.086928 0.000000 0.795587
O O13 0.776223 0.500000 0.859460
O O14 0.583505 0.324434 0.818006
O O15 0.750752 0.252615 0.707601
O O16 0.211233 0.500000 0.667387
O O17 0.348372 0.270169 0.665854
O O18 0.454242 0.500000 0.597549
O O19 0.518134 0.241200 0.535919
O O20 0.649413 0.000000 0.605391
#
# Coordination Sequence:
#
# PCOD8052483 Si02
#       8
#     2   2   2   2   2   2   2   2
#     4  11  20  33  49  70 101 130 157 195 245 291
#     4  10  21  32  47  71  99 130 162 194 236 290
#     4   9  16  30  47  68  97 124 155 196 241 284
#     4   9  17  29  47  69  92 122 160 200 238 280
#     4   9  17  28  47  72  96 121 155 195 235 283
#     4   9  18  33  49  70  98 127 160 199 239 280
#     4   8  16  29  46  70  97 124 157 200 240 276
#     4   9  15  26  46  72  96 120 152 193 238 280
#
# _framework density 16.715582000000001
#
# number of rings (size 3 to 8) (size 9 to 14) (size 15 to 20)
#    0.750    2.000    1.250    1.125    0.000    3.000 
#    0.000    0.000    0.000    1.500    0.000    5.250 
#    0.000    0.000    0.000    0.000    0.000    0.000 
#
# Total GULP energy -198209.900828 kJ/mol
# GULP energy per Si atom -12388.118802 kJ/mol
# Density = 1.667754 g / cm^3
# Si number density = 16.715582 Si / 1000 Ang^3
#
#
#
# Elastic Constant Matrix: (Units=GPa)
#
#
# Indices 1 2 3 4 5 6 
#
# 1 109.5407 44.2272 32.4626 0.0000 -11.4657 0.0000
# 2 44.2272 85.4094 36.1191 0.0000 -6.7184 0.0000
# 3 32.4626 36.1191 70.0650 0.0000 -11.2308 0.0000
# 4 0.0000 0.0000 0.0000 23.9280 0.0000 -3.0199
# 5 -11.4657 -6.7184 -11.2308 0.0000 15.9894 0.0000
# 6 0.0000 0.0000 0.0000 -3.0199 0.0000 25.1953
#
#
#
# Elastic Compliance Matrix: (Units=1/GPa)
#
#
# Indices 1 2 3 4 5 6 
#
# 1 0.012385 -0.005026 -0.002324 0.000000 0.005137 0.000000
# 2 -0.005026 0.017026 -0.006625 0.000000 -0.001104 0.000000
# 3 -0.002324 -0.006625 0.020341 0.000000 0.009838 0.000000
# 4 0.000000 0.000000 0.000000 0.042434 0.000000 0.005086
# 5 0.005137 -0.001104 0.009838 0.000000 0.072671 0.000000
# 6 0.000000 0.000000 0.000000 0.005086 0.000000 0.040300
#
#
# Mechanical properties :
#
#
# Convention : Reuss Voigt Hill
#
# Bulk Modulus (GPa) = 45.86800 54.51478 50.19139
# Shear Modulus (GPa) = 20.80092 23.16961 21.98527
#
# Velocity S-wave (km/s) = 3.53144 3.72709 3.63058
# Velocity P-wave (km/s) = 6.64288 7.15580 6.90411
#
# Compressibility (1/GPa) = 0.02180169
#
# Stress axis : x y z
#
# Youngs Moduli (GPa) = 80.74469 58.73360 49.16134
#
# Poissons Ratio (x) = 0.29522 0.11423
# Poissons Ratio (y) = 0.40586 0.32570
# Poissons Ratio (z) = 0.18761 0.38912
#
# Static dielectric constant tensor:
#      x y z
#    x 3.151240 0.000000 -0.097610 
#    y 0.000000 3.164550 0.000000 
#    z -0.097610 0.000000 2.864110 
# 
# 
# High freq. dielectric constant tensor:
#      x y z
#    x 1.631760 0.000000 -0.012390 
#    y 0.000000 1.653290 0.000000 
#    z -0.012390 0.000000 1.604420 
# 
# From -- ./inp_files/3612.got.cif
#   From: 2010.03.12/outbox.cif.g09.slc.cpg/sg6_2_cif.got.tgz:3612.got - 2010.03.30 10:24:59.
