data_PCOD8052571
_publ_section_title
;
Structure prediction by ZEFSAII (Michael W. Deem and Ramdas Pophale) SiO2 
 PCOD8052571
Probable space group: P M
;
_chemical_formula_sum "Si O2"
_cell_formula_units_Z 16
_cell_length_a 21.000000
_cell_length_b 9.000000
_cell_length_c 9.000000
_cell_angle_alpha 90.000000
_cell_angle_beta 150.000000
_cell_angle_gamma 90.000000
_cell_volume 850.500000
_symmetry_space_group_name_H-M "P M"
_symmetry_group_IT_number 6
_symmetry_cell_setting 'monoclinic'
loop_
_space_group_symop_operation_xyz
x,y,z
x,-y,z
loop_
_atom_site_type_symbol
_atom_site_label
_atom_site_fract_x
_atom_site_fract_y
_atom_site_fract_z
Si Si1 0.040740 0.668463 0.593870
Si Si2 0.567968 0.823049 0.645942
Si Si3 0.282345 0.166266 0.724189
Si Si4 0.032908 0.670624 0.226964
Si Si5 0.561253 0.176139 0.298392
Si Si6 0.804748 0.823432 0.605868
Si Si7 0.286451 0.163904 0.085998
Si Si8 0.796877 0.676840 0.275141
O O1 0.050865 0.500000 0.664292
O O2 0.029081 0.687733 0.395249
O O3 0.914785 0.737505 0.414621
O O4 0.170536 0.741005 0.918212
O O5 0.590173 0.764263 0.522749
O O6 0.426131 0.775779 0.414555
O O7 0.585216 0.000000 0.691318
O O8 0.666217 0.743034 0.951168
O O9 0.169363 0.273617 0.438928
O O10 0.260030 0.000000 0.614888
O O11 0.421814 0.230271 0.957517
O O12 0.281138 0.159675 0.898502
O O13 0.012563 0.500000 0.136202
O O14 0.922128 0.776823 0.945469
O O15 0.672677 0.229982 0.414513
O O16 0.554734 0.000000 0.295162
O O17 0.820000 0.735668 0.485573
O O18 0.806026 0.000000 0.583695
O O19 0.268053 0.000000 0.114751
O O20 0.787847 0.500000 0.255103
#
# Coordination Sequence:
#
# PCOD8052571 Si02
#       8
#     2   2   2   2   2   2   2   2
#     4   9  19  34  53  76 104 135 168 205 251 301
#     4   9  17  33  56  81 104 129 163 207 254 303
#     4   8  14  29  52  78 104 130 161 204 252 299
#     4  10  19  33  53  79 106 132 164 207 253 302
#     4   8  16  32  56  81 103 127 165 212 253 295
#     4  11  22  36  53  74 100 136 175 211 251 297
#     4   8  15  28  51  80 105 127 161 207 252 296
#     4  11  23  37  50  71 104 140 173 209 250 297
#
# _framework density 18.812463000000001
#
# number of rings (size 3 to 8) (size 9 to 14) (size 15 to 20)
#    0.000    2.750    0.000    3.375    0.000    2.000 
#    0.000    5.000    0.000    1.500    0.000    0.000 
#    0.000    0.000    0.000    0.000    0.000    0.000 
#
# Total GULP energy -198326.913869 kJ/mol
# GULP energy per Si atom -12395.432117 kJ/mol
# Density = 1.876965 g / cm^3
# Si number density = 18.812463 Si / 1000 Ang^3
#
#
#
# Elastic Constant Matrix: (Units=GPa)
#
#
# Indices 1 2 3 4 5 6 
#
# 1 48.0838 24.6052 52.6471 0.0000 17.4185 0.0000
# 2 24.6052 51.7738 41.6281 0.0000 11.0734 0.0000
# 3 52.6471 41.6281 107.5197 0.0000 44.7909 0.0000
# 4 0.0000 0.0000 0.0000 26.7867 0.0000 0.5052
# 5 17.4185 11.0734 44.7909 0.0000 26.5407 0.0000
# 6 0.0000 0.0000 0.0000 0.5052 0.0000 21.4443
#
#
#
# Elastic Compliance Matrix: (Units=1/GPa)
#
#
# Indices 1 2 3 4 5 6 
#
# 1 0.050742 -0.001046 -0.036199 0.000000 0.028226 0.000000
# 2 -0.001046 0.032625 -0.022678 0.000000 0.025347 0.000000
# 3 -0.036199 -0.022678 0.073974 0.000000 -0.091621 0.000000
# 4 0.000000 0.000000 0.000000 0.037349 0.000000 -0.000880
# 5 0.028226 0.025347 -0.091621 0.000000 0.163201 0.000000
# 6 0.000000 0.000000 0.000000 -0.000880 0.000000 0.046653
#
#
# Mechanical properties :
#
#
# Convention : Reuss Voigt Hill
#
# Bulk Modulus (GPa) = 26.67144 49.45981 38.06562
# Shear Modulus (GPa) = 9.31291 20.85411 15.08351
#
# Velocity S-wave (km/s) = 2.22736 3.33307 2.83465
# Velocity P-wave (km/s) = 4.56324 6.41564 5.56703
#
# Compressibility (1/GPa) = 0.03749328
#
# Stress axis : x y z
#
# Youngs Moduli (GPa) = 19.70743 30.65151 13.51831
#
# Poissons Ratio (x) = 0.03207 0.48935
# Poissons Ratio (y) = 0.02062 0.30657
# Poissons Ratio (z) = 0.71340 0.69512
#
# Static dielectric constant tensor:
#      x y z
#    x 3.447240 0.000000 0.434440 
#    y 0.000000 3.376110 0.000000 
#    z 0.434440 0.000000 3.628460 
# 
# 
# High freq. dielectric constant tensor:
#      x y z
#    x 1.712700 0.000000 0.027730 
#    y 0.000000 1.714360 0.000000 
#    z 0.027730 0.000000 1.738640 
# 
# From -- ./inp_files/3769.got.cif
#   From: 2010.06.25/outbox.ucp.g09.slc.cvg/sg6_2_cif.got.tgz:3769.got - 2010.06.28 13:29:41.
