data_PCOD8052371
_publ_section_title
;
Structure prediction by ZEFSAII (Michael W. Deem and Ramdas Pophale) SiO2 
 PCOD8052371
Probable space group: P M
;
_chemical_formula_sum "Si O2"
_cell_formula_units_Z 16
_cell_length_a 19.639513
_cell_length_b 8.583078
_cell_length_c 14.288396
_cell_angle_alpha 90.000000
_cell_angle_beta 160.735866
_cell_angle_gamma 90.000000
_cell_volume 794.640213
_symmetry_space_group_name_H-M "P M"
_symmetry_group_IT_number 6
_symmetry_cell_setting 'monoclinic'
loop_
_space_group_symop_operation_xyz
x,y,z
x,-y,z
loop_
_atom_site_type_symbol
_atom_site_label
_atom_site_fract_x
_atom_site_fract_y
_atom_site_fract_z
Si Si1 0.049760 0.182036 0.604410
Si Si2 0.801851 0.677838 0.589015
Si Si3 0.672455 0.678275 0.216482
Si Si4 0.241783 0.817977 0.155525
Si Si5 0.327561 0.816903 0.643945
Si Si6 0.948324 0.185206 0.265144
Si Si7 0.486654 0.185560 0.654428
Si Si8 0.402040 0.319471 0.173378
O O1 0.024272 0.241378 0.465383
O O2 0.898593 0.279240 0.473921
O O3 0.997992 0.000000 0.546067
O O4 0.278787 0.216433 0.938054
O O5 0.882076 0.500000 0.694353
O O6 0.671312 0.709797 0.325654
O O7 0.645976 0.711766 0.472863
O O8 0.998327 0.789748 0.850647
O O9 0.621496 0.500000 0.126682
O O10 0.502986 0.785263 0.947821
O O11 0.353606 0.756613 0.394171
O O12 0.342827 0.725717 0.201463
O O13 0.280271 0.000000 0.189124
O O14 0.108626 0.747996 0.395940
O O15 0.386192 0.744376 0.619139
O O16 0.307577 0.000000 0.606983
O O17 0.947642 0.000000 0.261300
O O18 0.719966 0.250754 0.947705
O O19 0.490993 0.000000 0.665749
O O20 0.349260 0.500000 0.087935
#
# Coordination Sequence:
#
# PCOD8052371 Si02
#       8
#     2   2   2   2   2   2   2   2
#     4  11  20  34  59  89 117 149 187 233 286 345
#     4  10  23  41  60  82 117 160 193 232 291 350
#     4  11  21  35  57  85 117 153 186 228 286 348
#     4  11  23  38  61  88 114 150 198 249 290 336
#     4  10  19  35  60  84 112 149 185 232 284 337
#     4   9  18  33  57  87 115 144 182 231 287 338
#     4   9  19  36  56  83 114 146 189 237 287 333
#     4  11  23  40  60  84 118 157 192 236 293 349
#
# _framework density 20.134896999999999
#
# number of rings (size 3 to 8) (size 9 to 14) (size 15 to 20)
#    0.000    1.750    2.500    2.250    0.000    2.500 
#    0.000    4.375    0.000    0.000    0.000    0.000 
#    0.000    0.000    0.000    0.000    0.000    0.000 
#
# Total GULP energy -198425.548784 kJ/mol
# GULP energy per Si atom -12401.596799 kJ/mol
# Density = 2.008907 g / cm^3
# Si number density = 20.134897 Si / 1000 Ang^3
#
#
#
# Elastic Constant Matrix: (Units=GPa)
#
#
# Indices 1 2 3 4 5 6 
#
# 1 127.7995 22.6418 80.1389 0.0000 16.3856 0.0000
# 2 22.6418 19.5140 15.3390 0.0000 -0.0148 0.0000
# 3 80.1389 15.3390 101.9364 0.0000 -1.6647 0.0000
# 4 0.0000 0.0000 0.0000 10.8196 0.0000 3.6854
# 5 16.3856 -0.0148 -1.6647 0.0000 38.9612 0.0000
# 6 0.0000 0.0000 0.0000 3.6854 0.0000 15.6052
#
#
#
# Elastic Compliance Matrix: (Units=1/GPa)
#
#
# Indices 1 2 3 4 5 6 
#
# 1 0.019850 -0.012087 -0.013933 0.000000 -0.008948 0.000000
# 2 -0.012087 0.065484 -0.000268 0.000000 0.005097 0.000000
# 3 -0.013933 -0.000268 0.020914 0.000000 0.006753 0.000000
# 4 0.000000 0.000000 0.000000 0.100510 0.000000 -0.023737
# 5 -0.008948 0.005097 0.006753 0.000000 0.029720 0.000000
# 6 0.000000 0.000000 0.000000 -0.023737 0.000000 0.069687
#
#
# Mechanical properties :
#
#
# Convention : Reuss Voigt Hill
#
# Bulk Modulus (GPa) = 18.63153 53.94328 36.28741
# Shear Modulus (GPa) = 13.27552 21.81922 17.54737
#
# Velocity S-wave (km/s) = 2.57053 3.29546 2.95530
# Velocity P-wave (km/s) = 4.25248 6.42878 5.45035
#
# Compressibility (1/GPa) = 0.05367245
#
# Stress axis : x y z
#
# Youngs Moduli (GPa) = 50.37690 15.27090 47.81397
#
# Poissons Ratio (x) = 0.18458 0.66619
# Poissons Ratio (y) = 0.60889 0.01283
# Poissons Ratio (z) = 0.70190 0.00410
#
# Static dielectric constant tensor:
#      x y z
#    x 3.945480 0.000000 0.122810 
#    y 0.000000 3.323310 0.000000 
#    z 0.122810 0.000000 3.690620 
# 
# 
# High freq. dielectric constant tensor:
#      x y z
#    x 1.797890 0.000000 0.009500 
#    y 0.000000 1.758230 0.000000 
#    z 0.009500 0.000000 1.785350 
# 
# From -- ./inp_files/5676.got.cif
#   From: 2010.03.12/outbox.cif.g09.slc.cpg/sg6_3_cif.got.tgz:5676.got - 2010.03.30 10:24:59.
