data_PCOD8052853
_publ_section_title
;
Structure prediction by ZEFSAII (Michael W. Deem and Ramdas Pophale) SiO2 
 PCOD8052853
Probable space group: C M
;
_chemical_formula_sum "Si O2"
_cell_formula_units_Z 28
_cell_length_a 24.973814
_cell_length_b 9.312461
_cell_length_c 19.609916
_cell_angle_alpha 90.000000
_cell_angle_beta 159.817631
_cell_angle_gamma 90.000000
_cell_volume 1573.461022
_symmetry_space_group_name_H-M "C M"
_symmetry_group_IT_number 8
_symmetry_cell_setting 'monoclinic'
loop_
_space_group_symop_operation_xyz
x,y,z
x,-y,z
1/2+x,1/2+y,z
1/2+x,1/2-y,z
loop_
_atom_site_type_symbol
_atom_site_label
_atom_site_fract_x
_atom_site_fract_y
_atom_site_fract_z
Si Si1 0.564560 0.339173 0.799880
Si Si2 0.925524 0.167169 0.779540
Si Si3 0.709890 0.838140 0.169371
Si Si4 0.186092 0.161119 0.568544
Si Si5 0.871875 0.250438 0.232818
Si Si6 0.641757 0.845323 0.634250
Si Si7 0.966345 0.330798 0.553795
O O1 0.536357 0.500000 0.737846
O O2 0.459649 0.311644 0.740777
O O3 0.517807 0.220074 0.689619
O O4 0.746668 0.326178 0.035103
O O5 0.759355 0.239497 0.597173
O O6 0.923153 0.000000 0.796580
O O7 0.051818 0.247631 0.976894
O O8 0.787001 0.850841 0.186625
O O9 0.816829 0.759099 0.352509
O O10 0.675760 0.000000 0.153934
O O11 0.235366 0.225621 0.702546
O O12 0.997462 0.162243 0.336902
O O13 0.249888 0.000000 0.638310
O O14 0.970526 0.366464 0.394619
O O15 0.611370 0.798763 0.676098
O O16 0.727552 0.000000 0.733788
O O17 0.927535 0.500000 0.508986
#
# Coordination Sequence:
#
# PCOD8052853 Si02
#       7
#     4   4   4   4   4   4   4
#     4  10  20  34  53  77 104 139 176 211 256 309
#     4  10  21  35  53  77 106 138 173 213 258 307
#     4  10  18  33  55  78 103 134 173 216 255 304
#     4  10  19  31  53  81 105 132 170 215 259 306
#     4   8  18  30  54  78 103 129 172 213 254 300
#     4   8  16  31  51  73 101 133 166 208 255 301
#     4  10  20  32  51  78 108 137 170 214 261 303
#
# _framework density 17.795165999999998
#
# number of rings (size 3 to 8) (size 9 to 14) (size 15 to 20)
#    0.857    1.714    0.000    2.571    0.000    7.429 
#    0.000    0.000    3.143    0.000    0.000    0.000 
#    0.000    0.000    0.000    0.000    0.000    0.000 
#
# Total GULP energy -173449.389530 kJ/mol
# GULP energy per Si atom -12389.242109 kJ/mol
# Density = 1.775466 g / cm^3
# Si number density = 17.795166 Si / 1000 Ang^3
#
#
#
# Elastic Constant Matrix: (Units=GPa)
#
#
# Indices 1 2 3 4 5 6 
#
# 1 81.9559 52.3322 35.4741 -0.0001 4.4376 0.0000
# 2 52.3322 134.6757 24.4685 0.0000 0.1076 0.0000
# 3 35.4741 24.4685 53.7320 -0.0001 2.1647 -0.0001
# 4 -0.0001 0.0000 -0.0001 24.5651 -0.0001 -0.8367
# 5 4.4376 0.1076 2.1647 -0.0001 27.7062 -0.0001
# 6 0.0000 0.0000 -0.0001 -0.8367 -0.0001 24.7376
#
#
#
# Elastic Compliance Matrix: (Units=1/GPa)
#
#
# Indices 1 2 3 4 5 6 
#
# 1 0.021029 -0.006176 -0.010970 0.000000 -0.002487 0.000000
# 2 -0.006176 0.009911 -0.000475 0.000000 0.000988 0.000000
# 3 -0.010970 -0.000475 0.026081 0.000000 -0.000279 0.000000
# 4 0.000000 0.000000 0.000000 0.040755 0.000000 0.001379
# 5 -0.002487 0.000988 -0.000279 0.000000 0.036509 0.000000
# 6 0.000000 0.000000 0.000000 0.001379 0.000000 0.040471
#
#
# Mechanical properties :
#
#
# Convention : Reuss Voigt Hill
#
# Bulk Modulus (GPa) = 45.92087 54.99036 50.45562
# Shear Modulus (GPa) = 23.01401 25.94103 24.47752
#
# Velocity S-wave (km/s) = 3.60011 3.82220 3.71282
# Velocity P-wave (km/s) = 6.56828 7.10267 6.84070
#
# Compressibility (1/GPa) = 0.02177659
#
# Stress axis : x y z
#
# Youngs Moduli (GPa) = 47.55437 100.90048 38.34154
#
# Poissons Ratio (x) = 0.62317 0.42062
# Poissons Ratio (y) = 0.29370 0.01823
# Poissons Ratio (z) = 0.52169 0.04797
#
# Static dielectric constant tensor:
#      x y z
#    x 3.176980 0.000000 0.118480 
#    y 0.000000 3.250380 0.000000 
#    z 0.118480 0.000000 2.964470 
# 
# 
# High freq. dielectric constant tensor:
#      x y z
#    x 1.675730 0.000000 0.011190 
#    y 0.000000 1.698380 0.000000 
#    z 0.011190 0.000000 1.650650 
# 
# From -- ./inp_files/31614.got.cif
#   From: 2010.03.12/outbox.cif.g09.slc.cpg/sg8_16_cif.got.tgz:31614.got - 2010.03.31 10:45:26.
