data_PCOD8052454
_publ_section_title
;
Structure prediction by ZEFSAII (Michael W. Deem and Ramdas Pophale) SiO2 
 PCOD8052454
Probable space group: P M
;
_chemical_formula_sum "Si O2"
_cell_formula_units_Z 16
_cell_length_a 10.022229
_cell_length_b 8.578301
_cell_length_c 12.042191
_cell_angle_alpha 90.000000
_cell_angle_beta 127.449244
_cell_angle_gamma 90.000000
_cell_volume 821.925978
_symmetry_space_group_name_H-M "P M"
_symmetry_group_IT_number 6
_symmetry_cell_setting 'monoclinic'
loop_
_space_group_symop_operation_xyz
x,y,z
x,-y,z
loop_
_atom_site_type_symbol
_atom_site_label
_atom_site_fract_x
_atom_site_fract_y
_atom_site_fract_z
Si Si1 0.900410 0.320480 0.549460
Si Si2 0.178100 0.182546 0.541671
Si Si3 0.110579 0.677566 0.858573
Si Si4 0.692949 0.180422 0.115526
Si Si5 0.409043 0.679937 0.838537
Si Si6 0.210688 0.820067 0.131270
Si Si7 0.559378 0.679149 0.266407
Si Si8 0.048865 0.318302 0.259918
O O1 0.954215 0.500000 0.553488
O O2 0.702462 0.293461 0.432049
O O3 0.002490 0.214081 0.515428
O O4 0.949011 0.277980 0.700960
O O5 0.335180 0.253118 0.687224
O O6 0.175497 0.261848 0.419793
O O7 0.203063 0.000000 0.539845
O O8 0.099507 0.500000 0.894826
O O9 0.277191 0.704054 0.870800
O O10 0.115055 0.788307 0.967196
O O11 0.590517 0.213016 0.176049
O O12 0.858981 0.284645 0.200832
O O13 0.742998 0.000000 0.133830
O O14 0.577735 0.225812 0.952410
O O15 0.454512 0.500000 0.844765
O O16 0.381323 0.721257 0.229803
O O17 0.085601 0.774020 0.165999
O O18 0.257444 0.000000 0.162641
O O19 0.557250 0.500000 0.225511
O O20 0.074110 0.500000 0.252062
#
# Coordination Sequence:
#
# PCOD8052454 Si02
#       8
#     2   2   2   2   2   2   2   2
#     4   9  19  35  59  87 118 154 200 244 291 354
#     4  11  21  35  58  89 123 154 196 250 303 350
#     4   9  18  35  58  85 117 155 198 242 292 355
#     4  12  23  37  60  93 123 152 199 256 304 346
#     4  10  20  36  60  88 121 159 200 242 294 357
#     4  12  25  40  59  87 122 158 200 251 305 356
#     4  11  21  37  61  89 120 159 202 244 295 357
#     4  12  25  43  63  84 118 163 205 245 304 373
#
# _framework density 19.466473000000001
#
# number of rings (size 3 to 8) (size 9 to 14) (size 15 to 20)
#    0.000    1.250    2.500    6.000    0.000    2.500 
#    0.000    1.250    0.000    1.500    0.000    0.000 
#    0.000    0.000    0.000    0.000    0.000    0.000 
#
# Total GULP energy -198489.278919 kJ/mol
# GULP energy per Si atom -12405.579932 kJ/mol
# Density = 1.942217 g / cm^3
# Si number density = 19.466473 Si / 1000 Ang^3
#
#
#
# Elastic Constant Matrix: (Units=GPa)
#
#
# Indices 1 2 3 4 5 6 
#
# 1 42.4086 15.5384 26.5935 0.0000 -2.3031 0.0000
# 2 15.5384 97.9550 45.6767 0.0000 -4.6579 0.0000
# 3 26.5935 45.6767 139.1529 0.0000 1.4995 0.0000
# 4 0.0000 0.0000 0.0000 26.3726 0.0000 1.1253
# 5 -2.3031 -4.6579 1.4995 0.0000 25.4872 0.0000
# 6 0.0000 0.0000 0.0000 1.1253 0.0000 26.8183
#
#
#
# Elastic Compliance Matrix: (Units=1/GPa)
#
#
# Indices 1 2 3 4 5 6 
#
# 1 0.027337 -0.002097 -0.004561 0.000000 0.002355 0.000000
# 2 -0.002097 0.012368 -0.003684 0.000000 0.002287 0.000000
# 3 -0.004561 -0.003684 0.009285 0.000000 -0.001632 0.000000
# 4 0.000000 0.000000 0.000000 0.037986 0.000000 -0.001594
# 5 0.002355 0.002287 -0.001632 0.000000 0.039962 0.000000
# 6 0.000000 0.000000 0.000000 -0.001594 0.000000 0.037355
#
#
# Mechanical properties :
#
#
# Convention : Reuss Voigt Hill
#
# Bulk Modulus (GPa) = 35.32950 50.57041 42.94996
# Shear Modulus (GPa) = 25.71855 28.51614 27.11735
#
# Velocity S-wave (km/s) = 3.63874 3.83153 3.73638
# Velocity P-wave (km/s) = 5.98683 6.75343 6.38165
#
# Compressibility (1/GPa) = 0.02830496
#
# Stress axis : x y z
#
# Youngs Moduli (GPa) = 36.58075 80.85438 107.70361
#
# Poissons Ratio (x) = 0.16959 0.49126
# Poissons Ratio (y) = 0.07673 0.39673
# Poissons Ratio (z) = 0.16685 0.29783
#
# Static dielectric constant tensor:
#      x y z
#    x 3.152160 0.000000 0.084330 
#    y 0.000000 3.533200 0.000000 
#    z 0.084330 0.000000 3.834050 
# 
# 
# High freq. dielectric constant tensor:
#      x y z
#    x 1.719210 0.000000 0.007970 
#    y 0.000000 1.765580 0.000000 
#    z 0.007970 0.000000 1.777770 
# 
# From -- ./inp_files/4239.got.cif
#   From: 2010.03.12/outbox.cif.g09.slc.cpg/sg6_3_cif.got.tgz:4239.got - 2010.03.30 10:24:59.
