data_PCOD8052922
_publ_section_title
;
Structure prediction by ZEFSAII (Michael W. Deem and Ramdas Pophale) SiO2 
 PCOD8052922
Probable space group: C M
;
_chemical_formula_sum "Si O2"
_cell_formula_units_Z 32
_cell_length_a 23.994377
_cell_length_b 8.804572
_cell_length_c 19.445691
_cell_angle_alpha 90.000000
_cell_angle_beta 156.593047
_cell_angle_gamma 90.000000
_cell_volume 1631.981145
_symmetry_space_group_name_H-M "C M"
_symmetry_group_IT_number 8
_symmetry_cell_setting 'monoclinic'
loop_
_space_group_symop_operation_xyz
x,y,z
x,-y,z
1/2+x,1/2+y,z
1/2+x,1/2-y,z
loop_
_atom_site_type_symbol
_atom_site_label
_atom_site_fract_x
_atom_site_fract_y
_atom_site_fract_z
Si Si1 0.151260 0.673511 0.192440
Si Si2 0.709414 0.180476 0.850460
Si Si3 0.645497 0.174318 0.031243
Si Si4 0.357897 0.680236 0.157573
Si Si5 0.882550 0.176340 0.682912
Si Si6 0.838118 0.318364 0.859063
Si Si7 0.424489 0.319806 0.574696
Si Si8 0.168442 0.820195 0.533387
O O1 0.135720 0.500000 0.197171
O O2 0.205278 0.688202 0.175485
O O3 0.275869 0.746003 0.378715
O O4 0.997314 0.746447 0.030832
O O5 0.774605 0.252935 0.856596
O O6 0.550306 0.236568 0.678201
O O7 0.711049 0.000000 0.846152
O O8 0.801542 0.237433 0.019969
O O9 0.756809 0.240818 0.103332
O O10 0.605129 0.000000 0.968230
O O11 0.507590 0.276790 0.874721
O O12 0.361356 0.500000 0.162809
O O13 0.511165 0.745896 0.348874
O O14 0.928672 0.225101 0.659067
O O15 0.744744 0.264650 0.550818
O O16 0.849613 0.000000 0.650584
O O17 0.835643 0.500000 0.858248
O O18 0.744731 0.259416 0.688862
O O19 0.438462 0.500000 0.577959
O O20 0.167572 0.000000 0.532918
#
# Coordination Sequence:
#
# PCOD8052922 Si02
#       8
#     4   4   4   4   4   4   4   4
#     4   9  19  36  61  87 108 145 196 237 274 327
#     4  11  23  39  57  83 119 152 185 231 287 339
#     4  10  18  37  64  83 107 146 194 241 277 328
#     4   9  20  36  59  87 111 144 192 239 278 328
#     4  11  22  36  57  86 118 148 183 236 290 333
#     4  10  21  38  61  85 112 148 190 234 280 336
#     4  10  22  39  59  84 114 150 192 233 279 335
#     4  10  21  39  62  85 109 149 198 233 275 334
#
# _framework density 19.608069
#
# number of rings (size 3 to 8) (size 9 to 14) (size 15 to 20)
#    0.000    2.000    2.500    0.750    3.500    1.000 
#    0.000    2.500    0.000    0.000    0.000    0.000 
#    0.000    0.000    0.000    0.000    0.000    0.000 
#
# Total GULP energy -198386.715897 kJ/mol
# GULP energy per Si atom -12399.169744 kJ/mol
# Density = 1.956344 g / cm^3
# Si number density = 19.608069 Si / 1000 Ang^3
#
#
#
# Elastic Constant Matrix: (Units=GPa)
#
#
# Indices 1 2 3 4 5 6 
#
# 1 122.2180 20.0951 47.6682 0.0000 14.8933 0.0000
# 2 20.0951 13.9092 21.7546 0.0000 -0.2665 0.0000
# 3 47.6682 21.7546 147.1382 0.0000 12.6610 0.0000
# 4 0.0000 0.0000 0.0000 16.1258 0.0000 3.5573
# 5 14.8933 -0.2665 12.6610 0.0000 33.1674 0.0000
# 6 0.0000 0.0000 0.0000 3.5573 0.0000 31.0520
#
#
#
# Elastic Compliance Matrix: (Units=1/GPa)
#
#
# Indices 1 2 3 4 5 6 
#
# 1 0.011740 -0.015319 -0.001111 0.000000 -0.004971 0.000000
# 2 -0.015319 0.114775 -0.013109 0.000000 0.012805 0.000000
# 3 -0.001111 -0.013109 0.009368 0.000000 -0.003183 0.000000
# 4 0.000000 0.000000 0.000000 0.063620 0.000000 -0.007288
# 5 -0.004971 0.012805 -0.003183 0.000000 0.033700 0.000000
# 6 0.000000 0.000000 0.000000 -0.007288 0.000000 0.033039
#
#
# Mechanical properties :
#
#
# Convention : Reuss Voigt Hill
#
# Bulk Modulus (GPa) = 13.01978 51.36680 32.19329
# Shear Modulus (GPa) = 14.24824 28.98552 21.61688
#
# Velocity S-wave (km/s) = 2.69857 3.84897 3.32392
# Velocity P-wave (km/s) = 4.04526 6.78280 5.58438
#
# Compressibility (1/GPa) = 0.07680620
#
# Stress axis : x y z
#
# Youngs Moduli (GPa) = 85.18068 8.71271 106.74477
#
# Poissons Ratio (x) = 0.13347 0.11856
# Poissons Ratio (y) = 1.30488 1.39927
# Poissons Ratio (z) = 0.09461 0.11421
#
# Static dielectric constant tensor:
#      x y z
#    x 3.677340 0.000000 0.056360 
#    y 0.000000 3.219180 0.000000 
#    z 0.056360 0.000000 3.893790 
# 
# 
# High freq. dielectric constant tensor:
#      x y z
#    x 1.776870 0.000000 0.002410 
#    y 0.000000 1.726400 0.000000 
#    z 0.002410 0.000000 1.775100 
# 
# From -- ./inp_files/17352.got.cif
#   From: 2010.03.12/outbox.cif.g09.slc.cpg/sg8_9_cif.got.tgz:17352.got - 2010.03.31 10:45:26.
