data_PCOD8052595
_publ_section_title
;
Structure prediction by ZEFSAII (Michael W. Deem and Ramdas Pophale) SiO2 
 PCOD8052595
Probable space group: P C
;
_chemical_formula_sum "Si O2"
_cell_formula_units_Z 16
_cell_length_a 21.387847
_cell_length_b 7.706526
_cell_length_c 4.985380
_cell_angle_alpha 90.000000
_cell_angle_beta 103.156233
_cell_angle_gamma 90.000000
_cell_volume 800.152590
_symmetry_space_group_name_H-M "P C"
_symmetry_group_IT_number 7
_symmetry_cell_setting 'monoclinic'
loop_
_space_group_symop_operation_xyz
x,y,z
x,-y,1/2+z
loop_
_atom_site_type_symbol
_atom_site_label
_atom_site_fract_x
_atom_site_fract_y
_atom_site_fract_z
Si Si1 0.236830 0.617146 0.327770
Si Si2 0.574593 0.120636 0.157847
Si Si3 0.713904 0.886497 0.703091
Si Si4 0.844749 0.885387 0.979684
Si Si5 0.461044 0.381936 0.970283
Si Si6 0.984210 0.884210 0.088463
Si Si7 0.091229 0.390457 0.707730
Si Si8 0.346437 0.117835 0.857890
O O1 0.252761 0.531471 0.627955
O O2 0.163198 0.681205 0.234073
O O3 0.278293 0.788921 0.327503
O O4 0.645992 0.206705 0.199331
O O5 0.526690 0.278534 0.072306
O O6 0.563823 0.965205 0.936636
O O7 0.715785 0.058841 0.894306
O O8 0.779264 0.776031 0.841843
O O9 0.913441 0.791787 0.989440
O O10 0.842137 0.943791 0.285847
O O11 0.457566 0.455979 0.667502
O O12 0.402090 0.254987 0.967585
O O13 0.040069 0.751976 0.073948
O O14 0.991291 0.954325 0.395648
O O15 0.080645 0.555627 0.504722
O O16 0.352433 0.043274 0.565350
#
# Coordination Sequence:
#
# PCOD8052595 Si02
#       8
#     2   2   2   2   2   2   2   2
#     4  10  21  39  58  78 106 141 173 206 256 316
#     4  10  19  34  55  79 103 132 175 222 256 296
#     4   8  14  25  45  70  97 127 164 210 258 300
#     4   8  14  25  42  69  98 127 164 210 258 300
#     4  12  24  39  57  78 109 145 172 204 256 316
#     4  10  19  31  51  76 103 133 175 222 256 296
#     4  10  21  36  54  75 106 142 173 206 256 316
#     4  12  24  39  60  85 108 133 172 220 256 296
#
# _framework density 19.996188
#
# number of rings (size 3 to 8) (size 9 to 14) (size 15 to 20)
#    0.000    2.000    0.000    4.500    0.000    1.000 
#    0.000    0.000    0.000    1.500    0.000    0.000 
#    0.000    0.000    0.000    0.000    0.000    0.000 
#
# Total GULP energy -198311.607851 kJ/mol
# GULP energy per Si atom -12394.475491 kJ/mol
# Density = 1.995068 g / cm^3
# Si number density = 19.996188 Si / 1000 Ang^3
#
#
#
# Elastic Constant Matrix: (Units=GPa)
#
#
# Indices 1 2 3 4 5 6 
#
# 1 157.1940 53.0387 21.9467 0.0000 22.0726 0.0000
# 2 53.0387 53.5846 6.7088 0.0000 11.6524 0.0000
# 3 21.9467 6.7088 70.6142 0.0000 -1.0701 0.0000
# 4 0.0000 0.0000 0.0000 25.2693 0.0000 -6.5907
# 5 22.0726 11.6524 -1.0701 0.0000 34.1326 0.0000
# 6 0.0000 0.0000 0.0000 -6.5907 0.0000 0.1017
#
#
#
# Elastic Compliance Matrix: (Units=1/GPa)
#
#
# Indices 1 2 3 4 5 6 
#
# 1 0.010264 -0.009075 -0.002382 0.000000 -0.003614 0.000000
# 2 -0.009075 0.028475 0.000057 0.000000 -0.003851 0.000000
# 3 -0.002382 0.000057 0.014927 0.000000 0.001989 0.000000
# 4 0.000000 0.000000 0.000000 -0.002488 0.000000 -0.161270
# 5 -0.003614 -0.003851 0.001989 0.000000 0.033011 0.000000
# 6 0.000000 0.000000 0.000000 -0.161270 0.000000 -0.618327
#
#
# Mechanical properties :
#
#
# Convention : Reuss Voigt Hill
#
# Bulk Modulus (GPa) = 32.40035 49.42015 40.91025
# Shear Modulus (GPa) = -9.97905 25.21396 7.61746
#
# Velocity S-wave (km/s) = -2.23636 3.55482 1.95390
# Velocity P-wave (km/s) = 3.09355 6.45116 5.05903
#
# Compressibility (1/GPa) = 0.03086387
#
# Stress axis : x y z
#
# Youngs Moduli (GPa) = 97.43185 35.11888 66.99417
#
# Poissons Ratio (x) = 0.31870 0.15961
# Poissons Ratio (y) = 0.88418 -0.00381
# Poissons Ratio (z) = 0.23213 -0.00199
#
# Static dielectric constant tensor:
#      x y z
#    x 4.188680 0.000000 0.111880 
#    y 0.000000 2.984170 0.000000 
#    z 0.111880 0.000000 3.830880 
# 
# 
# High freq. dielectric constant tensor:
#      x y z
#    x 1.813200 0.000000 0.001730 
#    y 0.000000 1.710180 0.000000 
#    z 0.001730 0.000000 1.804960 
# 
# From -- ./inp_files/1415.got.cif
#   From: 2010.03.12/outbox.cif.g09.slc.cpg/sg7_cif.got.tgz:1415.got - 2010.03.30 08:40:41.
