data_PCOD8052753
_publ_section_title
;
Structure prediction by ZEFSAII (Michael W. Deem and Ramdas Pophale) SiO2 
 PCOD8052753
Probable space group: C M
;
_chemical_formula_sum "Si O2"
_cell_formula_units_Z 22
_cell_length_a 13.562297
_cell_length_b 11.615926
_cell_length_c 15.355161
_cell_angle_alpha 90.000000
_cell_angle_beta 152.039501
_cell_angle_gamma 90.000000
_cell_volume 1134.193545
_symmetry_space_group_name_H-M "C M"
_symmetry_group_IT_number 8
_symmetry_cell_setting 'monoclinic'
loop_
_space_group_symop_operation_xyz
x,y,z
x,-y,z
1/2+x,1/2+y,z
1/2+x,1/2-y,z
loop_
_atom_site_type_symbol
_atom_site_label
_atom_site_fract_x
_atom_site_fract_y
_atom_site_fract_z
Si Si1 0.450511 0.000000 0.384010
Si Si2 0.777926 0.264915 0.297469
Si Si3 0.363422 0.500000 0.796906
Si Si4 0.911769 0.751087 0.590429
Si Si5 0.198460 0.136066 0.590442
Si Si6 0.344750 0.500000 0.590456
Si Si7 0.863875 0.764920 0.883403
O O1 0.309921 0.113415 0.274728
O O2 0.607715 0.000000 0.590458
O O3 0.591400 0.000000 0.405992
O O4 0.782208 0.287882 0.404251
O O5 0.956398 0.174534 0.407945
O O6 0.550665 0.216546 0.090429
O O7 0.460343 0.500000 0.774922
O O8 0.441403 0.386582 0.906184
O O9 0.803312 0.698949 0.590434
O O10 0.913852 0.889351 0.590457
O O11 0.154561 0.712092 0.776579
O O12 0.321410 0.174538 0.772942
O O13 0.214173 0.000000 0.590448
#
# Coordination Sequence:
#
# PCOD8052753 Si02
#       7
#     2   4   2   4   4   2   4
#     4  10  17  43  66  86 117 166 202 251 303 352
#     4  11  24  41  64  93 123 160 205 252 302 359
#     4  10  17  43  66  86 117 166 202 251 303 352
#     4  11  22  41  64  89 124 158 208 249 306 355
#     4  11  24  43  65  83 129 168 197 247 307 365
#     4  10  18  40  68  84 112 170 198 256 306 348
#     4  11  24  41  64  93 123 160 205 252 302 359
#
# _framework density 19.397043
#
# number of rings (size 3 to 8) (size 9 to 14) (size 15 to 20)
#    0.545    0.727    7.273    0.545    7.636    2.182 
#    0.000    0.000    0.000    0.000    0.000    0.000 
#    0.000    0.000    0.000    0.000    0.000    0.000 
#
# Total GULP energy -136380.826971 kJ/mol
# GULP energy per Si atom -12398.256997 kJ/mol
# Density = 1.935289 g / cm^3
# Si number density = 19.397043 Si / 1000 Ang^3
#
#
#
# Elastic Constant Matrix: (Units=GPa)
#
#
# Indices 1 2 3 4 5 6 
#
# 1 75.5186 -7.5583 43.8712 -0.0039 -2.6721 -0.0028
# 2 -7.5583 99.2775 10.9763 -0.0081 2.4462 -0.0071
# 3 43.8712 10.9763 157.9630 -0.0078 13.5274 -0.0078
# 4 -0.0039 -0.0081 -0.0078 17.5865 -0.0021 -1.4775
# 5 -2.6721 2.4462 13.5274 -0.0021 7.9039 -0.0014
# 6 -0.0028 -0.0071 -0.0078 -1.4775 -0.0014 28.7197
#
#
#
# Elastic Compliance Matrix: (Units=1/GPa)
#
#
# Indices 1 2 3 4 5 6 
#
# 1 0.017746 0.001658 -0.006461 0.000004 0.016544 0.000001
# 2 0.001658 0.010340 -0.001116 0.000005 -0.000729 0.000003
# 3 -0.006461 -0.001116 0.009796 0.000000 -0.018604 0.000001
# 4 0.000004 0.000005 0.000000 0.057109 0.000016 0.002938
# 5 0.016544 -0.000729 -0.018604 0.000016 0.164179 0.000005
# 6 0.000001 0.000003 0.000001 0.002938 0.000005 0.034970
#
#
# Mechanical properties :
#
#
# Convention : Reuss Voigt Hill
#
# Bulk Modulus (GPa) = 38.39724 47.48194 42.93959
# Shear Modulus (GPa) = 15.89016 29.87334 22.88175
#
# Velocity S-wave (km/s) = 2.86528 3.92867 3.43833
# Velocity P-wave (km/s) = 5.54841 6.71650 6.16020
#
# Compressibility (1/GPa) = 0.02604354
#
# Stress axis : x y z
#
# Youngs Moduli (GPa) = 56.34995 96.70816 102.08609
#
# Poissons Ratio (x) = -0.16032 0.65954
# Poissons Ratio (y) = -0.09341 0.11398
# Poissons Ratio (z) = 0.36406 0.10797
#
# Static dielectric constant tensor:
#      x y z
#    x 3.470090 0.000000 -0.010290 
#    y 0.000000 3.477170 0.000000 
#    z -0.010290 0.000000 3.393310 
# 
# 
# High freq. dielectric constant tensor:
#      x y z
#    x 1.752860 0.000000 -0.001190 
#    y 0.000000 1.758020 0.000000 
#    z -0.001190 0.000000 1.743940 
# 
# From -- ./inp_files/26763.got.cif
#   From: 2010.03.12/outbox.cif.g09.slc.cpg/sg8_14_cif.got.tgz:26763.got - 2010.03.31 10:45:26.
