data_PCOD8052711
_publ_section_title
;
Structure prediction by ZEFSAII (Michael W. Deem and Ramdas Pophale) SiO2 
 PCOD8052711
Probable space group: C M
;
_chemical_formula_sum "Si O2"
_cell_formula_units_Z 32
_cell_length_a 23.252409
_cell_length_b 8.655906
_cell_length_c 28.685666
_cell_angle_alpha 90.000000
_cell_angle_beta 162.434239
_cell_angle_gamma 90.000000
_cell_volume 1742.468689
_symmetry_space_group_name_H-M "C M"
_symmetry_group_IT_number 8
_symmetry_cell_setting 'monoclinic'
loop_
_space_group_symop_operation_xyz
x,y,z
x,-y,z
1/2+x,1/2+y,z
1/2+x,1/2-y,z
loop_
_atom_site_type_symbol
_atom_site_label
_atom_site_fract_x
_atom_site_fract_y
_atom_site_fract_z
Si Si1 0.018790 0.819679 0.305970
Si Si2 0.486387 0.315924 0.385178
Si Si3 0.794038 0.182167 0.692500
Si Si4 0.718778 0.680808 0.247389
Si Si5 0.956627 0.325627 0.114182
Si Si6 0.200203 0.317887 0.988027
Si Si7 0.283084 0.670928 0.443439
Si Si8 0.527947 0.682020 0.552826
O O1 0.004107 0.749958 0.346297
O O2 0.222143 0.780234 0.438959
O O3 0.003118 0.000000 0.297618
O O4 0.846609 0.757542 0.140827
O O5 0.497165 0.500000 0.395742
O O6 0.662401 0.246359 0.549540
O O7 0.282223 0.258835 0.247515
O O8 0.738168 0.263999 0.698958
O O9 0.009314 0.223419 0.847564
O O10 0.769376 0.000000 0.677727
O O11 0.688211 0.500000 0.216632
O O12 0.522845 0.754232 0.115783
O O13 0.889545 0.712677 0.415001
O O14 0.884687 0.500000 0.050482
O O15 0.134232 0.321343 0.286218
O O16 0.785435 0.223735 0.003123
O O17 0.162248 0.500000 0.961637
O O18 0.293689 0.500000 0.473000
O O19 0.485539 0.715840 0.575158
O O20 0.494514 0.500000 0.516467
#
# Coordination Sequence:
#
# PCOD8052711 Si02
#       8
#     4   4   4   4   4   4   4   4
#     4   9  19  32  50  73  97 126 161 196 239 286
#     4  10  19  33  50  71  98 129 161 200 242 284
#     4  11  21  32  48  73  99 129 163 197 238 288
#     4  10  17  26  43  69  95 123 158 199 240 281
#     4   9  16  28  45  68  95 124 157 197 238 281
#     4  10  19  33  51  73  99 128 159 198 241 286
#     4   8  15  26  44  68  94 121 153 193 239 281
#     4   9  16  28  45  67  93 124 158 198 241 281
#
# _framework density 18.364749
#
# number of rings (size 3 to 8) (size 9 to 14) (size 15 to 20)
#    0.000    2.500    0.000    6.000    0.000    5.000 
#    0.000    0.000    0.000    1.500    0.000    5.250 
#    0.000    0.000    0.000    0.000    0.000    0.000 
#
# Total GULP energy -198279.999288 kJ/mol
# GULP energy per Si atom -12392.499956 kJ/mol
# Density = 1.832295 g / cm^3
# Si number density = 18.364749 Si / 1000 Ang^3
#
#
#
# Elastic Constant Matrix: (Units=GPa)
#
#
# Indices 1 2 3 4 5 6 
#
# 1 164.3191 41.5671 49.4375 0.2507 31.6772 -0.0126
# 2 41.5671 84.9083 22.9528 0.6162 6.0636 -0.0554
# 3 49.4375 22.9528 52.2403 0.2327 21.5175 -0.0392
# 4 0.2507 0.6162 0.2327 21.1304 0.0221 12.6444
# 5 31.6772 6.0636 21.5175 0.0221 25.4330 -0.0542
# 6 -0.0126 -0.0554 -0.0392 12.6444 -0.0542 29.7474
#
#
#
# Elastic Compliance Matrix: (Units=1/GPa)
#
#
# Indices 1 2 3 4 5 6 
#
# 1 0.009692 -0.002898 -0.004929 0.000059 -0.007210 -0.000046
# 2 -0.002898 0.014359 -0.005589 -0.000462 0.004915 0.000223
# 3 -0.004929 -0.005589 0.035587 -0.000191 -0.022636 0.000074
# 4 0.000059 -0.000462 -0.000191 0.063490 0.000086 -0.026988
# 5 -0.007210 0.004915 -0.022636 0.000086 0.066279 0.000061
# 6 -0.000046 0.000223 0.000074 -0.026988 0.000061 0.045088
#
#
# Mechanical properties :
#
#
# Convention : Reuss Voigt Hill
#
# Bulk Modulus (GPa) = 30.48160 58.82027 44.65093
# Shear Modulus (GPa) = 18.36467 27.76284 23.06376
#
# Velocity S-wave (km/s) = 3.16570 3.89234 3.54767
# Velocity P-wave (km/s) = 5.47687 7.23179 6.41463
#
# Compressibility (1/GPa) = 0.03280667
#
# Stress axis : x y z
#
# Youngs Moduli (GPa) = 103.18308 69.64105 28.10003
#
# Poissons Ratio (x) = 0.20180 0.13850
# Poissons Ratio (y) = 0.29899 0.15705
# Poissons Ratio (z) = 0.50857 0.38923
#
# Static dielectric constant tensor:
#      x y z
#    x 3.932460 0.000550 0.436950 
#    y 0.000550 3.360990 -0.000710 
#    z 0.436950 -0.000710 3.057890 
# 
# 
# High freq. dielectric constant tensor:
#      x y z
#    x 1.721610 0.000000 0.043520 
#    y 0.000000 1.719570 -0.000030 
#    z 0.043520 -0.000030 1.655800 
# 
# From -- ./inp_files/23716.got.cif
#   From: 2010.03.12/outbox.cif.g09.slc.cpg/sg8_12_cif.got.tgz:23716.got - 2010.03.31 10:45:26.
