data_PCOD8052023
_publ_section_title
;
Structure prediction by ZEFSAII (Michael W. Deem and Ramdas Pophale) SiO2 
 PCOD8052023
Probable space group: C 2
;
_chemical_formula_sum "Si O2"
_cell_formula_units_Z 26
_cell_length_a 9.067486
_cell_length_b 11.646854
_cell_length_c 11.311700
_cell_angle_alpha 90.000000
_cell_angle_beta 95.295090
_cell_angle_gamma 90.000000
_cell_volume 1189.504623
_symmetry_space_group_name_H-M "C 2"
_symmetry_group_IT_number 5
_symmetry_cell_setting 'monoclinic'
loop_
_space_group_symop_operation_xyz
x,y,z
-x,y,-z
1/2+x,1/2+y,z
1/2-x,1/2+y,-z
loop_
_atom_site_type_symbol
_atom_site_label
_atom_site_fract_x
_atom_site_fract_y
_atom_site_fract_z
Si Si1 0.148077 0.840550 0.290232
Si Si2 0.562489 0.503267 0.874168
Si Si3 0.000000 0.185968 0.500000
Si Si4 0.475471 0.097340 0.672003
Si Si5 0.446192 0.751990 0.241154
Si Si6 0.098839 0.446928 0.121289
Si Si7 0.730105 0.029128 0.541120
O O1 0.071594 0.729037 0.339824
O O2 0.283342 0.807278 0.212714
O O3 0.203583 0.908816 0.410094
O O4 0.032483 0.910897 0.203860
O O5 0.554317 0.621118 0.800967
O O6 0.728605 0.455977 0.896230
O O7 0.500000 0.523415 0.000000
O O8 0.983610 0.263854 0.382703
O O9 0.857410 0.108225 0.500872
O O10 0.647380 0.088514 0.646758
O O11 0.381482 0.015017 0.577243
O O12 0.453323 0.051966 0.801599
O O13 0.567907 0.823278 0.177884
O O14 0.000000 0.459968 0.000000
#
# Coordination Sequence:
#
# PCOD8052023 Si02
#       7
#     4   4   2   4   4   4   4
#     4  12  25  47  73 108 149 188 243 298 369 438
#     4  12  28  49  76 109 146 193 254 305 366 443
#     4  12  24  44  76 106 150 194 238 306 364 434
#     4  11  26  47  73 111 147 195 244 303 375 438
#     4  12  26  50  73 109 149 194 246 303 372 444
#     4  12  27  50  75 105 149 198 248 308 369 434
#     4  11  25  46  71 110 150 190 240 303 368 441
#
# _framework density 21.857839999999999
#
# number of rings (size 3 to 8) (size 9 to 14) (size 15 to 20)
#    0.000    0.308    6.154    1.385    4.308    1.846 
#    2.769    0.000    0.000    0.000    0.000    0.000 
#    0.000    0.000    0.000    0.000    0.000    0.000 
#
# Total GULP energy -161255.587264 kJ/mol
# GULP energy per Si atom -12404.275943 kJ/mol
# Density = 2.180809 g / cm^3
# Si number density = 21.857840 Si / 1000 Ang^3
#
#
#
# Elastic Constant Matrix: (Units=GPa)
#
#
# Indices 1 2 3 4 5 6 
#
# 1 119.6505 48.9795 64.1510 0.0000 -7.6433 0.0000
# 2 48.9795 123.6365 58.5587 0.0000 14.7613 0.0000
# 3 64.1510 58.5587 160.1216 0.0000 9.4648 0.0000
# 4 0.0000 0.0000 0.0000 37.2792 0.0000 -5.0371
# 5 -7.6433 14.7613 9.4648 0.0000 36.2444 0.0000
# 6 0.0000 0.0000 0.0000 -5.0371 0.0000 38.0925
#
#
#
# Elastic Compliance Matrix: (Units=1/GPa)
#
#
# Indices 1 2 3 4 5 6 
#
# 1 0.012243 -0.003617 -0.003882 0.000000 0.005069 0.000000
# 2 -0.003617 0.011206 -0.002371 0.000000 -0.004707 0.000000
# 3 -0.003882 -0.002371 0.008795 0.000000 -0.002150 0.000000
# 4 0.000000 0.000000 0.000000 0.027313 0.000000 0.003612
# 5 0.005069 -0.004707 -0.002150 0.000000 0.031138 0.000000
# 6 0.000000 0.000000 0.000000 0.003612 0.000000 0.026729
#
#
# Mechanical properties :
#
#
# Convention : Reuss Voigt Hill
#
# Bulk Modulus (GPa) = 79.97074 82.97632 81.47353
# Shear Modulus (GPa) = 35.37771 37.77118 36.57445
#
# Velocity S-wave (km/s) = 4.02747 4.16148 4.09502
# Velocity P-wave (km/s) = 7.63502 7.81887 7.72749
#
# Compressibility (1/GPa) = 0.01250457
#
# Stress axis : x y z
#
# Youngs Moduli (GPa) = 81.67664 89.23770 113.70461
#
# Poissons Ratio (x) = 0.32275 0.44141
# Poissons Ratio (y) = 0.29541 0.26958
# Poissons Ratio (z) = 0.31708 0.21158
#
# Static dielectric constant tensor:
#      x y z
#    x 4.305560 0.000000 -0.118380 
#    y 0.000000 3.947440 0.000000 
#    z -0.118380 0.000000 3.951860 
# 
# 
# High freq. dielectric constant tensor:
#      x y z
#    x 1.878970 0.000000 -0.005370 
#    y 0.000000 1.864060 0.000000 
#    z -0.005370 0.000000 1.863710 
# 
# From -- ./inp_files/35450.got.cif
#   From: 2010.03.12/outbox.cif.g09.slc.cpg/sg5_18_cif.got.tgz:35450.got - 2010.03.31 09:47:26.
