data_PCOD8052213
_publ_section_title
;
Structure prediction by ZEFSAII (Michael W. Deem and Ramdas Pophale) SiO2 
 PCOD8052213
Probable space group: C 2
;
_chemical_formula_sum "Si O2"
_cell_formula_units_Z 20
_cell_length_a 9.997666
_cell_length_b 9.726174
_cell_length_c 13.187481
_cell_angle_alpha 90.000000
_cell_angle_beta 67.908084
_cell_angle_gamma 90.000000
_cell_volume 1188.190911
_symmetry_space_group_name_H-M "C 2"
_symmetry_group_IT_number 5
_symmetry_cell_setting 'monoclinic'
loop_
_space_group_symop_operation_xyz
x,y,z
-x,y,-z
1/2+x,1/2+y,z
1/2-x,1/2+y,-z
loop_
_atom_site_type_symbol
_atom_site_label
_atom_site_fract_x
_atom_site_fract_y
_atom_site_fract_z
Si Si1 0.895797 0.176000 0.940750
Si Si2 0.863830 0.358940 0.477810
Si Si3 0.132792 0.307691 0.744150
Si Si4 0.836642 0.452478 0.061698
Si Si5 0.333008 0.156017 0.552798
O O1 0.994996 0.217992 0.817494
O O2 0.185799 0.312454 0.995879
O O3 0.778739 0.064257 0.940945
O O4 0.000000 0.116988 0.000000
O O5 0.909112 0.389247 0.347325
O O6 0.742158 0.241029 0.517130
O O7 0.802223 0.495597 0.547092
O O8 0.000000 0.301779 0.500000
O O9 0.184975 0.416582 0.813556
O O10 0.264978 0.203029 0.680160
O O11 0.000000 0.508953 0.000000
O O12 0.500000 0.191049 0.500000
#
# Coordination Sequence:
#
# PCOD8052213 Si02
#       5
#     4   4   4   4   4
#     4   9  19  38  58  79 111 136 175 226 272 323
#     4   9  19  35  52  75 112 143 181 219 256 307
#     4   8  19  36  56  78 112 146 171 220 276 304
#     4   9  19  38  58  79 111 136 175 226 272 323
#     4   9  19  35  52  75 112 143 181 219 256 307
#
# _framework density 16.832312000000002
#
# number of rings (size 3 to 8) (size 9 to 14) (size 15 to 20)
#    1.200    2.400    0.000    0.000    0.000    4.800 
#   28.800    0.000    0.000    0.000    0.000    0.000 
#    0.000    0.000    0.000    0.000    0.000    0.000 
#
# Total GULP energy -123882.962754 kJ/mol
# GULP energy per Si atom -12388.296275 kJ/mol
# Density = 1.679400 g / cm^3
# Si number density = 16.832312 Si / 1000 Ang^3
#
#
#
# Elastic Constant Matrix: (Units=GPa)
#
#
# Indices 1 2 3 4 5 6 
#
# 1 105.0799 61.8553 12.1364 0.0000 -4.6390 0.0000
# 2 61.8553 62.2730 3.5730 0.0000 -10.5297 0.0000
# 3 12.1364 3.5730 69.5629 0.0000 2.9324 0.0000
# 4 0.0000 0.0000 0.0000 18.7349 0.0000 3.2827
# 5 -4.6390 -10.5297 2.9324 0.0000 22.5056 0.0000
# 6 0.0000 0.0000 0.0000 3.2827 0.0000 20.2270
#
#
#
# Elastic Compliance Matrix: (Units=1/GPa)
#
#
# Indices 1 2 3 4 5 6 
#
# 1 0.024292 -0.025051 -0.002683 0.000000 -0.006364 0.000000
# 2 -0.025051 0.043380 0.001513 0.000000 0.014935 0.000000
# 3 -0.002683 0.001513 0.014841 0.000000 -0.001779 0.000000
# 4 0.000000 0.000000 0.000000 0.054939 0.000000 -0.008916
# 5 -0.006364 0.014935 -0.001779 0.000000 0.050341 0.000000
# 6 0.000000 0.000000 0.000000 -0.008916 0.000000 0.050886
#
#
# Mechanical properties :
#
#
# Convention : Reuss Voigt Hill
#
# Bulk Modulus (GPa) = 33.25574 43.56055 38.40815
# Shear Modulus (GPa) = 16.60336 22.91690 19.76013
#
# Velocity S-wave (km/s) = 3.14411 3.69383 3.43000
# Velocity P-wave (km/s) = 5.74287 6.64288 6.20920
#
# Compressibility (1/GPa) = 0.03007000
#
# Stress axis : x y z
#
# Youngs Moduli (GPa) = 41.16634 23.05225 67.38145
#
# Poissons Ratio (x) = 0.57748 0.18079
# Poissons Ratio (y) = 1.03125 -0.10194
# Poissons Ratio (z) = 0.11045 -0.03487
#
# Static dielectric constant tensor:
#      x y z
#    x 3.047240 0.000000 0.039380 
#    y 0.000000 2.940600 0.000000 
#    z 0.039380 0.000000 3.113000 
# 
# 
# High freq. dielectric constant tensor:
#      x y z
#    x 1.645020 0.000000 0.001000 
#    y 0.000000 1.636420 0.000000 
#    z 0.001000 0.000000 1.648010 
# 
# From -- ./inp_files/49977.got.cif
#   From: 2010.03.12/outbox.cif.g09.slc.cpg/sg5_25_cif.got.tgz:49977.got - 2010.03.31 09:47:26.
