data_PCOD8052690
_publ_section_title
;
Structure prediction by ZEFSAII (Michael W. Deem and Ramdas Pophale) SiO2 
 PCOD8052690
Probable space group: C M
;
_chemical_formula_sum "Si O2"
_cell_formula_units_Z 32
_cell_length_a 15.858967
_cell_length_b 22.400255
_cell_length_c 9.124463
_cell_angle_alpha 90.000000
_cell_angle_beta 150.835999
_cell_angle_gamma 90.000000
_cell_volume 1579.579470
_symmetry_space_group_name_H-M "C M"
_symmetry_group_IT_number 8
_symmetry_cell_setting 'monoclinic'
loop_
_space_group_symop_operation_xyz
x,y,z
x,-y,z
1/2+x,1/2+y,z
1/2+x,1/2-y,z
loop_
_atom_site_type_symbol
_atom_site_label
_atom_site_fract_x
_atom_site_fract_y
_atom_site_fract_z
Si Si1 0.094000 0.146665 0.730850
Si Si2 0.944234 0.603323 0.560700
Si Si3 0.905298 0.566686 0.181023
Si Si4 0.588180 0.357353 0.071213
Si Si5 0.697847 0.231715 0.280301
Si Si6 0.715537 0.112719 0.465534
Si Si7 0.556847 0.230794 0.762083
Si Si8 0.772015 0.066629 0.239604
O O1 0.110363 0.218384 0.722072
O O2 0.915600 0.115372 0.407608
O O3 0.253072 0.111421 0.898744
O O4 0.107340 0.145256 0.925688
O O5 0.925848 0.564634 0.387117
O O6 0.762316 0.604957 0.378240
O O7 0.997314 0.670701 0.589916
O O8 0.091299 0.575271 0.883649
O O9 0.857142 0.500000 0.055983
O O10 0.085391 0.586074 0.384477
O O11 0.593886 0.292326 0.157640
O O12 0.403236 0.385547 0.832613
O O13 0.642001 0.177052 0.299206
O O14 0.899398 0.241581 0.618829
O O15 0.692854 0.214972 0.097895
O O16 0.733879 0.070024 0.354161
O O17 0.842622 0.000000 0.313493
#
# Coordination Sequence:
#
# PCOD8052690 Si02
#       8
#     4   4   4   4   4   4   4   4
#     4   9  18  36  58  83 110 148 190 227 280 338
#     4  10  20  36  62  85 112 142 186 241 284 333
#     4  11  24  40  53  76 119 161 190 227 279 337
#     4   8  18  33  59  84 109 146 186 227 286 345
#     4  10  15  30  57  85 111 135 176 230 288 330
#     4  11  20  37  55  82 115 153 189 227 281 339
#     4  10  16  32  60  88 108 136 180 240 283 330
#     4  11  20  34  60  87 106 143 200 239 269 324
#
# _framework density 20.258557
#
# number of rings (size 3 to 8) (size 9 to 14) (size 15 to 20)
#    0.000    2.000    5.000    1.875    0.000    0.000 
#    2.250    3.125    0.000    0.000    0.000    0.000 
#    0.000    0.000    0.000    0.000    0.000    0.000 
#
# Total GULP energy -198228.071497 kJ/mol
# GULP energy per Si atom -12389.254469 kJ/mol
# Density = 2.021245 g / cm^3
# Si number density = 20.258557 Si / 1000 Ang^3
#
#
#
# Elastic Constant Matrix: (Units=GPa)
#
#
# Indices 1 2 3 4 5 6 
#
# 1 45.6081 26.8342 22.7889 0.0000 22.8239 0.0000
# 2 26.8342 110.7107 26.9646 0.0000 13.6206 0.0000
# 3 22.7889 26.9646 109.2867 0.0000 18.6501 0.0000
# 4 0.0000 0.0000 0.0000 24.4850 0.0000 2.3611
# 5 22.8239 13.6206 18.6501 0.0000 26.6292 0.0000
# 6 0.0000 0.0000 0.0000 2.3611 0.0000 19.5053
#
#
#
# Elastic Compliance Matrix: (Units=1/GPa)
#
#
# Indices 1 2 3 4 5 6 
#
# 1 0.042308 -0.005858 -0.001931 0.000000 -0.031914 0.000000
# 2 -0.005858 0.010753 -0.001533 0.000000 0.000595 0.000000
# 3 -0.001931 -0.001533 0.010806 0.000000 -0.005129 0.000000
# 4 0.000000 0.000000 0.000000 0.041324 0.000000 -0.005002
# 5 -0.031914 0.000595 -0.005129 0.000000 0.068194 0.000000
# 6 0.000000 0.000000 0.000000 -0.005002 0.000000 0.051873
#
#
# Mechanical properties :
#
#
# Convention : Reuss Voigt Hill
#
# Bulk Modulus (GPa) = 22.11238 46.53124 34.32181
# Shear Modulus (GPa) = 19.30675 26.72510 23.01592
#
# Velocity S-wave (km/s) = 3.09045 3.63602 3.37428
# Velocity P-wave (km/s) = 4.86552 6.37543 5.67095
#
# Compressibility (1/GPa) = 0.04522353
#
# Stress axis : x y z
#
# Youngs Moduli (GPa) = 23.63612 93.00031 92.53741
#
# Poissons Ratio (x) = 0.54481 0.17866
# Poissons Ratio (y) = 0.13846 0.14186
# Poissons Ratio (z) = 0.04563 0.14257
#
# Static dielectric constant tensor:
#      x y z
#    x 2.978920 0.000000 0.230520 
#    y 0.000000 4.011800 0.000000 
#    z 0.230520 0.000000 4.000560 
# 
# 
# High freq. dielectric constant tensor:
#      x y z
#    x 1.713220 0.000000 0.017220 
#    y 0.000000 1.803520 0.000000 
#    z 0.017220 0.000000 1.810250 
# 
# From -- ./inp_files/13837.got.cif
#   From: 2010.03.12/outbox.cif.g09.slc.cpg/sg8_7_cif.got.tgz:13837.got - 2010.03.31 10:45:26.
