data_PCOD8052876
_publ_section_title
;
Structure prediction by ZEFSAII (Michael W. Deem and Ramdas Pophale) SiO2 
 PCOD8052876
Probable space group: C M
;
_chemical_formula_sum "Si O2"
_cell_formula_units_Z 32
_cell_length_a 15.440720
_cell_length_b 8.365181
_cell_length_c 22.816589
_cell_angle_alpha 90.000000
_cell_angle_beta 31.915147
_cell_angle_gamma 90.000000
_cell_volume 1558.017473
_symmetry_space_group_name_H-M "C M"
_symmetry_group_IT_number 8
_symmetry_cell_setting 'monoclinic'
loop_
_space_group_symop_operation_xyz
x,y,z
x,-y,z
1/2+x,1/2+y,z
1/2+x,1/2-y,z
loop_
_atom_site_type_symbol
_atom_site_label
_atom_site_fract_x
_atom_site_fract_y
_atom_site_fract_z
Si Si1 0.138280 0.311656 0.715590
Si Si2 0.885522 0.183747 0.475744
Si Si3 0.973368 0.187262 0.252292
Si Si4 0.191553 0.186958 0.482532
Si Si5 0.007199 0.687366 0.104896
Si Si6 0.331837 0.311933 0.713060
Si Si7 0.306946 0.313073 0.856539
Si Si8 0.178131 0.314595 0.242362
O O1 0.106585 0.500000 0.726711
O O2 0.293903 0.258913 0.587010
O O3 0.182661 0.261213 0.756592
O O4 0.976733 0.217393 0.791634
O O5 0.757659 0.204685 0.496899
O O6 0.046960 0.287866 0.369927
O O7 0.940451 0.000000 0.449202
O O8 0.021792 0.221000 0.157913
O O9 0.108144 0.255537 0.220131
O O10 0.796055 0.270225 0.364630
O O11 0.959186 0.000000 0.271494
O O12 0.002441 0.235950 0.583591
O O13 0.213691 0.000000 0.484895
O O14 0.024995 0.500000 0.107043
O O15 0.841398 0.719138 0.164598
O O16 0.156314 0.757045 0.980233
O O17 0.332416 0.500000 0.721046
O O18 0.310575 0.232508 0.789521
O O19 0.280050 0.500000 0.865405
O O20 0.221070 0.500000 0.213340
#
# Coordination Sequence:
#
# PCOD8052876 Si02
#       8
#     4   4   4   4   4   4   4   4
#     4  10  21  36  58  88 120 158 199 244 298 358
#     4  10  19  33  56  87 125 160 197 246 303 360
#     4  11  23  40  61  90 125 161 205 255 309 368
#     4  10  18  33  60  86 120 160 198 246 302 364
#     4  11  24  42  64  89 121 165 213 258 305 363
#     4   9  19  36  58  86 117 156 196 238 298 360
#     4  10  22  42  63  85 118 158 203 251 299 358
#     4  11  23  40  62  91 124 162 205 254 310 367
#
# _framework density 20.538921999999999
#
# number of rings (size 3 to 8) (size 9 to 14) (size 15 to 20)
#    0.000    1.750    1.250    4.875    1.750    2.500 
#    0.000    3.125    0.000    0.000    0.000    0.000 
#    0.000    0.000    0.000    0.000    0.000    0.000 
#
# Total GULP energy -198388.335637 kJ/mol
# GULP energy per Si atom -12399.270977 kJ/mol
# Density = 2.049217 g / cm^3
# Si number density = 20.538922 Si / 1000 Ang^3
#
#
#
# Elastic Constant Matrix: (Units=GPa)
#
#
# Indices 1 2 3 4 5 6 
#
# 1 115.4881 4.7356 68.5530 -0.0001 9.1810 -0.0001
# 2 4.7356 42.5810 13.8617 0.0009 4.1255 -0.0012
# 3 68.5530 13.8617 123.9032 0.0012 17.0249 0.0005
# 4 -0.0001 0.0009 0.0012 23.8306 -0.0004 -1.8204
# 5 9.1810 4.1255 17.0249 -0.0004 22.0720 0.0003
# 6 -0.0001 -0.0012 0.0005 -1.8204 0.0003 30.2587
#
#
#
# Elastic Compliance Matrix: (Units=1/GPa)
#
#
# Indices 1 2 3 4 5 6 
#
# 1 0.012928 0.000922 -0.007263 0.000000 0.000053 0.000000
# 2 0.000922 0.024587 -0.002882 -0.000001 -0.002756 0.000001
# 3 -0.007263 -0.002882 0.013336 -0.000001 -0.006727 0.000000
# 4 0.000000 -0.000001 -0.000001 0.042157 0.000001 0.002536
# 5 0.000053 -0.002756 -0.006727 0.000001 0.050988 -0.000001
# 6 0.000000 0.000001 0.000000 0.002536 -0.000001 0.033201
#
#
# Mechanical properties :
#
#
# Convention : Reuss Voigt Hill
#
# Bulk Modulus (GPa) = 30.85979 50.69701 40.77840
# Shear Modulus (GPa) = 24.21934 28.22039 26.21987
#
# Velocity S-wave (km/s) = 3.43766 3.71077 3.57682
# Velocity P-wave (km/s) = 5.55107 6.56481 6.07910
#
# Compressibility (1/GPa) = 0.03240463
#
# Stress axis : x y z
#
# Youngs Moduli (GPa) = 77.34911 40.67127 74.98408
#
# Poissons Ratio (x) = -0.03748 0.54463
# Poissons Ratio (y) = -0.07128 0.21610
# Poissons Ratio (z) = 0.56181 0.11721
#
# Static dielectric constant tensor:
#      x y z
#    x 3.815180 0.000000 0.199560 
#    y 0.000000 3.532370 0.000000 
#    z 0.199560 0.000000 3.983540 
# 
# 
# High freq. dielectric constant tensor:
#      x y z
#    x 1.805860 0.000000 0.002740 
#    y 0.000000 1.789640 0.000000 
#    z 0.002740 0.000000 1.804260 
# 
# From -- ./inp_files/31982.got.cif
#   From: 2010.03.12/outbox.cif.g09.slc.cpg/sg8_16_cif.got.tgz:31982.got - 2010.03.31 10:45:26.
