data_PCOD8052374
_publ_section_title
;
Structure prediction by ZEFSAII (Michael W. Deem and Ramdas Pophale) SiO2 
 PCOD8052374
Probable space group: P M
;
_chemical_formula_sum "Si O2"
_cell_formula_units_Z 14
_cell_length_a 8.868902
_cell_length_b 15.940225
_cell_length_c 10.193896
_cell_angle_alpha 90.000000
_cell_angle_beta 29.865708
_cell_angle_gamma 90.000000
_cell_volume 717.640004
_symmetry_space_group_name_H-M "P M"
_symmetry_group_IT_number 6
_symmetry_cell_setting 'monoclinic'
loop_
_space_group_symop_operation_xyz
x,y,z
x,-y,z
loop_
_atom_site_type_symbol
_atom_site_label
_atom_site_fract_x
_atom_site_fract_y
_atom_site_fract_z
Si Si1 0.622590 0.406741 0.369570
Si Si2 0.831985 0.233276 0.817064
Si Si3 0.603742 0.000000 0.358284
Si Si4 0.486696 0.178470 0.819917
Si Si5 0.835827 0.247917 0.313586
Si Si6 0.313968 0.000000 0.858958
Si Si7 0.919661 0.405192 0.865921
Si Si8 0.507032 0.173691 0.313750
O O1 0.673474 0.500000 0.385469
O O2 0.754104 0.346531 0.384530
O O3 0.274974 0.389335 0.601828
O O4 0.799976 0.391248 0.101639
O O5 0.671818 0.200171 0.808762
O O6 0.775741 0.333686 0.880040
O O7 0.186843 0.217482 0.534601
O O8 0.701216 0.179501 0.035273
O O9 0.514430 0.000000 0.577469
O O10 0.461352 0.922283 0.388513
O O11 0.966205 0.000000 0.077613
O O12 0.698558 0.195934 0.536168
O O13 0.388819 0.081106 0.890929
O O14 0.194372 0.237358 0.037378
O O15 0.694532 0.218902 0.284397
O O16 0.842253 0.500000 0.873472
#
# Coordination Sequence:
#
# PCOD8052374 Si02
#       8
#     2   2   1   2   2   1   2   2
#     4  10  20  34  62  93 118 151 203 257 292 342
#     4  12  24  42  60  96 124 160 199 251 309 358
#     4  12  24  38  66  94 114 154 216 256 292 340
#     4  12  26  39  64  87 130 166 193 246 315 366
#     4  12  21  42  63  92 116 165 205 244 298 365
#     4  12  22  42  58  90 122 160 204 244 306 372
#     4  10  19  35  60  89 119 156 199 249 301 355
#     4  12  23  40  67  87 121 153 213 257 286 352
#
# _framework density 19.508389000000001
#
# number of rings (size 3 to 8) (size 9 to 14) (size 15 to 20)
#    0.000    0.571    5.714    3.429    0.000    1.143 
#    0.000    1.429    0.000    0.000    0.000    0.000 
#    0.000    0.000    0.000    0.000    0.000    0.000 
#
# Total GULP energy -173636.849007 kJ/mol
# GULP energy per Si atom -12402.632072 kJ/mol
# Density = 1.946399 g / cm^3
# Si number density = 19.508389 Si / 1000 Ang^3
#
#
#
# Elastic Constant Matrix: (Units=GPa)
#
#
# Indices 1 2 3 4 5 6 
#
# 1 111.4576 35.4895 22.6973 0.0000 8.1577 0.0000
# 2 35.4895 147.6993 -12.7892 0.0000 5.9603 0.0000
# 3 22.6973 -12.7892 111.1208 0.0000 -3.5172 0.0000
# 4 0.0000 0.0000 0.0000 25.7257 0.0000 -3.8432
# 5 8.1577 5.9603 -3.5172 0.0000 15.8529 0.0000
# 6 0.0000 0.0000 0.0000 -3.8432 0.0000 25.0495
#
#
#
# Elastic Compliance Matrix: (Units=1/GPa)
#
#
# Indices 1 2 3 4 5 6 
#
# 1 0.010713 -0.002597 -0.002649 0.000000 -0.005124 0.000000
# 2 -0.002597 0.007561 0.001363 0.000000 -0.001204 0.000000
# 3 -0.002649 0.001363 0.009793 0.000000 0.003024 0.000000
# 4 0.000000 0.000000 0.000000 0.039783 0.000000 0.006104
# 5 -0.005124 -0.001204 0.003024 0.000000 0.066840 0.000000
# 6 0.000000 0.000000 0.000000 0.006104 0.000000 0.040857
#
#
# Mechanical properties :
#
#
# Convention : Reuss Voigt Hill
#
# Bulk Modulus (GPa) = 49.26107 51.23031 50.24569
# Shear Modulus (GPa) = 26.30434 34.98432 30.64433
#
# Velocity S-wave (km/s) = 3.67599 4.23933 3.96767
# Velocity P-wave (km/s) = 6.58204 7.09085 6.84118
#
# Compressibility (1/GPa) = 0.02030001
#
# Stress axis : x y z
#
# Youngs Moduli (GPa) = 93.34030 132.25647 102.11473
#
# Poissons Ratio (x) = 0.34345 0.27054
# Poissons Ratio (y) = 0.24239 -0.13914
# Poissons Ratio (z) = 0.24730 -0.18021
#
# Static dielectric constant tensor:
#      x y z
#    x 3.482910 0.000000 -0.043440 
#    y 0.000000 4.428420 0.000000 
#    z -0.043440 0.000000 3.693430 
# 
# 
# High freq. dielectric constant tensor:
#      x y z
#    x 1.729550 0.000000 -0.007700 
#    y 0.000000 1.780680 0.000000 
#    z -0.007700 0.000000 1.782870 
# 
# From -- ./inp_files/3206.got.cif
#   From: 2010.03.12/outbox.cif.g09.slc.cpg/sg6_2_cif.got.tgz:3206.got - 2010.03.30 10:24:59.
