data_PCOD8052941
_publ_section_title
;
Structure prediction by ZEFSAII (Michael W. Deem and Ramdas Pophale) SiO2 
 PCOD8052941
Probable space group: C M
;
_chemical_formula_sum "Si O2"
_cell_formula_units_Z 32
_cell_length_a 19.800079
_cell_length_b 9.332755
_cell_length_c 24.644177
_cell_angle_alpha 90.000000
_cell_angle_beta 23.627314
_cell_angle_gamma 90.000000
_cell_volume 1825.170627
_symmetry_space_group_name_H-M "C M"
_symmetry_group_IT_number 8
_symmetry_cell_setting 'monoclinic'
loop_
_space_group_symop_operation_xyz
x,y,z
x,-y,z
1/2+x,1/2+y,z
1/2+x,1/2-y,z
loop_
_atom_site_type_symbol
_atom_site_label
_atom_site_fract_x
_atom_site_fract_y
_atom_site_fract_z
Si Si1 0.394410 0.831505 0.605060
Si Si2 0.714585 0.335118 0.568305
Si Si3 0.054282 0.664642 0.372545
Si Si4 0.507208 0.662530 0.620049
Si Si5 0.048044 0.335119 0.868239
Si Si6 0.385959 0.831790 0.098849
Si Si7 0.713052 0.835185 0.921013
Si Si8 0.933592 0.335170 0.835196
O O1 0.483188 0.792753 0.483449
O O2 0.513109 0.770183 0.565289
O O3 0.212775 0.759742 0.740355
O O4 0.371524 0.000000 0.629595
O O5 0.671243 0.500000 0.615418
O O6 0.669084 0.305788 0.538938
O O7 0.605018 0.235971 0.688014
O O8 0.910986 0.303046 0.433064
O O9 0.109650 0.500000 0.330381
O O10 0.213793 0.758702 0.241669
O O11 0.511248 0.500000 0.595270
O O12 0.337855 0.690376 0.778828
O O13 0.105565 0.500000 0.834285
O O14 0.927949 0.319195 0.904312
O O15 0.942647 0.280357 0.997468
O O16 0.355633 0.000000 0.121376
O O17 0.527479 0.788353 0.038733
O O18 0.768676 0.740332 0.931453
O O19 0.718368 0.000000 0.935441
O O20 0.933418 0.500000 0.817205
#
# Coordination Sequence:
#
# PCOD8052941 Si02
#       8
#     4   4   4   4   4   4   4   4
#     4  11  21  33  54  82 110 138 175 225 270 313
#     4   9  18  35  54  74 108 146 176 214 267 319
#     4  10  22  38  54  78 110 143 179 222 270 317
#     4   9  17  32  55  78 105 140 176 221 265 312
#     4  10  20  36  55  79 109 139 179 223 265 316
#     4  10  21  38  57  77 105 146 185 217 263 323
#     4   9  18  34  54  76 108 144 175 215 266 319
#     4  10  19  30  53  84 109 134 173 225 268 311
#
# _framework density 17.532608
#
# number of rings (size 3 to 8) (size 9 to 14) (size 15 to 20)
#    0.000    2.250    2.500    1.500    0.000    5.000 
#    0.000    1.250    0.000    6.000    0.000    0.000 
#    0.000    0.000    0.000    0.000    0.000    0.000 
#
# Total GULP energy -198416.696919 kJ/mol
# GULP energy per Si atom -12401.043557 kJ/mol
# Density = 1.749270 g / cm^3
# Si number density = 17.532608 Si / 1000 Ang^3
#
#
#
# Elastic Constant Matrix: (Units=GPa)
#
#
# Indices 1 2 3 4 5 6 
#
# 1 131.6261 66.0758 69.4796 0.0000 -13.3590 0.0005
# 2 66.0758 85.5672 58.0974 0.0051 -2.5539 -0.0002
# 3 69.4796 58.0974 116.0040 0.0101 -12.1739 0.0006
# 4 0.0000 0.0051 0.0101 31.0478 0.0008 -2.9218
# 5 -13.3590 -2.5539 -12.1739 0.0008 25.4470 -0.0009
# 6 0.0005 -0.0002 0.0006 -2.9218 -0.0009 31.6837
#
#
#
# Elastic Compliance Matrix: (Units=1/GPa)
#
#
# Indices 1 2 3 4 5 6 
#
# 1 0.014287 -0.008214 -0.003940 0.000002 0.004791 0.000000
# 2 -0.008214 0.022595 -0.006960 -0.000001 -0.005374 0.000000
# 3 -0.003940 -0.006960 0.014925 -0.000004 0.004373 0.000000
# 4 0.000002 -0.000001 -0.000004 0.032490 -0.000002 0.002996
# 5 0.004791 -0.005374 0.004373 -0.000002 0.043365 0.000001
# 6 0.000000 0.000000 0.000000 0.002996 0.000001 0.031838
#
#
# Mechanical properties :
#
#
# Convention : Reuss Voigt Hill
#
# Bulk Modulus (GPa) = 73.65105 80.05586 76.85345
# Shear Modulus (GPa) = 24.72098 26.93865 25.82981
#
# Velocity S-wave (km/s) = 3.75907 3.92406 3.84245
# Velocity P-wave (km/s) = 7.80641 8.14194 7.97594
#
# Compressibility (1/GPa) = 0.01357754
#
# Stress axis : x y z
#
# Youngs Moduli (GPa) = 69.99401 44.25717 66.99984
#
# Poissons Ratio (x) = 0.36353 0.26401
# Poissons Ratio (y) = 0.57493 0.46635
# Poissons Ratio (z) = 0.27581 0.30805
#
# Static dielectric constant tensor:
#      x y z
#    x 3.606660 0.000000 -0.102900 
#    y 0.000000 3.261740 0.000000 
#    z -0.102900 0.000000 3.003700 
# 
# 
# High freq. dielectric constant tensor:
#      x y z
#    x 1.693190 0.000000 -0.013740 
#    y 0.000000 1.678970 0.000000 
#    z -0.013740 0.000000 1.647520 
# 
# From -- ./inp_files/15820.got.cif
#   From: 2010.03.12/outbox.cif.g09.slc.cpg/sg8_8_cif.got.tgz:15820.got - 2010.03.31 10:45:26.
