data_PCOD8052931
_publ_section_title
;
Structure prediction by ZEFSAII (Michael W. Deem and Ramdas Pophale) SiO2 
 PCOD8052931
Probable space group: C M
;
_chemical_formula_sum "Si O2"
_cell_formula_units_Z 32
_cell_length_a 18.961481
_cell_length_b 9.265471
_cell_length_c 11.478773
_cell_angle_alpha 90.000000
_cell_angle_beta 64.333095
_cell_angle_gamma 90.000000
_cell_volume 1817.681462
_symmetry_space_group_name_H-M "C M"
_symmetry_group_IT_number 8
_symmetry_cell_setting 'monoclinic'
loop_
_space_group_symop_operation_xyz
x,y,z
x,-y,z
1/2+x,1/2+y,z
1/2+x,1/2-y,z
loop_
_atom_site_type_symbol
_atom_site_label
_atom_site_fract_x
_atom_site_fract_y
_atom_site_fract_z
Si Si1 0.548160 0.832166 0.436300
Si Si2 0.022915 0.169323 0.925736
Si Si3 0.881734 0.332157 0.449045
Si Si4 0.114962 0.163428 0.187268
Si Si5 0.942237 0.840488 0.205477
Si Si6 0.242771 0.663365 0.660975
Si Si7 0.072998 0.667958 0.684325
Si Si8 0.162754 0.333224 0.947473
O O1 0.459779 0.792550 0.464054
O O2 0.610100 0.741816 0.315504
O O3 0.560141 0.787106 0.560576
O O4 0.565520 0.000000 0.402516
O O5 0.012041 0.234640 0.803766
O O6 0.091166 0.264415 0.930666
O O7 0.045631 0.000000 0.904840
O O8 0.945907 0.190903 0.063147
O O9 0.868447 0.500000 0.445943
O O10 0.886821 0.269896 0.313819
O O11 0.809228 0.269384 0.570298
O O12 0.030859 0.169272 0.186892
O O13 0.144367 0.000000 0.183743
O O14 0.176366 0.247801 0.059203
O O15 0.908272 0.000000 0.252712
O O16 0.266078 0.500000 0.612040
O O17 0.161995 0.704593 0.654880
O O18 0.236139 0.679601 0.806535
O O19 0.053922 0.500000 0.719475
O O20 0.143895 0.500000 0.989325
#
# Coordination Sequence:
#
# PCOD8052931 Si02
#       8
#     4   4   4   4   4   4   4   4
#     4   9  18  32  48  68  94 123 155 187 225 275
#     4   9  16  26  43  68  93 116 147 191 235 268
#     4  10  19  29  46  70  93 119 150 188 229 267
#     4   9  16  26  43  68  93 117 148 190 234 267
#     4   8  15  27  42  62  90 119 147 182 224 270
#     4   9  18  31  47  67  92 122 152 184 225 272
#     4   9  18  32  49  68  92 124 156 186 225 274
#     4   9  16  27  44  65  89 120 155 188 225 269
#
# _framework density 17.604845000000001
#
# number of rings (size 3 to 8) (size 9 to 14) (size 15 to 20)
#    0.000    3.000    0.000    3.000    0.000    7.000 
#    0.000    0.000    0.000    1.500    0.000    1.750 
#    0.000    0.000    0.000    0.000    0.000    0.000 
#
# Total GULP energy -198291.484431 kJ/mol
# GULP energy per Si atom -12393.217777 kJ/mol
# Density = 1.756478 g / cm^3
# Si number density = 17.604845 Si / 1000 Ang^3
#
#
#
# Elastic Constant Matrix: (Units=GPa)
#
#
# Indices 1 2 3 4 5 6 
#
# 1 26.8275 27.3850 39.2893 0.0000 5.1289 0.0000
# 2 27.3850 117.8474 90.9382 0.0000 0.4869 0.0000
# 3 39.2893 90.9382 170.5727 0.0000 11.5256 0.0000
# 4 0.0000 0.0000 0.0000 41.2070 0.0000 -2.0541
# 5 5.1289 0.4869 11.5256 0.0000 22.1896 0.0000
# 6 0.0000 0.0000 0.0000 -2.0541 0.0000 14.8894
#
#
#
# Elastic Compliance Matrix: (Units=1/GPa)
#
#
# Indices 1 2 3 4 5 6 
#
# 1 0.059699 -0.006238 -0.009848 0.000000 -0.008547 0.000000
# 2 -0.006238 0.015386 -0.007089 0.000000 0.004787 0.000000
# 3 -0.009848 -0.007089 0.012173 0.000000 -0.003891 0.000000
# 4 0.000000 0.000000 0.000000 0.024436 0.000000 0.003371
# 5 -0.008547 0.004787 -0.003891 0.000000 0.048958 0.000000
# 6 0.000000 0.000000 0.000000 0.003371 0.000000 0.067627
#
#
# Mechanical properties :
#
#
# Convention : Reuss Voigt Hill
#
# Bulk Modulus (GPa) = 24.44514 70.05251 47.24882
# Shear Modulus (GPa) = 17.34514 26.16621 21.75567
#
# Velocity S-wave (km/s) = 3.14227 3.85945 3.51918
# Velocity P-wave (km/s) = 5.20392 7.72906 6.58860
#
# Compressibility (1/GPa) = 0.04090793
#
# Stress axis : x y z
#
# Youngs Moduli (GPa) = 16.75068 64.99434 82.14682
#
# Poissons Ratio (x) = 0.40546 0.80894
# Poissons Ratio (y) = 0.10450 0.58236
# Poissons Ratio (z) = 0.16495 0.46076
#
# Static dielectric constant tensor:
#      x y z
#    x 2.708580 0.000000 0.174400 
#    y 0.000000 3.399440 0.000000 
#    z 0.174400 0.000000 3.838340 
# 
# 
# High freq. dielectric constant tensor:
#      x y z
#    x 1.607290 0.000000 0.008140 
#    y 0.000000 1.691320 0.000000 
#    z 0.008140 0.000000 1.703430 
# 
# From -- ./inp_files/23676.got.cif
#   From: 2010.03.12/outbox.cif.g09.slc.cpg/sg8_12_cif.got.tgz:23676.got - 2010.03.31 10:45:26.
