data_PCOD8052612
_publ_section_title
;
Structure prediction by ZEFSAII (Michael W. Deem and Ramdas Pophale) SiO2 
 PCOD8052612
Probable space group: P C
;
_chemical_formula_sum "Si O2"
_cell_formula_units_Z 16
_cell_length_a 7.291032
_cell_length_b 17.106716
_cell_length_c 5.681122
_cell_angle_alpha 90.000000
_cell_angle_beta 55.603254
_cell_angle_gamma 90.000000
_cell_volume 584.682836
_symmetry_space_group_name_H-M "P C"
_symmetry_group_IT_number 7
_symmetry_cell_setting 'monoclinic'
loop_
_space_group_symop_operation_xyz
x,y,z
x,-y,1/2+z
loop_
_atom_site_type_symbol
_atom_site_label
_atom_site_fract_x
_atom_site_fract_y
_atom_site_fract_z
Si Si1 0.702960 0.212082 0.979290
Si Si2 0.528925 0.473797 0.405193
Si Si3 0.982594 0.694164 0.977885
Si Si4 0.159705 0.023805 0.883769
Si Si5 0.658563 0.033723 0.965850
Si Si6 0.376932 0.304786 0.506545
Si Si7 0.023873 0.530876 0.781606
Si Si8 0.126866 0.799427 0.499050
O O1 0.744126 0.278585 0.750271
O O2 0.911297 0.214675 0.000197
O O3 0.676063 0.125371 0.896133
O O4 0.481482 0.237905 0.268619
O O5 0.646524 0.502209 0.567314
O O6 0.529793 0.380173 0.429622
O O7 0.286726 0.514160 0.585556
O O8 0.968237 0.623339 0.804111
O O9 0.147380 0.663688 0.061821
O O10 0.075294 0.775355 0.802399
O O11 0.205714 0.112170 0.924067
O O12 0.039989 0.017521 0.704955
O O13 0.397022 0.984614 0.666178
O O14 0.760275 0.012544 0.158061
O O15 0.326140 0.259335 0.784090
O O16 0.919591 0.500900 0.607541
#
# Coordination Sequence:
#
# PCOD8052612 Si02
#       8
#     2   2   2   2   2   2   2   2
#     4  11  28  45  67 110 146 185 237 301 363 431
#     4  10  19  37  67 101 132 184 246 291 346 419
#     4  11  25  43  71 102 144 190 236 297 366 429
#     4  10  23  43  72 102 134 183 244 285 350 428
#     4  10  23  44  70  97 138 187 235 290 356 422
#     4  11  23  44  72  98 143 192 236 296 363 430
#     4  10  19  38  69  99 135 186 241 292 351 418
#     4  11  26  44  72 103 142 187 239 296 363 433
#
# _framework density 27.365261
#
# number of rings (size 3 to 8) (size 9 to 14) (size 15 to 20)
#    0.000    1.500    2.500    3.000   10.500    2.000 
#    0.000    1.250    0.000    0.000    0.000    0.000 
#    0.000    0.000    0.000    0.000    0.000    0.000 
#
# Total GULP energy -198380.141107 kJ/mol
# GULP energy per Si atom -12398.758819 kJ/mol
# Density = 2.730298 g / cm^3
# Si number density = 27.365261 Si / 1000 Ang^3
#
#
#
# Elastic Constant Matrix: (Units=GPa)
#
#
# Indices 1 2 3 4 5 6 
#
# 1 114.1451 13.4517 36.7475 0.0000 24.5540 0.0000
# 2 13.4517 145.5855 25.2931 0.0000 4.8756 0.0000
# 3 36.7475 25.2931 185.4082 0.0000 14.0216 0.0000
# 4 0.0000 0.0000 0.0000 56.3567 0.0000 7.6518
# 5 24.5540 4.8756 14.0216 0.0000 26.0872 0.0000
# 6 0.0000 0.0000 0.0000 7.6518 0.0000 15.5394
#
#
#
# Elastic Compliance Matrix: (Units=1/GPa)
#
#
# Indices 1 2 3 4 5 6 
#
# 1 0.011406 -0.000471 -0.001450 0.000000 -0.009868 0.000000
# 2 -0.000471 0.007072 -0.000839 0.000000 -0.000427 0.000000
# 3 -0.001450 -0.000839 0.005921 0.000000 -0.001661 0.000000
# 4 0.000000 0.000000 0.000000 0.019015 0.000000 -0.009363
# 5 -0.009868 -0.000427 -0.001661 0.000000 0.048594 0.000000
# 6 0.000000 0.000000 0.000000 -0.009363 0.000000 0.068963
#
#
# Mechanical properties :
#
#
# Convention : Reuss Voigt Hill
#
# Bulk Modulus (GPa) = 52.97127 66.23593 59.60360
# Shear Modulus (GPa) = 28.93766 44.23978 36.58872
#
# Velocity S-wave (km/s) = 3.25539 4.02511 3.66054
# Velocity P-wave (km/s) = 5.79044 6.77192 6.30032
#
# Compressibility (1/GPa) = 0.01887816
#
# Stress axis : x y z
#
# Youngs Moduli (GPa) = 87.67393 141.39360 168.89143
#
# Poissons Ratio (x) = 0.06666 0.24490
# Poissons Ratio (y) = 0.04134 0.14171
# Poissons Ratio (z) = 0.12713 0.11864
#
# Static dielectric constant tensor:
#      x y z
#    x 5.414440 0.000000 0.353980 
#    y 0.000000 4.824750 0.000000 
#    z 0.353980 0.000000 5.741940 
# 
# 
# High freq. dielectric constant tensor:
#      x y z
#    x 2.139730 0.000000 -0.007840 
#    y 0.000000 2.092660 0.000000 
#    z -0.007840 0.000000 2.140610 
# 
# From -- ./inp_files/761.got.cif
#   From: 2010.03.12/outbox.cif.g09.slc.cpg/sg7_cif.got.tgz:761.got - 2010.03.30 08:40:41.
