data_PCOD8052119
_publ_section_title
;
Structure prediction by ZEFSAII (Michael W. Deem and Ramdas Pophale) SiO2 
 PCOD8052119
Probable space group: C 2
;
_chemical_formula_sum "Si O2"
_cell_formula_units_Z 28
_cell_length_a 8.985751
_cell_length_b 5.015577
_cell_length_c 26.727353
_cell_angle_alpha 90.000000
_cell_angle_beta 111.552209
_cell_angle_gamma 90.000000
_cell_volume 1120.348251
_symmetry_space_group_name_H-M "C 2"
_symmetry_group_IT_number 5
_symmetry_cell_setting 'monoclinic'
loop_
_space_group_symop_operation_xyz
x,y,z
-x,y,-z
1/2+x,1/2+y,z
1/2-x,1/2+y,-z
loop_
_atom_site_type_symbol
_atom_site_label
_atom_site_fract_x
_atom_site_fract_y
_atom_site_fract_z
Si Si1 0.172620 0.121520 0.192102
Si Si2 0.289560 0.110509 0.315271
Si Si3 0.659335 0.415419 0.044113
Si Si4 0.141534 0.246316 0.479287
Si Si5 0.880078 0.998566 0.064910
Si Si6 0.998515 0.111191 0.644866
Si Si7 0.456064 0.110317 0.153451
O O1 0.218983 0.205465 0.253805
O O2 0.334036 0.049890 0.182640
O O3 0.073571 0.367348 0.156380
O O4 0.055369 0.871209 0.179524
O O5 0.147057 0.052246 0.335992
O O6 0.402806 0.340505 0.350997
O O7 0.388182 0.839820 0.318739
O O8 0.792131 0.224851 0.087601
O O9 0.571229 0.561285 0.081107
O O10 0.500000 0.259640 0.000000
O O11 0.714965 0.566431 0.999793
O O12 0.234936 0.988210 0.509922
O O13 0.067030 0.202651 0.416162
O O14 0.000000 0.319138 0.500000
O O15 0.855662 0.704235 0.089458
#
# Coordination Sequence:
#
# PCOD8052119 Si02
#       7
#     4   4   4   4   4   4   4
#     4  12  26  44  68  96 130 168 212 274 319 382
#     4  12  24  44  66  96 128 168 224 265 322 379
#     4   8  20  37  57  85 117 158 201 247 305 356
#     4  12  24  42  64  97 136 172 217 266 321 380
#     4   9  20  39  59  88 121 160 203 252 305 384
#     4  12  24  42  69  95 130 176 216 267 320 381
#     4  12  25  44  67  96 129 168 211 260 333 378
#
# _framework density 24.992228000000001
#
# number of rings (size 3 to 8) (size 9 to 14) (size 15 to 20)
#    0.857    0.000    0.000    8.143    0.000    3.429 
#    2.571    0.000    0.000    0.000    0.000    0.000 
#    0.000    0.000    0.000    0.000    0.000    0.000 
#
# Total GULP energy -173510.236147 kJ/mol
# GULP energy per Si atom -12393.588296 kJ/mol
# Density = 2.493534 g / cm^3
# Si number density = 24.992228 Si / 1000 Ang^3
#
#
#
# Elastic Constant Matrix: (Units=GPa)
#
#
# Indices 1 2 3 4 5 6 
#
# 1 105.6258 49.1709 29.6844 0.0000 -5.4638 0.0000
# 2 49.1709 113.0214 -3.7737 0.0000 15.4009 0.0000
# 3 29.6844 -3.7737 107.6228 0.0000 -5.4076 0.0000
# 4 0.0000 0.0000 0.0000 32.5577 0.0000 6.9792
# 5 -5.4638 15.4009 -5.4076 0.0000 37.4192 0.0000
# 6 0.0000 0.0000 0.0000 6.9792 0.0000 43.8726
#
#
#
# Elastic Compliance Matrix: (Units=1/GPa)
#
#
# Indices 1 2 3 4 5 6 
#
# 1 0.013924 -0.006767 -0.003864 0.000000 0.004260 0.000000
# 2 -0.006767 0.012664 0.002014 0.000000 -0.005910 0.000000
# 3 -0.003864 0.002014 0.010434 0.000000 0.000115 0.000000
# 4 0.000000 0.000000 0.000000 0.031799 0.000000 -0.005059
# 5 0.004260 -0.005910 0.000115 0.000000 0.029795 0.000000
# 6 0.000000 0.000000 0.000000 -0.005059 0.000000 0.023598
#
#
# Mechanical properties :
#
#
# Convention : Reuss Voigt Hill
#
# Bulk Modulus (GPa) = 50.53650 52.93701 51.73676
# Shear Modulus (GPa) = 34.23614 39.51581 36.87598
#
# Velocity S-wave (km/s) = 3.70519 3.98065 3.84539
# Velocity P-wave (km/s) = 6.21043 6.50806 6.36098
#
# Compressibility (1/GPa) = 0.01978768
#
# Stress axis : x y z
#
# Youngs Moduli (GPa) = 71.81938 78.96089 95.84267
#
# Poissons Ratio (x) = 0.53434 0.37031
# Poissons Ratio (y) = 0.48601 -0.19299
# Poissons Ratio (z) = 0.27749 -0.15900
#
# Static dielectric constant tensor:
#      x y z
#    x 5.292420 0.000000 -0.112790 
#    y 0.000000 4.633990 0.000000 
#    z -0.112790 0.000000 5.105070 
# 
# 
# High freq. dielectric constant tensor:
#      x y z
#    x 2.029220 0.000000 0.007140 
#    y 0.000000 2.001990 0.000000 
#    z 0.007140 0.000000 2.007820 
# 
# From -- ./inp_files/71502.got.cif
#   From: 2010.03.12/outbox.cif.g09.slc.cpg/sg5_36_cif.got.tgz:71502.got - 2010.03.31 09:47:26.
