data_PCOD8052006
_publ_section_title
;
Structure prediction by ZEFSAII (Michael W. Deem and Ramdas Pophale) SiO2 
 PCOD8052006
Probable space group: C 2
;
_chemical_formula_sum "Si O2"
_cell_formula_units_Z 26
_cell_length_a 13.996220
_cell_length_b 5.182093
_cell_length_c 13.803844
_cell_angle_alpha 90.000000
_cell_angle_beta 98.352720
_cell_angle_gamma 90.000000
_cell_volume 990.568785
_symmetry_space_group_name_H-M "C 2"
_symmetry_group_IT_number 5
_symmetry_cell_setting 'monoclinic'
loop_
_space_group_symop_operation_xyz
x,y,z
-x,y,-z
1/2+x,1/2+y,z
1/2-x,1/2+y,-z
loop_
_atom_site_type_symbol
_atom_site_label
_atom_site_fract_x
_atom_site_fract_y
_atom_site_fract_z
Si Si1 0.365375 0.546920 0.293673
Si Si2 0.158637 0.727775 0.034313
Si Si3 0.342074 0.899856 0.788565
Si Si4 0.311761 0.542085 0.499734
Si Si5 0.424126 0.403995 0.702892
Si Si6 0.131760 0.386201 0.876034
Si Si7 0.500000 0.618308 0.000000
O O1 0.273437 0.383498 0.244596
O O2 0.363332 0.613041 0.406482
O O3 0.459973 0.384181 0.278955
O O4 0.369131 0.827481 0.238595
O O5 0.132839 0.472492 0.095822
O O6 0.271429 0.770285 0.062521
O O7 0.088748 0.953924 0.058225
O O8 0.135262 0.681659 0.915306
O O9 0.382736 0.125958 0.725336
O O10 0.384598 0.622472 0.769209
O O11 0.242535 0.297514 0.471310
O O12 0.392214 0.468359 0.589270
O O13 0.035653 0.272633 0.911001
#
# Coordination Sequence:
#
# PCOD8052006 Si02
#       7
#     4   4   4   4   4   4   2
#     4  11  26  47  74 109 145 195 249 301 366 446
#     4  11  25  44  69 101 144 190 242 303 357 428
#     4  11  27  46  73 107 148 188 246 306 360 436
#     4  12  24  50  75 108 149 193 236 312 374 432
#     4  12  25  48  77 109 144 193 245 298 376 432
#     4  11  25  47  68 104 144 192 244 298 364 429
#     4  12  24  44  70  98 146 188 238 298 366 420
#
# _framework density 26.247544999999999
#
# number of rings (size 3 to 8) (size 9 to 14) (size 15 to 20)
#    0.000    0.615    4.615    1.846    6.462    2.462 
#    2.769    3.077    0.000    0.000    0.000    0.000 
#    0.000    0.000    0.000    0.000    0.000    0.000 
#
# Total GULP energy -161165.893970 kJ/mol
# GULP energy per Si atom -12397.376459 kJ/mol
# Density = 2.618780 g / cm^3
# Si number density = 26.247545 Si / 1000 Ang^3
#
#
#
# Elastic Constant Matrix: (Units=GPa)
#
#
# Indices 1 2 3 4 5 6 
#
# 1 167.9152 22.1768 6.7748 0.0000 -13.7727 0.0000
# 2 22.1768 77.7597 -1.6163 0.0000 -8.5797 0.0000
# 3 6.7748 -1.6163 121.4357 0.0000 -10.5922 0.0000
# 4 0.0000 0.0000 0.0000 36.9224 0.0000 -0.3422
# 5 -13.7727 -8.5797 -10.5922 0.0000 32.1040 0.0000
# 6 0.0000 0.0000 0.0000 -0.3422 0.0000 26.9916
#
#
#
# Elastic Compliance Matrix: (Units=1/GPa)
#
#
# Indices 1 2 3 4 5 6 
#
# 1 0.006354 -0.001568 -0.000179 0.000000 0.002248 0.000000
# 2 -0.001568 0.013667 0.000545 0.000000 0.003160 0.000000
# 3 -0.000179 0.000545 0.008503 0.000000 0.002874 0.000000
# 4 0.000000 0.000000 0.000000 0.027087 0.000000 0.000343
# 5 0.002248 0.003160 0.002874 0.000000 0.033906 0.000000
# 6 0.000000 0.000000 0.000000 0.000343 0.000000 0.037053
#
#
# Mechanical properties :
#
#
# Convention : Reuss Voigt Hill
#
# Bulk Modulus (GPa) = 38.28533 46.86460 42.57496
# Shear Modulus (GPa) = 36.31592 41.85528 39.08560
#
# Velocity S-wave (km/s) = 3.72370 3.99762 3.86309
# Velocity P-wave (km/s) = 5.75377 6.26112 6.01280
#
# Compressibility (1/GPa) = 0.02611967
#
# Stress axis : x y z
#
# Youngs Moduli (GPa) = 157.37980 73.16769 117.60889
#
# Poissons Ratio (x) = 0.11472 0.02109
# Poissons Ratio (y) = 0.24675 -0.06410
# Poissons Ratio (z) = 0.02822 -0.03988
#
# Static dielectric constant tensor:
#      x y z
#    x 5.025920 0.000000 -0.103440 
#    y 0.000000 4.688520 0.000000 
#    z -0.103440 0.000000 4.968400 
# 
# 
# High freq. dielectric constant tensor:
#      x y z
#    x 2.074960 0.000000 -0.000330 
#    y 0.000000 2.043030 0.000000 
#    z -0.000330 0.000000 2.062780 
# 
# From -- ./inp_files/53850.got.cif
#   From: 2010.03.12/outbox.cif.g09.slc.cpg/sg5_27_cif.got.tgz:53850.got - 2010.03.31 09:47:26.
