data_PCOD8052592
_publ_section_title
;
Structure prediction by ZEFSAII (Michael W. Deem and Ramdas Pophale) SiO2 
 PCOD8052592
Probable space group: P C
;
_chemical_formula_sum "Si O2"
_cell_formula_units_Z 10
_cell_length_a 11.567279
_cell_length_b 8.528676
_cell_length_c 5.289433
_cell_angle_alpha 90.000000
_cell_angle_beta 76.338838
_cell_angle_gamma 90.000000
_cell_volume 507.058851
_symmetry_space_group_name_H-M "P C"
_symmetry_group_IT_number 7
_symmetry_cell_setting 'monoclinic'
loop_
_space_group_symop_operation_xyz
x,y,z
x,-y,1/2+z
loop_
_atom_site_type_symbol
_atom_site_label
_atom_site_fract_x
_atom_site_fract_y
_atom_site_fract_z
Si Si1 0.867650 0.813882 0.444560
Si Si2 0.651895 0.599579 0.544368
Si Si3 0.380140 0.596902 0.703032
Si Si4 0.965449 0.152945 0.394034
Si Si5 0.240797 0.088260 0.250862
O O1 0.731756 0.755988 0.512284
O O2 0.935052 0.746250 0.659410
O O3 0.876376 0.002715 0.442046
O O4 0.937092 0.747058 0.160883
O O5 0.680357 0.506974 0.272410
O O6 0.515734 0.657046 0.617998
O O7 0.354188 0.476044 0.490556
O O8 0.290582 0.738271 0.711564
O O9 0.098841 0.091650 0.321803
O O10 0.287274 0.005318 0.481570
#
# Coordination Sequence:
#
# PCOD8052592 Si02
#       5
#     2   2   2   2   2
#     4  10  18  35  56  82 108 155 181 232 295 341
#     4  10  21  39  59  81 118 156 193 240 291 354
#     4  10  23  43  62  87 124 162 201 251 305 357
#     4  10  19  35  58  78 119 145 183 243 294 333
#     4  12  21  40  65  88 123 160 202 254 301 353
#
# _framework density 19.721578000000001
#
# number of rings (size 3 to 8) (size 9 to 14) (size 15 to 20)
#    0.000    1.600    4.000    2.400    0.000    0.000 
#    7.200    6.000    0.000    0.000    0.000    0.000 
#    0.000    0.000    0.000    0.000    0.000    0.000 
#
# Total GULP energy -123960.384564 kJ/mol
# GULP energy per Si atom -12396.038456 kJ/mol
# Density = 1.967669 g / cm^3
# Si number density = 19.721578 Si / 1000 Ang^3
#
#
#
# Elastic Constant Matrix: (Units=GPa)
#
#
# Indices 1 2 3 4 5 6 
#
# 1 74.3680 50.8406 40.8869 0.0000 6.9020 0.0000
# 2 50.8406 64.9061 15.2183 0.0000 -8.2372 0.0000
# 3 40.8869 15.2183 148.5031 0.0000 38.7236 0.0000
# 4 0.0000 0.0000 0.0000 20.5362 0.0000 -2.5012
# 5 6.9020 -8.2372 38.7236 0.0000 31.9165 0.0000
# 6 0.0000 0.0000 0.0000 -2.5012 0.0000 38.2823
#
#
#
# Elastic Compliance Matrix: (Units=1/GPa)
#
#
# Indices 1 2 3 4 5 6 
#
# 1 0.036562 -0.028818 -0.004552 0.000000 -0.009821 0.000000
# 2 -0.028818 0.040407 -0.000806 0.000000 0.017638 0.000000
# 3 -0.004552 -0.000806 0.011508 0.000000 -0.013186 0.000000
# 4 0.000000 0.000000 0.000000 0.049085 0.000000 0.003207
# 5 -0.009821 0.017638 -0.013186 0.000000 0.054006 0.000000
# 6 0.000000 0.000000 0.000000 0.003207 0.000000 0.026331
#
#
# Mechanical properties :
#
#
# Convention : Reuss Voigt Hill
#
# Bulk Modulus (GPa) = 49.68893 55.74099 52.71496
# Shear Modulus (GPa) = 17.06721 30.20243 23.63482
#
# Velocity S-wave (km/s) = 2.94497 3.91761 3.46558
# Velocity P-wave (km/s) = 6.06743 6.98490 6.54227
#
# Compressibility (1/GPa) = 0.02012521
#
# Stress axis : x y z
#
# Youngs Moduli (GPa) = 27.35105 24.74825 86.89368
#
# Poissons Ratio (x) = 0.71318 0.39558
# Poissons Ratio (y) = 0.78819 0.07003
# Poissons Ratio (z) = 0.12451 0.01994
#
# Static dielectric constant tensor:
#      x y z
#    x 3.626090 0.000000 0.444400 
#    y 0.000000 3.110800 0.000000 
#    z 0.444400 0.000000 4.742950 
# 
# 
# High freq. dielectric constant tensor:
#      x y z
#    x 1.765070 0.000000 0.018790 
#    y 0.000000 1.727190 0.000000 
#    z 0.018790 0.000000 1.806140 
# 
# From -- ./inp_files/484.got.cif
#   From: 2010.03.12/outbox.cif.g09.slc.cpg/sg7_cif.got.tgz:484.got - 2010.03.30 08:40:41.
