data_PCOD8052341
_publ_section_title
;
Structure prediction by ZEFSAII (Michael W. Deem and Ramdas Pophale) SiO2 
 PCOD8052341
Probable space group: P M
;
_chemical_formula_sum "Si O2"
_cell_formula_units_Z 16
_cell_length_a 10.176543
_cell_length_b 8.607276
_cell_length_c 12.107908
_cell_angle_alpha 90.000000
_cell_angle_beta 52.084586
_cell_angle_gamma 90.000000
_cell_volume 836.695471
_symmetry_space_group_name_H-M "P M"
_symmetry_group_IT_number 6
_symmetry_cell_setting 'monoclinic'
loop_
_space_group_symop_operation_xyz
x,y,z
x,-y,z
loop_
_atom_site_type_symbol
_atom_site_label
_atom_site_fract_x
_atom_site_fract_y
_atom_site_fract_z
Si Si1 0.025980 0.678547 0.519320
Si Si2 0.285737 0.321201 0.209274
Si Si3 0.750212 0.821283 0.517447
Si Si4 0.457215 0.320381 0.783767
Si Si5 0.926538 0.322301 0.810424
Si Si6 0.009583 0.821416 0.207108
Si Si7 0.581531 0.820716 0.943323
Si Si8 0.106572 0.177821 0.918217
O O1 0.978606 0.500000 0.516285
O O2 0.202744 0.719694 0.370704
O O3 0.882733 0.788495 0.545669
O O4 0.038485 0.707788 0.643569
O O5 0.338732 0.500000 0.174883
O O6 0.154149 0.287916 0.179765
O O7 0.450096 0.217745 0.108239
O O8 0.586694 0.716620 0.618320
O O9 0.833245 0.781111 0.356060
O O10 0.696383 0.000000 0.553064
O O11 0.407387 0.500000 0.805660
O O12 0.544075 0.282456 0.855313
O O13 0.295418 0.216248 0.851382
O O14 0.867209 0.500000 0.846199
O O15 0.764445 0.214453 0.895107
O O16 0.042325 0.286838 0.854442
O O17 0.059099 0.000000 0.207216
O O18 0.992230 0.793286 0.085394
O O19 0.568301 0.000000 0.917113
O O20 0.095878 0.000000 0.884992
#
# Coordination Sequence:
#
# PCOD8052341 Si02
#       8
#     2   2   2   2   2   2   2   2
#     4   9  19  35  56  83 116 151 190 235 286 342
#     4  10  19  33  57  87 115 147 189 239 289 339
#     4  10  19  33  57  87 115 147 189 239 289 339
#     4  12  23  37  58  87 117 151 194 241 287 340
#     4  11  23  40  60  85 118 155 193 237 288 347
#     4   9  19  35  56  83 116 151 190 235 286 342
#     4  12  23  37  58  87 117 151 194 241 287 340
#     4  11  23  40  60  85 118 155 193 237 288 347
#
# _framework density 19.122848999999999
#
# number of rings (size 3 to 8) (size 9 to 14) (size 15 to 20)
#    0.000    1.500    2.500    3.750    0.000    2.000 
#    0.000    1.250    0.000    0.000    0.000    0.000 
#    0.000    0.000    0.000    0.000    0.000    0.000 
#
# Total GULP energy -198458.208169 kJ/mol
# GULP energy per Si atom -12403.638011 kJ/mol
# Density = 1.907932 g / cm^3
# Si number density = 19.122849 Si / 1000 Ang^3
#
#
#
# Elastic Constant Matrix: (Units=GPa)
#
#
# Indices 1 2 3 4 5 6 
#
# 1 58.4480 9.8073 39.3047 0.0000 5.0418 0.0000
# 2 9.8073 68.2880 36.2490 0.0000 1.2281 0.0000
# 3 39.3047 36.2490 137.6010 0.0000 -0.4701 0.0000
# 4 0.0000 0.0000 0.0000 28.5709 0.0000 -3.0311
# 5 5.0418 1.2281 -0.4701 0.0000 27.8731 0.0000
# 6 0.0000 0.0000 0.0000 -3.0311 0.0000 30.2878
#
#
#
# Elastic Compliance Matrix: (Units=1/GPa)
#
#
# Indices 1 2 3 4 5 6 
#
# 1 0.021622 0.000294 -0.006267 0.000000 -0.004030 0.000000
# 2 0.000294 0.017048 -0.004578 0.000000 -0.000882 0.000000
# 3 -0.006267 -0.004578 0.010269 0.000000 0.001509 0.000000
# 4 0.000000 0.000000 0.000000 0.035376 0.000000 0.003540
# 5 -0.004030 -0.000882 0.001509 0.000000 0.036670 0.000000
# 6 0.000000 0.000000 0.000000 0.003540 0.000000 0.033371
#
#
# Mechanical properties :
#
#
# Convention : Reuss Voigt Hill
#
# Bulk Modulus (GPa) = 35.92483 48.33989 42.13236
# Shear Modulus (GPa) = 27.06548 29.27808 28.17178
#
# Velocity S-wave (km/s) = 3.76619 3.91711 3.84239
# Velocity P-wave (km/s) = 6.14324 6.76697 6.46263
#
# Compressibility (1/GPa) = 0.02783590
#
# Stress axis : x y z
#
# Youngs Moduli (GPa) = 46.24883 58.65940 97.38251
#
# Poissons Ratio (x) = -0.01725 0.61034
# Poissons Ratio (y) = -0.01360 0.44581
# Poissons Ratio (z) = 0.28986 0.26854
#
# Static dielectric constant tensor:
#      x y z
#    x 3.044410 0.000000 -0.104910 
#    y 0.000000 3.518170 0.000000 
#    z -0.104910 0.000000 3.901720 
# 
# 
# High freq. dielectric constant tensor:
#      x y z
#    x 1.700350 0.000000 -0.009420 
#    y 0.000000 1.752730 0.000000 
#    z -0.009420 0.000000 1.763180 
# 
# From -- ./inp_files/4644.got.cif
#   From: 2010.03.12/outbox.cif.g09.slc.cpg/sg6_3_cif.got.tgz:4644.got - 2010.03.30 10:24:59.
