data_PCOD8052741
_publ_section_title
;
Structure prediction by ZEFSAII (Michael W. Deem and Ramdas Pophale) SiO2 
 PCOD8052741
Probable space group: C M
;
_chemical_formula_sum "Si O2"
_cell_formula_units_Z 24
_cell_length_a 28.203487
_cell_length_b 10.632785
_cell_length_c 10.346898
_cell_angle_alpha 90.000000
_cell_angle_beta 26.986508
_cell_angle_gamma 90.000000
_cell_volume 1408.010851
_symmetry_space_group_name_H-M "C M"
_symmetry_group_IT_number 8
_symmetry_cell_setting 'monoclinic'
loop_
_space_group_symop_operation_xyz
x,y,z
x,-y,z
1/2+x,1/2+y,z
1/2+x,1/2-y,z
loop_
_atom_site_type_symbol
_atom_site_label
_atom_site_fract_x
_atom_site_fract_y
_atom_site_fract_z
Si Si1 0.560740 0.746391 0.924030
Si Si2 0.338689 0.255952 0.596872
Si Si3 0.503752 0.500000 0.928624
Si Si4 0.165047 0.500000 0.631496
Si Si5 0.435768 0.638774 0.595935
Si Si6 0.645821 0.359190 0.967377
Si Si7 0.885761 0.000000 0.956534
Si Si8 0.783401 0.000000 0.601728
O O1 0.567326 0.627618 0.809574
O O2 0.638577 0.724681 0.855635
O O3 0.597777 0.874498 0.762703
O O4 0.442839 0.763971 0.260684
O O5 0.364232 0.264665 0.687980
O O6 0.258544 0.143571 0.763241
O O7 0.271513 0.377401 0.718383
O O8 0.475966 0.500000 0.844614
O O9 0.397910 0.500000 0.264479
O O10 0.269280 0.500000 0.292895
O O11 0.193004 0.500000 0.714488
O O12 0.423330 0.500000 0.560037
O O13 0.402423 0.626261 0.827633
O O14 0.556685 0.680879 0.287789
O O15 0.625857 0.500000 0.967669
#
# Coordination Sequence:
#
# PCOD8052741 Si02
#       8
#     4   4   2   2   4   4   2   2
#     4  10  20  32  52  82 110 132 173 216 271 317
#     4  10  17  30  53  77 104 130 163 227 264 307
#     4   9  18  34  53  71  99 147 181 205 244 313
#     4  11  20  32  48  81 111 134 166 221 265 300
#     4   8  17  34  51  71  94 136 186 210 240 308
#     4  10  18  31  52  79 106 131 171 222 270 307
#     4   9  19  38  53  67 102 147 192 206 229 320
#     4   9  15  28  50  71  94 132 171 194 262 309
#
# _framework density 17.045324000000001
#
# number of rings (size 3 to 8) (size 9 to 14) (size 15 to 20)
#    0.500    2.000    3.333    0.000    1.167    0.000 
#    3.000    0.000    0.000    0.000    2.167    0.000 
#    0.000    0.000    0.000    0.000    0.000    0.000 
#
# Total GULP energy -148679.002557 kJ/mol
# GULP energy per Si atom -12389.916880 kJ/mol
# Density = 1.700653 g / cm^3
# Si number density = 17.045324 Si / 1000 Ang^3
#
#
#
# Elastic Constant Matrix: (Units=GPa)
#
#
# Indices 1 2 3 4 5 6 
#
# 1 100.9151 34.1980 51.8994 0.0000 -2.0512 0.0000
# 2 34.1980 84.3554 30.4548 0.0000 -0.8391 0.0000
# 3 51.8994 30.4548 65.9753 0.0000 -1.8590 0.0000
# 4 0.0000 0.0000 0.0000 21.1910 0.0000 -4.6579
# 5 -2.0512 -0.8391 -1.8590 0.0000 28.8509 0.0000
# 6 0.0000 0.0000 0.0000 -4.6579 0.0000 27.6513
#
#
#
# Elastic Compliance Matrix: (Units=1/GPa)
#
#
# Indices 1 2 3 4 5 6 
#
# 1 0.017069 -0.002487 -0.012270 0.000000 0.000351 0.000000
# 2 -0.002487 0.014588 -0.004779 0.000000 -0.000061 0.000000
# 3 -0.012270 -0.004779 0.027036 0.000000 0.000731 0.000000
# 4 0.000000 0.000000 0.000000 0.049004 0.000000 0.008255
# 5 0.000351 -0.000061 0.000731 0.000000 0.034731 0.000000
# 6 0.000000 0.000000 0.000000 0.008255 0.000000 0.037555
#
#
# Mechanical properties :
#
#
# Convention : Reuss Voigt Hill
#
# Bulk Modulus (GPa) = 50.96512 53.81669 52.39091
# Shear Modulus (GPa) = 22.16352 24.51820 23.34086
#
# Velocity S-wave (km/s) = 3.60984 3.79676 3.70448
# Velocity P-wave (km/s) = 6.88035 7.13174 7.00717
#
# Compressibility (1/GPa) = 0.01962126
#
# Stress axis : x y z
#
# Youngs Moduli (GPa) = 58.58453 68.55137 36.98777
#
# Poissons Ratio (x) = 0.17047 0.45383
# Poissons Ratio (y) = 0.14568 0.17678
# Poissons Ratio (z) = 0.71882 0.32763
#
# Static dielectric constant tensor:
#      x y z
#    x 3.075480 0.000000 -0.099940 
#    y 0.000000 3.078290 0.000000 
#    z -0.099940 0.000000 2.898940 
# 
# 
# High freq. dielectric constant tensor:
#      x y z
#    x 1.648710 0.000000 -0.017810 
#    y 0.000000 1.642690 0.000000 
#    z -0.017810 0.000000 1.634090 
# 
# From -- ./inp_files/16187.got.cif
#   From: 2010.03.12/outbox.cif.g09.slc.cpg/sg8_9_cif.got.tgz:16187.got - 2010.03.31 10:45:26.
