data_PCOD8052158
_publ_section_title
;
Structure prediction by ZEFSAII (Michael W. Deem and Ramdas Pophale) SiO2 
 PCOD8052158
Probable space group: C 2
;
_chemical_formula_sum "Si O2"
_cell_formula_units_Z 24
_cell_length_a 8.536770
_cell_length_b 17.876134
_cell_length_c 8.407637
_cell_angle_alpha 90.000000
_cell_angle_beta 55.603919
_cell_angle_gamma 90.000000
_cell_volume 1058.705490
_symmetry_space_group_name_H-M "C 2"
_symmetry_group_IT_number 5
_symmetry_cell_setting 'monoclinic'
loop_
_space_group_symop_operation_xyz
x,y,z
-x,y,-z
1/2+x,1/2+y,z
1/2-x,1/2+y,-z
loop_
_atom_site_type_symbol
_atom_site_label
_atom_site_fract_x
_atom_site_fract_y
_atom_site_fract_z
Si Si1 0.508400 0.176180 0.679110
Si Si2 0.665403 0.579030 0.018760
Si Si3 0.885385 0.089896 0.417492
Si Si4 0.985033 0.837044 0.193112
Si Si5 0.203540 0.440040 0.845677
Si Si6 0.803158 0.446942 0.524106
O O1 0.500000 0.198971 0.500000
O O2 0.712237 0.137947 0.585042
O O3 0.504047 0.248511 0.791844
O O4 0.331423 0.123814 0.831379
O O5 0.541373 0.631840 0.213762
O O6 0.760883 0.512760 0.065709
O O7 0.500000 0.547060 0.000000
O O8 0.000000 0.056736 0.500000
O O9 0.817184 0.018914 0.349640
O O10 0.785757 0.868146 0.372911
O O11 0.147634 0.875223 0.204021
O O12 0.000000 0.857270 0.000000
O O13 0.192381 0.458795 0.666649
O O14 0.000000 0.405021 0.000000
O O15 0.000000 0.454219 0.500000
#
# Coordination Sequence:
#
# PCOD8052158 Si02
#       6
#     4   4   4   4   4   4
#     4  12  28  49  73 108 151 194 241 302 367 433
#     4  12  26  46  78 112 145 190 247 301 360 434
#     4  12  25  45  77 110 145 190 246 302 360 432
#     4  12  28  49  72 105 148 190 241 301 364 434
#     4  12  25  45  76 108 142 191 245 300 359 433
#     4  12  25  46  76 106 144 192 243 299 363 429
#
# _framework density 22.669194999999998
#
# number of rings (size 3 to 8) (size 9 to 14) (size 15 to 20)
#    0.000    0.000    5.000    4.500    4.667    1.333 
#    3.000    0.000    0.000    0.000    0.000    0.000 
#    0.000    0.000    0.000    0.000    0.000    0.000 
#
# Total GULP energy -148703.573807 kJ/mol
# GULP energy per Si atom -12391.964484 kJ/mol
# Density = 2.261760 g / cm^3
# Si number density = 22.669195 Si / 1000 Ang^3
#
#
#
# Elastic Constant Matrix: (Units=GPa)
#
#
# Indices 1 2 3 4 5 6 
#
# 1 166.4629 34.0518 52.2649 0.0000 2.7912 0.0000
# 2 34.0518 93.0467 28.1962 0.0000 -1.0847 0.0000
# 3 52.2649 28.1962 142.3163 0.0000 -8.3268 0.0000
# 4 0.0000 0.0000 0.0000 38.9281 0.0000 1.0977
# 5 2.7912 -1.0847 -8.3268 0.0000 44.4025 0.0000
# 6 0.0000 0.0000 0.0000 1.0977 0.0000 32.7966
#
#
#
# Elastic Compliance Matrix: (Units=1/GPa)
#
#
# Indices 1 2 3 4 5 6 
#
# 1 0.007137 -0.001928 -0.002293 0.000000 -0.000926 0.000000
# 2 -0.001928 0.011955 -0.001655 0.000000 0.000103 0.000000
# 3 -0.002293 -0.001655 0.008294 0.000000 0.001659 0.000000
# 4 0.000000 0.000000 0.000000 0.025713 0.000000 -0.000861
# 5 -0.000926 0.000103 0.001659 0.000000 0.022893 0.000000
# 6 0.000000 0.000000 0.000000 -0.000861 0.000000 0.030520
#
#
# Mechanical properties :
#
#
# Convention : Reuss Voigt Hill
#
# Bulk Modulus (GPa) = 63.95995 70.09462 67.02728
# Shear Modulus (GPa) = 40.49397 42.37963 41.43680
#
# Velocity S-wave (km/s) = 4.23105 4.32844 4.28002
# Velocity P-wave (km/s) = 7.22113 7.48120 7.35231
#
# Compressibility (1/GPa) = 0.01563478
#
# Stress axis : x y z
#
# Youngs Moduli (GPa) = 140.10945 83.64408 120.57322
#
# Poissons Ratio (x) = 0.16125 0.27652
# Poissons Ratio (y) = 0.27011 0.19951
# Poissons Ratio (z) = 0.32132 0.13840
#
# Static dielectric constant tensor:
#      x y z
#    x 4.390520 0.000000 -0.099450 
#    y 0.000000 3.722710 0.000000 
#    z -0.099450 0.000000 4.598300 
# 
# 
# High freq. dielectric constant tensor:
#      x y z
#    x 1.921040 0.000000 0.001100 
#    y 0.000000 1.858320 0.000000 
#    z 0.001100 0.000000 1.928200 
# 
# From -- ./inp_files/16721.got.cif
#   From: 2010.03.12/outbox.cif.g09.slc.cpg/sg5_9_cif.got.tgz:16721.got - 2010.03.31 09:47:26.
