data_PCOD8052544
_publ_section_title
;
Structure prediction by ZEFSAII (Michael W. Deem and Ramdas Pophale) SiO2 
 PCOD8052544
Probable space group: P M
;
_chemical_formula_sum "Si O2"
_cell_formula_units_Z 16
_cell_length_a 19.684424
_cell_length_b 8.318902
_cell_length_c 9.814384
_cell_angle_alpha 90.000000
_cell_angle_beta 151.206674
_cell_angle_gamma 90.000000
_cell_volume 774.078079
_symmetry_space_group_name_H-M "P M"
_symmetry_group_IT_number 6
_symmetry_cell_setting 'monoclinic'
loop_
_space_group_symop_operation_xyz
x,y,z
x,-y,z
loop_
_atom_site_type_symbol
_atom_site_label
_atom_site_fract_x
_atom_site_fract_y
_atom_site_fract_z
Si Si1 0.543750 0.810074 0.628280
Si Si2 0.680587 0.188005 0.150049
Si Si3 0.540638 0.681689 0.165232
Si Si4 0.226962 0.686823 0.684174
Si Si5 0.982670 0.688802 0.735693
Si Si6 0.727774 0.817081 0.708725
Si Si7 0.236370 0.188269 0.002628
Si Si8 0.005465 0.684958 0.081596
O O1 0.661666 0.745160 0.730711
O O2 0.387829 0.742006 0.319585
O O3 0.537205 0.000000 0.599265
O O4 0.597389 0.756261 0.869431
O O5 0.608590 0.294220 0.138161
O O6 0.846944 0.224324 0.431615
O O7 0.658439 0.000000 0.138900
O O8 0.573788 0.500000 0.272041
O O9 0.605055 0.811159 0.381055
O O10 0.374887 0.712655 0.869435
O O11 0.195665 0.500000 0.660196
O O12 0.116871 0.763529 0.382401
O O13 0.216782 0.781211 0.808029
O O14 0.951244 0.500000 0.687835
O O15 0.116798 0.720826 0.877267
O O16 0.009380 0.759731 0.935733
O O17 0.781397 0.000000 0.818932
O O18 0.852932 0.703888 0.879951
O O19 0.222952 0.000000 0.008855
O O20 0.045574 0.500000 0.137772
#
# Coordination Sequence:
#
# PCOD8052544 Si02
#       8
#     2   2   2   2   2   2   2   2
#     4   9  22  41  61  90 124 156 200 253 306 356
#     4  11  23  41  64  91 122 160 204 253 301 360
#     4  11  22  39  63  91 122 158 201 253 306 361
#     4  10  23  42  63  90 123 161 203 250 305 362
#     4  11  24  42  62  89 125 163 201 248 303 366
#     4  11  21  39  65  90 119 158 203 253 304 360
#     4  11  23  42  64  89 123 162 202 251 303 362
#     4  10  23  42  62  88 124 160 202 253 302 359
#
# _framework density 20.669750000000001
#
# number of rings (size 3 to 8) (size 9 to 14) (size 15 to 20)
#    0.000    1.500    2.500    1.875    3.500    1.500 
#    0.000    3.750    0.000    0.000    0.000    0.000 
#    0.000    0.000    0.000    0.000    0.000    0.000 
#
# Total GULP energy -198422.215805 kJ/mol
# GULP energy per Si atom -12401.388488 kJ/mol
# Density = 2.062270 g / cm^3
# Si number density = 20.669750 Si / 1000 Ang^3
#
#
#
# Elastic Constant Matrix: (Units=GPa)
#
#
# Indices 1 2 3 4 5 6 
#
# 1 89.5974 13.8512 13.3238 0.0000 6.2536 0.0000
# 2 13.8512 32.0805 19.5556 0.0000 -0.6836 0.0000
# 3 13.3238 19.5556 105.5778 0.0000 -10.9388 0.0000
# 4 0.0000 0.0000 0.0000 11.2311 0.0000 -2.6476
# 5 6.2536 -0.6836 -10.9388 0.0000 36.5990 0.0000
# 6 0.0000 0.0000 0.0000 -2.6476 0.0000 26.0922
#
#
#
# Elastic Compliance Matrix: (Units=1/GPa)
#
#
# Indices 1 2 3 4 5 6 
#
# 1 0.012204 -0.004766 -0.000911 0.000000 -0.002447 0.000000
# 2 -0.004766 0.037063 -0.006303 0.000000 -0.000377 0.000000
# 3 -0.000911 -0.006303 0.011102 0.000000 0.003356 0.000000
# 4 0.000000 0.000000 0.000000 0.091221 0.000000 0.009256
# 5 -0.002447 -0.000377 0.003356 0.000000 0.028737 0.000000
# 6 0.000000 0.000000 0.000000 0.009256 0.000000 0.039265
#
#
# Mechanical properties :
#
#
# Convention : Reuss Voigt Hill
#
# Bulk Modulus (GPa) = 27.46503 35.63521 31.55012
# Shear Modulus (GPa) = 19.55507 26.81945 23.18726
#
# Velocity S-wave (km/s) = 3.07916 3.60602 3.35296
# Velocity P-wave (km/s) = 5.09491 5.88350 5.50334
#
# Compressibility (1/GPa) = 0.03640994
#
# Stress axis : x y z
#
# Youngs Moduli (GPa) = 81.93985 26.98076 90.07586
#
# Poissons Ratio (x) = 0.12860 0.08204
# Poissons Ratio (y) = 0.39054 0.56772
# Poissons Ratio (z) = 0.07463 0.17005
#
# Static dielectric constant tensor:
#      x y z
#    x 3.883660 0.000000 -0.106370 
#    y 0.000000 3.500610 0.000000 
#    z -0.106370 0.000000 3.970480 
# 
# 
# High freq. dielectric constant tensor:
#      x y z
#    x 1.819430 0.000000 0.000960 
#    y 0.000000 1.791870 0.000000 
#    z 0.000960 0.000000 1.818770 
# 
# From -- ./inp_files/3726.got.cif
#   From: 2010.03.12/outbox.cif.g09.slc.cpg/sg6_2_cif.got.tgz:3726.got - 2010.03.30 10:24:59.
