data_PCOD8052845
_publ_section_title
;
Structure prediction by ZEFSAII (Michael W. Deem and Ramdas Pophale) SiO2 
 PCOD8052845
Probable space group: C M
;
_chemical_formula_sum "Si O2"
_cell_formula_units_Z 28
_cell_length_a 19.643991
_cell_length_b 9.711692
_cell_length_c 21.264146
_cell_angle_alpha 90.000000
_cell_angle_beta 159.909807
_cell_angle_gamma 90.000000
_cell_volume 1393.471165
_symmetry_space_group_name_H-M "C M"
_symmetry_group_IT_number 8
_symmetry_cell_setting 'monoclinic'
loop_
_space_group_symop_operation_xyz
x,y,z
x,-y,z
1/2+x,1/2+y,z
1/2+x,1/2-y,z
loop_
_atom_site_type_symbol
_atom_site_label
_atom_site_fract_x
_atom_site_fract_y
_atom_site_fract_z
Si Si1 0.564700 0.339298 0.096450
Si Si2 0.167841 0.243929 0.540340
Si Si3 0.925373 0.841117 0.444819
Si Si4 0.766349 0.650643 0.496962
Si Si5 0.946914 0.347626 0.238594
Si Si6 0.120399 0.659154 0.717535
Si Si7 0.046888 0.159419 0.939256
O O1 0.629683 0.500000 0.157153
O O2 0.719412 0.243525 0.267705
O O3 0.345936 0.318689 0.936299
O O4 0.551626 0.281710 0.013775
O O5 0.274462 0.147345 0.580368
O O6 0.334834 0.319707 0.724891
O O7 0.025787 0.157926 0.463113
O O8 0.034257 0.354143 0.386107
O O9 0.073309 0.764010 0.620493
O O10 0.889474 0.000000 0.433811
O O11 0.711564 0.500000 0.423849
O O12 0.590995 0.752642 0.320833
O O13 0.978082 0.695937 0.652785
O O14 0.945428 0.500000 0.207750
O O15 0.726673 0.280092 0.052333
O O16 0.094308 0.500000 0.671968
O O17 0.094891 0.000000 0.986133
#
# Coordination Sequence:
#
# PCOD8052845 Si02
#       7
#     4   4   4   4   4   4   4
#     4  10  20  37  61  87 114 153 201 241 282 344
#     4  10  20  35  59  82 117 149 186 234 292 340
#     4  12  24  38  60  91 121 151 190 246 303 346
#     4   9  20  40  60  82 116 152 191 235 286 342
#     4   9  19  34  57  82 112 147 187 234 282 336
#     4  10  22  42  64  83 115 160 201 238 283 350
#     4  10  18  32  57  89 113 144 194 240 282 336
#
# _framework density 20.093706000000001
#
# number of rings (size 3 to 8) (size 9 to 14) (size 15 to 20)
#    0.857    1.143    2.857    1.286    0.000    2.286 
#    2.571    1.429    0.000    0.000    0.000    0.000 
#    0.000    0.000    0.000    0.000    0.000    0.000 
#
# Total GULP energy -173457.641253 kJ/mol
# GULP energy per Si atom -12389.831518 kJ/mol
# Density = 2.004797 g / cm^3
# Si number density = 20.093706 Si / 1000 Ang^3
#
#
#
# Elastic Constant Matrix: (Units=GPa)
#
#
# Indices 1 2 3 4 5 6 
#
# 1 65.5414 24.7496 17.4862 -0.0019 30.2951 -0.0011
# 2 24.7496 89.0824 36.8941 0.0022 14.4973 0.0017
# 3 17.4862 36.8941 111.0262 0.0060 24.0815 0.0003
# 4 -0.0019 0.0022 0.0060 26.9820 -0.0001 3.4394
# 5 30.2951 14.4973 24.0815 -0.0001 41.4199 0.0001
# 6 -0.0011 0.0017 0.0003 3.4394 0.0001 18.7001
#
#
#
# Elastic Compliance Matrix: (Units=1/GPa)
#
#
# Indices 1 2 3 4 5 6 
#
# 1 0.024556 -0.004603 0.001383 0.000002 -0.017153 0.000002
# 2 -0.004603 0.014081 -0.004137 0.000000 0.000844 -0.000001
# 3 0.001383 -0.004137 0.011522 -0.000002 -0.006262 0.000001
# 4 0.000002 0.000000 -0.000002 0.037952 0.000000 -0.006980
# 5 -0.017153 0.000844 -0.006262 0.000000 0.040034 -0.000001
# 6 0.000002 -0.000001 0.000001 -0.006980 -0.000001 0.054760
#
#
# Mechanical properties :
#
#
# Convention : Reuss Voigt Hill
#
# Bulk Modulus (GPa) = 28.21437 47.10109 37.65773
# Shear Modulus (GPa) = 23.87394 29.85507 26.86450
#
# Velocity S-wave (km/s) = 3.45067 3.85878 3.66041
# Velocity P-wave (km/s) = 5.47248 6.58371 6.05364
#
# Compressibility (1/GPa) = 0.03544293
#
# Stress axis : x y z
#
# Youngs Moduli (GPa) = 40.72399 71.01987 86.78944
#
# Poissons Ratio (x) = 0.32694 -0.12001
# Poissons Ratio (y) = 0.18747 0.35905
# Poissons Ratio (z) = -0.05631 0.29381
#
# Static dielectric constant tensor:
#      x y z
#    x 3.512610 0.000000 0.317280 
#    y 0.000000 3.359020 -0.000010 
#    z 0.317280 -0.000010 3.601900 
# 
# 
# High freq. dielectric constant tensor:
#      x y z
#    x 1.769010 0.000000 0.026000 
#    y 0.000000 1.760960 0.000000 
#    z 0.026000 0.000000 1.786820 
# 
# From -- ./inp_files/32271.got.cif
#   From: 2010.03.12/outbox.cif.g09.slc.cpg/sg8_17_cif.got.tgz:32271.got - 2010.03.31 10:45:26.
