data_PCOD8052585
_publ_section_title
;
Structure prediction by ZEFSAII (Michael W. Deem and Ramdas Pophale) SiO2 
 PCOD8052585
Probable space group: P C
;
_chemical_formula_sum "Si O2"
_cell_formula_units_Z 14
_cell_length_a 19.581057
_cell_length_b 6.906358
_cell_length_c 5.270718
_cell_angle_alpha 90.000000
_cell_angle_beta 122.506786
_cell_angle_gamma 90.000000
_cell_volume 601.106491
_symmetry_space_group_name_H-M "P C"
_symmetry_group_IT_number 7
_symmetry_cell_setting 'monoclinic'
loop_
_space_group_symop_operation_xyz
x,y,z
x,-y,1/2+z
loop_
_atom_site_type_symbol
_atom_site_label
_atom_site_fract_x
_atom_site_fract_y
_atom_site_fract_z
Si Si1 0.361370 0.710961 0.437230
Si Si2 0.430080 0.720597 0.074162
Si Si3 0.195375 0.125022 0.680593
Si Si4 0.611839 0.374758 0.949992
Si Si5 0.846122 0.228894 0.981066
Si Si6 0.777765 0.207210 0.344022
Si Si7 0.019801 0.120176 0.256222
O O1 0.386204 0.822434 0.226416
O O2 0.395764 0.496496 0.467772
O O3 0.264280 0.712611 0.279399
O O4 0.404825 0.822535 0.758842
O O5 0.525889 0.729973 0.304926
O O6 0.106598 0.225754 0.472918
O O7 0.204255 0.961406 0.481027
O O8 0.620287 0.467078 0.688488
O O9 0.680502 0.209724 0.119647
O O10 0.802279 0.323140 0.649613
O O11 0.815464 0.005961 0.942449
O O12 0.817571 0.325076 0.187759
O O13 0.942816 0.257246 0.149420
O O14 0.014270 0.949545 0.454204
#
# Coordination Sequence:
#
# PCOD8052585 Si02
#       7
#     2   2   2   2   2   2   2
#     4  10  18  35  56  78 102 136 184 214 260 309
#     4  10  19  35  60  73  96 144 188 220 249 309
#     4  10  21  32  53  86 113 134 168 218 267 319
#     4  12  21  37  55  83 101 137 190 221 259 302
#     4  10  17  35  52  83 106 141 171 205 275 312
#     4  10  20  30  57  78 108 134 178 221 252 318
#     4  10  16  30  53  79 108 136 177 201 250 323
#
# _framework density 23.290381
#
# number of rings (size 3 to 8) (size 9 to 14) (size 15 to 20)
#    0.000    1.714    5.714    1.714    0.000    0.000 
#    0.000    0.000   18.857    0.000   22.286    0.000 
#    0.000    0.000    0.000    0.000    0.000    0.000 
#
# Total GULP energy -173442.398083 kJ/mol
# GULP energy per Si atom -12388.742720 kJ/mol
# Density = 2.323737 g / cm^3
# Si number density = 23.290381 Si / 1000 Ang^3
#
#
#
# Elastic Constant Matrix: (Units=GPa)
#
#
# Indices 1 2 3 4 5 6 
#
# 1 133.2832 -3.5045 51.2868 0.0000 6.9126 0.0000
# 2 -3.5045 22.8440 -8.4404 0.0000 11.3559 0.0000
# 3 51.2868 -8.4404 135.8569 0.0000 -10.8141 0.0000
# 4 0.0000 0.0000 0.0000 8.5933 0.0000 16.8632
# 5 6.9126 11.3559 -10.8141 0.0000 88.7547 0.0000
# 6 0.0000 0.0000 0.0000 16.8632 0.0000 -1.6321
#
#
#
# Elastic Compliance Matrix: (Units=1/GPa)
#
#
# Indices 1 2 3 4 5 6 
#
# 1 0.008895 0.000700 -0.003410 0.000000 -0.001198 0.000000
# 2 0.000700 0.047627 0.002227 0.000000 -0.005877 0.000000
# 3 -0.003410 0.002227 0.008871 0.000000 0.001062 0.000000
# 4 0.000000 0.000000 0.000000 0.005470 0.000000 0.056514
# 5 -0.001198 -0.005877 0.001062 0.000000 0.012242 0.000000
# 6 0.000000 0.000000 0.000000 0.056514 0.000000 -0.028799
#
#
# Mechanical properties :
#
#
# Convention : Reuss Voigt Hill
#
# Bulk Modulus (GPa) = 15.52137 41.18532 28.35334
# Shear Modulus (GPa) = 65.14874 35.98598 50.56736
#
# Velocity S-wave (km/s) = 5.29463 3.93504 4.66464
# Velocity P-wave (km/s) = 6.63749 6.19418 6.41966
#
# Compressibility (1/GPa) = 0.06442731
#
# Stress axis : x y z
#
# Youngs Moduli (GPa) = 112.41649 20.99654 112.72929
#
# Poissons Ratio (x) = -0.01470 0.38440
# Poissons Ratio (y) = -0.07871 -0.25103
# Poissons Ratio (z) = 0.38333 -0.04676
#
# Static dielectric constant tensor:
#      x y z
#    x 5.348930 0.000000 -0.933940 
#    y 0.000000 3.400890 0.000000 
#    z -0.933940 0.000000 5.633190 
# 
# 
# High freq. dielectric constant tensor:
#      x y z
#    x 1.950860 0.000000 -0.015750 
#    y 0.000000 1.847190 0.000000 
#    z -0.015750 0.000000 1.955320 
# 
# From -- ./inp_files/1207.got.cif
#   From: 2010.03.12/outbox.cif.g09.slc.cpg/sg7_cif.got.tgz:1207.got - 2010.03.30 08:40:41.
