data_PCOD8052582
_publ_section_title
;
Structure prediction by ZEFSAII (Michael W. Deem and Ramdas Pophale) SiO2 
 PCOD8052582
Probable space group: P C
;
_chemical_formula_sum "Si O2"
_cell_formula_units_Z 16
_cell_length_a 13.871180
_cell_length_b 12.430971
_cell_length_c 5.288709
_cell_angle_alpha 90.000000
_cell_angle_beta 90.233756
_cell_angle_gamma 90.000000
_cell_volume 911.936331
_symmetry_space_group_name_H-M "P C"
_symmetry_group_IT_number 7
_symmetry_cell_setting 'monoclinic'
loop_
_space_group_symop_operation_xyz
x,y,z
x,-y,1/2+z
loop_
_atom_site_type_symbol
_atom_site_label
_atom_site_fract_x
_atom_site_fract_y
_atom_site_fract_z
Si Si1 0.027120 0.873907 0.484060
Si Si2 0.571305 0.535484 0.475324
Si Si3 0.780058 0.555328 0.976855
Si Si4 0.745305 0.798329 0.976629
Si Si5 0.233761 0.065957 0.938292
Si Si6 0.946093 0.883340 0.983217
Si Si7 0.445063 0.069001 0.003570
Si Si8 0.624463 0.782475 0.475564
O O1 0.142707 0.856690 0.484334
O O2 0.984360 0.819234 0.736009
O O3 0.993706 0.998801 0.483739
O O4 0.981805 0.819364 0.233706
O O5 0.511011 0.500217 0.224516
O O6 0.664707 0.457915 0.475633
O O7 0.606718 0.656387 0.476611
O O8 0.825784 0.500057 0.227412
O O9 0.798699 0.682815 0.976820
O O10 0.681701 0.816808 0.225634
O O11 0.829817 0.887741 0.978142
O O12 0.682131 0.817402 0.725648
O O13 0.337964 0.122051 0.980484
O O14 0.226220 0.028000 0.647800
O O15 0.459186 0.982479 0.780347
O O16 0.520613 0.163480 0.970785
#
# Coordination Sequence:
#
# PCOD8052582 Si02
#       8
#     2   2   2   2   2   2   2   2
#     4  10  17  35  49  68  92 123 157 215 244 277
#     4  10  16  30  51  70  89 127 170 207 243 274
#     4  10  16  30  48  67  88 127 165 198 243 277
#     4  12  21  32  48  69 104 137 158 205 237 289
#     4  10  16  32  59  68  85 123 157 213 260 270
#     4  10  20  30  46  73  92 123 170 194 234 292
#     4  10  23  38  49  74  99 133 176 198 240 306
#     4  12  21  35  50  69 105 143 165 200 239 293
#
# _framework density 17.545085
#
# number of rings (size 3 to 8) (size 9 to 14) (size 15 to 20)
#    0.000    1.500    7.500    1.500    0.000    0.000 
#   13.500    0.000    0.000    0.000    0.000    0.000 
#    0.000    6.000    0.000    0.000    0.000    0.000 
#
# Total GULP energy -198248.546385 kJ/mol
# GULP energy per Si atom -12390.534149 kJ/mol
# Density = 1.750515 g / cm^3
# Si number density = 17.545085 Si / 1000 Ang^3
#
#
#
# Elastic Constant Matrix: (Units=GPa)
#
#
# Indices 1 2 3 4 5 6 
#
# 1 113.9498 23.5165 46.7417 0.0000 -3.1884 0.0000
# 2 23.5165 22.4000 7.8863 0.0000 -0.7304 0.0000
# 3 46.7417 7.8863 178.2595 0.0000 -2.5893 0.0000
# 4 0.0000 0.0000 0.0000 11.9233 0.0000 0.0022
# 5 -3.1884 -0.7304 -2.5893 0.0000 22.0182 0.0000
# 6 0.0000 0.0000 0.0000 0.0022 0.0000 2.0489
#
#
#
# Elastic Compliance Matrix: (Units=1/GPa)
#
#
# Indices 1 2 3 4 5 6 
#
# 1 0.012397 -0.012028 -0.002703 0.000000 0.001078 0.000000
# 2 -0.012028 0.057055 0.000633 0.000000 0.000225 0.000000
# 3 -0.002703 0.000633 0.006296 0.000000 0.000370 0.000000
# 4 0.000000 0.000000 0.000000 0.083869 0.000000 -0.000091
# 5 0.001078 0.000225 0.000370 0.000000 0.045624 0.000000
# 6 0.000000 0.000000 0.000000 -0.000091 0.000000 0.488067
#
#
# Mechanical properties :
#
#
# Convention : Reuss Voigt Hill
#
# Bulk Modulus (GPa) = 21.02958 52.32203 36.67581
# Shear Modulus (GPa) = 6.78099 22.96241 14.87170
#
# Velocity S-wave (km/s) = 1.96807 3.62161 2.91456
# Velocity P-wave (km/s) = 4.14444 6.88290 5.68114
#
# Compressibility (1/GPa) = 0.04755208
#
# Stress axis : x y z
#
# Youngs Moduli (GPa) = 80.66480 17.52691 158.83402
#
# Poissons Ratio (x) = 0.21082 0.42930
# Poissons Ratio (y) = 0.97025 -0.10055
# Poissons Ratio (z) = 0.21802 -0.01110
#
# Static dielectric constant tensor:
#      x y z
#    x 3.167570 0.000000 0.006110 
#    y 0.000000 2.842260 0.000000 
#    z 0.006110 0.000000 5.096110 
# 
# 
# High freq. dielectric constant tensor:
#      x y z
#    x 1.646630 0.000000 -0.001070 
#    y 0.000000 1.619250 0.000000 
#    z -0.001070 0.000000 1.725400 
# 
# From -- ./inp_files/1102.got.cif
#   From: 2010.03.12/outbox.cif.g09.slc.cpg/sg7_cif.got.tgz:1102.got - 2010.03.30 08:40:41.
