data_PCOD8052500
_publ_section_title
;
Structure prediction by ZEFSAII (Michael W. Deem and Ramdas Pophale) SiO2 
 PCOD8052500
Probable space group: P M
;
_chemical_formula_sum "Si O2"
_cell_formula_units_Z 16
_cell_length_a 12.584394
_cell_length_b 9.262581
_cell_length_c 12.582671
_cell_angle_alpha 90.000000
_cell_angle_beta 35.205234
_cell_angle_gamma 90.000000
_cell_volume 845.554728
_symmetry_space_group_name_H-M "P M"
_symmetry_group_IT_number 6
_symmetry_cell_setting 'monoclinic'
loop_
_space_group_symop_operation_xyz
x,y,z
x,-y,z
loop_
_atom_site_type_symbol
_atom_site_label
_atom_site_fract_x
_atom_site_fract_y
_atom_site_fract_z
Si Si1 0.330930 0.833908 0.355300
Si Si2 0.062860 0.329534 0.083390
Si Si3 0.959334 0.163844 0.969717
Si Si4 0.936187 0.166131 0.749898
Si Si5 0.570783 0.327834 0.989865
Si Si6 0.444507 0.671088 0.864030
Si Si7 0.664127 0.329543 0.482228
Si Si8 0.550442 0.836200 0.378781
O O1 0.424523 0.730249 0.193829
O O2 0.395092 0.790567 0.421409
O O3 0.110454 0.813326 0.529363
O O4 0.387675 0.000000 0.285906
O O5 0.067370 0.500000 0.065811
O O6 0.876709 0.278835 0.296020
O O7 0.237860 0.273444 0.007514
O O8 0.073927 0.263288 0.956509
O O9 0.001737 0.209807 0.814559
O O10 0.020837 0.000000 0.941150
O O11 0.742863 0.185678 0.162267
O O12 0.866977 0.000000 0.806624
O O13 0.774783 0.269596 0.843088
O O14 0.574485 0.500000 0.993302
O O15 0.507034 0.269550 0.926888
O O16 0.445491 0.500000 0.865034
O O17 0.588226 0.726551 0.657273
O O18 0.646583 0.500000 0.486749
O O19 0.537207 0.263392 0.493330
O O20 0.522254 0.000000 0.440155
#
# Coordination Sequence:
#
# PCOD8052500 Si02
#       8
#     2   2   2   2   2   2   2   2
#     4  10  21  38  59  82 113 154 191 230 288 345
#     4   9  18  33  53  77 106 140 177 220 272 330
#     4   9  17  32  54  79 111 143 175 223 280 334
#     4  10  21  38  59  82 113 154 191 230 288 345
#     4  11  23  39  59  83 115 151 196 243 280 331
#     4   9  20  37  55  77 107 147 184 223 278 333
#     4   9  18  33  53  77 106 140 177 220 272 330
#     4   9  17  32  54  79 111 143 175 223 280 334
#
# _framework density 18.922488000000001
#
# number of rings (size 3 to 8) (size 9 to 14) (size 15 to 20)
#    0.000    2.500    1.250    0.375    1.750    2.500 
#    0.000    5.000    0.000    3.000    0.000    0.000 
#    0.000    0.000    0.000    0.000    0.000    0.000 
#
# Total GULP energy -198398.760172 kJ/mol
# GULP energy per Si atom -12399.922511 kJ/mol
# Density = 1.887942 g / cm^3
# Si number density = 18.922488 Si / 1000 Ang^3
#
#
#
# Elastic Constant Matrix: (Units=GPa)
#
#
# Indices 1 2 3 4 5 6 
#
# 1 128.1504 51.5605 73.9798 0.0000 9.2553 0.0000
# 2 51.5605 54.6818 42.0585 0.0000 3.6884 0.0000
# 3 73.9798 42.0585 108.2720 0.0000 -2.2423 0.0000
# 4 0.0000 0.0000 0.0000 16.4924 0.0000 -4.5355
# 5 9.2553 3.6884 -2.2423 0.0000 19.9210 0.0000
# 6 0.0000 0.0000 0.0000 -4.5355 0.0000 6.0183
#
#
#
# Elastic Compliance Matrix: (Units=1/GPa)
#
#
# Indices 1 2 3 4 5 6 
#
# 1 0.016489 -0.008996 -0.007915 0.000000 -0.006886 0.000000
# 2 -0.008996 0.031719 -0.006224 0.000000 -0.002394 0.000000
# 3 -0.007915 -0.006224 0.017202 0.000000 0.006766 0.000000
# 4 0.000000 0.000000 0.000000 0.076486 0.000000 0.057641
# 5 -0.006886 -0.002394 0.006766 0.000000 0.054602 0.000000
# 6 0.000000 0.000000 0.000000 0.057641 0.000000 0.209601
#
#
# Mechanical properties :
#
#
# Convention : Reuss Voigt Hill
#
# Bulk Modulus (GPa) = 52.24595 69.58909 60.91752
# Shear Modulus (GPa) = 10.89922 16.72004 13.80963
#
# Velocity S-wave (km/s) = 2.40259 2.97578 2.70441
# Velocity P-wave (km/s) = 5.94702 6.97587 6.48189
#
# Compressibility (1/GPa) = 0.01914024
#
# Stress axis : x y z
#
# Youngs Moduli (GPa) = 60.64555 31.52715 58.13281
#
# Poissons Ratio (x) = 0.28361 0.46012
# Poissons Ratio (y) = 0.54555 0.36183
# Poissons Ratio (z) = 0.48000 0.19623
#
# Static dielectric constant tensor:
#      x y z
#    x 3.589960 0.000000 -0.001800 
#    y 0.000000 3.279120 0.000000 
#    z -0.001800 0.000000 3.591650 
# 
# 
# High freq. dielectric constant tensor:
#      x y z
#    x 1.732160 0.000000 -0.004680 
#    y 0.000000 1.713410 0.000000 
#    z -0.004680 0.000000 1.743200 
# 
# From -- ./inp_files/5033.got.cif
#   From: 2010.03.12/outbox.cif.g09.slc.cpg/sg6_3_cif.got.tgz:5033.got - 2010.03.30 10:24:59.
