data_PCOD8052573
_publ_section_title
;
Structure prediction by ZEFSAII (Michael W. Deem and Ramdas Pophale) SiO2 
 PCOD8052573
Probable space group: P C
;
_chemical_formula_sum "Si O2"
_cell_formula_units_Z 16
_cell_length_a 21.014218
_cell_length_b 8.463336
_cell_length_c 5.190192
_cell_angle_alpha 90.000000
_cell_angle_beta 111.535305
_cell_angle_gamma 90.000000
_cell_volume 858.639046
_symmetry_space_group_name_H-M "P C"
_symmetry_group_IT_number 7
_symmetry_cell_setting 'monoclinic'
loop_
_space_group_symop_operation_xyz
x,y,z
x,-y,1/2+z
loop_
_atom_site_type_symbol
_atom_site_label
_atom_site_fract_x
_atom_site_fract_y
_atom_site_fract_z
Si Si1 0.272580 0.397673 0.785900
Si Si2 0.637793 0.402508 0.804936
Si Si3 0.982014 0.604953 0.819802
Si Si4 0.886450 0.900994 0.665231
Si Si5 0.419982 0.314195 0.986452
Si Si6 0.478906 0.334053 0.573424
Si Si7 0.129938 0.401540 0.456291
Si Si8 0.727390 0.097337 0.934896
O O1 0.275361 0.539914 0.582451
O O2 0.200153 0.304381 0.627262
O O3 0.338433 0.286350 0.841066
O O4 0.655184 0.530191 0.611671
O O5 0.559081 0.355830 0.663553
O O6 0.684107 0.252524 0.821066
O O7 0.972627 0.472196 0.586493
O O8 0.925992 0.737895 0.697155
O O9 0.057862 0.685884 0.906816
O O10 0.806816 0.857168 0.536608
O O11 0.906908 0.014654 0.460782
O O12 0.449773 0.233772 0.289255
O O13 0.439199 0.499669 0.042571
O O14 0.459387 0.237192 0.802406
O O15 0.131685 0.449476 0.158148
O O16 0.708317 0.973033 0.684046
#
# Coordination Sequence:
#
# PCOD8052573 Si02
#       8
#     2   2   2   2   2   2   2   2
#     4  10  14  20  34  53  84 134 155 179 233 308
#     4  12  21  33  54  79 104 133 168 219 262 302
#     4  10  19  33  53  78 109 136 161 214 262 301
#     4  10  21  38  58  77 101 136 177 212 246 304
#     4  10  14  23  36  56  95 129 152 193 249 293
#     4  10  16  25  37  63  95 123 152 207 249 286
#     4   8  16  25  37  62  94 128 153 191 242 298
#     4  10  23  41  55  74 106 139 170 209 257 312
#
# _framework density 18.634139999999999
#
# number of rings (size 3 to 8) (size 9 to 14) (size 15 to 20)
#    0.000    2.000    5.000    1.500    0.000    1.000 
#    0.000    0.000    0.000    0.000    0.000    0.000 
#    0.000    6.000    0.000    0.000    0.000    0.000 
#
# Total GULP energy -198252.142481 kJ/mol
# GULP energy per Si atom -12390.758905 kJ/mol
# Density = 1.859173 g / cm^3
# Si number density = 18.634140 Si / 1000 Ang^3
#
#
#
# Elastic Constant Matrix: (Units=GPa)
#
#
# Indices 1 2 3 4 5 6 
#
# 1 90.8297 36.4019 36.2987 0.0000 5.3506 0.0000
# 2 36.4019 33.7537 12.1474 0.0000 14.9053 0.0000
# 3 36.2987 12.1474 97.3285 0.0000 -13.3118 0.0000
# 4 0.0000 0.0000 0.0000 7.7295 0.0000 -7.5442
# 5 5.3506 14.9053 -13.3118 0.0000 40.1664 0.0000
# 6 0.0000 0.0000 0.0000 -7.5442 0.0000 -0.0036
#
#
#
# Elastic Compliance Matrix: (Units=1/GPa)
#
#
# Indices 1 2 3 4 5 6 
#
# 1 0.022447 -0.024536 -0.004685 0.000000 0.004562 0.000000
# 2 -0.024536 0.066692 -0.002211 0.000000 -0.022213 0.000000
# 3 -0.004685 -0.002211 0.013089 0.000000 0.005782 0.000000
# 4 0.000000 0.000000 0.000000 0.000063 0.000000 -0.132488
# 5 0.004562 -0.022213 0.005782 0.000000 0.034448 0.000000
# 6 0.000000 0.000000 0.000000 -0.132488 0.000000 -0.135742
#
#
# Mechanical properties :
#
#
# Convention : Reuss Voigt Hill
#
# Bulk Modulus (GPa) = 25.40475 43.51200 34.45838
# Shear Modulus (GPa) = 64.94983 18.71605 41.83294
#
# Velocity S-wave (km/s) = 5.91024 3.17266 4.74324
# Velocity P-wave (km/s) = 7.76129 6.06815 6.96635
#
# Compressibility (1/GPa) = 0.03936271
#
# Stress axis : x y z
#
# Youngs Moduli (GPa) = 44.55012 14.99422 76.40206
#
# Poissons Ratio (x) = 0.36790 0.35796
# Poissons Ratio (y) = 1.09309 0.16893
# Poissons Ratio (z) = 0.20873 0.03315
#
# Static dielectric constant tensor:
#      x y z
#    x 3.946490 0.000000 -0.334550 
#    y 0.000000 2.643420 0.000000 
#    z -0.334550 0.000000 4.548850 
# 
# 
# High freq. dielectric constant tensor:
#      x y z
#    x 1.748920 0.000000 -0.007040 
#    y 0.000000 1.630230 0.000000 
#    z -0.007040 0.000000 1.758170 
# 
# From -- ./inp_files/1452.got.cif
#   From: 2010.03.12/outbox.cif.g09.slc.cpg/sg7_cif.got.tgz:1452.got - 2010.03.30 08:40:41.
