data_PCOD8052927
_publ_section_title
;
Structure prediction by ZEFSAII (Michael W. Deem and Ramdas Pophale) SiO2 
 PCOD8052927
Probable space group: C M
;
_chemical_formula_sum "Si O2"
_cell_formula_units_Z 24
_cell_length_a 11.456225
_cell_length_b 23.404043
_cell_length_c 7.575250
_cell_angle_alpha 90.000000
_cell_angle_beta 147.684473
_cell_angle_gamma 90.000000
_cell_volume 1085.783483
_symmetry_space_group_name_H-M "C M"
_symmetry_group_IT_number 8
_symmetry_cell_setting 'monoclinic'
loop_
_space_group_symop_operation_xyz
x,y,z
x,-y,z
1/2+x,1/2+y,z
1/2+x,1/2-y,z
loop_
_atom_site_type_symbol
_atom_site_label
_atom_site_fract_x
_atom_site_fract_y
_atom_site_fract_z
Si Si1 0.517490 0.716418 0.811930
Si Si2 0.141684 0.632776 0.391061
Si Si3 0.412909 0.933394 0.404270
Si Si4 0.668344 0.656725 0.663087
Si Si5 0.982139 0.936728 0.626757
Si Si6 0.315896 0.829052 0.489923
O O1 0.302687 0.687001 0.625013
O O2 0.549455 0.698507 0.648769
O O3 0.503728 0.785133 0.795406
O O4 0.723075 0.696476 0.189288
O O5 0.256758 0.588388 0.407964
O O6 0.087808 0.596970 0.499232
O O7 0.927212 0.657122 0.025451
O O8 0.408730 0.893333 0.575160
O O9 0.477821 0.000000 0.526821
O O10 0.168857 0.931108 0.014427
O O11 0.566339 0.594164 0.558607
O O12 0.632621 0.671415 0.411027
O O13 0.934838 0.000000 0.505681
#
# Coordination Sequence:
#
# PCOD8052927 Si02
#       6
#     4   4   4   4   4   4
#     4  11  25  43  63  97 131 172 221 272 329 386
#     4  10  18  42  65  94 131 171 221 263 330 386
#     4  10  21  40  67  98 134 174 217 271 327 387
#     4  10  23  41  63  95 130 172 214 273 325 383
#     4   9  18  38  67  96 131 172 215 264 324 390
#     4  12  24  44  67  96 134 173 216 275 329 392
#
# _framework density 22.103854999999999
#
# number of rings (size 3 to 8) (size 9 to 14) (size 15 to 20)
#    0.000    1.667    5.000    1.500    2.333    2.667 
#    6.000    0.000    0.000    0.000    0.000    0.000 
#    0.000    0.000    0.000    0.000    0.000    0.000 
#
# Total GULP energy -148717.543896 kJ/mol
# GULP energy per Si atom -12393.128658 kJ/mol
# Density = 2.205355 g / cm^3
# Si number density = 22.103855 Si / 1000 Ang^3
#
#
#
# Elastic Constant Matrix: (Units=GPa)
#
#
# Indices 1 2 3 4 5 6 
#
# 1 125.9226 49.7262 13.6025 0.0000 -4.0666 0.0000
# 2 49.7262 160.2415 15.2407 0.0000 -3.7163 0.0000
# 3 13.6025 15.2407 33.6211 0.0000 17.0303 0.0000
# 4 0.0000 0.0000 0.0000 23.6270 0.0000 1.3039
# 5 -4.0666 -3.7163 17.0303 0.0000 33.3525 0.0000
# 6 0.0000 0.0000 0.0000 1.3039 0.0000 27.4465
#
#
#
# Elastic Compliance Matrix: (Units=1/GPa)
#
#
# Indices 1 2 3 4 5 6 
#
# 1 0.009474 -0.002463 -0.004266 0.000000 0.003059 0.000000
# 2 -0.002463 0.007395 -0.003535 0.000000 0.002329 0.000000
# 3 -0.004266 -0.003535 0.045234 0.000000 -0.024011 0.000000
# 4 0.000000 0.000000 0.000000 0.042436 0.000000 -0.002016
# 5 0.003059 0.002329 -0.024011 0.000000 0.042876 0.000000
# 6 0.000000 0.000000 0.000000 -0.002016 0.000000 0.036530
#
#
# Mechanical properties :
#
#
# Convention : Reuss Voigt Hill
#
# Bulk Modulus (GPa) = 24.05317 52.99155 38.52236
# Shear Modulus (GPa) = 22.90096 32.96628 27.93362
#
# Velocity S-wave (km/s) = 3.22228 3.86609 3.55877
# Velocity P-wave (km/s) = 4.97490 6.62984 5.86108
#
# Compressibility (1/GPa) = 0.04157456
#
# Stress axis : x y z
#
# Youngs Moduli (GPa) = 105.55575 135.22216 22.10715
#
# Poissons Ratio (x) = 0.33308 0.09430
# Poissons Ratio (y) = 0.26001 0.07816
# Poissons Ratio (z) = 0.45026 0.47807
#
# Static dielectric constant tensor:
#      x y z
#    x 4.049650 0.000000 0.108100 
#    y 0.000000 4.370490 0.000000 
#    z 0.108100 0.000000 3.625150 
# 
# 
# High freq. dielectric constant tensor:
#      x y z
#    x 1.873060 0.000000 0.015890 
#    y 0.000000 1.882060 0.000000 
#    z 0.015890 0.000000 1.838550 
# 
# From -- ./inp_files/11619.got.cif
#   From: 2010.03.12/outbox.cif.g09.slc.cpg/sg8_6_cif.got.tgz:11619.got - 2010.03.31 10:45:26.
