data_PCOD8052718
_publ_section_title
;
Structure prediction by ZEFSAII (Michael W. Deem and Ramdas Pophale) SiO2 
 PCOD8052718
Probable space group: C M
;
_chemical_formula_sum "Si O2"
_cell_formula_units_Z 32
_cell_length_a 18.996659
_cell_length_b 8.475519
_cell_length_c 26.122477
_cell_angle_alpha 90.000000
_cell_angle_beta 23.945812
_cell_angle_gamma 90.000000
_cell_volume 1707.054851
_symmetry_space_group_name_H-M "C M"
_symmetry_group_IT_number 8
_symmetry_cell_setting 'monoclinic'
loop_
_space_group_symop_operation_xyz
x,y,z
x,-y,z
1/2+x,1/2+y,z
1/2+x,1/2-y,z
loop_
_atom_site_type_symbol
_atom_site_label
_atom_site_fract_x
_atom_site_fract_y
_atom_site_fract_z
Si Si1 0.486290 0.682608 0.950820
Si Si2 0.992027 0.813356 0.472084
Si Si3 0.831399 0.813976 0.473015
Si Si4 0.484592 0.815759 0.746127
Si Si5 0.660289 0.685210 0.729277
Si Si6 0.117192 0.318354 0.968083
Si Si7 0.792019 0.816393 0.221240
Si Si8 0.158252 0.817237 0.205929
O O1 0.516214 0.500000 0.942296
O O2 0.569043 0.734424 0.842570
O O3 0.578709 0.777889 0.934637
O O4 0.278424 0.718986 0.086913
O O5 0.911348 0.749401 0.472547
O O6 0.863080 0.737216 0.599926
O O7 0.187979 0.740436 0.341638
O O8 0.999416 0.000000 0.474785
O O9 0.628173 0.766303 0.606831
O O10 0.954289 0.758266 0.343454
O O11 0.848279 0.000000 0.465051
O O12 0.563683 0.782535 0.749295
O O13 0.316629 0.713466 0.847796
O O14 0.439594 0.000000 0.771701
O O15 0.643603 0.500000 0.729563
O O16 0.078397 0.500000 0.003581
O O17 0.998579 0.217900 0.087002
O O18 0.731406 0.707295 0.214386
O O19 0.759138 0.000000 0.232445
O O20 0.170451 0.000000 0.182471
#
# Coordination Sequence:
#
# PCOD8052718 Si02
#       8
#     4   4   4   4   4   4   4   4
#     4  10  20  33  49  72 102 133 165 203 247 293
#     4   9  16  28  46  69  96 125 160 202 246 288
#     4   7  13  25  43  67  92 119 152 194 239 283
#     4  10  19  33  52  73 100 131 163 202 251 300
#     4  10  20  33  50  74 102 131 165 205 248 294
#     4  11  21  33  50  73 101 131 167 207 248 294
#     4  10  17  27  45  69  96 125 160 201 247 292
#     4   9  15  26  45  69  95 123 160 202 244 288
#
# _framework density 18.745736000000001
#
# number of rings (size 3 to 8) (size 9 to 14) (size 15 to 20)
#    0.000    2.500    0.000    7.125    0.000    2.000 
#    0.000    1.875    0.000    1.500    0.000    1.750 
#    0.000    0.000    0.000    0.000    0.000    0.000 
#
# Total GULP energy -198210.348188 kJ/mol
# GULP energy per Si atom -12388.146762 kJ/mol
# Density = 1.870307 g / cm^3
# Si number density = 18.745736 Si / 1000 Ang^3
#
#
#
# Elastic Constant Matrix: (Units=GPa)
#
#
# Indices 1 2 3 4 5 6 
#
# 1 29.0024 12.1719 38.2652 -0.0122 7.3323 0.0008
# 2 12.1719 67.4433 32.9201 0.0069 6.8084 0.0005
# 3 38.2652 32.9201 189.6027 0.0004 20.3221 -0.0025
# 4 -0.0122 0.0069 0.0004 34.6530 -0.0037 0.9352
# 5 7.3323 6.8084 20.3221 -0.0037 25.9072 -0.0006
# 6 0.0008 0.0005 -0.0025 0.9352 -0.0006 17.5692
#
#
#
# Elastic Compliance Matrix: (Units=1/GPa)
#
#
# Indices 1 2 3 4 5 6 
#
# 1 0.048975 -0.004061 -0.008524 0.000018 -0.006107 -0.000005
# 2 -0.004061 0.016657 -0.001885 -0.000005 -0.001749 0.000000
# 3 -0.008524 -0.001885 0.007654 -0.000003 -0.003096 0.000002
# 4 0.000018 -0.000005 -0.000003 0.028899 0.000003 -0.001538
# 5 -0.006107 -0.001749 -0.003096 0.000003 0.043216 0.000001
# 6 -0.000005 0.000000 0.000002 -0.001538 0.000001 0.057000
#
#
# Mechanical properties :
#
#
# Convention : Reuss Voigt Hill
#
# Bulk Modulus (GPa) = 22.55075 50.30695 36.42885
# Shear Modulus (GPa) = 20.31504 29.13865 24.72685
#
# Velocity S-wave (km/s) = 3.29555 3.94688 3.63583
# Velocity P-wave (km/s) = 5.15139 6.90400 6.09106
#
# Compressibility (1/GPa) = 0.04434442
#
# Stress axis : x y z
#
# Youngs Moduli (GPa) = 20.41847 60.03508 130.65705
#
# Poissons Ratio (x) = 0.24383 1.11376
# Poissons Ratio (y) = 0.08293 0.24628
# Poissons Ratio (z) = 0.17405 0.11316
#
# Static dielectric constant tensor:
#      x y z
#    x 2.758320 0.000000 0.157480 
#    y 0.000000 3.333130 0.000030 
#    z 0.157480 0.000030 4.457470 
# 
# 
# High freq. dielectric constant tensor:
#      x y z
#    x 1.641590 0.000000 0.012670 
#    y 0.000000 1.731070 0.000000 
#    z 0.012670 0.000000 1.767060 
# 
# From -- ./inp_files/33458.got.cif
#   From: 2010.03.12/outbox.cif.g09.slc.cpg/sg8_17_cif.got.tgz:33458.got - 2010.03.31 10:45:26.
