data_PCOD8052065
_publ_section_title
;
Structure prediction by ZEFSAII (Michael W. Deem and Ramdas Pophale) SiO2 
 PCOD8052065
Probable space group: C 2
;
_chemical_formula_sum "Si O2"
_cell_formula_units_Z 10
_cell_length_a 5.226272
_cell_length_b 13.800600
_cell_length_c 5.275658
_cell_angle_alpha 90.000000
_cell_angle_beta 91.388358
_cell_angle_gamma 90.000000
_cell_volume 380.398765
_symmetry_space_group_name_H-M "C 2"
_symmetry_group_IT_number 5
_symmetry_cell_setting 'monoclinic'
loop_
_space_group_symop_operation_xyz
x,y,z
-x,y,-z
1/2+x,1/2+y,z
1/2-x,1/2+y,-z
loop_
_atom_site_type_symbol
_atom_site_label
_atom_site_fract_x
_atom_site_fract_y
_atom_site_fract_z
Si Si1 0.761896 0.686670 0.659252
Si Si2 0.167784 0.399775 0.752422
Si Si3 0.500000 0.548907 0.000000
O O1 0.500000 0.683003 0.500000
O O2 0.812563 0.796543 0.749418
O O3 0.729993 0.616000 0.898995
O O4 0.000000 0.649241 0.500000
O O5 0.386095 0.482024 0.772561
O O6 0.000000 0.418752 0.500000
O O7 0.000000 0.404513 0.000000
#
# Coordination Sequence:
#
# PCOD8052065 Si02
#       3
#     4   4   2
#     4  11  29  54  82 121 171 218 278 346 418 496
#     4  11  29  54  84 121 171 216 279 346 417 494
#     4  12  30  50  88 120 164 222 280 344 414 502
#
# _framework density 26.288201000000001
#
# number of rings (size 3 to 8) (size 9 to 14) (size 15 to 20)
#    0.000    0.800    2.000    0.000   22.400    0.000 
#    0.000    0.000    0.000    0.000    0.000    0.000 
#    0.000    0.000    0.000    0.000    0.000    0.000 
#
# Total GULP energy -62043.188065 kJ/mol
# GULP energy per Si atom -12408.637613 kJ/mol
# Density = 2.622837 g / cm^3
# Si number density = 26.288201 Si / 1000 Ang^3
#
#
#
# Elastic Constant Matrix: (Units=GPa)
#
#
# Indices 1 2 3 4 5 6 
#
# 1 146.0486 66.3444 62.3823 0.0000 -26.8650 0.0000
# 2 66.3444 208.7078 65.8276 0.0000 0.1602 0.0000
# 3 62.3823 65.8276 166.2432 0.0000 -8.6014 0.0000
# 4 0.0000 0.0000 0.0000 52.0916 0.0000 -56.0164
# 5 -26.8650 0.1602 -8.6014 0.0000 59.9585 0.0000
# 6 0.0000 0.0000 0.0000 -56.0164 0.0000 78.8570
#
#
#
# Elastic Compliance Matrix: (Units=1/GPa)
#
#
# Indices 1 2 3 4 5 6 
#
# 1 0.009700 -0.002290 -0.002527 0.000000 0.003990 0.000000
# 2 -0.002290 0.006022 -0.001591 0.000000 -0.001270 0.000000
# 3 -0.002527 -0.001591 0.007592 0.000000 -0.000039 0.000000
# 4 0.000000 0.000000 0.000000 0.081300 0.000000 0.057752
# 5 0.003990 -0.001270 -0.000039 0.000000 0.018464 0.000000
# 6 0.000000 0.000000 0.000000 0.057752 0.000000 0.053706
#
#
# Mechanical properties :
#
#
# Convention : Reuss Voigt Hill
#
# Bulk Modulus (GPa) = 95.25103 101.12313 98.18708
# Shear Modulus (GPa) = 25.89348 59.94444 42.91896
#
# Velocity S-wave (km/s) = 3.14185 4.78041 4.04497
# Velocity P-wave (km/s) = 7.03375 8.30785 7.69721
#
# Compressibility (1/GPa) = 0.01049857
#
# Stress axis : x y z
#
# Youngs Moduli (GPa) = 103.08826 166.05676 131.72554
#
# Poissons Ratio (x) = 0.38021 0.33287
# Poissons Ratio (y) = 0.23603 0.20959
# Poissons Ratio (z) = 0.26050 0.26421
#
# Static dielectric constant tensor:
#      x y z
#    x 4.620300 0.000000 -0.576880 
#    y 0.000000 5.462450 0.000000 
#    z -0.576880 0.000000 3.112860 
# 
# 
# High freq. dielectric constant tensor:
#      x y z
#    x 2.050790 0.000000 -0.002230 
#    y 0.000000 2.080050 0.000000 
#    z -0.002230 0.000000 2.056130 
# 
# From -- ./inp_files/186.got.cif
#   From: 2010.03.12/outbox.cif.g09.slc.cpg/sg5_1_cif.got.tgz:186.got - 2010.03.31 09:47:26.
