data_PCOD8052859
_publ_section_title
;
Structure prediction by ZEFSAII (Michael W. Deem and Ramdas Pophale) SiO2 
 PCOD8052859
Probable space group: C M
;
_chemical_formula_sum "Si O2"
_cell_formula_units_Z 24
_cell_length_a 24.399234
_cell_length_b 8.809314
_cell_length_c 7.923346
_cell_angle_alpha 90.000000
_cell_angle_beta 48.946753
_cell_angle_gamma 90.000000
_cell_volume 1284.267784
_symmetry_space_group_name_H-M "C M"
_symmetry_group_IT_number 8
_symmetry_cell_setting 'monoclinic'
loop_
_space_group_symop_operation_xyz
x,y,z
x,-y,z
1/2+x,1/2+y,z
1/2+x,1/2-y,z
loop_
_atom_site_type_symbol
_atom_site_label
_atom_site_fract_x
_atom_site_fract_y
_atom_site_fract_z
Si Si1 0.867740 0.325376 0.927320
Si Si2 0.986586 0.178886 0.506000
Si Si3 0.986716 0.679339 0.167242
Si Si4 0.065904 0.179772 0.688266
Si Si5 0.729756 0.327237 0.385637
Si Si6 0.856178 0.821581 0.286275
O O1 0.893498 0.500000 0.886242
O O2 0.903921 0.243816 0.693394
O O3 0.779091 0.315153 0.113384
O O4 0.897228 0.231336 0.030814
O O5 0.021958 0.255269 0.268630
O O6 0.032014 0.230812 0.578384
O O7 0.985381 0.000000 0.483976
O O8 0.988007 0.500000 0.167228
O O9 0.903124 0.740119 0.336629
O O10 0.031303 0.738778 0.917973
O O11 0.149866 0.234970 0.511557
O O12 0.058454 0.000000 0.727461
O O13 0.726330 0.500000 0.455771
O O14 0.771740 0.233359 0.449367
O O15 0.860325 0.000000 0.302737
#
# Coordination Sequence:
#
# PCOD8052859 Si02
#       6
#     4   4   4   4   4   4
#     4   9  17  33  56  82 110 143 185 229 277 333
#     4  11  22  36  59  86 114 151 192 236 282 335
#     4  12  24  37  57  84 116 153 192 238 285 335
#     4  10  20  38  61  84 115 151 187 232 285 342
#     4   8  17  33  57  84 112 149 186 226 284 342
#     4  10  18  33  56  82 109 143 188 233 277 329
#
# _framework density 18.687691999999998
#
# number of rings (size 3 to 8) (size 9 to 14) (size 15 to 20)
#    1.000    1.000    1.667    3.500    0.000    1.333 
#    0.000    1.667    0.000    8.000    0.000    0.000 
#    0.000    0.000    0.000    0.000    0.000    0.000 
#
# Total GULP energy -148660.444852 kJ/mol
# GULP energy per Si atom -12388.370404 kJ/mol
# Density = 1.864516 g / cm^3
# Si number density = 18.687692 Si / 1000 Ang^3
#
#
#
# Elastic Constant Matrix: (Units=GPa)
#
#
# Indices 1 2 3 4 5 6 
#
# 1 109.6749 54.7637 74.1739 0.0000 -0.8192 0.0000
# 2 54.7637 111.4755 55.1629 0.0000 5.4425 0.0000
# 3 74.1739 55.1629 94.4481 0.0000 4.3849 0.0000
# 4 0.0000 0.0000 0.0000 31.1741 0.0000 1.5653
# 5 -0.8192 5.4425 4.3849 0.0000 30.5401 0.0000
# 6 0.0000 0.0000 0.0000 1.5653 0.0000 24.4822
#
#
#
# Elastic Compliance Matrix: (Units=1/GPa)
#
#
# Indices 1 2 3 4 5 6 
#
# 1 0.020389 -0.003058 -0.014372 0.000000 0.003155 0.000000
# 2 -0.003058 0.013120 -0.005183 0.000000 -0.001676 0.000000
# 3 -0.014372 -0.005183 0.025044 0.000000 -0.003058 0.000000
# 4 0.000000 0.000000 0.000000 0.032181 0.000000 -0.002058
# 5 0.003155 -0.001676 -0.003058 0.000000 0.033566 0.000000
# 6 0.000000 0.000000 0.000000 -0.002058 0.000000 0.040978
#
#
# Mechanical properties :
#
#
# Convention : Reuss Voigt Hill
#
# Bulk Modulus (GPa) = 75.04578 75.97772 75.51175
# Shear Modulus (GPa) = 23.26165 26.00580 24.63372
#
# Velocity S-wave (km/s) = 3.53194 3.73446 3.63461
# Velocity P-wave (km/s) = 7.54174 7.70323 7.62291
#
# Compressibility (1/GPa) = 0.01332520
#
# Stress axis : x y z
#
# Youngs Moduli (GPa) = 49.04715 76.22217 39.92947
#
# Poissons Ratio (x) = 0.23310 0.57388
# Poissons Ratio (y) = 0.14999 0.20696
# Poissons Ratio (z) = 0.70492 0.39506
#
# Static dielectric constant tensor:
#      x y z
#    x 3.479680 0.000000 -0.123740 
#    y 0.000000 3.337320 0.000000 
#    z -0.123740 0.000000 3.353770 
# 
# 
# High freq. dielectric constant tensor:
#      x y z
#    x 1.709230 0.000000 -0.006930 
#    y 0.000000 1.731590 0.000000 
#    z -0.006930 0.000000 1.707130 
# 
# From -- ./inp_files/17194.got.cif
#   From: 2010.03.12/outbox.cif.g09.slc.cpg/sg8_9_cif.got.tgz:17194.got - 2010.03.31 10:45:26.
