data_PCOD8052393
_publ_section_title
;
Structure prediction by ZEFSAII (Michael W. Deem and Ramdas Pophale) SiO2 
 PCOD8052393
Probable space group: P M
;
_chemical_formula_sum "Si O2"
_cell_formula_units_Z 16
_cell_length_a 19.641072
_cell_length_b 8.481894
_cell_length_c 9.793768
_cell_angle_alpha 90.000000
_cell_angle_beta 150.848166
_cell_angle_gamma 90.000000
_cell_volume 794.783510
_symmetry_space_group_name_H-M "P M"
_symmetry_group_IT_number 6
_symmetry_cell_setting 'monoclinic'
loop_
_space_group_symop_operation_xyz
x,y,z
x,-y,z
loop_
_atom_site_type_symbol
_atom_site_label
_atom_site_fract_x
_atom_site_fract_y
_atom_site_fract_z
Si Si1 0.169500 0.178792 0.783030
Si Si2 0.628397 0.688780 0.426012
Si Si3 0.644612 0.316845 0.763358
Si Si4 0.164447 0.317865 0.268003
Si Si5 0.338791 0.678716 0.306482
Si Si6 0.872584 0.815019 0.662583
Si Si7 0.881511 0.686850 0.377989
Si Si8 0.324436 0.317074 0.808299
O O1 0.225056 0.292317 0.763030
O O2 0.018164 0.228453 0.565336
O O3 0.169829 0.000000 0.730913
O O4 0.268852 0.193992 0.086854
O O5 0.631689 0.500000 0.428580
O O6 0.644177 0.754265 0.609099
O O7 0.753880 0.757577 0.557785
O O8 0.479821 0.753262 0.106686
O O9 0.673455 0.500000 0.797244
O O10 0.502135 0.283430 0.594434
O O11 0.762997 0.245561 0.069010
O O12 0.121554 0.500000 0.215503
O O13 0.278003 0.299589 0.349238
O O14 0.243284 0.242627 0.536882
O O15 0.023887 0.222899 0.990443
O O16 0.311443 0.500000 0.204555
O O17 0.849020 0.729446 0.477259
O O18 0.860116 0.000000 0.617647
O O19 0.899468 0.500000 0.400454
O O20 0.343225 0.500000 0.811932
#
# Coordination Sequence:
#
# PCOD8052393 Si02
#       8
#     2   2   2   2   2   2   2   2
#     4  12  24  39  61  91 126 163 201 250 310 368
#     4  10  21  41  66  92 121 159 204 253 302 363
#     4   9  20  38  66  96 118 150 206 259 304 352
#     4  10  22  39  66  95 119 158 209 255 302 360
#     4  10  19  39  67  92 118 154 203 261 307 356
#     4  12  26  42  59  88 129 168 201 248 309 370
#     4  11  23  41  66  92 119 160 209 259 301 357
#     4  10  22  41  67  94 120 158 209 257 301 358
#
# _framework density 20.131267000000001
#
# number of rings (size 3 to 8) (size 9 to 14) (size 15 to 20)
#    0.000    1.500    2.500    2.625    3.500    1.000 
#    0.000    1.875    0.000    0.000    0.000    0.000 
#    0.000    0.000    0.000    0.000    0.000    0.000 
#
# Total GULP energy -198396.516436 kJ/mol
# GULP energy per Si atom -12399.782277 kJ/mol
# Density = 2.008545 g / cm^3
# Si number density = 20.131267 Si / 1000 Ang^3
#
#
#
# Elastic Constant Matrix: (Units=GPa)
#
#
# Indices 1 2 3 4 5 6 
#
# 1 112.4938 1.1428 55.0872 0.0000 3.7516 0.0000
# 2 1.1428 36.8660 17.7315 0.0000 -0.0409 0.0000
# 3 55.0872 17.7315 176.7848 0.0000 -1.0025 0.0000
# 4 0.0000 0.0000 0.0000 2.9407 0.0000 -3.0466
# 5 3.7516 -0.0409 -1.0025 0.0000 45.9915 0.0000
# 6 0.0000 0.0000 0.0000 -3.0466 0.0000 11.6427
#
#
#
# Elastic Compliance Matrix: (Units=1/GPa)
#
#
# Indices 1 2 3 4 5 6 
#
# 1 0.010591 0.001324 -0.003438 0.000000 -0.000938 0.000000
# 2 0.001324 0.028666 -0.003289 0.000000 -0.000154 0.000000
# 3 -0.003438 -0.003289 0.007060 0.000000 0.000431 0.000000
# 4 0.000000 0.000000 0.000000 0.466531 0.000000 0.122081
# 5 -0.000938 -0.000154 0.000431 0.000000 0.021829 0.000000
# 6 0.000000 0.000000 0.000000 0.122081 0.000000 0.117836
#
#
# Mechanical properties :
#
#
# Convention : Reuss Voigt Hill
#
# Bulk Modulus (GPa) = 28.15973 52.67418 40.41696
# Shear Modulus (GPa) = 7.40569 28.92719 18.16644
#
# Velocity S-wave (km/s) = 1.92007 3.79480 3.00725
# Velocity P-wave (km/s) = 4.35132 6.73964 5.67260
#
# Compressibility (1/GPa) = 0.03551170
#
# Stress axis : x y z
#
# Youngs Moduli (GPa) = 94.42051 34.88468 141.63676
#
# Poissons Ratio (x) = -0.04620 0.48700
# Poissons Ratio (y) = -0.12505 0.46581
# Poissons Ratio (z) = 0.32465 0.11473
#
# Static dielectric constant tensor:
#      x y z
#    x 3.757800 0.000000 -0.092510 
#    y 0.000000 3.429140 0.000000 
#    z -0.092510 0.000000 4.000670 
# 
# 
# High freq. dielectric constant tensor:
#      x y z
#    x 1.799550 0.000000 0.001290 
#    y 0.000000 1.758590 0.000000 
#    z 0.001290 0.000000 1.801030 
# 
# From -- ./inp_files/3776.got.cif
#   From: 2010.03.12/outbox.cif.g09.slc.cpg/sg6_2_cif.got.tgz:3776.got - 2010.03.30 10:24:59.
