data_PCOD8052466
_publ_section_title
;
Structure prediction by ZEFSAII (Michael W. Deem and Ramdas Pophale) SiO2 
 PCOD8052466
Probable space group: P M
;
_chemical_formula_sum "Si O2"
_cell_formula_units_Z 10
_cell_length_a 6.342271
_cell_length_b 12.916347
_cell_length_c 6.661780
_cell_angle_alpha 90.000000
_cell_angle_beta 72.564930
_cell_angle_gamma 90.000000
_cell_volume 520.653939
_symmetry_space_group_name_H-M "P M"
_symmetry_group_IT_number 6
_symmetry_cell_setting 'monoclinic'
loop_
_space_group_symop_operation_xyz
x,y,z
x,-y,z
loop_
_atom_site_type_symbol
_atom_site_label
_atom_site_fract_x
_atom_site_fract_y
_atom_site_fract_z
Si Si1 0.412600 0.798830 0.000000
Si Si2 0.310699 0.750446 0.606815
Si Si3 0.060503 0.883127 0.362696
Si Si4 0.125680 0.620265 0.986929
Si Si5 0.724525 0.256282 0.230012
O O1 0.426241 0.816258 0.756151
O O2 0.294127 0.686413 0.077221
O O3 0.257990 0.886203 0.143111
O O4 0.650809 0.797509 0.040180
O O5 0.141509 0.823999 0.538477
O O6 0.168174 0.655493 0.742464
O O7 0.505140 0.706311 0.410078
O O8 0.847304 0.828599 0.328869
O O9 0.996441 0.000000 0.439126
O O10 0.172940 0.500000 0.999781
O O11 0.876788 0.645850 0.130683
#
# Coordination Sequence:
#
# PCOD8052466 Si02
#       5
#     2   2   2   2   2
#     4   8  20  39  58  81 120 147 189 239 281 336
#     4   9  21  38  60  83 120 153 187 236 285 342
#     4  10  21  38  59  87 117 150 195 237 284 342
#     4   9  20  38  60  86 116 152 192 235 284 340
#     4  10  20  37  61  85 115 152 191 239 284 336
#
# _framework density 19.206616
#
# number of rings (size 3 to 8) (size 9 to 14) (size 15 to 20)
#    1.200    1.600    0.000    0.000    2.800    5.600 
#    0.000    8.000    0.000    0.000    0.000    0.000 
#    0.000    0.000    0.000    0.000    0.000    0.000 
#
# Total GULP energy -123883.821125 kJ/mol
# GULP energy per Si atom -12388.382112 kJ/mol
# Density = 1.916290 g / cm^3
# Si number density = 19.206616 Si / 1000 Ang^3
#
#
#
# Elastic Constant Matrix: (Units=GPa)
#
#
# Indices 1 2 3 4 5 6 
#
# 1 108.4014 37.7083 45.0891 0.0000 20.6716 0.0000
# 2 37.7083 102.6290 20.5277 0.0000 -3.2923 0.0000
# 3 45.0891 20.5277 92.2128 0.0000 11.4170 0.0000
# 4 0.0000 0.0000 0.0000 25.0690 0.0000 1.2071
# 5 20.6716 -3.2923 11.4170 0.0000 41.9997 0.0000
# 6 0.0000 0.0000 0.0000 1.2071 0.0000 14.0324
#
#
#
# Elastic Compliance Matrix: (Units=1/GPa)
#
#
# Indices 1 2 3 4 5 6 
#
# 1 0.013969 -0.004288 -0.005157 0.000000 -0.005810 0.000000
# 2 -0.004288 0.011602 -0.000890 0.000000 0.003262 0.000000
# 3 -0.005157 -0.000890 0.013720 0.000000 -0.001261 0.000000
# 4 0.000000 0.000000 0.000000 0.040056 0.000000 -0.003446
# 5 -0.005810 0.003262 -0.001261 0.000000 0.027268 0.000000
# 6 0.000000 0.000000 0.000000 -0.003446 0.000000 0.071560
#
#
# Mechanical properties :
#
#
# Convention : Reuss Voigt Hill
#
# Bulk Modulus (GPa) = 53.69809 56.65484 55.17646
# Shear Modulus (GPa) = 24.38411 29.54808 26.96609
#
# Velocity S-wave (km/s) = 3.56697 3.92654 3.75106
# Velocity P-wave (km/s) = 6.70695 7.07945 6.89571
#
# Compressibility (1/GPa) = 0.01862264
#
# Stress axis : x y z
#
# Youngs Moduli (GPa) = 71.58580 86.19321 72.88484
#
# Poissons Ratio (x) = 0.36956 0.37585
# Poissons Ratio (y) = 0.30693 0.06487
# Poissons Ratio (z) = 0.36915 0.07672
#
# Static dielectric constant tensor:
#      x y z
#    x 3.496700 0.000000 0.082270 
#    y 0.000000 2.997220 0.000000 
#    z 0.082270 0.000000 3.533280 
# 
# 
# High freq. dielectric constant tensor:
#      x y z
#    x 1.751170 0.000000 0.006190 
#    y 0.000000 1.705580 0.000000 
#    z 0.006190 0.000000 1.752640 
# 
# From -- ./inp_files/2075.got.cif
#   From: 2010.03.12/outbox.cif.g09.slc.cpg/sg6_2_cif.got.tgz:2075.got - 2010.03.30 10:24:59.
