data_PCOD8052273
_publ_section_title
;
Structure prediction by ZEFSAII (Michael W. Deem and Ramdas Pophale) SiO2 
 PCOD8052273
Probable space group: P M
;
_chemical_formula_sum "Si O2"
_cell_formula_units_Z 16
_cell_length_a 10.268010
_cell_length_b 8.932913
_cell_length_c 12.142095
_cell_angle_alpha 90.000000
_cell_angle_beta 127.567507
_cell_angle_gamma 90.000000
_cell_volume 882.767940
_symmetry_space_group_name_H-M "P M"
_symmetry_group_IT_number 6
_symmetry_cell_setting 'monoclinic'
loop_
_space_group_symop_operation_xyz
x,y,z
x,-y,z
loop_
_atom_site_type_symbol
_atom_site_label
_atom_site_fract_x
_atom_site_fract_y
_atom_site_fract_z
Si Si1 0.566010 0.322605 0.662050
Si Si2 0.854918 0.675301 0.653367
Si Si3 0.541777 0.674694 0.066457
Si Si4 0.694453 0.176660 0.938299
Si Si5 0.366886 0.827628 0.382138
Si Si6 0.178146 0.677563 0.925641
Si Si7 0.064586 0.827606 0.086116
Si Si8 0.613359 0.673828 0.350026
O O1 0.555337 0.500000 0.666475
O O2 0.725469 0.264675 0.677046
O O3 0.573792 0.252697 0.787333
O O4 0.405786 0.264494 0.513545
O O5 0.867866 0.500000 0.676482
O O6 0.788970 0.715720 0.497256
O O7 0.036075 0.742130 0.770458
O O8 0.551253 0.500000 0.040176
O O9 0.626367 0.706395 0.227784
O O10 0.641000 0.771841 0.031057
O O11 0.353913 0.733406 0.972498
O O12 0.677805 0.000000 0.920152
O O13 0.881506 0.230668 0.016784
O O14 0.174961 0.806631 0.252854
O O15 0.470911 0.770999 0.331269
O O16 0.410775 0.000000 0.426030
O O17 0.181015 0.500000 0.932310
O O18 0.145067 0.732344 0.031131
O O19 0.061973 0.000000 0.047629
O O20 0.570642 0.500000 0.351199
#
# Coordination Sequence:
#
# PCOD8052273 Si02
#       8
#     2   2   2   2   2   2   2   2
#     4  10  19  34  56  81 109 140 180 225 274 325
#     4   8  15  28  51  80 105 131 166 220 271 310
#     4  10  21  35  53  77 109 147 185 224 269 322
#     4  11  23  38  55  77 111 151 186 222 271 328
#     4  10  19  32  53  81 112 141 175 223 275 323
#     4  10  18  32  55  81 107 138 179 227 271 315
#     4  10  21  35  53  80 111 143 183 226 267 321
#     4   9  17  32  52  77 108 139 178 221 266 318
#
# _framework density 18.124808000000002
#
# number of rings (size 3 to 8) (size 9 to 14) (size 15 to 20)
#    0.000    2.250    2.500    1.875    0.000    2.000 
#    0.000    1.250    0.000    1.500    0.000    0.000 
#    0.000    0.000    0.000    0.000    0.000    0.000 
#
# Total GULP energy -198368.697672 kJ/mol
# GULP energy per Si atom -12398.043605 kJ/mol
# Density = 1.808356 g / cm^3
# Si number density = 18.124808 Si / 1000 Ang^3
#
#
#
# Elastic Constant Matrix: (Units=GPa)
#
#
# Indices 1 2 3 4 5 6 
#
# 1 69.3948 28.4072 38.5471 0.0000 -1.8204 0.0000
# 2 28.4072 60.8174 36.1772 0.0000 -4.0528 0.0000
# 3 38.5471 36.1772 134.4941 0.0000 1.6354 0.0000
# 4 0.0000 0.0000 0.0000 20.5039 0.0000 -0.2910
# 5 -1.8204 -4.0528 1.6354 0.0000 26.7110 0.0000
# 6 0.0000 0.0000 0.0000 -0.2910 0.0000 21.3248
#
#
#
# Elastic Compliance Matrix: (Units=1/GPa)
#
#
# Indices 1 2 3 4 5 6 
#
# 1 0.019246 -0.006751 -0.003707 0.000000 0.000514 0.000000
# 2 -0.006751 0.022237 -0.004085 0.000000 0.003164 0.000000
# 3 -0.003707 -0.004085 0.009614 0.000000 -0.001461 0.000000
# 4 0.000000 0.000000 0.000000 0.048781 0.000000 0.000666
# 5 0.000514 0.003164 -0.001461 0.000000 0.038042 0.000000
# 6 0.000000 0.000000 0.000000 0.000666 0.000000 0.046903
#
#
# Mechanical properties :
#
#
# Convention : Reuss Voigt Hill
#
# Bulk Modulus (GPa) = 45.42857 52.32992 48.87924
# Shear Modulus (GPa) = 22.59943 24.47959 23.53951
#
# Velocity S-wave (km/s) = 3.53495 3.67905 3.60772
# Velocity P-wave (km/s) = 6.46373 6.85434 6.66190
#
# Compressibility (1/GPa) = 0.02201258
#
# Stress axis : x y z
#
# Youngs Moduli (GPa) = 51.95873 44.97081 104.01300
#
# Poissons Ratio (x) = 0.30358 0.38553
# Poissons Ratio (y) = 0.35075 0.42490
# Poissons Ratio (z) = 0.19259 0.18371
#
# Static dielectric constant tensor:
#      x y z
#    x 3.165880 0.000000 0.270890 
#    y 0.000000 3.202350 0.000000 
#    z 0.270890 0.000000 3.747910 
# 
# 
# High freq. dielectric constant tensor:
#      x y z
#    x 1.667760 0.000000 0.010190 
#    y 0.000000 1.691860 0.000000 
#    z 0.010190 0.000000 1.722420 
# 
# From -- ./inp_files/3789.got.cif
#   From: 2010.03.12/outbox.cif.g09.slc.cpg/sg6_2_cif.got.tgz:3789.got - 2010.03.30 10:24:59.
