data_PCOD8052029
_publ_section_title
;
Structure prediction by ZEFSAII (Michael W. Deem and Ramdas Pophale) SiO2 
 PCOD8052029
Probable space group: C 2
;
_chemical_formula_sum "Si O2"
_cell_formula_units_Z 20
_cell_length_a 11.162492
_cell_length_b 9.487967
_cell_length_c 16.696005
_cell_angle_alpha 90.000000
_cell_angle_beta 154.187879
_cell_angle_gamma 90.000000
_cell_volume 769.939880
_symmetry_space_group_name_H-M "C 2"
_symmetry_group_IT_number 5
_symmetry_cell_setting 'monoclinic'
loop_
_space_group_symop_operation_xyz
x,y,z
-x,y,-z
1/2+x,1/2+y,z
1/2-x,1/2+y,-z
loop_
_atom_site_type_symbol
_atom_site_label
_atom_site_fract_x
_atom_site_fract_y
_atom_site_fract_z
Si Si1 0.353634 0.015220 0.833574
Si Si2 0.225456 0.475948 0.904463
Si Si3 0.829958 0.951465 0.707443
Si Si4 0.083758 0.750388 0.735283
Si Si5 0.962896 0.197865 0.677206
O O1 0.523795 0.020970 0.855105
O O2 0.084327 0.117382 0.670231
O O3 0.500000 0.082525 0.000000
O O4 0.299169 0.851025 0.819735
O O5 0.231664 0.604478 0.845741
O O6 0.118279 0.340257 0.793049
O O7 0.539263 0.444598 0.124068
O O8 0.500000 0.948497 0.500000
O O9 0.963784 0.092902 0.752840
O O10 0.955091 0.818734 0.736929
O O11 0.852017 0.728908 0.529753
#
# Coordination Sequence:
#
# PCOD8052029 Si02
#       5
#     4   4   4   4   4
#     4  11  25  46  74 104 145 189 248 292 367 440
#     4  12  25  50  77 100 153 198 232 311 367 417
#     4  11  26  45  70 107 143 186 244 301 362 427
#     4  11  26  46  71 110 143 190 248 294 363 442
#     4  11  26  46  71 110 143 190 248 294 363 442
#
# _framework density 25.976053
#
# number of rings (size 3 to 8) (size 9 to 14) (size 15 to 20)
#    0.000    0.800    4.000    3.600    5.600    1.600 
#    0.000    3.000    0.000    0.000    0.000    0.000 
#    0.000    0.000    0.000    0.000    0.000    0.000 
#
# Total GULP energy -123968.283885 kJ/mol
# GULP energy per Si atom -12396.828388 kJ/mol
# Density = 2.591693 g / cm^3
# Si number density = 25.976053 Si / 1000 Ang^3
#
#
#
# Elastic Constant Matrix: (Units=GPa)
#
#
# Indices 1 2 3 4 5 6 
#
# 1 72.4194 14.7306 6.1536 -0.0090 17.6550 -0.0002
# 2 14.7306 126.3210 22.0137 0.0330 -16.2895 0.0033
# 3 6.1536 22.0137 148.6498 0.0796 -11.2408 -0.0070
# 4 -0.0090 0.0330 0.0796 41.8657 0.0040 -3.0757
# 5 17.6550 -16.2895 -11.2408 0.0040 36.6328 -0.0058
# 6 -0.0002 0.0033 -0.0070 -3.0757 -0.0058 10.6111
#
#
#
# Elastic Compliance Matrix: (Units=1/GPa)
#
#
# Indices 1 2 3 4 5 6 
#
# 1 0.016909 -0.003065 -0.000988 0.000009 -0.009815 -0.000002
# 2 -0.003065 0.009097 -0.000822 -0.000007 0.005270 -0.000003
# 3 -0.000988 -0.000822 0.007062 -0.000013 0.002278 0.000002
# 4 0.000009 -0.000007 -0.000013 0.024406 -0.000013 0.007074
# 5 -0.009815 0.005270 0.002278 -0.000013 0.035071 0.000015
# 6 -0.000002 -0.000003 0.000002 0.007074 0.000015 0.096292
#
#
# Mechanical properties :
#
#
# Convention : Reuss Voigt Hill
#
# Bulk Modulus (GPa) = 42.88723 48.13180 45.50952
# Shear Modulus (GPa) = 24.22967 38.12140 31.17553
#
# Velocity S-wave (km/s) = 3.05744 3.83503 3.46810
# Velocity P-wave (km/s) = 5.38610 6.17895 5.79610
#
# Compressibility (1/GPa) = 0.02331696
#
# Stress axis : x y z
#
# Youngs Moduli (GPa) = 59.14075 109.93126 141.60138
#
# Poissons Ratio (x) = 0.33697 0.13994
# Poissons Ratio (y) = 0.18128 0.11635
# Poissons Ratio (z) = 0.05845 0.09033
#
# Static dielectric constant tensor:
#      x y z
#    x 4.548380 -0.000010 0.169840 
#    y -0.000010 4.988060 0.000030 
#    z 0.169840 0.000030 5.764120 
# 
# 
# High freq. dielectric constant tensor:
#      x y z
#    x 2.037810 0.000000 0.012720 
#    y 0.000000 2.056940 0.000000 
#    z 0.012720 0.000000 2.052030 
# 
# From -- ./inp_files/60324.got.cif
#   From: 2010.03.12/outbox.cif.g09.slc.cpg/sg5_31_cif.got.tgz:60324.got - 2010.03.31 09:47:26.
