data_PCOD8052791
_publ_section_title
;
Structure prediction by ZEFSAII (Michael W. Deem and Ramdas Pophale) SiO2 
 PCOD8052791
Probable space group: C M
;
_chemical_formula_sum "Si O2"
_cell_formula_units_Z 26
_cell_length_a 19.273373
_cell_length_b 7.708860
_cell_length_c 34.085384
_cell_angle_alpha 90.000000
_cell_angle_beta 163.020845
_cell_angle_gamma 90.000000
_cell_volume 1478.884568
_symmetry_space_group_name_H-M "C M"
_symmetry_group_IT_number 8
_symmetry_cell_setting 'monoclinic'
loop_
_space_group_symop_operation_xyz
x,y,z
x,-y,z
1/2+x,1/2+y,z
1/2+x,1/2-y,z
loop_
_atom_site_type_symbol
_atom_site_label
_atom_site_fract_x
_atom_site_fract_y
_atom_site_fract_z
Si Si1 0.558150 0.298746 0.539350
Si Si2 0.778701 0.304638 0.224837
Si Si3 0.704947 0.500000 0.813094
Si Si4 0.996347 0.801658 0.418606
Si Si5 0.014304 0.692079 0.667476
Si Si6 0.443464 0.000000 0.019336
Si Si7 0.418466 0.500000 0.731519
Si Si8 0.281220 0.700343 0.466253
O O1 0.644801 0.500000 0.586859
O O2 0.444995 0.250454 0.435970
O O3 0.779156 0.174270 0.668513
O O4 0.352432 0.264861 0.459914
O O5 0.708324 0.500000 0.173794
O O6 0.832781 0.309116 0.300772
O O7 0.012042 0.235028 0.327791
O O8 0.566526 0.175295 0.100341
O O9 0.709888 0.329726 0.788085
O O10 0.931918 0.500000 0.965188
O O11 0.464450 0.500000 0.709478
O O12 0.272143 0.767447 0.559455
O O13 0.929736 0.000000 0.374446
O O14 0.110395 0.500000 0.729257
O O15 0.966717 0.703189 0.595115
O O16 0.175315 0.000000 0.892155
O O17 0.294296 0.500000 0.485014
#
# Coordination Sequence:
#
# PCOD8052791 Si02
#       8
#     4   4   2   4   4   2   2   4
#     4  10  20  33  52  86 111 136 166 218 278 315
#     4  10  20  33  54  78 105 140 176 218 259 309
#     4  10  20  34  52  73 105 133 176 228 247 306
#     4   9  16  29  50  75 108 129 166 215 264 307
#     4  10  18  30  51  80 104 133 169 215 270 310
#     4  10  22  37  51  77 101 144 183 217 250 299
#     4  10  22  33  55  76 106 141 177 215 257 317
#     4   9  19  33  53  84 115 133 165 220 275 320
#
# _framework density 17.580817
#
# number of rings (size 3 to 8) (size 9 to 14) (size 15 to 20)
#    0.462    1.846    3.077    0.000    4.308    1.231 
#    0.000    0.000    0.000    1.846    0.000    0.000 
#    0.000    0.000    0.000    0.000    0.000    0.000 
#
# Total GULP energy -161138.103371 kJ/mol
# GULP energy per Si atom -12395.238721 kJ/mol
# Density = 1.754080 g / cm^3
# Si number density = 17.580817 Si / 1000 Ang^3
#
#
#
# Elastic Constant Matrix: (Units=GPa)
#
#
# Indices 1 2 3 4 5 6 
#
# 1 106.6903 25.0921 36.2233 0.0208 -11.6716 0.0076
# 2 25.0921 108.7878 59.0261 0.0204 -6.6010 0.0258
# 3 36.2233 59.0261 92.4306 0.0551 -6.8377 0.0529
# 4 0.0208 0.0204 0.0551 25.9660 0.0433 -1.5068
# 5 -11.6716 -6.6010 -6.8377 0.0433 19.8228 0.0265
# 6 0.0076 0.0258 0.0529 -1.5068 0.0265 21.4659
#
#
#
# Elastic Compliance Matrix: (Units=1/GPa)
#
#
# Indices 1 2 3 4 5 6 
#
# 1 0.011325 -0.000147 -0.003956 -0.000009 0.005255 -0.000001
# 2 -0.000147 0.014119 -0.008843 0.000005 0.001565 0.000003
# 3 -0.003956 -0.008843 0.018088 -0.000032 0.000966 -0.000036
# 4 -0.000009 0.000005 -0.000032 0.038670 -0.000103 0.002715
# 5 0.005255 0.001565 0.000966 -0.000103 0.054396 -0.000080
# 6 -0.000001 0.000003 -0.000036 0.002715 -0.000080 0.046776
#
#
# Mechanical properties :
#
#
# Convention : Reuss Voigt Hill
#
# Bulk Modulus (GPa) = 56.68738 60.95463 58.82100
# Shear Modulus (GPa) = 23.24004 25.95542 24.59773
#
# Velocity S-wave (km/s) = 3.63974 3.84650 3.74454
# Velocity P-wave (km/s) = 7.06947 7.38063 7.22673
#
# Compressibility (1/GPa) = 0.01764061
#
# Stress axis : x y z
#
# Youngs Moduli (GPa) = 88.29685 70.82579 55.28580
#
# Poissons Ratio (x) = 0.01042 0.21870
# Poissons Ratio (y) = 0.01299 0.48890
# Poissons Ratio (z) = 0.34928 0.62632
#
# Static dielectric constant tensor:
#      x y z
#    x 3.211720 -0.000010 -0.143660 
#    y -0.000010 3.334530 -0.000010 
#    z -0.143660 -0.000010 2.876740 
# 
# 
# High freq. dielectric constant tensor:
#      x y z
#    x 1.665280 0.000000 -0.021750 
#    y 0.000000 1.695280 0.000000 
#    z -0.021750 0.000000 1.636060 
# 
# From -- ./inp_files/23632.got.cif
#   From: 2010.03.12/outbox.cif.g09.slc.cpg/sg8_12_cif.got.tgz:23632.got - 2010.03.31 10:45:26.
