data_PCOD8052781
_publ_section_title
;
Structure prediction by ZEFSAII (Michael W. Deem and Ramdas Pophale) SiO2 
 PCOD8052781
Probable space group: C M
;
_chemical_formula_sum "Si O2"
_cell_formula_units_Z 32
_cell_length_a 22.869887
_cell_length_b 8.981116
_cell_length_c 12.384584
_cell_angle_alpha 90.000000
_cell_angle_beta 132.540439
_cell_angle_gamma 90.000000
_cell_volume 1874.241530
_symmetry_space_group_name_H-M "C M"
_symmetry_group_IT_number 8
_symmetry_cell_setting 'monoclinic'
loop_
_space_group_symop_operation_xyz
x,y,z
x,-y,z
1/2+x,1/2+y,z
1/2+x,1/2-y,z
loop_
_atom_site_type_symbol
_atom_site_label
_atom_site_fract_x
_atom_site_fract_y
_atom_site_fract_z
Si Si1 0.454350 0.829066 0.466190
Si Si2 0.623908 0.827094 0.048716
Si Si3 0.334992 0.671579 0.598947
Si Si4 0.203412 0.170530 0.514608
Si Si5 0.781008 0.328914 0.315556
Si Si6 0.536449 0.328457 0.372173
Si Si7 0.084035 0.673486 0.233601
Si Si8 0.506251 0.672198 0.747656
O O1 0.359522 0.813738 0.339367
O O2 0.488880 0.763402 0.399592
O O3 0.491106 0.739774 0.611623
O O4 0.480409 0.000000 0.510867
O O5 0.711434 0.760747 0.170150
O O6 0.569499 0.802644 0.088066
O O7 0.633445 0.000000 0.034952
O O8 0.581099 0.750248 0.895120
O O9 0.313281 0.500000 0.555704
O O10 0.286211 0.740426 0.641676
O O11 0.304859 0.765381 0.460492
O O12 0.429352 0.693813 0.729150
O O13 0.132675 0.184675 0.515589
O O14 0.169806 0.250166 0.363327
O O15 0.224178 0.000000 0.517990
O O16 0.754861 0.500000 0.295706
O O17 0.509202 0.500000 0.338162
O O18 0.520076 0.257633 0.231698
O O19 0.085810 0.500000 0.266713
O O20 0.526326 0.500000 0.756481
#
# Coordination Sequence:
#
# PCOD8052781 Si02
#       8
#     4   4   4   4   4   4   4   4
#     4  10  20  34  52  75 101 133 171 210 250 295
#     4  11  21  33  51  76 104 135 168 203 252 307
#     4  10  18  30  48  73 100 130 166 206 251 297
#     4   9  17  27  46  74  99 126 158 202 247 290
#     4  10  19  30  49  73  98 129 166 209 252 295
#     4   9  18  30  48  75 101 129 167 209 250 293
#     4   9  17  29  48  74 100 127 161 206 248 293
#     4  10  22  35  50  72 105 139 167 205 252 302
#
# _framework density 17.073573
#
# number of rings (size 3 to 8) (size 9 to 14) (size 15 to 20)
#    0.750    1.500    1.250    2.625    0.000    4.500 
#    0.000    0.000    0.000    1.500    0.000    5.250 
#    0.000    0.000    0.000    0.000    0.000    0.000 
#
# Total GULP energy -198214.854169 kJ/mol
# GULP energy per Si atom -12388.428386 kJ/mol
# Density = 1.703471 g / cm^3
# Si number density = 17.073573 Si / 1000 Ang^3
#
#
#
# Elastic Constant Matrix: (Units=GPa)
#
#
# Indices 1 2 3 4 5 6 
#
# 1 81.3855 45.0880 23.9068 0.0000 3.3000 0.0000
# 2 45.0880 135.5854 47.6963 0.0000 5.5765 0.0000
# 3 23.9068 47.6963 73.2482 0.0000 4.5785 0.0000
# 4 0.0000 0.0000 0.0000 20.4872 0.0000 3.4665
# 5 3.3000 5.5765 4.5785 0.0000 14.8124 0.0000
# 6 0.0000 0.0000 0.0000 3.4665 0.0000 30.8050
#
#
#
# Elastic Compliance Matrix: (Units=1/GPa)
#
#
# Indices 1 2 3 4 5 6 
#
# 1 0.015345 -0.004306 -0.002134 0.000000 -0.001138 0.000000
# 2 -0.004306 0.010818 -0.005551 0.000000 -0.001397 0.000000
# 3 -0.002134 -0.005551 0.018154 0.000000 -0.003046 0.000000
# 4 0.000000 0.000000 0.000000 0.049758 0.000000 -0.005599
# 5 -0.001138 -0.001397 -0.003046 0.000000 0.069232 0.000000
# 6 0.000000 0.000000 0.000000 -0.005599 0.000000 0.033092
#
#
# Mechanical properties :
#
#
# Convention : Reuss Voigt Hill
#
# Bulk Modulus (GPa) = 49.17492 58.17793 53.67643
# Shear Modulus (GPa) = 22.01097 24.78946 23.40021
#
# Velocity S-wave (km/s) = 3.59442 3.81454 3.70611
# Velocity P-wave (km/s) = 6.78902 7.31777 7.05835
#
# Compressibility (1/GPa) = 0.02033557
#
# Stress axis : x y z
#
# Youngs Moduli (GPa) = 65.16591 92.44229 55.08489
#
# Poissons Ratio (x) = 0.39802 0.11753
# Poissons Ratio (y) = 0.28058 0.30580
# Poissons Ratio (z) = 0.13904 0.51318
#
# Static dielectric constant tensor:
#      x y z
#    x 3.279280 0.000000 0.242110 
#    y 0.000000 3.361160 0.000000 
#    z 0.242110 0.000000 2.828370 
# 
# 
# High freq. dielectric constant tensor:
#      x y z
#    x 1.655320 0.000000 0.017300 
#    y 0.000000 1.684030 0.000000 
#    z 0.017300 0.000000 1.609380 
# 
# From -- ./inp_files/28293.got.cif
#   From: 2010.03.12/outbox.cif.g09.slc.cpg/sg8_15_cif.got.tgz:28293.got - 2010.03.31 10:45:26.
