data_PCOD8052670
_publ_section_title
;
Structure prediction by ZEFSAII (Michael W. Deem and Ramdas Pophale) SiO2 
 PCOD8052670
Probable space group: P C
;
_chemical_formula_sum "Si O2"
_cell_formula_units_Z 14
_cell_length_a 6.999408
_cell_length_b 19.973930
_cell_length_c 5.130998
_cell_angle_alpha 90.000000
_cell_angle_beta 65.841157
_cell_angle_gamma 90.000000
_cell_volume 654.513758
_symmetry_space_group_name_H-M "P C"
_symmetry_group_IT_number 7
_symmetry_cell_setting 'monoclinic'
loop_
_space_group_symop_operation_xyz
x,y,z
x,-y,1/2+z
loop_
_atom_site_type_symbol
_atom_site_label
_atom_site_fract_x
_atom_site_fract_y
_atom_site_fract_z
Si Si1 0.468780 0.543605 0.894790
Si Si2 0.312831 0.124548 0.730495
Si Si3 0.113941 0.350006 0.522645
Si Si4 0.823535 0.650656 0.686903
Si Si5 0.466164 0.755464 0.875641
Si Si6 0.518726 0.108736 0.122989
Si Si7 0.940631 0.042522 0.035488
O O1 0.471808 0.483486 0.687152
O O2 0.677242 0.586401 0.725089
O O3 0.253354 0.584356 0.989171
O O4 0.374612 0.203362 0.677795
O O5 0.340149 0.089082 0.433429
O O6 0.075139 0.110920 0.941816
O O7 0.462605 0.088475 0.860572
O O8 0.272998 0.288796 0.379779
O O9 0.974488 0.360842 0.346111
O O10 0.962940 0.336464 0.852810
O O11 0.669575 0.712561 0.837967
O O12 0.542768 0.809926 0.618653
O O13 0.709628 0.067420 0.123343
O O14 0.989030 0.987249 0.790969
#
# Coordination Sequence:
#
# PCOD8052670 Si02
#       7
#     2   2   2   2   2   2   2
#     4  11  24  44  66  94 132 167 216 254 304 375
#     4  10  24  42  65  90 123 165 206 254 316 371
#     4  11  25  41  66  96 129 166 208 265 310 364
#     4  11  25  41  66  96 129 166 208 265 310 364
#     4   9  26  40  66  92 128 163 212 256 318 373
#     4  10  24  42  65  90 123 165 206 254 316 371
#     4  12  26  42  64  94 124 162 212 258 312 378
#
# _framework density 21.389925000000002
#
# number of rings (size 3 to 8) (size 9 to 14) (size 15 to 20)
#    0.857    0.571    0.000    3.429    6.000    9.143 
#    0.000    0.000    0.000    0.000    0.000    0.000 
#    0.000    0.000    0.000    0.000    0.000    0.000 
#
# Total GULP energy -173476.430681 kJ/mol
# GULP energy per Si atom -12391.173620 kJ/mol
# Density = 2.134124 g / cm^3
# Si number density = 21.389925 Si / 1000 Ang^3
#
#
#
# Elastic Constant Matrix: (Units=GPa)
#
#
# Indices 1 2 3 4 5 6 
#
# 1 102.3448 18.4226 19.8593 0.0000 8.2279 0.0000
# 2 18.4226 70.5849 26.6760 0.0000 -11.4568 0.0000
# 3 19.8593 26.6760 75.8859 0.0000 11.9552 0.0000
# 4 0.0000 0.0000 0.0000 36.9851 0.0000 -4.7327
# 5 8.2279 -11.4568 11.9552 0.0000 38.8943 0.0000
# 6 0.0000 0.0000 0.0000 -4.7327 0.0000 27.5868
#
#
#
# Elastic Compliance Matrix: (Units=1/GPa)
#
#
# Indices 1 2 3 4 5 6 
#
# 1 0.010746 -0.002677 -0.001459 0.000000 -0.002613 0.000000
# 2 -0.002677 0.018988 -0.007298 0.000000 0.008403 0.000000
# 3 -0.001459 -0.007298 0.017250 0.000000 -0.007143 0.000000
# 4 0.000000 0.000000 0.000000 0.027645 0.000000 0.004743
# 5 -0.002613 0.008403 -0.007143 0.000000 0.030934 0.000000
# 6 0.000000 0.000000 0.000000 0.004743 0.000000 0.037063
#
#
# Mechanical properties :
#
#
# Convention : Reuss Voigt Hill
#
# Bulk Modulus (GPa) = 41.46759 42.08126 41.77442
# Shear Modulus (GPa) = 28.81269 32.95041 30.88155
#
# Velocity S-wave (km/s) = 3.67416 3.92913 3.80378
# Velocity P-wave (km/s) = 6.11783 6.34825 6.23410
#
# Compressibility (1/GPa) = 0.02411522
#
# Stress axis : x y z
#
# Youngs Moduli (GPa) = 93.05689 52.66446 57.96959
#
# Poissons Ratio (x) = 0.14100 0.08460
# Poissons Ratio (y) = 0.24915 0.42306
# Poissons Ratio (z) = 0.13580 0.38434
#
# Static dielectric constant tensor:
#      x y z
#    x 3.862450 0.000000 -0.007700 
#    y 0.000000 3.955940 0.000000 
#    z -0.007700 0.000000 3.969280 
# 
# 
# High freq. dielectric constant tensor:
#      x y z
#    x 1.848760 0.000000 -0.001570 
#    y 0.000000 1.838360 0.000000 
#    z -0.001570 0.000000 1.844530 
# 
# From -- ./inp_files/296.got.cif
#   From: 2010.03.12/outbox.cif.g09.slc.cpg/sg7_cif.got.tgz:296.got - 2010.03.30 08:40:41.
