data_PCOD8052159
_publ_section_title
;
Structure prediction by ZEFSAII (Michael W. Deem and Ramdas Pophale) SiO2 
 PCOD8052159
Probable space group: C 2
;
_chemical_formula_sum "Si O2"
_cell_formula_units_Z 20
_cell_length_a 14.623687
_cell_length_b 5.034874
_cell_length_c 21.697027
_cell_angle_alpha 90.000000
_cell_angle_beta 150.645950
_cell_angle_gamma 90.000000
_cell_volume 783.111078
_symmetry_space_group_name_H-M "C 2"
_symmetry_group_IT_number 5
_symmetry_cell_setting 'monoclinic'
loop_
_space_group_symop_operation_xyz
x,y,z
-x,y,-z
1/2+x,1/2+y,z
1/2-x,1/2+y,-z
loop_
_atom_site_type_symbol
_atom_site_label
_atom_site_fract_x
_atom_site_fract_y
_atom_site_fract_z
Si Si1 0.379796 0.880850 0.806041
Si Si2 0.561466 0.365748 0.967997
Si Si3 0.637004 0.235506 0.388512
Si Si4 0.033052 0.932004 0.450050
Si Si5 0.479218 0.754384 0.237605
O O1 0.491566 0.664261 0.912451
O O2 0.372383 0.796637 0.730276
O O3 0.472794 0.168198 0.866320
O O4 0.166137 0.933317 0.701736
O O5 0.500000 0.283349 0.000000
O O6 0.779728 0.309635 0.089585
O O7 0.663283 0.257147 0.479138
O O8 0.511949 0.465549 0.284992
O O9 0.844394 0.206926 0.478051
O O10 0.511176 0.974186 0.308005
O O11 0.000000 0.826073 0.500000
#
# Coordination Sequence:
#
# PCOD8052159 Si02
#       5
#     4   4   4   4   4
#     4  12  26  47  74 114 149 210 260 320 400 469
#     4  12  25  46  76 111 153 200 261 327 394 473
#     4  12  27  51  76 116 153 209 261 326 392 476
#     4  12  28  53  78 116 160 214 266 330 395 476
#     4  12  25  50  77 112 156 201 264 327 397 473
#
# _framework density 25.539164
#
# number of rings (size 3 to 8) (size 9 to 14) (size 15 to 20)
#    0.000    0.000    2.000    7.800    0.000    3.200 
#    0.000    0.000    0.000    0.000    0.000    0.000 
#    0.000    0.000    0.000    0.000    0.000    0.000 
#
# Total GULP energy -123924.193365 kJ/mol
# GULP energy per Si atom -12392.419337 kJ/mol
# Density = 2.548104 g / cm^3
# Si number density = 25.539164 Si / 1000 Ang^3
#
#
#
# Elastic Constant Matrix: (Units=GPa)
#
#
# Indices 1 2 3 4 5 6 
#
# 1 150.2747 15.8724 23.1641 0.0080 -10.6303 -0.0192
# 2 15.8724 120.0824 59.0889 0.0094 0.9619 -0.0242
# 3 23.1641 59.0889 152.2275 -0.0003 32.2441 -0.0011
# 4 0.0080 0.0094 -0.0003 42.9565 0.0001 -2.9692
# 5 -10.6303 0.9619 32.2441 0.0001 50.6869 -0.0003
# 6 -0.0192 -0.0242 -0.0011 -2.9692 -0.0003 37.5306
#
#
#
# Elastic Compliance Matrix: (Units=1/GPa)
#
#
# Indices 1 2 3 4 5 6 
#
# 1 0.007084 -0.000210 -0.001516 -0.000001 0.002454 0.000003
# 2 -0.000210 0.010633 -0.004673 -0.000002 0.002727 0.000006
# 3 -0.001516 -0.004673 0.010011 0.000001 -0.006598 -0.000003
# 4 -0.000001 -0.000002 0.000001 0.023407 -0.000001 0.001852
# 5 0.002454 0.002727 -0.006598 -0.000001 0.024389 0.000003
# 6 0.000003 0.000006 -0.000003 0.001852 0.000003 0.026791
#
#
# Mechanical properties :
#
#
# Convention : Reuss Voigt Hill
#
# Bulk Modulus (GPa) = 66.97992 68.75949 67.86971
# Shear Modulus (GPa) = 41.63507 47.86544 44.75025
#
# Velocity S-wave (km/s) = 4.04201 4.33390 4.19049
# Velocity P-wave (km/s) = 6.93304 7.21285 7.07433
#
# Compressibility (1/GPa) = 0.01492985
#
# Stress axis : x y z
#
# Youngs Moduli (GPa) = 141.16322 94.04743 99.88756
#
# Poissons Ratio (x) = 0.01974 0.15146
# Poissons Ratio (y) = 0.02963 0.46677
# Poissons Ratio (z) = 0.21405 0.43948
#
# Static dielectric constant tensor:
#      x y z
#    x 4.682840 0.000000 0.205640 
#    y 0.000000 4.527020 -0.000010 
#    z 0.205640 -0.000010 4.974800 
# 
# 
# High freq. dielectric constant tensor:
#      x y z
#    x 2.026970 0.000000 0.002360 
#    y 0.000000 2.011430 0.000000 
#    z 0.002360 0.000000 2.051300 
# 
# From -- ./inp_files/45556.got.cif
#   From: 2010.03.12/outbox.cif.g09.slc.cpg/sg5_23_cif.got.tgz:45556.got - 2010.03.31 09:47:26.
