data_PCOD8052111
_publ_section_title
;
Structure prediction by ZEFSAII (Michael W. Deem and Ramdas Pophale) SiO2 
 PCOD8052111
Probable space group: C 2
;
_chemical_formula_sum "Si O2"
_cell_formula_units_Z 22
_cell_length_a 17.941176
_cell_length_b 5.084163
_cell_length_c 11.413534
_cell_angle_alpha 90.000000
_cell_angle_beta 114.194674
_cell_angle_gamma 90.000000
_cell_volume 949.643684
_symmetry_space_group_name_H-M "C 2"
_symmetry_group_IT_number 5
_symmetry_cell_setting 'monoclinic'
loop_
_space_group_symop_operation_xyz
x,y,z
-x,y,-z
1/2+x,1/2+y,z
1/2-x,1/2+y,-z
loop_
_atom_site_type_symbol
_atom_site_label
_atom_site_fract_x
_atom_site_fract_y
_atom_site_fract_z
Si Si1 0.500000 0.251621 0.000000
Si Si2 0.593825 0.617243 0.880736
Si Si3 0.430125 0.865022 0.785010
Si Si4 0.702524 0.625569 0.738584
Si Si5 0.301133 0.826265 0.512631
Si Si6 0.805380 0.131341 0.846236
O O1 0.551238 0.394528 0.931319
O O2 0.430463 0.082387 0.887750
O O3 0.523856 0.828595 0.806688
O O4 0.629904 0.533242 0.778258
O O5 0.669957 0.724943 0.006494
O O6 0.377354 0.937314 0.636584
O O7 0.389258 0.604979 0.821672
O O8 0.666191 0.721959 0.591386
O O9 0.757340 0.368732 0.750938
O O10 0.755317 0.863912 0.825382
O O11 0.258468 0.574987 0.548333
#
# Coordination Sequence:
#
# PCOD8052111 Si02
#       6
#     2   4   4   4   4   4
#     4  12  24  46  74 112 154 190 250 302 390 428
#     4  12  27  43  74 113 149 189 245 317 367 439
#     4  12  25  43  78 104 146 201 245 301 372 450
#     4  12  27  46  75 108 148 192 249 300 367 434
#     4  12  26  48  75 106 145 197 248 298 368 449
#     4  12  23  47  72 109 144 193 241 303 367 441
#
# _framework density 23.166581999999998
#
# number of rings (size 3 to 8) (size 9 to 14) (size 15 to 20)
#    0.000    0.000    7.273    2.182    5.091    0.727 
#    0.000    0.000    0.000    0.000    0.000    0.000 
#    0.000    0.000    0.000    0.000    0.000    0.000 
#
# Total GULP energy -136326.299532 kJ/mol
# GULP energy per Si atom -12393.299957 kJ/mol
# Density = 2.311385 g / cm^3
# Si number density = 23.166582 Si / 1000 Ang^3
#
#
#
# Elastic Constant Matrix: (Units=GPa)
#
#
# Indices 1 2 3 4 5 6 
#
# 1 110.9210 37.5397 53.4241 0.0000 -23.2533 0.0000
# 2 37.5397 106.7806 30.4982 0.0000 2.3305 0.0000
# 3 53.4241 30.4982 163.8173 0.0000 -2.0355 0.0000
# 4 0.0000 0.0000 0.0000 29.3665 0.0000 -2.7984
# 5 -23.2533 2.3305 -2.0355 0.0000 39.3739 0.0000
# 6 0.0000 0.0000 0.0000 -2.7984 0.0000 21.6357
#
#
#
# Elastic Compliance Matrix: (Units=1/GPa)
#
#
# Indices 1 2 3 4 5 6 
#
# 1 0.013868 -0.004006 -0.003674 0.000000 0.008237 0.000000
# 2 -0.004006 0.011066 -0.000792 0.000000 -0.003062 0.000000
# 3 -0.003674 -0.000792 0.007429 0.000000 -0.001739 0.000000
# 4 0.000000 0.000000 0.000000 0.034477 0.000000 0.004459
# 5 0.008237 -0.003062 -0.001739 0.000000 0.030353 0.000000
# 6 0.000000 0.000000 0.000000 0.004459 0.000000 0.046797
#
#
# Mechanical properties :
#
#
# Convention : Reuss Voigt Hill
#
# Bulk Modulus (GPa) = 64.85768 69.38254 67.12011
# Shear Modulus (GPa) = 30.10720 35.41234 32.75977
#
# Velocity S-wave (km/s) = 3.60890 3.91397 3.76453
# Velocity P-wave (km/s) = 6.73963 7.10211 6.92324
#
# Compressibility (1/GPa) = 0.01541837
#
# Stress axis : x y z
#
# Youngs Moduli (GPa) = 72.11050 90.36522 134.61667
#
# Poissons Ratio (x) = 0.36196 0.49464
# Poissons Ratio (y) = 0.28884 0.10661
# Poissons Ratio (z) = 0.26497 0.07157
#
# Static dielectric constant tensor:
#      x y z
#    x 4.067330 0.000000 0.151170 
#    y 0.000000 4.048840 0.000000 
#    z 0.151170 0.000000 4.334930 
# 
# 
# High freq. dielectric constant tensor:
#      x y z
#    x 1.904010 0.000000 0.001230 
#    y 0.000000 1.908390 0.000000 
#    z 0.001230 0.000000 1.928480 
# 
# From -- ./inp_files/43794.got.cif
#   From: 2010.03.12/outbox.cif.g09.slc.cpg/sg5_22_cif.got.tgz:43794.got - 2010.03.31 09:47:26.
