data_PCOD8052507
_publ_section_title
;
Structure prediction by ZEFSAII (Michael W. Deem and Ramdas Pophale) SiO2 
 PCOD8052507
Probable space group: P M
;
_chemical_formula_sum "Si O2"
_cell_formula_units_Z 16
_cell_length_a 15.796562
_cell_length_b 8.673251
_cell_length_c 14.153370
_cell_angle_alpha 90.000000
_cell_angle_beta 26.545043
_cell_angle_gamma 90.000000
_cell_volume 866.594440
_symmetry_space_group_name_H-M "P M"
_symmetry_group_IT_number 6
_symmetry_cell_setting 'monoclinic'
loop_
_space_group_symop_operation_xyz
x,y,z
x,-y,z
loop_
_atom_site_type_symbol
_atom_site_label
_atom_site_fract_x
_atom_site_fract_y
_atom_site_fract_z
Si Si1 0.297570 0.319407 0.687250
Si Si2 0.301856 0.820182 0.976539
Si Si3 0.281044 0.321602 0.199384
Si Si4 0.275589 0.317933 0.498418
Si Si5 0.008418 0.681177 0.132617
Si Si6 0.004542 0.180198 0.622179
Si Si7 0.599902 0.676780 0.031358
Si Si8 0.583403 0.316917 0.555086
O O1 0.327404 0.500000 0.645798
O O2 0.290541 0.248673 0.589415
O O3 0.472237 0.251454 0.574211
O O4 0.104613 0.281232 0.935927
O O5 0.485053 0.738232 0.749281
O O6 0.326270 0.000000 0.938235
O O7 0.289815 0.781280 0.098104
O O8 0.110761 0.765725 0.116366
O O9 0.257604 0.500000 0.195464
O O10 0.098788 0.272601 0.441968
O O11 0.473994 0.293162 0.064340
O O12 0.231982 0.500000 0.539080
O O13 0.100064 0.232246 0.624773
O O14 0.473222 0.281542 0.249137
O O15 0.016606 0.500000 0.145859
O O16 0.796193 0.745712 0.339235
O O17 0.781334 0.213933 0.848335
O O18 0.037156 0.000000 0.573715
O O19 0.667634 0.500000 0.968449
O O20 0.577147 0.500000 0.560645
#
# Coordination Sequence:
#
# PCOD8052507 Si02
#       8
#     2   2   2   2   2   2   2   2
#     4   8  15  30  54  82 105 131 175 225 264 297
#     4  11  22  35  53  78 109 140 170 210 260 315
#     4  10  21  39  60  78 100 133 175 220 260 304
#     4   9  18  34  56  79 105 138 177 220 260 303
#     4   9  18  34  56  79 105 138 177 220 260 303
#     4  11  22  35  53  78 109 140 170 210 260 315
#     4   9  19  35  55  78 103 135 174 215 260 308
#     4   9  18  34  55  78 104 137 178 220 260 303
#
# _framework density 18.463076999999998
#
# number of rings (size 3 to 8) (size 9 to 14) (size 15 to 20)
#    0.000    2.500    0.000    4.125    0.000    5.000 
#    0.000    7.500    0.000    3.000    0.000    0.000 
#    0.000    0.000    0.000    0.000    0.000    0.000 
#
# Total GULP energy -198411.938965 kJ/mol
# GULP energy per Si atom -12400.746185 kJ/mol
# Density = 1.842105 g / cm^3
# Si number density = 18.463077 Si / 1000 Ang^3
#
#
#
# Elastic Constant Matrix: (Units=GPa)
#
#
# Indices 1 2 3 4 5 6 
#
# 1 106.3654 14.9648 64.6023 0.0000 12.1155 0.0000
# 2 14.9648 36.4717 17.3512 0.0000 -10.8673 0.0000
# 3 64.6023 17.3512 114.6038 0.0000 -15.5855 0.0000
# 4 0.0000 0.0000 0.0000 11.8563 0.0000 -1.1910
# 5 12.1155 -10.8673 -15.5855 0.0000 32.3894 0.0000
# 6 0.0000 0.0000 0.0000 -1.1910 0.0000 12.2979
#
#
#
# Elastic Compliance Matrix: (Units=1/GPa)
#
#
# Indices 1 2 3 4 5 6 
#
# 1 0.019369 -0.006810 -0.011966 0.000000 -0.015288 0.000000
# 2 -0.006810 0.034187 0.000609 0.000000 0.014311 0.000000
# 3 -0.011966 0.000609 0.017137 0.000000 0.012927 0.000000
# 4 0.000000 0.000000 0.000000 0.085172 0.000000 0.008249
# 5 -0.015288 0.014311 0.012927 0.000000 0.047615 0.000000
# 6 0.000000 0.000000 0.000000 0.008249 0.000000 0.082113
#
#
# Mechanical properties :
#
#
# Convention : Reuss Voigt Hill
#
# Bulk Modulus (GPa) = 29.10495 50.14197 39.62346
# Shear Modulus (GPa) = 14.99788 22.01023 18.50406
#
# Velocity S-wave (km/s) = 2.85321 3.45646 3.16922
# Velocity P-wave (km/s) = 5.16261 6.56859 5.90758
#
# Compressibility (1/GPa) = 0.03435842
#
# Stress axis : x y z
#
# Youngs Moduli (GPa) = 51.62900 29.25084 58.35341
#
# Poissons Ratio (x) = 0.19919 0.69828
# Poissons Ratio (y) = 0.35158 -0.03553
# Poissons Ratio (z) = 0.61781 -0.01781
#
# Static dielectric constant tensor:
#      x y z
#    x 3.591850 0.000000 -0.019570 
#    y 0.000000 3.169780 0.000000 
#    z -0.019570 0.000000 3.456570 
# 
# 
# High freq. dielectric constant tensor:
#      x y z
#    x 1.719770 0.000000 0.000880 
#    y 0.000000 1.697680 0.000000 
#    z 0.000880 0.000000 1.719020 
# 
# From -- ./inp_files/5625.got.cif
#   From: 2010.03.12/outbox.cif.g09.slc.cpg/sg6_3_cif.got.tgz:5625.got - 2010.03.30 10:24:59.
