data_PCOD8052370
_publ_section_title
;
Structure prediction by ZEFSAII (Michael W. Deem and Ramdas Pophale) SiO2 
 PCOD8052370
Probable space group: P M
;
_chemical_formula_sum "Si O2"
_cell_formula_units_Z 14
_cell_length_a 11.164051
_cell_length_b 12.774437
_cell_length_c 7.668943
_cell_angle_alpha 90.000000
_cell_angle_beta 140.712736
_cell_angle_gamma 90.000000
_cell_volume 692.541913
_symmetry_space_group_name_H-M "P M"
_symmetry_group_IT_number 6
_symmetry_cell_setting 'monoclinic'
loop_
_space_group_symop_operation_xyz
x,y,z
x,-y,z
loop_
_atom_site_type_symbol
_atom_site_label
_atom_site_fract_x
_atom_site_fract_y
_atom_site_fract_z
Si Si1 0.854350 0.884282 0.740460
Si Si2 0.742429 0.685406 0.465333
Si Si3 0.584200 0.268601 0.945912
Si Si4 0.149804 0.748040 0.930283
Si Si5 0.487951 0.619248 0.479562
Si Si6 0.870018 0.887315 0.154566
Si Si7 0.275553 0.879117 0.739274
O O1 0.709521 0.809913 0.470646
O O2 0.068908 0.840076 0.963668
O O3 0.842947 0.000000 0.646791
O O4 0.793920 0.882225 0.872306
O O5 0.665809 0.621545 0.546151
O O6 0.969588 0.668873 0.689832
O O7 0.614993 0.657454 0.151544
O O8 0.545818 0.338432 0.734316
O O9 0.431128 0.177648 0.796488
O O10 0.784884 0.209278 0.162973
O O11 0.235418 0.805094 0.858992
O O12 0.312750 0.684114 0.208588
O O13 0.423748 0.500000 0.431511
O O14 0.094577 0.879329 0.411049
O O15 0.808399 0.000000 0.165558
O O16 0.330344 0.000000 0.851027
#
# Coordination Sequence:
#
# PCOD8052370 Si02
#       7
#     2   2   2   2   2   2   2
#     4   9  18  36  64  94 133 175 204 252 324 396
#     4  10  23  42  69  93 129 162 216 272 319 398
#     4  12  22  41  65  95 128 172 213 269 324 388
#     4  10  21  42  63  93 131 172 208 268 322 389
#     4  12  27  47  67  91 126 171 230 289 326 364
#     4  10  19  35  59  94 137 173 207 255 320 394
#     4  11  22  35  63 102 140 175 208 255 323 403
#
# _framework density 20.215385000000001
#
# number of rings (size 3 to 8) (size 9 to 14) (size 15 to 20)
#    0.857    0.571    4.286    1.714    0.000    2.286 
#    0.000    2.143    0.000    0.000    0.000    0.000 
#    0.000    0.000    0.000    0.000    0.000    0.000 
#
# Total GULP energy -173449.856298 kJ/mol
# GULP energy per Si atom -12389.275450 kJ/mol
# Density = 2.016937 g / cm^3
# Si number density = 20.215385 Si / 1000 Ang^3
#
#
#
# Elastic Constant Matrix: (Units=GPa)
#
#
# Indices 1 2 3 4 5 6 
#
# 1 86.5300 28.3053 30.8719 0.0000 -11.2564 0.0000
# 2 28.3053 82.4841 27.6870 0.0000 -9.9981 0.0000
# 3 30.8719 27.6870 93.7697 0.0000 -19.3281 0.0000
# 4 0.0000 0.0000 0.0000 13.8883 0.0000 6.8978
# 5 -11.2564 -9.9981 -19.3281 0.0000 35.3617 0.0000
# 6 0.0000 0.0000 0.0000 6.8978 0.0000 11.4937
#
#
#
# Elastic Compliance Matrix: (Units=1/GPa)
#
#
# Indices 1 2 3 4 5 6 
#
# 1 0.014094 -0.003541 -0.003242 0.000000 0.001714 0.000000
# 2 -0.003541 0.014454 -0.002808 0.000000 0.001425 0.000000
# 3 -0.003242 -0.002808 0.013732 0.000000 0.005680 0.000000
# 4 0.000000 0.000000 0.000000 0.102579 0.000000 -0.061562
# 5 0.001714 0.001425 0.005680 0.000000 0.032332 0.000000
# 6 0.000000 0.000000 0.000000 -0.061562 0.000000 0.123950
#
#
# Mechanical properties :
#
#
# Convention : Reuss Voigt Hill
#
# Bulk Modulus (GPa) = 43.29326 48.50134 45.89730
# Shear Modulus (GPa) = 15.24293 23.87673 19.55983
#
# Velocity S-wave (km/s) = 2.74893 3.44047 3.11396
# Velocity P-wave (km/s) = 5.61587 6.31085 5.97347
#
# Compressibility (1/GPa) = 0.02309828
#
# Stress axis : x y z
#
# Youngs Moduli (GPa) = 70.95022 69.18511 72.82497
#
# Poissons Ratio (x) = 0.24497 0.23607
# Poissons Ratio (y) = 0.25122 0.20452
# Poissons Ratio (z) = 0.22999 0.19430
#
# Static dielectric constant tensor:
#      x y z
#    x 3.713590 0.000000 0.011770 
#    y 0.000000 3.499390 0.000000 
#    z 0.011770 0.000000 3.497180 
# 
# 
# High freq. dielectric constant tensor:
#      x y z
#    x 1.795180 0.000000 -0.004350 
#    y 0.000000 1.768220 0.000000 
#    z -0.004350 0.000000 1.786180 
# 
# From -- ./inp_files/4022.got.cif
#   From: 2010.03.12/outbox.cif.g09.slc.cpg/sg6_3_cif.got.tgz:4022.got - 2010.03.30 10:24:59.
