data_PCOD8052912
_publ_section_title
;
Structure prediction by ZEFSAII (Michael W. Deem and Ramdas Pophale) SiO2 
 PCOD8052912
Probable space group: C M
;
_chemical_formula_sum "Si O2"
_cell_formula_units_Z 32
_cell_length_a 11.668689
_cell_length_b 14.160521
_cell_length_c 9.469225
_cell_angle_alpha 90.000000
_cell_angle_beta 85.304182
_cell_angle_gamma 90.000000
_cell_volume 1559.392759
_symmetry_space_group_name_H-M "C M"
_symmetry_group_IT_number 8
_symmetry_cell_setting 'monoclinic'
loop_
_space_group_symop_operation_xyz
x,y,z
x,-y,z
1/2+x,1/2+y,z
1/2+x,1/2-y,z
loop_
_atom_site_type_symbol
_atom_site_label
_atom_site_fract_x
_atom_site_fract_y
_atom_site_fract_z
Si Si1 0.193750 0.164369 0.745440
Si Si2 0.009925 0.815625 0.977677
Si Si3 0.919769 0.601068 0.620587
Si Si4 0.577704 0.248940 0.502418
Si Si5 0.051591 0.395882 0.898236
Si Si6 0.779703 0.102663 0.491905
Si Si7 0.002982 0.108322 0.291733
Si Si8 0.304254 0.352205 0.799370
O O1 0.125504 0.139387 0.895557
O O2 0.282793 0.090005 0.669482
O O3 0.093319 0.195707 0.648131
O O4 0.286401 0.242831 0.775135
O O5 0.012091 0.699632 0.984966
O O6 0.904781 0.862151 0.903047
O O7 0.003329 0.854747 0.133997
O O8 0.950001 0.500000 0.545993
O O9 0.957199 0.688968 0.515836
O O10 0.999225 0.613647 0.749065
O O11 0.683498 0.179202 0.473505
O O12 0.584891 0.323867 0.375293
O O13 0.014422 0.500000 0.967622
O O14 0.189295 0.399602 0.872535
O O15 0.836673 0.104795 0.642858
O O16 0.876119 0.118839 0.365623
O O17 0.723118 0.000000 0.476110
O O18 0.046744 0.000000 0.295556
#
# Coordination Sequence:
#
# PCOD8052912 Si02
#       8
#     4   4   4   4   4   4   4   4
#     4  10  19  35  62  91 121 158 200 247 306 361
#     4  11  22  40  62  87 131 170 207 249 306 364
#     4  11  20  35  63  99 125 149 195 255 313 369
#     4  11  20  41  64  89 123 160 202 254 313 361
#     4  10  20  36  63  96 124 154 199 261 314 363
#     4  10  20  37  64  95 118 153 203 260 313 363
#     4  11  27  43  58  84 125 171 213 251 298 365
#     4  10  18  35  64  95 121 153 203 257 309 358
#
# _framework density 20.520807999999999
#
# number of rings (size 3 to 8) (size 9 to 14) (size 15 to 20)
#    0.000    1.500    5.000    3.000    0.000    4.000 
#    0.000    2.500    0.000    0.000    0.000    0.000 
#    0.000    0.000    0.000    0.000    0.000    0.000 
#
# Total GULP energy -198212.177138 kJ/mol
# GULP energy per Si atom -12388.261071 kJ/mol
# Density = 2.047410 g / cm^3
# Si number density = 20.520808 Si / 1000 Ang^3
#
#
#
# Elastic Constant Matrix: (Units=GPa)
#
#
# Indices 1 2 3 4 5 6 
#
# 1 90.1897 42.6265 45.9484 0.0000 -2.4394 0.0000
# 2 42.6265 137.8203 62.5119 0.0000 3.0128 0.0000
# 3 45.9484 62.5119 124.2891 0.0000 -9.0191 0.0000
# 4 0.0000 0.0000 0.0000 12.8856 0.0000 -28.2632
# 5 -2.4394 3.0128 -9.0191 0.0000 16.2033 0.0000
# 6 0.0000 0.0000 0.0000 -28.2632 0.0000 -31.7304
#
#
#
# Elastic Compliance Matrix: (Units=1/GPa)
#
#
# Indices 1 2 3 4 5 6 
#
# 1 0.014366 -0.002669 -0.003935 0.000000 0.000469 0.000000
# 2 -0.002669 0.010232 -0.004509 0.000000 -0.004814 0.000000
# 3 -0.003935 -0.004509 0.012282 0.000000 0.007082 0.000000
# 4 0.000000 0.000000 0.000000 0.026274 0.000000 -0.023403
# 5 0.000469 -0.004814 0.007082 0.000000 0.066624 0.000000
# 6 0.000000 0.000000 0.000000 -0.023403 0.000000 -0.010670
#
#
# Mechanical properties :
#
#
# Convention : Reuss Voigt Hill
#
# Bulk Modulus (GPa) = 68.23467 72.71918 70.47693
# Shear Modulus (GPa) = 34.19555 12.88585 23.54070
#
# Velocity S-wave (km/s) = 4.08657 2.50859 3.39065
# Velocity P-wave (km/s) = 7.45589 6.62604 7.05318
#
# Compressibility (1/GPa) = 0.01465531
#
# Stress axis : x y z
#
# Youngs Moduli (GPa) = 69.60655 97.73682 81.42016
#
# Poissons Ratio (x) = 0.26086 0.32037
# Poissons Ratio (y) = 0.18578 0.36710
# Poissons Ratio (z) = 0.27388 0.44066
#
# Static dielectric constant tensor:
#      x y z
#    x 3.661330 0.000000 -0.087690 
#    y 0.000000 4.165930 0.000000 
#    z -0.087690 0.000000 3.425920 
# 
# 
# High freq. dielectric constant tensor:
#      x y z
#    x 1.802610 0.000000 -0.006070 
#    y 0.000000 1.819020 0.000000 
#    z -0.006070 0.000000 1.760550 
# 
# From -- ./inp_files/10750.got.cif
#   From: 2010.03.12/outbox.cif.g09.slc.cpg/sg8_6_cif.got.tgz:10750.got - 2010.03.31 10:45:26.
