data_PCOD8052435
_publ_section_title
;
Structure prediction by ZEFSAII (Michael W. Deem and Ramdas Pophale) SiO2 
 PCOD8052435
Probable space group: P M
;
_chemical_formula_sum "Si O2"
_cell_formula_units_Z 16
_cell_length_a 12.456851
_cell_length_b 8.959705
_cell_length_c 12.458495
_cell_angle_alpha 90.000000
_cell_angle_beta 35.418581
_cell_angle_gamma 90.000000
_cell_volume 805.851635
_symmetry_space_group_name_H-M "P M"
_symmetry_group_IT_number 6
_symmetry_cell_setting 'monoclinic'
loop_
_space_group_symop_operation_xyz
x,y,z
x,-y,z
loop_
_atom_site_type_symbol
_atom_site_label
_atom_site_fract_x
_atom_site_fract_y
_atom_site_fract_z
Si Si1 0.932120 0.329597 0.044240
Si Si2 0.818301 0.673114 0.533912
Si Si3 0.328603 0.329592 0.647448
Si Si4 0.607191 0.672261 0.920129
Si Si5 0.312407 0.829535 0.443086
Si Si6 0.699817 0.176178 0.415338
Si Si7 0.204596 0.327719 0.322479
Si Si8 0.727351 0.829537 0.028376
O O1 0.864650 0.500000 0.109175
O O2 0.846357 0.235796 0.210274
O O3 0.871364 0.266516 0.978703
O O4 0.154789 0.319116 0.870050
O O5 0.799914 0.500000 0.515489
O O6 0.678925 0.712634 0.743856
O O7 0.763880 0.777283 0.480531
O O8 0.028467 0.712775 0.393929
O O9 0.393497 0.500000 0.579944
O O10 0.262473 0.266501 0.587274
O O11 0.494893 0.235700 0.561116
O O12 0.645736 0.500000 0.915876
O O13 0.721586 0.769220 0.912046
O O14 0.388563 0.709346 0.103900
O O15 0.196299 0.769160 0.437061
O O16 0.254944 0.000000 0.509829
O O17 0.529669 0.812939 0.245556
O O18 0.694264 0.000000 0.409578
O O19 0.199999 0.500000 0.361243
O O20 0.794119 0.000000 0.971000
#
# Coordination Sequence:
#
# PCOD8052435 Si02
#       8
#     2   2   2   2   2   2   2   2
#     4  11  24  41  64  91 120 162 211 256 305 367
#     4  10  22  40  62  86 116 160 213 256 295 360
#     4  11  24  41  64  91 120 162 211 256 305 367
#     4   9  19  36  58  85 118 158 202 250 299 355
#     4  10  20  35  58  90 128 163 196 247 311 367
#     4  12  26  44  64  90 126 164 205 258 319 372
#     4   9  19  36  58  85 118 158 202 250 299 355
#     4  10  20  35  58  90 128 163 196 247 311 367
#
# _framework density 19.854772000000001
#
# number of rings (size 3 to 8) (size 9 to 14) (size 15 to 20)
#    0.000    1.750    1.250    2.625    1.750    5.000 
#    0.000    2.500    0.000    0.000    0.000    0.000 
#    0.000    0.000    0.000    0.000    0.000    0.000 
#
# Total GULP energy -198477.169801 kJ/mol
# GULP energy per Si atom -12404.823113 kJ/mol
# Density = 1.980958 g / cm^3
# Si number density = 19.854772 Si / 1000 Ang^3
#
#
#
# Elastic Constant Matrix: (Units=GPa)
#
#
# Indices 1 2 3 4 5 6 
#
# 1 112.6656 73.2578 74.1551 0.0000 17.9455 0.0000
# 2 73.2578 152.4520 59.7766 0.0000 6.6181 0.0000
# 3 74.1551 59.7766 99.7379 0.0000 -10.1014 0.0000
# 4 0.0000 0.0000 0.0000 15.8307 0.0000 0.2135
# 5 17.9455 6.6181 -10.1014 0.0000 10.9762 0.0000
# 6 0.0000 0.0000 0.0000 0.2135 0.0000 16.6544
#
#
#
# Elastic Compliance Matrix: (Units=1/GPa)
#
#
# Indices 1 2 3 4 5 6 
#
# 1 -0.129829 -0.004646 0.133541 0.000000 0.337961 0.000000
# 2 -0.004646 0.009785 -0.002468 0.000000 -0.000575 0.000000
# 3 0.133541 -0.002468 -0.121024 0.000000 -0.328221 0.000000
# 4 0.000000 0.000000 0.000000 0.063179 0.000000 -0.000810
# 5 0.337961 -0.000575 -0.328221 0.000000 -0.763155 0.000000
# 6 0.000000 0.000000 0.000000 -0.000810 0.000000 0.060054
#
#
# Mechanical properties :
#
#
# Convention : Reuss Voigt Hill
#
# Bulk Modulus (GPa) = 84.85497 86.58162 85.71829
# Shear Modulus (GPa) = -4.42512 19.20333 7.38911
#
# Velocity S-wave (km/s) = -1.49452 3.11334 1.93123
# Velocity P-wave (km/s) = 6.31288 7.52502 6.94545
#
# Compressibility (1/GPa) = 0.01178481
#
# Stress axis : x y z
#
# Youngs Moduli (GPa) = -7.70245 102.19908 -8.26285
#
# Poissons Ratio (x) = 0.47482 1.10343
# Poissons Ratio (y) = -0.03579 -0.02040
# Poissons Ratio (z) = 1.02859 0.25227
#
# Static dielectric constant tensor:
#      x y z
#    x 3.536280 0.000000 -0.108180 
#    y 0.000000 3.688910 0.000000 
#    z -0.108180 0.000000 3.793320 
# 
# 
# High freq. dielectric constant tensor:
#      x y z
#    x 1.769050 0.000000 -0.005650 
#    y 0.000000 1.778520 0.000000 
#    z -0.005650 0.000000 1.782610 
# 
# From -- ./inp_files/5022.got.cif
#   From: 2010.03.12/outbox.cif.g09.slc.cpg/sg6_3_cif.got.tgz:5022.got - 2010.03.30 10:24:59.
