data_PCOD8052739
_publ_section_title
;
Structure prediction by ZEFSAII (Michael W. Deem and Ramdas Pophale) SiO2 
 PCOD8052739
Probable space group: C M
;
_chemical_formula_sum "Si O2"
_cell_formula_units_Z 32
_cell_length_a 20.752758
_cell_length_b 9.009735
_cell_length_c 20.458812
_cell_angle_alpha 90.000000
_cell_angle_beta 151.703024
_cell_angle_gamma 90.000000
_cell_volume 1813.363343
_symmetry_space_group_name_H-M "C M"
_symmetry_group_IT_number 8
_symmetry_cell_setting 'monoclinic'
loop_
_space_group_symop_operation_xyz
x,y,z
x,-y,z
1/2+x,1/2+y,z
1/2+x,1/2-y,z
loop_
_atom_site_type_symbol
_atom_site_label
_atom_site_fract_x
_atom_site_fract_y
_atom_site_fract_z
Si Si1 0.719660 0.823833 0.944760
Si Si2 0.958851 0.675701 0.646273
Si Si3 0.658312 0.675462 0.365577
Si Si4 0.397754 0.324133 0.363195
Si Si5 0.588401 0.173554 0.628816
Si Si6 0.905108 0.176188 0.223276
Si Si7 0.130383 0.675732 0.201479
Si Si8 0.363779 0.672993 0.940602
O O1 0.564888 0.763828 0.795957
O O2 0.810499 0.775753 0.964088
O O3 0.719405 0.000000 0.948333
O O4 0.784701 0.758610 0.069428
O O5 0.972969 0.500000 0.657017
O O6 0.805552 0.725905 0.524863
O O7 0.002978 0.734754 0.614468
O O8 0.652829 0.500000 0.347334
O O9 0.549865 0.725667 0.322810
O O10 0.627677 0.755386 0.270681
O O11 0.409838 0.500000 0.373510
O O12 0.534795 0.259873 0.517631
O O13 0.388640 0.259947 0.281351
O O14 0.264423 0.270078 0.282868
O O15 0.748273 0.206429 0.783075
O O16 0.563046 0.000000 0.595723
O O17 0.895964 0.000000 0.216635
O O18 0.125841 0.500000 0.202363
O O19 0.998513 0.733328 0.043978
O O20 0.401148 0.500000 0.974490
#
# Coordination Sequence:
#
# PCOD8052739 Si02
#       8
#     4   4   4   4   4   4   4   4
#     4   8  13  25  47  73  95 116 152 206 250 277
#     4   8  14  24  45  76  97 111 151 209 251 279
#     4  10  17  30  53  75  94 122 169 217 245 276
#     4  10  21  34  47  71 108 141 163 191 245 309
#     4   9  17  31  52  76  99 126 165 209 250 290
#     4   9  17  30  49  71  98 131 165 201 243 291
#     4  11  21  31  46  73 107 136 163 198 247 300
#     4   9  17  31  53  77  96 123 168 215 249 282
#
# _framework density 17.646767000000001
#
# number of rings (size 3 to 8) (size 9 to 14) (size 15 to 20)
#    0.000    2.750    2.500    1.875    0.000    1.000 
#    0.000    1.875    0.000    4.500    0.000    0.000 
#    0.000    0.000    0.000    0.000    0.000    0.000 
#
# Total GULP energy -198310.271763 kJ/mol
# GULP energy per Si atom -12394.391985 kJ/mol
# Density = 1.760660 g / cm^3
# Si number density = 17.646767 Si / 1000 Ang^3
#
#
#
# Elastic Constant Matrix: (Units=GPa)
#
#
# Indices 1 2 3 4 5 6 
#
# 1 86.0768 19.9876 60.2486 0.0000 -6.1525 0.0000
# 2 19.9876 24.3740 26.5937 0.0002 3.4417 0.0001
# 3 60.2486 26.5937 163.5886 0.0004 -4.0826 0.0002
# 4 0.0000 0.0002 0.0004 23.8344 0.0001 -2.3960
# 5 -6.1525 3.4417 -4.0826 0.0001 29.1809 0.0000
# 6 0.0000 0.0001 0.0002 -2.3960 0.0000 14.9068
#
#
#
# Elastic Compliance Matrix: (Units=1/GPa)
#
#
# Indices 1 2 3 4 5 6 
#
# 1 0.017514 -0.009759 -0.004759 0.000000 0.004178 0.000000
# 2 -0.009759 0.056796 -0.005878 0.000000 -0.009578 0.000000
# 3 -0.004759 -0.005878 0.008844 0.000000 0.000927 0.000000
# 4 0.000000 0.000000 0.000000 0.042645 0.000000 0.006855
# 5 0.004178 -0.009578 0.000927 0.000000 0.036409 0.000000
# 6 0.000000 0.000000 0.000000 0.006855 0.000000 0.068185
#
#
# Mechanical properties :
#
#
# Convention : Reuss Voigt Hill
#
# Bulk Modulus (GPa) = 23.60645 54.18882 38.89764
# Shear Modulus (GPa) = 17.52504 24.73170 21.12837
#
# Velocity S-wave (km/s) = 3.15477 3.74770 3.46395
# Velocity P-wave (km/s) = 5.16492 7.03571 6.17161
#
# Compressibility (1/GPa) = 0.04236130
#
# Stress axis : x y z
#
# Youngs Moduli (GPa) = 57.09876 17.60701 113.06550
#
# Poissons Ratio (x) = 0.17182 0.53813
# Poissons Ratio (y) = 0.55722 0.66459
# Poissons Ratio (z) = 0.27176 0.10349
#
# Static dielectric constant tensor:
#      x y z
#    x 3.206870 0.000000 0.036040 
#    y 0.000000 2.825500 0.000000 
#    z 0.036040 0.000000 3.837400 
# 
# 
# High freq. dielectric constant tensor:
#      x y z
#    x 1.653290 0.000000 0.004780 
#    y 0.000000 1.637920 0.000000 
#    z 0.004780 0.000000 1.705400 
# 
# From -- ./inp_files/31316.got.cif
#   From: 2010.03.12/outbox.cif.g09.slc.cpg/sg8_16_cif.got.tgz:31316.got - 2010.03.31 10:45:26.
