data_PCOD8052255
_publ_section_title
;
Structure prediction by ZEFSAII (Michael W. Deem and Ramdas Pophale) SiO2 
 PCOD8052255
Probable space group: P M
;
_chemical_formula_sum "Si O2"
_cell_formula_units_Z 12
_cell_length_a 9.286723
_cell_length_b 8.469279
_cell_length_c 9.711653
_cell_angle_alpha 90.000000
_cell_angle_beta 122.215220
_cell_angle_gamma 90.000000
_cell_volume 646.247582
_symmetry_space_group_name_H-M "P M"
_symmetry_group_IT_number 6
_symmetry_cell_setting 'monoclinic'
loop_
_space_group_symop_operation_xyz
x,y,z
x,-y,z
loop_
_atom_site_type_symbol
_atom_site_label
_atom_site_fract_x
_atom_site_fract_y
_atom_site_fract_z
Si Si1 0.867860 0.187595 0.706700
Si Si2 0.219952 0.682858 0.889654
Si Si3 0.208954 0.183327 0.588415
Si Si4 0.574959 0.185492 0.068634
Si Si5 0.869985 0.315585 0.402453
Si Si6 0.578817 0.183780 0.757028
O O1 0.835887 0.251148 0.537629
O O2 0.718012 0.260243 0.726798
O O3 0.046388 0.244682 0.864708
O O4 0.863367 0.000000 0.698833
O O5 0.234317 0.500000 0.935859
O O6 0.205154 0.705359 0.719131
O O7 0.386736 0.773642 0.030489
O O8 0.387039 0.215841 0.599600
O O9 0.037954 0.231758 0.418841
O O10 0.201876 0.000000 0.630920
O O11 0.709967 0.279318 0.226693
O O12 0.606891 0.000000 0.098397
O O13 0.591958 0.247895 0.920053
O O14 0.902469 0.500000 0.425313
O O15 0.616573 0.000000 0.782617
#
# Coordination Sequence:
#
# PCOD8052255 Si02
#       6
#     2   2   2   2   2   2
#     4  10  18  33  54  76 100 133 168 203 244 294
#     4  10  18  30  48  74 102 131 164 203 244 294
#     4   9  16  31  52  73  96 131 170 204 240 292
#     4  10  19  35  55  75  97 130 169 208 248 295
#     4  11  21  33  49  76 105 132 165 206 248 294
#     4   8  17  32  54  78  98 123 168 212 244 287
#
# _framework density 18.568733000000002
#
# number of rings (size 3 to 8) (size 9 to 14) (size 15 to 20)
#    0.000    2.333    0.000    7.500    0.000    0.000 
#    0.000   11.667    0.000    4.000    0.000    0.000 
#    0.000    0.000    0.000    0.000    0.000    0.000 
#
# Total GULP energy -148711.079045 kJ/mol
# GULP energy per Si atom -12392.589920 kJ/mol
# Density = 1.852647 g / cm^3
# Si number density = 18.568733 Si / 1000 Ang^3
#
#
#
# Elastic Constant Matrix: (Units=GPa)
#
#
# Indices 1 2 3 4 5 6 
#
# 1 174.8582 34.1043 56.1903 0.0000 24.7418 0.0000
# 2 34.1043 78.7870 14.9088 0.0000 -0.1436 0.0000
# 3 56.1903 14.9088 71.7667 0.0000 21.5411 0.0000
# 4 0.0000 0.0000 0.0000 24.7218 0.0000 12.6040
# 5 24.7418 -0.1436 21.5411 0.0000 27.0457 0.0000
# 6 0.0000 0.0000 0.0000 12.6040 0.0000 7.7892
#
#
#
# Elastic Compliance Matrix: (Units=1/GPa)
#
#
# Indices 1 2 3 4 5 6 
#
# 1 0.008333 -0.002701 -0.004824 0.000000 -0.003795 0.000000
# 2 -0.002701 0.014271 -0.002121 0.000000 0.004236 0.000000
# 3 -0.004824 -0.002121 0.022118 0.000000 -0.013215 0.000000
# 4 0.000000 0.000000 0.000000 0.231118 0.000000 -0.373981
# 5 -0.003795 0.004236 -0.013215 0.000000 0.050994 0.000000
# 6 0.000000 0.000000 0.000000 -0.373981 0.000000 0.733535
#
#
# Mechanical properties :
#
#
# Convention : Reuss Voigt Hill
#
# Bulk Modulus (GPa) = 39.32526 59.53542 49.43034
# Shear Modulus (GPa) = 4.59501 26.59192 15.59346
#
# Velocity S-wave (km/s) = 1.57479 3.78839 2.90102
# Velocity P-wave (km/s) = 4.95286 7.16014 6.15623
#
# Compressibility (1/GPa) = 0.02542895
#
# Stress axis : x y z
#
# Youngs Moduli (GPa) = 120.00540 70.07311 45.21160
#
# Poissons Ratio (x) = 0.18928 0.21810
# Poissons Ratio (y) = 0.32415 0.09591
# Poissons Ratio (z) = 0.57891 0.14865
#
# Static dielectric constant tensor:
#      x y z
#    x 4.064900 0.000000 0.323680 
#    y 0.000000 3.279330 0.000000 
#    z 0.323680 0.000000 3.242670 
# 
# 
# High freq. dielectric constant tensor:
#      x y z
#    x 1.728900 0.000000 0.036220 
#    y 0.000000 1.719220 0.000000 
#    z 0.036220 0.000000 1.685350 
# 
# From -- ./inp_files/2414.got.cif
#   From: 2010.03.12/outbox.cif.g09.slc.cpg/sg6_2_cif.got.tgz:2414.got - 2010.03.30 10:24:59.
