data_PCOD8052237
_publ_section_title
;
Structure prediction by ZEFSAII (Michael W. Deem and Ramdas Pophale) SiO2 
 PCOD8052237
Probable space group: P M
;
_chemical_formula_sum "Si O2"
_cell_formula_units_Z 16
_cell_length_a 20.467265
_cell_length_b 8.945126
_cell_length_c 10.415421
_cell_angle_alpha 90.000000
_cell_angle_beta 28.280198
_cell_angle_gamma 90.000000
_cell_volume 903.448463
_symmetry_space_group_name_H-M "P M"
_symmetry_group_IT_number 6
_symmetry_cell_setting 'monoclinic'
loop_
_space_group_symop_operation_xyz
x,y,z
x,-y,z
loop_
_atom_site_type_symbol
_atom_site_label
_atom_site_fract_x
_atom_site_fract_y
_atom_site_fract_z
Si Si1 0.894960 0.678347 0.598590
Si Si2 0.173000 0.675935 0.006547
Si Si3 0.446355 0.827886 0.246333
Si Si4 0.753907 0.322992 0.099229
Si Si5 0.737055 0.173034 0.639618
Si Si6 0.472918 0.676635 0.470907
Si Si7 0.172629 0.675171 0.717262
Si Si8 0.871731 0.323231 0.161986
O O1 0.883775 0.500000 0.609576
O O2 0.799639 0.744076 0.653313
O O3 0.052145 0.738166 0.307350
O O4 0.845586 0.737973 0.822406
O O5 0.158537 0.500000 0.029804
O O6 0.326117 0.723327 0.789348
O O7 0.150254 0.734230 0.901126
O O8 0.490059 0.750101 0.302982
O O9 0.307294 0.756748 0.425855
O O10 0.417664 0.000000 0.325628
O O11 0.571255 0.807125 0.929610
O O12 0.765207 0.500000 0.084277
O O13 0.595532 0.271006 0.352753
O O14 0.809787 0.258526 0.136533
O O15 0.792585 0.243405 0.413280
O O16 0.779336 0.000000 0.572342
O O17 0.479599 0.500000 0.435670
O O18 0.203738 0.500000 0.660231
O O19 0.034591 0.715585 0.878020
O O20 0.849773 0.500000 0.216354
#
# Coordination Sequence:
#
# PCOD8052237 Si02
#       8
#     2   2   2   2   2   2   2   2
#     4  10  17  31  53  77 103 133 169 215 261 302
#     4   8  14  25  46  74  99 127 161 203 251 298
#     4  10  20  32  49  75 105 134 172 219 259 301
#     4   9  18  31  53  79 104 136 172 212 260 312
#     4  11  22  34  50  77 106 137 178 219 257 307
#     4   9  16  30  50  75 105 133 166 207 255 308
#     4   9  17  31  51  74 102 136 173 212 259 309
#     4  10  20  36  54  77 108 140 175 215 260 311
#
# _framework density 17.70992
#
# number of rings (size 3 to 8) (size 9 to 14) (size 15 to 20)
#    0.000    2.500    2.500    1.500    0.000    2.000 
#    0.000    2.500    0.000    4.500    0.000    0.000 
#    0.000    0.000    0.000    0.000    0.000    0.000 
#
# Total GULP energy -198313.608161 kJ/mol
# GULP energy per Si atom -12394.600510 kJ/mol
# Density = 1.766961 g / cm^3
# Si number density = 17.709920 Si / 1000 Ang^3
#
#
#
# Elastic Constant Matrix: (Units=GPa)
#
#
# Indices 1 2 3 4 5 6 
#
# 1 130.8062 34.0122 71.1878 0.0000 -12.2868 0.0000
# 2 34.0122 46.7851 38.8562 0.0000 -5.4472 0.0000
# 3 71.1878 38.8562 130.0940 0.0000 -16.4147 0.0000
# 4 0.0000 0.0000 0.0000 20.1573 0.0000 -4.8612
# 5 -12.2868 -5.4472 -16.4147 0.0000 32.8930 0.0000
# 6 0.0000 0.0000 0.0000 -4.8612 0.0000 4.5565
#
#
#
# Elastic Compliance Matrix: (Units=1/GPa)
#
#
# Indices 1 2 3 4 5 6 
#
# 1 0.011505 -0.004152 -0.004909 0.000000 0.001160 0.000000
# 2 -0.004152 0.029932 -0.006657 0.000000 0.000084 0.000000
# 3 -0.004909 -0.006657 0.012797 0.000000 0.003450 0.000000
# 4 0.000000 0.000000 0.000000 0.066796 0.000000 0.071262
# 5 0.001160 0.000084 0.003450 0.000000 0.032570 0.000000
# 6 0.000000 0.000000 0.000000 0.071262 0.000000 0.295492
#
#
# Mechanical properties :
#
#
# Convention : Reuss Voigt Hill
#
# Bulk Modulus (GPa) = 43.86628 66.19974 55.03301
# Shear Modulus (GPa) = 10.24323 22.42997 16.33660
#
# Velocity S-wave (km/s) = 2.40758 3.56268 3.04049
# Velocity P-wave (km/s) = 5.70541 7.37460 6.59304
#
# Compressibility (1/GPa) = 0.02279656
#
# Stress axis : x y z
#
# Youngs Moduli (GPa) = 86.91776 33.40952 78.14457
#
# Poissons Ratio (x) = 0.13871 0.38363
# Poissons Ratio (y) = 0.36086 0.52025
# Poissons Ratio (z) = 0.42670 0.22242
#
# Static dielectric constant tensor:
#      x y z
#    x 3.382440 0.000000 -0.258950 
#    y 0.000000 3.039260 0.000000 
#    z -0.258950 0.000000 3.656800 
# 
# 
# High freq. dielectric constant tensor:
#      x y z
#    x 1.667950 0.000000 -0.024810 
#    y 0.000000 1.657010 0.000000 
#    z -0.024810 0.000000 1.692910 
# 
# From -- ./inp_files/3778.got.cif
#   From: 2010.03.12/outbox.cif.g09.slc.cpg/sg6_2_cif.got.tgz:3778.got - 2010.03.30 10:24:59.
