data_PCOD8052916
_publ_section_title
;
Structure prediction by ZEFSAII (Michael W. Deem and Ramdas Pophale) SiO2 
 PCOD8052916
Probable space group: C M
;
_chemical_formula_sum "Si O2"
_cell_formula_units_Z 32
_cell_length_a 16.242756
_cell_length_b 17.238166
_cell_length_c 10.228209
_cell_angle_alpha 90.000000
_cell_angle_beta 143.559746
_cell_angle_gamma 90.000000
_cell_volume 1701.082151
_symmetry_space_group_name_H-M "C M"
_symmetry_group_IT_number 8
_symmetry_cell_setting 'monoclinic'
loop_
_space_group_symop_operation_xyz
x,y,z
x,-y,z
1/2+x,1/2+y,z
1/2+x,1/2-y,z
loop_
_atom_site_type_symbol
_atom_site_label
_atom_site_fract_x
_atom_site_fract_y
_atom_site_fract_z
Si Si1 0.442550 0.590638 0.974810
Si Si2 0.366885 0.093899 0.847548
Si Si3 0.211049 0.836916 0.401882
Si Si4 0.136906 0.589863 0.583675
Si Si5 0.858034 0.589948 0.347642
Si Si6 0.428960 0.591291 0.663389
Si Si7 0.142604 0.342283 0.311808
Si Si8 0.201146 0.091191 0.886014
O O1 0.468483 0.500000 0.009630
O O2 0.289120 0.612129 0.832959
O O3 0.456695 0.623725 0.845280
O O4 0.557282 0.627595 0.214431
O O5 0.302847 0.128153 0.634504
O O6 0.266447 0.123429 0.835828
O O7 0.382887 0.000000 0.861775
O O8 0.515209 0.135872 0.054791
O O9 0.289293 0.857308 0.368519
O O10 0.189394 0.746033 0.377035
O O11 0.133437 0.500000 0.538077
O O12 0.101405 0.634351 0.405570
O O13 0.023304 0.606829 0.550588
O O14 0.826979 0.500000 0.340541
O O15 0.797214 0.614107 0.130153
O O16 0.444867 0.500000 0.688817
O O17 0.274763 0.612391 0.421357
O O18 0.545942 0.625158 0.713883
O O19 0.193777 0.000000 0.861483
#
# Coordination Sequence:
#
# PCOD8052916 Si02
#       8
#     4   4   4   4   4   4   4   4
#     4   9  17  33  58  84 111 148 196 247 293 347
#     4  11  23  41  62  88 122 164 204 250 305 368
#     4  12  25  36  57  90 130 158 189 248 317 366
#     4   9  18  36  66  88 107 151 214 259 284 348
#     4  10  18  36  62  90 114 154 212 254 287 355
#     4   9  17  34  61  84 106 147 203 252 282 343
#     4  11  23  37  57  87 126 157 196 242 311 367
#     4   9  17  33  61  87 109 147 208 254 284 342
#
# _framework density 18.811554999999998
#
# number of rings (size 3 to 8) (size 9 to 14) (size 15 to 20)
#    0.000    2.000    2.500    3.000    3.500    0.000 
#    2.250    1.250    0.000    3.000    0.000    0.000 
#    0.000    0.000    0.000    0.000    0.000    0.000 
#
# Total GULP energy -198323.331655 kJ/mol
# GULP energy per Si atom -12395.208228 kJ/mol
# Density = 1.876874 g / cm^3
# Si number density = 18.811555 Si / 1000 Ang^3
#
#
#
# Elastic Constant Matrix: (Units=GPa)
#
#
# Indices 1 2 3 4 5 6 
#
# 1 65.0297 17.2303 16.7350 0.0000 20.8504 0.0000
# 2 17.2303 50.8997 12.1837 0.0000 2.7857 0.0000
# 3 16.7350 12.1837 96.9750 0.0000 19.5200 0.0000
# 4 0.0000 0.0000 0.0000 30.1993 0.0000 2.6549
# 5 20.8504 2.7857 19.5200 0.0000 32.5337 0.0000
# 6 0.0000 0.0000 0.0000 2.6549 0.0000 16.7667
#
#
#
# Elastic Compliance Matrix: (Units=1/GPa)
#
#
# Indices 1 2 3 4 5 6 
#
# 1 0.021301 -0.006440 -0.000261 0.000000 -0.012943 0.000000
# 2 -0.006440 0.022204 -0.002419 0.000000 0.003677 0.000000
# 3 -0.000261 -0.002419 0.012040 0.000000 -0.006849 0.000000
# 4 0.000000 0.000000 0.000000 0.033581 0.000000 -0.005317
# 5 -0.012943 0.003677 -0.006849 0.000000 0.042827 0.000000
# 6 0.000000 0.000000 0.000000 -0.005317 0.000000 0.060484
#
#
# Mechanical properties :
#
#
# Convention : Reuss Voigt Hill
#
# Bulk Modulus (GPa) = 26.80592 33.91139 30.35865
# Shear Modulus (GPa) = 22.41030 27.01696 24.71363
#
# Velocity S-wave (km/s) = 3.45527 3.79382 3.62850
# Velocity P-wave (km/s) = 5.49538 6.10383 5.80758
#
# Compressibility (1/GPa) = 0.03730520
#
# Stress axis : x y z
#
# Youngs Moduli (GPa) = 46.94572 45.03663 83.05961
#
# Poissons Ratio (x) = 0.29003 0.02172
# Poissons Ratio (y) = 0.30232 0.20088
# Poissons Ratio (z) = 0.01228 0.10892
#
# Static dielectric constant tensor:
#      x y z
#    x 3.680850 0.000000 0.415320 
#    y 0.000000 3.209180 0.000000 
#    z 0.415320 0.000000 3.733700 
# 
# 
# High freq. dielectric constant tensor:
#      x y z
#    x 1.724870 0.000000 0.026760 
#    y 0.000000 1.705900 0.000000 
#    z 0.026760 0.000000 1.735980 
# 
# From -- ./inp_files/23405.got.cif
#   From: 2010.03.12/outbox.cif.g09.slc.cpg/sg8_12_cif.got.tgz:23405.got - 2010.03.31 10:45:26.
