data_PCOD8052771
_publ_section_title
;
Structure prediction by ZEFSAII (Michael W. Deem and Ramdas Pophale) SiO2 
 PCOD8052771
Probable space group: C M
;
_chemical_formula_sum "Si O2"
_cell_formula_units_Z 32
_cell_length_a 18.799141
_cell_length_b 8.954061
_cell_length_c 13.798613
_cell_angle_alpha 90.000000
_cell_angle_beta 130.797750
_cell_angle_gamma 90.000000
_cell_volume 1758.333506
_symmetry_space_group_name_H-M "C M"
_symmetry_group_IT_number 8
_symmetry_cell_setting 'monoclinic'
loop_
_space_group_symop_operation_xyz
x,y,z
x,-y,z
1/2+x,1/2+y,z
1/2+x,1/2-y,z
loop_
_atom_site_type_symbol
_atom_site_label
_atom_site_fract_x
_atom_site_fract_y
_atom_site_fract_z
Si Si1 0.065060 0.675913 0.951940
Si Si2 0.939664 0.835462 0.697465
Si Si3 0.780119 0.836985 0.715689
Si Si4 0.771915 0.176651 0.187583
Si Si5 0.288898 0.678143 0.419171
Si Si6 0.446995 0.322802 0.219760
Si Si7 0.138769 0.320973 0.440260
Si Si8 0.431817 0.678939 0.985895
O O1 0.051486 0.500000 0.949430
O O2 0.022212 0.728845 0.810843
O O3 0.017372 0.752077 0.002227
O O4 0.174000 0.723888 0.051304
O O5 0.860055 0.852832 0.706513
O O6 0.887843 0.767770 0.555729
O O7 0.982540 0.000000 0.713957
O O8 0.690545 0.758272 0.584745
O O9 0.831219 0.758853 0.853465
O O10 0.746098 0.000000 0.719451
O O11 0.781114 0.244804 0.304079
O O12 0.856013 0.237481 0.195716
O O13 0.778325 0.000000 0.201404
O O14 0.289273 0.500000 0.420174
O O15 0.198331 0.733744 0.399766
O O16 0.455837 0.500000 0.233210
O O17 0.536816 0.250045 0.349473
O O18 0.439425 0.267298 0.102668
O O19 0.133004 0.500000 0.437331
O O20 0.435719 0.500000 0.978846
#
# Coordination Sequence:
#
# PCOD8052771 Si02
#       8
#     4   4   4   4   4   4   4   4
#     4  10  18  29  49  73  94 117 148 191 234 268
#     4   8  14  27  48  71  92 116 149 187 225 269
#     4   7  12  25  45  66  86 111 146 183 218 264
#     4   9  18  31  45  65  94 126 157 185 221 272
#     4   8  14  28  51  71  88 119 158 187 217 270
#     4  10  20  32  46  66  94 125 154 188 228 268
#     4   9  16  29  50  71  88 112 152 195 229 267
#     4   9  17  31  50  69  90 120 156 188 222 270
#
# _framework density 18.199051000000001
#
# number of rings (size 3 to 8) (size 9 to 14) (size 15 to 20)
#    0.000    3.250    0.000    3.375    0.000    1.500 
#    0.000    8.125    0.000    4.500    0.000    0.000 
#    0.000    0.000    0.000    0.000    0.000    0.000 
#
# Total GULP energy -198221.432109 kJ/mol
# GULP energy per Si atom -12388.839507 kJ/mol
# Density = 1.815763 g / cm^3
# Si number density = 18.199051 Si / 1000 Ang^3
#
#
#
# Elastic Constant Matrix: (Units=GPa)
#
#
# Indices 1 2 3 4 5 6 
#
# 1 82.2415 18.4644 58.3246 0.0000 23.1398 0.0000
# 2 18.4644 26.8498 26.7839 0.0000 5.7612 0.0000
# 3 58.3246 26.7839 161.9667 0.0000 27.9578 0.0000
# 4 0.0000 0.0000 0.0000 25.3894 0.0000 4.9331
# 5 23.1398 5.7612 27.9578 0.0000 15.9168 0.0000
# 6 0.0000 0.0000 0.0000 4.9331 0.0000 14.7597
#
#
#
# Elastic Compliance Matrix: (Units=1/GPa)
#
#
# Indices 1 2 3 4 5 6 
#
# 1 0.023082 -0.007739 -0.002473 0.000000 -0.026411 0.000000
# 2 -0.007739 0.047430 -0.005791 0.000000 0.004255 0.000000
# 3 -0.002473 -0.005791 0.010103 0.000000 -0.012055 0.000000
# 4 0.000000 0.000000 0.000000 0.042122 0.000000 -0.014078
# 5 -0.026411 0.004255 -0.012055 0.000000 0.120857 0.000000
# 6 0.000000 0.000000 0.000000 -0.014078 0.000000 0.072458
#
#
# Mechanical properties :
#
#
# Convention : Reuss Voigt Hill
#
# Bulk Modulus (GPa) = 20.57243 53.13375 36.85309
# Shear Modulus (GPa) = 13.72643 22.37885 18.05264
#
# Velocity S-wave (km/s) = 2.74932 3.51047 3.15295
# Velocity P-wave (km/s) = 4.62677 6.75947 5.79213
#
# Compressibility (1/GPa) = 0.04860875
#
# Stress axis : x y z
#
# Youngs Moduli (GPa) = 43.32408 21.08370 98.97934
#
# Poissons Ratio (x) = 0.16317 0.24479
# Poissons Ratio (y) = 0.33529 0.57319
# Poissons Ratio (z) = 0.10714 0.12210
#
# Static dielectric constant tensor:
#      x y z
#    x 3.167250 0.000000 -0.120370 
#    y 0.000000 2.927280 0.000000 
#    z -0.120370 0.000000 4.004220 
# 
# 
# High freq. dielectric constant tensor:
#      x y z
#    x 1.668850 0.000000 0.000230 
#    y 0.000000 1.658250 0.000000 
#    z 0.000230 0.000000 1.733640 
# 
# From -- ./inp_files/23895.got.cif
#   From: 2010.03.12/outbox.cif.g09.slc.cpg/sg8_12_cif.got.tgz:23895.got - 2010.03.31 10:45:26.
