data_PCOD8052989
_publ_section_title
;
Structure prediction by ZEFSAII (Michael W. Deem and Ramdas Pophale) SiO2 
 PCOD8052989
Probable space group: C M
;
_chemical_formula_sum "Si O2"
_cell_formula_units_Z 32
_cell_length_a 18.633298
_cell_length_b 8.827668
_cell_length_c 14.347005
_cell_angle_alpha 90.000000
_cell_angle_beta 46.630215
_cell_angle_gamma 90.000000
_cell_volume 1715.511719
_symmetry_space_group_name_H-M "C M"
_symmetry_group_IT_number 8
_symmetry_cell_setting 'monoclinic'
loop_
_space_group_symop_operation_xyz
x,y,z
x,-y,z
1/2+x,1/2+y,z
1/2+x,1/2-y,z
loop_
_atom_site_type_symbol
_atom_site_label
_atom_site_fract_x
_atom_site_fract_y
_atom_site_fract_z
Si Si1 0.425830 0.181667 0.632730
Si Si2 0.666135 0.318874 0.178454
Si Si3 0.006052 0.324450 0.193913
Si Si4 0.614669 0.333139 0.940399
Si Si5 0.777435 0.677120 0.429108
Si Si6 0.302756 0.834393 0.903805
Si Si7 0.250774 0.180100 0.661824
Si Si8 0.143929 0.321172 0.394559
O O1 0.390170 0.247010 0.766569
O O2 0.351878 0.242648 0.618556
O O3 0.534925 0.241961 0.514910
O O4 0.422965 0.000000 0.639151
O O5 0.665484 0.500000 0.177318
O O6 0.564629 0.263232 0.222490
O O7 0.681158 0.258396 0.268123
O O8 0.760571 0.253396 0.034620
O O9 0.030258 0.500000 0.184357
O O10 0.891881 0.289262 0.310625
O O11 0.035915 0.274311 0.062315
O O12 0.566396 0.500000 0.970094
O O13 0.711381 0.350778 0.915823
O O14 0.652635 0.265642 0.806631
O O15 0.753593 0.500000 0.436175
O O16 0.746036 0.735326 0.559673
O O17 0.716505 0.777928 0.412311
O O18 0.341133 0.000000 0.899332
O O19 0.255033 0.000000 0.661690
O O20 0.142918 0.500000 0.380323
#
# Coordination Sequence:
#
# PCOD8052989 Si02
#       8
#     4   4   4   4   4   4   4   4
#     4   8  14  28  51  76  97 121 159 203 246 293
#     4  10  19  33  55  78 101 131 165 203 248 300
#     4  10  19  32  53  78 102 130 166 208 249 292
#     4   8  14  27  50  77 100 124 158 203 252 298
#     4  10  21  36  51  69  99 139 176 207 244 293
#     4   7  12  25  48  75  97 121 157 197 239 293
#     4   8  14  29  54  76  94 124 167 207 245 297
#     4  11  22  34  50  73 102 134 168 210 253 292
#
# _framework density 18.653326
#
# number of rings (size 3 to 8) (size 9 to 14) (size 15 to 20)
#    0.000    3.000    0.000    4.125    0.000    3.000 
#    0.000    1.875    0.000   22.500    0.000    0.000 
#    0.000    0.000    0.000    0.000    0.000    0.000 
#
# Total GULP energy -198237.586979 kJ/mol
# GULP energy per Si atom -12389.849186 kJ/mol
# Density = 1.861087 g / cm^3
# Si number density = 18.653326 Si / 1000 Ang^3
#
#
#
# Elastic Constant Matrix: (Units=GPa)
#
#
# Indices 1 2 3 4 5 6 
#
# 1 74.5766 23.6468 54.2876 0.0000 23.1556 0.0000
# 2 23.6468 43.6564 30.7954 0.0000 6.7543 0.0000
# 3 54.2876 30.7954 156.5389 0.0000 37.4992 0.0000
# 4 0.0000 0.0000 0.0000 21.1988 0.0000 -0.1076
# 5 23.1556 6.7543 37.4992 0.0000 16.2056 0.0000
# 6 0.0000 0.0000 0.0000 -0.1076 0.0000 21.3717
#
#
#
# Elastic Compliance Matrix: (Units=1/GPa)
#
#
# Indices 1 2 3 4 5 6 
#
# 1 0.027488 -0.010134 0.001925 0.000000 -0.039507 0.000000
# 2 -0.010134 0.030372 -0.006500 0.000000 0.016862 0.000000
# 3 0.001925 -0.006500 0.015727 0.000000 -0.036433 0.000000
# 4 0.000000 0.000000 0.000000 0.047174 0.000000 0.000237
# 5 -0.039507 0.016862 -0.036433 0.000000 0.195434 0.000000
# 6 0.000000 0.000000 0.000000 0.000237 0.000000 0.046792
#
#
# Mechanical properties :
#
#
# Convention : Reuss Voigt Hill
#
# Bulk Modulus (GPa) = 22.64098 54.69241 38.66669
# Shear Modulus (GPa) = 12.28117 22.82469 17.55293
#
# Velocity S-wave (km/s) = 2.56870 3.50183 3.07091
# Velocity P-wave (km/s) = 4.57840 6.76273 5.77478
#
# Compressibility (1/GPa) = 0.04416770
#
# Stress axis : x y z
#
# Youngs Moduli (GPa) = 36.37967 32.92549 63.58516
#
# Poissons Ratio (x) = 0.33368 -0.12239
# Poissons Ratio (y) = 0.36869 0.41329
# Poissons Ratio (z) = -0.07003 0.21401
#
# Static dielectric constant tensor:
#      x y z
#    x 3.115080 0.000000 0.202780 
#    y 0.000000 3.094540 0.000000 
#    z 0.202780 0.000000 4.188830 
# 
# 
# High freq. dielectric constant tensor:
#      x y z
#    x 1.687330 0.000000 0.011390 
#    y 0.000000 1.685730 0.000000 
#    z 0.011390 0.000000 1.752470 
# 
# From -- ./inp_files/27762.got.cif
#   From: 2010.03.12/outbox.cif.g09.slc.cpg/sg8_14_cif.got.tgz:27762.got - 2010.03.31 10:45:26.
