data_PCOD8052782
_publ_section_title
;
Structure prediction by ZEFSAII (Michael W. Deem and Ramdas Pophale) SiO2 
 PCOD8052782
Probable space group: C M
;
_chemical_formula_sum "Si O2"
_cell_formula_units_Z 32
_cell_length_a 23.215307
_cell_length_b 9.003049
_cell_length_c 12.283983
_cell_angle_alpha 90.000000
_cell_angle_beta 133.011854
_cell_angle_gamma 90.000000
_cell_volume 1877.357189
_symmetry_space_group_name_H-M "C M"
_symmetry_group_IT_number 8
_symmetry_cell_setting 'monoclinic'
loop_
_space_group_symop_operation_xyz
x,y,z
x,-y,z
1/2+x,1/2+y,z
1/2+x,1/2-y,z
loop_
_atom_site_type_symbol
_atom_site_label
_atom_site_fract_x
_atom_site_fract_y
_atom_site_fract_z
Si Si1 0.213390 0.176651 0.798970
Si Si2 0.550729 0.171551 0.549535
Si Si3 0.629283 0.335171 0.300485
Si Si4 0.396655 0.672097 0.409856
Si Si5 0.761424 0.663925 0.628021
Si Si6 0.995283 0.671891 0.234814
Si Si7 0.277037 0.674381 0.441970
Si Si8 0.340354 0.673004 0.097916
O O1 0.125280 0.237348 0.686938
O O2 0.259537 0.226544 0.748210
O O3 0.210701 0.000000 0.805406
O O4 0.259767 0.247138 0.959671
O O5 0.475164 0.230506 0.517770
O O6 0.537800 0.195197 0.404817
O O7 0.563603 0.000000 0.594580
O O8 0.610019 0.500000 0.229620
O O9 0.670016 0.348356 0.472005
O O10 0.549505 0.240648 0.209491
O O11 0.692935 0.252123 0.304185
O O12 0.420311 0.500000 0.450443
O O13 0.341071 0.724086 0.436570
O O14 0.349869 0.701876 0.238216
O O15 0.800895 0.500000 0.675163
O O16 0.806565 0.772521 0.600808
O O17 0.980215 0.500000 0.189767
O O18 0.912567 0.756241 0.124673
O O19 0.263498 0.500000 0.424870
O O20 0.336257 0.500000 0.064269
#
# Coordination Sequence:
#
# PCOD8052782 Si02
#       8
#     4   4   4   4   4   4   4   4
#     4  11  20  33  50  72 102 132 162 196 243 295
#     4  10  19  29  48  73  96 125 164 204 240 283
#     4   9  16  27  45  71  97 124 153 192 241 282
#     4   9  19  34  50  71  99 131 163 200 243 285
#     4   8  17  29  46  71  97 125 154 194 241 284
#     4  10  18  30  48  73  99 125 162 202 240 286
#     4   9  16  28  48  73  96 123 162 204 240 281
#     4  10  21  34  49  70 102 135 162 196 242 292
#
# _framework density 17.045238000000001
#
# number of rings (size 3 to 8) (size 9 to 14) (size 15 to 20)
#    0.750    1.750    1.250    1.875    0.000    3.500 
#    0.000    0.000    0.000    1.500    0.000    8.750 
#    0.000    0.000    0.000    0.000    0.000    0.000 
#
# Total GULP energy -198306.562624 kJ/mol
# GULP energy per Si atom -12394.160164 kJ/mol
# Density = 1.700644 g / cm^3
# Si number density = 17.045238 Si / 1000 Ang^3
#
#
#
# Elastic Constant Matrix: (Units=GPa)
#
#
# Indices 1 2 3 4 5 6 
#
# 1 126.7303 68.2180 34.3876 0.0000 3.5924 0.0000
# 2 68.2180 112.6356 39.1190 0.0000 9.5602 0.0000
# 3 34.3876 39.1190 64.0287 0.0000 13.0997 0.0000
# 4 0.0000 0.0000 0.0000 24.0537 0.0000 4.9820
# 5 3.5924 9.5602 13.0997 0.0000 18.7802 0.0000
# 6 0.0000 0.0000 0.0000 4.9820 0.0000 31.0632
#
#
#
# Elastic Compliance Matrix: (Units=1/GPa)
#
#
# Indices 1 2 3 4 5 6 
#
# 1 0.012193 -0.006544 -0.003214 0.000000 0.003240 0.000000
# 2 -0.006544 0.014801 -0.004949 0.000000 -0.002831 0.000000
# 3 -0.003214 -0.004949 0.023010 0.000000 -0.012916 0.000000
# 4 0.000000 0.000000 0.000000 0.043002 0.000000 -0.006897
# 5 0.003240 -0.002831 -0.012916 0.000000 0.063078 0.000000
# 6 0.000000 0.000000 0.000000 -0.006897 0.000000 0.033299
#
#
# Mechanical properties :
#
#
# Convention : Reuss Voigt Hill
#
# Bulk Modulus (GPa) = 48.56449 65.20487 56.88468
# Shear Modulus (GPa) = 22.15733 25.55742 23.85737
#
# Velocity S-wave (km/s) = 3.60934 3.87639 3.74525
# Velocity P-wave (km/s) = 6.77666 7.64018 7.22134
#
# Compressibility (1/GPa) = 0.02059118
#
# Stress axis : x y z
#
# Youngs Moduli (GPa) = 82.01121 67.56491 43.45949
#
# Poissons Ratio (x) = 0.44214 0.13966
# Poissons Ratio (y) = 0.53668 0.21508
# Poissons Ratio (z) = 0.26355 0.33437
#
# Static dielectric constant tensor:
#      x y z
#    x 3.067490 0.000000 0.029030 
#    y 0.000000 3.243520 0.000000 
#    z 0.029030 0.000000 2.854990 
# 
# 
# High freq. dielectric constant tensor:
#      x y z
#    x 1.647390 0.000000 0.008780 
#    y 0.000000 1.672680 0.000000 
#    z 0.008780 0.000000 1.616080 
# 
# From -- ./inp_files/24320.got.cif
#   From: 2010.03.12/outbox.cif.g09.slc.cpg/sg8_13_cif.got.tgz:24320.got - 2010.03.31 10:45:26.
