data_PCOD8052044
_publ_section_title
;
Structure prediction by ZEFSAII (Michael W. Deem and Ramdas Pophale) SiO2 
 PCOD8052044
Probable space group: C 2
;
_chemical_formula_sum "Si O2"
_cell_formula_units_Z 20
_cell_length_a 9.975039
_cell_length_b 7.670987
_cell_length_c 10.851075
_cell_angle_alpha 90.000000
_cell_angle_beta 87.475140
_cell_angle_gamma 90.000000
_cell_volume 829.500777
_symmetry_space_group_name_H-M "C 2"
_symmetry_group_IT_number 5
_symmetry_cell_setting 'monoclinic'
loop_
_space_group_symop_operation_xyz
x,y,z
-x,y,-z
1/2+x,1/2+y,z
1/2-x,1/2+y,-z
loop_
_atom_site_type_symbol
_atom_site_label
_atom_site_fract_x
_atom_site_fract_y
_atom_site_fract_z
Si Si1 0.627734 0.116820 0.416958
Si Si2 0.649501 0.249590 0.980057
Si Si3 0.136927 0.393537 0.862922
Si Si4 0.135299 0.322195 0.222979
Si Si5 0.706656 0.499489 0.369927
O O1 0.500000 0.062510 0.500000
O O2 0.621527 0.321916 0.384981
O O3 0.631598 0.006150 0.292283
O O4 0.755148 0.066799 0.495769
O O5 0.725282 0.323486 0.857150
O O6 0.632100 0.043905 0.965284
O O7 0.500000 0.335236 0.000000
O O8 0.739472 0.270826 0.099636
O O9 0.165311 0.462654 0.723243
O O10 0.991356 0.301823 0.864897
O O11 0.121038 0.155992 0.313698
#
# Coordination Sequence:
#
# PCOD8052044 Si02
#       5
#     4   4   4   4   4
#     4  12  25  46  74 108 154 194 247 304 369 437
#     4  11  26  47  74 108 148 197 245 312 374 436
#     4  11  26  48  73 107 152 195 246 312 366 443
#     4  11  25  50  76 110 150 197 251 307 366 442
#     4  11  26  44  74 111 145 201 245 303 368 440
#
# _framework density 24.110887000000002
#
# number of rings (size 3 to 8) (size 9 to 14) (size 15 to 20)
#    0.000    0.800    4.000    1.800    5.600    5.600 
#    0.000    0.000    0.000    0.000    0.000    0.000 
#    0.000    0.000    0.000    0.000    0.000    0.000 
#
# Total GULP energy -124002.500896 kJ/mol
# GULP energy per Si atom -12400.250090 kJ/mol
# Density = 2.405601 g / cm^3
# Si number density = 24.110887 Si / 1000 Ang^3
#
#
#
# Elastic Constant Matrix: (Units=GPa)
#
#
# Indices 1 2 3 4 5 6 
#
# 1 171.2383 46.7516 57.3691 0.0000 18.1740 0.0000
# 2 46.7516 138.9006 43.9860 0.0000 15.2219 0.0000
# 3 57.3691 43.9860 95.2448 0.0000 23.4076 0.0000
# 4 0.0000 0.0000 0.0000 44.9064 0.0000 -0.1299
# 5 18.1740 15.2219 23.4076 0.0000 42.9880 0.0000
# 6 0.0000 0.0000 0.0000 -0.1299 0.0000 30.7512
#
#
#
# Elastic Compliance Matrix: (Units=1/GPa)
#
#
# Indices 1 2 3 4 5 6 
#
# 1 0.007523 -0.001260 -0.003784 0.000000 -0.000674 0.000000
# 2 -0.001260 0.008681 -0.003031 0.000000 -0.000891 0.000000
# 3 -0.003784 -0.003031 0.015610 0.000000 -0.005827 0.000000
# 4 0.000000 0.000000 0.000000 0.022269 0.000000 0.000094
# 5 -0.000674 -0.000891 -0.005827 0.000000 0.027036 0.000000
# 6 0.000000 0.000000 0.000000 0.000094 0.000000 0.032519
#
#
# Mechanical properties :
#
#
# Convention : Reuss Voigt Hill
#
# Bulk Modulus (GPa) = 63.83968 77.95522 70.89745
# Shear Modulus (GPa) = 37.03437 40.88093 38.95765
#
# Velocity S-wave (km/s) = 3.92344 4.12216 4.02403
# Velocity P-wave (km/s) = 6.85999 7.42014 7.14555
#
# Compressibility (1/GPa) = 0.01566424
#
# Stress axis : x y z
#
# Youngs Moduli (GPa) = 132.92505 115.19403 64.06012
#
# Poissons Ratio (x) = 0.14515 0.24239
# Poissons Ratio (y) = 0.16749 0.19418
# Poissons Ratio (z) = 0.50297 0.34918
#
# Static dielectric constant tensor:
#      x y z
#    x 4.333780 0.000000 0.047270 
#    y 0.000000 4.281790 0.000000 
#    z 0.047270 0.000000 4.463560 
# 
# 
# High freq. dielectric constant tensor:
#      x y z
#    x 1.950550 0.000000 -0.003350 
#    y 0.000000 1.953950 0.000000 
#    z -0.003350 0.000000 1.972540 
# 
# From -- ./inp_files/34746.got.cif
#   From: 2010.03.12/outbox.cif.g09.slc.cpg/sg5_18_cif.got.tgz:34746.got - 2010.03.31 09:47:26.
