data_PCOD8052597
_publ_section_title
;
Structure prediction by ZEFSAII (Michael W. Deem and Ramdas Pophale) SiO2 
 PCOD8052597
Probable space group: P C
;
_chemical_formula_sum "Si O2"
_cell_formula_units_Z 14
_cell_length_a 9.293423
_cell_length_b 15.507125
_cell_length_c 5.095343
_cell_angle_alpha 90.000000
_cell_angle_beta 60.887521
_cell_angle_gamma 90.000000
_cell_volume 641.543325
_symmetry_space_group_name_H-M "P C"
_symmetry_group_IT_number 7
_symmetry_cell_setting 'monoclinic'
loop_
_space_group_symop_operation_xyz
x,y,z
x,-y,1/2+z
loop_
_atom_site_type_symbol
_atom_site_label
_atom_site_fract_x
_atom_site_fract_y
_atom_site_fract_z
Si Si1 0.069820 0.256653 0.529310
Si Si2 0.664590 0.943718 0.731376
Si Si3 0.524886 0.529266 0.238606
Si Si4 0.536156 0.277833 0.738294
Si Si5 0.166172 0.545486 0.956176
Si Si6 0.406775 0.807778 0.868304
Si Si7 0.868519 0.217676 0.206488
O O1 0.142505 0.352658 0.431340
O O2 0.214527 0.188192 0.468577
O O3 0.005515 0.218778 0.311247
O O4 0.934590 0.260227 0.879431
O O5 0.485133 0.897535 0.903187
O O6 0.810145 0.877856 0.677127
O O7 0.680408 0.978332 0.421815
O O8 0.625258 0.476584 0.374544
O O9 0.493809 0.625833 0.359698
O O10 0.360365 0.478194 0.281607
O O11 0.412542 0.256313 0.611228
O O12 0.719318 0.271854 0.460672
O O13 0.514239 0.220230 0.018704
O O14 0.082476 0.508681 0.293622
#
# Coordination Sequence:
#
# PCOD8052597 Si02
#       7
#     2   2   2   2   2   2   2
#     4  12  23  41  64  98 134 169 214 264 323 388
#     4  11  23  45  70  95 124 164 211 260 317 393
#     4  10  19  32  55  85 114 158 218 270 303 339
#     4  11  21  41  63  90 124 171 223 258 303 389
#     4  10  19  34  56  85 121 167 212 260 311 353
#     4  11  22  39  69  95 121 163 212 262 311 378
#     4  11  25  42  65  94 132 174 204 256 334 396
#
# _framework density 21.822375999999998
#
# number of rings (size 3 to 8) (size 9 to 14) (size 15 to 20)
#    0.000    1.143    0.000   10.286    0.000    0.000 
#    0.000    8.571    0.000    0.000    0.000    0.000 
#    0.000    0.000    0.000    0.000    0.000    0.000 
#
# Total GULP energy -173488.032583 kJ/mol
# GULP energy per Si atom -12392.002327 kJ/mol
# Density = 2.177271 g / cm^3
# Si number density = 21.822376 Si / 1000 Ang^3
#
#
#
# Elastic Constant Matrix: (Units=GPa)
#
#
# Indices 1 2 3 4 5 6 
#
# 1 96.3790 43.2662 18.8482 0.0000 20.1844 0.0000
# 2 43.2662 102.4413 26.9678 0.0000 3.4933 0.0000
# 3 18.8482 26.9678 100.3539 0.0000 27.4463 0.0000
# 4 0.0000 0.0000 0.0000 37.6815 0.0000 9.6347
# 5 20.1844 3.4933 27.4463 0.0000 49.1026 0.0000
# 6 0.0000 0.0000 0.0000 9.6347 0.0000 33.7595
#
#
#
# Elastic Compliance Matrix: (Units=1/GPa)
#
#
# Indices 1 2 3 4 5 6 
#
# 1 0.014111 -0.005893 0.000478 0.000000 -0.005648 0.000000
# 2 -0.005893 0.013006 -0.003303 0.000000 0.003343 0.000000
# 3 0.000478 -0.003303 0.012692 0.000000 -0.007056 0.000000
# 4 0.000000 0.000000 0.000000 0.028627 0.000000 -0.008170
# 5 -0.005648 0.003343 -0.007056 0.000000 0.026394 0.000000
# 6 0.000000 0.000000 0.000000 -0.008170 0.000000 0.031953
#
#
# Mechanical properties :
#
#
# Convention : Reuss Voigt Hill
#
# Bulk Modulus (GPa) = 44.69444 53.03762 48.86603
# Shear Modulus (GPa) = 32.96524 38.11486 35.54005
#
# Velocity S-wave (km/s) = 3.89088 4.18376 4.03998
# Velocity P-wave (km/s) = 6.38050 6.90619 6.64854
#
# Compressibility (1/GPa) = 0.02237415
#
# Stress axis : x y z
#
# Youngs Moduli (GPa) = 70.86906 76.88784 78.78849
#
# Poissons Ratio (x) = 0.45309 -0.03767
# Poissons Ratio (y) = 0.41762 0.26021
# Poissons Ratio (z) = -0.03389 0.25393
#
# Static dielectric constant tensor:
#      x y z
#    x 4.036860 0.000000 0.480370 
#    y 0.000000 3.738950 0.000000 
#    z 0.480370 0.000000 4.414870 
# 
# 
# High freq. dielectric constant tensor:
#      x y z
#    x 1.853600 0.000000 0.035560 
#    y 0.000000 1.844440 0.000000 
#    z 0.035560 0.000000 1.877010 
# 
# From -- ./inp_files/603.got.cif
#   From: 2010.03.12/outbox.cif.g09.slc.cpg/sg7_cif.got.tgz:603.got - 2010.03.30 08:40:41.
