data_PCOD8052243
_publ_section_title
;
Structure prediction by ZEFSAII (Michael W. Deem and Ramdas Pophale) SiO2 
 PCOD8052243
Probable space group: P M
;
_chemical_formula_sum "Si O2"
_cell_formula_units_Z 16
_cell_length_a 12.319634
_cell_length_b 8.963418
_cell_length_c 18.841309
_cell_angle_alpha 90.000000
_cell_angle_beta 153.199019
_cell_angle_gamma 90.000000
_cell_volume 938.114504
_symmetry_space_group_name_H-M "P M"
_symmetry_group_IT_number 6
_symmetry_cell_setting 'monoclinic'
loop_
_space_group_symop_operation_xyz
x,y,z
x,-y,z
loop_
_atom_site_type_symbol
_atom_site_label
_atom_site_fract_x
_atom_site_fract_y
_atom_site_fract_z
Si Si1 0.717060 0.169880 0.295420
Si Si2 0.799319 0.830248 0.807518
Si Si3 0.349501 0.823575 0.451704
Si Si4 0.234096 0.830917 0.612046
Si Si5 0.025631 0.324794 0.369001
Si Si6 0.275657 0.324767 0.112176
Si Si7 0.732599 0.167720 0.934174
Si Si8 0.199534 0.325735 0.229510
O O1 0.512687 0.258849 0.215798
O O2 0.963722 0.176933 0.487914
O O3 0.780397 0.246327 0.255854
O O4 0.634275 0.000000 0.234367
O O5 0.589751 0.771700 0.633015
O O6 0.717630 0.813700 0.840757
O O7 0.863410 0.000000 0.826199
O O8 0.039893 0.734655 0.934233
O O9 0.109341 0.745157 0.343243
O O10 0.368910 0.765871 0.382067
O O11 0.315989 0.000000 0.435059
O O12 0.241017 0.714600 0.550219
O O13 0.454103 0.795702 0.795218
O O14 0.275533 0.000000 0.606073
O O15 0.984052 0.500000 0.336732
O O16 0.282302 0.500000 0.107512
O O17 0.273756 0.277133 0.193616
O O18 0.809992 0.000000 0.001219
O O19 0.918728 0.282038 0.077811
O O20 0.231650 0.500000 0.261850
#
# Coordination Sequence:
#
# PCOD8052243 Si02
#       8
#     2   2   2   2   2   2   2   2
#     4   9  17  31  50  73  99 129 168 208 243 289
#     4   9  17  30  50  71  94 126 168 209 244 290
#     4  11  20  34  52  74 101 134 171 205 247 301
#     4   8  15  28  47  73  98 124 158 202 242 287
#     4  10  18  28  48  76 102 127 157 202 254 294
#     4  10  20  33  49  74 103 131 166 207 251 295
#     4   9  15  30  50  71  98 127 164 204 246 293
#     4  10  22  34  46  72 107 136 164 203 253 303
#
# _framework density 17.055486999999999
#
# number of rings (size 3 to 8) (size 9 to 14) (size 15 to 20)
#    0.750    1.750    1.250    2.250    0.000    3.000 
#    0.000    0.000    0.000    1.500    0.000    5.250 
#    0.000    0.000    0.000    0.000    0.000    0.000 
#
# Total GULP energy -198219.628115 kJ/mol
# GULP energy per Si atom -12388.726757 kJ/mol
# Density = 1.701667 g / cm^3
# Si number density = 17.055487 Si / 1000 Ang^3
#
#
#
# Elastic Constant Matrix: (Units=GPa)
#
#
# Indices 1 2 3 4 5 6 
#
# 1 72.9740 40.1040 45.2466 0.0000 12.7590 0.0000
# 2 40.1040 78.2998 36.5723 0.0000 2.2814 0.0000
# 3 45.2466 36.5723 88.8885 0.0000 4.8664 0.0000
# 4 0.0000 0.0000 0.0000 23.8833 0.0000 -0.2163
# 5 12.7590 2.2814 4.8664 0.0000 25.6903 0.0000
# 6 0.0000 0.0000 0.0000 -0.2163 0.0000 25.8285
#
#
#
# Elastic Compliance Matrix: (Units=1/GPa)
#
#
# Indices 1 2 3 4 5 6 
#
# 1 0.025933 -0.008764 -0.009026 0.000000 -0.010392 0.000000
# 2 -0.008764 0.018772 -0.003445 0.000000 0.003338 0.000000
# 3 -0.009026 -0.003445 0.017178 0.000000 0.001535 0.000000
# 4 0.000000 0.000000 0.000000 0.041873 0.000000 0.000351
# 5 -0.010392 0.003338 0.001535 0.000000 0.043499 0.000000
# 6 0.000000 0.000000 0.000000 0.000351 0.000000 0.038720
#
#
# Mechanical properties :
#
#
# Convention : Reuss Voigt Hill
#
# Bulk Modulus (GPa) = 51.51193 53.77869 52.64531
# Shear Modulus (GPa) = 21.28411 22.96304 22.12358
#
# Velocity S-wave (km/s) = 3.53644 3.67328 3.60551
# Velocity P-wave (km/s) = 6.85152 7.04206 6.94745
#
# Compressibility (1/GPa) = 0.01941298
#
# Stress axis : x y z
#
# Youngs Moduli (GPa) = 38.56063 53.27033 58.21403
#
# Poissons Ratio (x) = 0.46686 0.52544
# Poissons Ratio (y) = 0.33794 0.20056
# Poissons Ratio (z) = 0.34805 0.18353
#
# Static dielectric constant tensor:
#      x y z
#    x 2.938590 0.000000 0.144210 
#    y 0.000000 3.171550 0.000000 
#    z 0.144210 0.000000 3.206870 
# 
# 
# High freq. dielectric constant tensor:
#      x y z
#    x 1.620940 0.000000 0.017100 
#    y 0.000000 1.664600 0.000000 
#    z 0.017100 0.000000 1.646590 
# 
# From -- ./inp_files/5839.got.cif
#   From: 2010.03.12/outbox.cif.g09.slc.cpg/sg6_3_cif.got.tgz:5839.got - 2010.03.30 10:24:59.
