data_PCOD8052457
_publ_section_title
;
Structure prediction by ZEFSAII (Michael W. Deem and Ramdas Pophale) SiO2 
 PCOD8052457
Probable space group: P M
;
_chemical_formula_sum "Si O2"
_cell_formula_units_Z 14
_cell_length_a 8.299514
_cell_length_b 16.271728
_cell_length_c 9.456095
_cell_angle_alpha 90.000000
_cell_angle_beta 148.593657
_cell_angle_gamma 90.000000
_cell_volume 665.461099
_symmetry_space_group_name_H-M "P M"
_symmetry_group_IT_number 6
_symmetry_cell_setting 'monoclinic'
loop_
_space_group_symop_operation_xyz
x,y,z
x,-y,z
loop_
_atom_site_type_symbol
_atom_site_label
_atom_site_fract_x
_atom_site_fract_y
_atom_site_fract_z
Si Si1 0.046420 0.326295 0.653580
Si Si2 0.189333 0.908287 0.506058
Si Si3 0.243285 0.240533 0.353795
Si Si4 0.467220 0.091830 0.004426
Si Si5 0.931918 0.500000 0.470410
Si Si6 0.608840 0.324755 0.857240
Si Si7 0.413636 0.241266 0.156453
Si Si8 0.623884 0.500000 0.944910
O O1 0.330118 0.314752 0.758872
O O2 0.906354 0.418697 0.548249
O O3 0.769489 0.266504 0.399568
O O4 0.176547 0.305422 0.906374
O O5 0.295018 0.849543 0.458240
O O6 0.828172 0.911486 0.254768
O O7 0.320000 0.000000 0.572510
O O8 0.327696 0.872564 0.754867
O O9 0.475641 0.304850 0.602565
O O10 0.330734 0.237819 0.257113
O O11 0.886234 0.264704 0.108897
O O12 0.363059 0.151095 0.052947
O O13 0.337332 0.000000 0.939147
O O14 0.260430 0.500000 0.638683
O O15 0.676614 0.500000 0.154416
O O16 0.754449 0.417086 0.970787
#
# Coordination Sequence:
#
# PCOD8052457 Si02
#       8
#     2   2   2   2   1   2   2   1
#     4  11  22  40  63  86 114 154 201 243 284 342
#     4  10  21  38  61  86 112 149 197 241 283 338
#     4  12  24  38  58  89 124 155 189 235 296 351
#     4  10  21  38  61  86 112 149 197 241 283 338
#     4  10  20  36  61  90 111 144 201 252 285 328
#     4  11  22  40  63  86 114 154 201 243 284 342
#     4  12  24  38  58  89 124 155 189 235 296 351
#     4  10  20  36  61  90 111 144 201 252 285 328
#
# _framework density 21.038045
#
# number of rings (size 3 to 8) (size 9 to 14) (size 15 to 20)
#    0.000    1.143    0.000    9.429    0.000    0.571 
#    0.000    4.286    0.000    8.571    0.000    0.000 
#    0.000    0.000    0.000    0.000    0.000    0.000 
#
# Total GULP energy -173628.996556 kJ/mol
# GULP energy per Si atom -12402.071183 kJ/mol
# Density = 2.099016 g / cm^3
# Si number density = 21.038045 Si / 1000 Ang^3
#
#
#
# Elastic Constant Matrix: (Units=GPa)
#
#
# Indices 1 2 3 4 5 6 
#
# 1 75.2771 68.9082 38.5999 0.0000 -26.9973 0.0000
# 2 68.9082 154.4331 59.4263 0.0000 -28.3478 0.0000
# 3 38.5999 59.4263 147.6851 0.0000 -21.6206 0.0000
# 4 0.0000 0.0000 0.0000 38.3296 0.0000 -4.8877
# 5 -26.9973 -28.3478 -21.6206 0.0000 43.6588 0.0000
# 6 0.0000 0.0000 0.0000 -4.8877 0.0000 12.1978
#
#
#
# Elastic Compliance Matrix: (Units=1/GPa)
#
#
# Indices 1 2 3 4 5 6 
#
# 1 0.025880 -0.009202 -0.001718 0.000000 0.009178 0.000000
# 2 -0.009202 0.011537 -0.002128 0.000000 0.000747 0.000000
# 3 -0.001718 -0.002128 0.008322 0.000000 0.001677 0.000000
# 4 0.000000 0.000000 0.000000 0.027494 0.000000 0.011017
# 5 0.009178 0.000747 0.001677 0.000000 0.029896 0.000000
# 6 0.000000 0.000000 0.000000 0.011017 0.000000 0.086397
#
#
# Mechanical properties :
#
#
# Convention : Reuss Voigt Hill
#
# Bulk Modulus (GPa) = 50.90682 79.02935 64.96808
# Shear Modulus (GPa) = 22.50531 32.86797 27.68664
#
# Velocity S-wave (km/s) = 3.27424 3.95690 3.63164
# Velocity P-wave (km/s) = 6.20840 7.65000 6.96659
#
# Compressibility (1/GPa) = 0.01964374
#
# Stress axis : x y z
#
# Youngs Moduli (GPa) = 38.63967 86.67595 120.16434
#
# Poissons Ratio (x) = 0.79759 0.20642
# Poissons Ratio (y) = 0.35556 0.25570
# Poissons Ratio (z) = 0.06638 0.18444
#
# Static dielectric constant tensor:
#      x y z
#    x 3.268250 0.000000 -0.010460 
#    y 0.000000 4.410860 0.000000 
#    z -0.010460 0.000000 4.124180 
# 
# 
# High freq. dielectric constant tensor:
#      x y z
#    x 1.776940 0.000000 -0.001890 
#    y 0.000000 1.842010 0.000000 
#    z -0.001890 0.000000 1.853090 
# 
# From -- ./inp_files/3226.got.cif
#   From: 2010.03.12/outbox.cif.g09.slc.cpg/sg6_2_cif.got.tgz:3226.got - 2010.03.30 10:24:59.
