data_PCOD8052336
_publ_section_title
;
Structure prediction by ZEFSAII (Michael W. Deem and Ramdas Pophale) SiO2 
 PCOD8052336
Probable space group: P M
;
_chemical_formula_sum "Si O2"
_cell_formula_units_Z 16
_cell_length_a 10.586278
_cell_length_b 8.857720
_cell_length_c 12.832213
_cell_angle_alpha 90.000000
_cell_angle_beta 39.841620
_cell_angle_gamma 90.000000
_cell_volume 770.902714
_symmetry_space_group_name_H-M "P M"
_symmetry_group_IT_number 6
_symmetry_cell_setting 'monoclinic'
loop_
_space_group_symop_operation_xyz
x,y,z
x,-y,z
loop_
_atom_site_type_symbol
_atom_site_label
_atom_site_fract_x
_atom_site_fract_y
_atom_site_fract_z
Si Si1 0.712120 0.666199 0.552800
Si Si2 0.127003 0.336335 0.385657
Si Si3 0.638445 0.678996 0.210839
Si Si4 0.830295 0.177742 0.282506
Si Si5 0.857910 0.678448 0.857547
Si Si6 0.221338 0.162767 0.145123
Si Si7 0.645856 0.166034 0.802405
Si Si8 0.208230 0.821700 0.531994
O O1 0.611444 0.500000 0.608724
O O2 0.679873 0.757250 0.465524
O O3 0.634019 0.761559 0.697188
O O4 0.941886 0.644620 0.428571
O O5 0.202266 0.500000 0.379063
O O6 0.282056 0.264552 0.207020
O O7 0.078837 0.224561 0.512071
O O8 0.618903 0.500000 0.229323
O O9 0.790839 0.738904 0.199276
O O10 0.422804 0.749386 0.372492
O O11 0.733083 0.728217 0.039136
O O12 0.052228 0.223142 0.174241
O O13 0.794019 0.000000 0.291867
O O14 0.890881 0.500000 0.834853
O O15 0.735953 0.725967 0.832917
O O16 0.078708 0.755870 0.711315
O O17 0.144663 0.000000 0.236356
O O18 0.416413 0.141402 0.958857
O O19 0.750410 0.000000 0.739370
O O20 0.232891 0.000000 0.530060
#
# Coordination Sequence:
#
# PCOD8052336 Si02
#       8
#     2   2   2   2   2   2   2   2
#     4  10  20  35  58  85 119 159 197 246 303 362
#     4  10  19  33  56  85 119 155 195 246 304 368
#     4  11  25  45  67  91 125 168 216 265 316 377
#     4  10  21  41  64  86 118 160 208 258 307 366
#     4  11  24  42  64  93 130 168 209 263 319 378
#     4   9  20  36  57  87 121 159 201 251 309 371
#     4  11  21  35  58  91 126 158 199 254 314 376
#     4  12  24  39  64  94 126 167 211 261 318 378
#
# _framework density 20.754888999999999
#
# number of rings (size 3 to 8) (size 9 to 14) (size 15 to 20)
#    0.000    1.500    1.250    4.125    0.000    6.500 
#    2.250    0.000    0.000    0.000    0.000    0.000 
#    0.000    0.000    0.000    0.000    0.000    0.000 
#
# Total GULP energy -198213.439370 kJ/mol
# GULP energy per Si atom -12388.339961 kJ/mol
# Density = 2.070765 g / cm^3
# Si number density = 20.754889 Si / 1000 Ang^3
#
#
#
# Elastic Constant Matrix: (Units=GPa)
#
#
# Indices 1 2 3 4 5 6 
#
# 1 55.1975 28.3092 39.6304 0.0000 7.3794 0.0000
# 2 28.3092 127.4873 61.9884 0.0000 2.8441 0.0000
# 3 39.6304 61.9884 140.0157 0.0000 4.4379 0.0000
# 4 0.0000 0.0000 0.0000 32.7150 0.0000 4.0352
# 5 7.3794 2.8441 4.4379 0.0000 29.7037 0.0000
# 6 0.0000 0.0000 0.0000 4.0352 0.0000 29.4141
#
#
#
# Elastic Compliance Matrix: (Units=1/GPa)
#
#
# Indices 1 2 3 4 5 6 
#
# 1 0.024043 -0.002544 -0.005524 0.000000 -0.004904 0.000000
# 2 -0.002544 0.010267 -0.003833 0.000000 0.000221 0.000000
# 3 -0.005524 -0.003833 0.010396 0.000000 0.000186 0.000000
# 4 0.000000 0.000000 0.000000 0.031093 0.000000 -0.004266
# 5 -0.004904 0.000221 0.000186 0.000000 0.034835 0.000000
# 6 0.000000 0.000000 0.000000 -0.004266 0.000000 0.034583
#
#
# Mechanical properties :
#
#
# Convention : Reuss Voigt Hill
#
# Bulk Modulus (GPa) = 47.83153 64.72852 56.28003
# Shear Modulus (GPa) = 28.41134 31.21806 29.81470
#
# Velocity S-wave (km/s) = 3.70388 3.88252 3.79425
# Velocity P-wave (km/s) = 6.43332 7.16613 6.80959
#
# Compressibility (1/GPa) = 0.02090671
#
# Stress axis : x y z
#
# Youngs Moduli (GPa) = 41.59262 97.39583 96.18739
#
# Poissons Ratio (x) = 0.24775 0.53129
# Poissons Ratio (y) = 0.10580 0.36865
# Poissons Ratio (z) = 0.22974 0.37329
#
# Static dielectric constant tensor:
#      x y z
#    x 3.571640 0.000000 0.006720 
#    y 0.000000 4.287190 0.000000 
#    z 0.006720 0.000000 3.980810 
# 
# 
# High freq. dielectric constant tensor:
#      x y z
#    x 1.789000 0.000000 0.001770 
#    y 0.000000 1.828670 0.000000 
#    z 0.001770 0.000000 1.819350 
# 
# From -- ./inp_files/3786.got.cif
#   From: 2010.03.12/outbox.cif.g09.slc.cpg/sg6_2_cif.got.tgz:3786.got - 2010.03.30 10:24:59.
