data_PCOD8052934
_publ_section_title
;
Structure prediction by ZEFSAII (Michael W. Deem and Ramdas Pophale) SiO2 
 PCOD8052934
Probable space group: C M
;
_chemical_formula_sum "Si O2"
_cell_formula_units_Z 32
_cell_length_a 22.645026
_cell_length_b 9.214992
_cell_length_c 11.464743
_cell_angle_alpha 90.000000
_cell_angle_beta 49.820658
_cell_angle_gamma 90.000000
_cell_volume 1827.855172
_symmetry_space_group_name_H-M "C M"
_symmetry_group_IT_number 8
_symmetry_cell_setting 'monoclinic'
loop_
_space_group_symop_operation_xyz
x,y,z
x,-y,z
1/2+x,1/2+y,z
1/2+x,1/2-y,z
loop_
_atom_site_type_symbol
_atom_site_label
_atom_site_fract_x
_atom_site_fract_y
_atom_site_fract_z
Si Si1 0.012990 0.163528 0.632620
Si Si2 0.452739 0.164256 0.506803
Si Si3 0.844110 0.839922 0.956957
Si Si4 0.428351 0.329582 0.072424
Si Si5 0.067369 0.671268 0.780026
Si Si6 0.784801 0.337778 0.835248
Si Si7 0.725849 0.832459 0.703665
Si Si8 0.386790 0.331315 0.386890
O O1 0.065533 0.252590 0.656278
O O2 0.013872 0.246991 0.507671
O O3 0.926570 0.157056 0.789719
O O4 0.045526 0.000000 0.575240
O O5 0.369803 0.166482 0.673410
O O6 0.446753 0.240079 0.388446
O O7 0.482638 0.000000 0.452955
O O8 0.786121 0.733655 0.962391
O O9 0.806804 0.000000 0.001650
O O10 0.858699 0.788980 0.071748
O O11 0.449025 0.500000 0.032704
O O12 0.399479 0.288543 0.237068
O O13 0.503672 0.235564 0.948404
O O14 0.053452 0.500000 0.782164
O O15 0.150172 0.708072 0.728324
O O16 0.753701 0.500000 0.889745
O O17 0.726192 0.254514 0.824731
O O18 0.798964 0.790466 0.530632
O O19 0.728118 0.000000 0.735609
O O20 0.403376 0.500000 0.388986
#
# Coordination Sequence:
#
# PCOD8052934 Si02
#       8
#     4   4   4   4   4   4   4   4
#     4   9  16  27  44  65  89 119 154 189 226 268
#     4   9  16  26  42  67  94 117 148 190 232 268
#     4   8  14  25  41  62  87 113 145 185 226 266
#     4   9  18  31  48  69  92 122 155 187 226 272
#     4  10  19  30  46  69  95 121 151 189 231 272
#     4   9  16  25  41  65  89 114 147 188 228 263
#     4   9  18  31  47  67  92 122 152 184 225 272
#     4   9  17  31  49  68  92 122 156 188 222 271
#
# _framework density 17.506857
#
# number of rings (size 3 to 8) (size 9 to 14) (size 15 to 20)
#    0.000    3.000    0.000    2.250    0.000    7.500 
#    0.000    0.000    0.000    1.500    0.000    7.000 
#    0.000    0.000    0.000    0.000    0.000    0.000 
#
# Total GULP energy -198361.294064 kJ/mol
# GULP energy per Si atom -12397.580879 kJ/mol
# Density = 1.746701 g / cm^3
# Si number density = 17.506857 Si / 1000 Ang^3
#
#
#
# Elastic Constant Matrix: (Units=GPa)
#
#
# Indices 1 2 3 4 5 6 
#
# 1 141.5656 86.0377 55.6551 0.0000 36.2312 0.0000
# 2 86.0377 122.1365 43.6361 0.0000 24.9035 0.0000
# 3 55.6551 43.6361 61.7660 0.0000 31.0797 0.0000
# 4 0.0000 0.0000 0.0000 17.7355 0.0000 8.0002
# 5 36.2312 24.9035 31.0797 0.0000 31.7569 0.0000
# 6 0.0000 0.0000 0.0000 8.0002 0.0000 32.5532
#
#
#
# Elastic Compliance Matrix: (Units=1/GPa)
#
#
# Indices 1 2 3 4 5 6 
#
# 1 0.015457 -0.007700 -0.005227 0.000000 -0.006481 0.000000
# 2 -0.007700 0.014852 -0.004166 0.000000 0.001215 0.000000
# 3 -0.005227 -0.004166 0.037826 0.000000 -0.027789 0.000000
# 4 0.000000 0.000000 0.000000 0.063414 0.000000 -0.015585
# 5 -0.006481 0.001215 -0.027789 0.000000 0.065128 0.000000
# 6 0.000000 0.000000 0.000000 -0.015585 0.000000 0.034549
#
#
# Mechanical properties :
#
#
# Convention : Reuss Voigt Hill
#
# Bulk Modulus (GPa) = 29.45466 77.34732 53.40099
# Shear Modulus (GPa) = 18.06825 25.75175 21.91000
#
# Velocity S-wave (km/s) = 3.21607 3.83946 3.54151
# Velocity P-wave (km/s) = 5.53642 7.99577 6.87693
#
# Compressibility (1/GPa) = 0.03395049
#
# Stress axis : x y z
#
# Youngs Moduli (GPa) = 64.69548 67.33011 26.43668
#
# Poissons Ratio (x) = 0.51841 0.13818
# Poissons Ratio (y) = 0.49813 0.11014
# Poissons Ratio (z) = 0.33815 0.28050
#
# Static dielectric constant tensor:
#      x y z
#    x 3.318740 0.000000 0.366540 
#    y 0.000000 3.420150 0.000000 
#    z 0.366540 0.000000 2.913410 
# 
# 
# High freq. dielectric constant tensor:
#      x y z
#    x 1.674950 0.000000 0.036500 
#    y 0.000000 1.685280 0.000000 
#    z 0.036500 0.000000 1.628450 
# 
# From -- ./inp_files/23678.got.cif
#   From: 2010.03.12/outbox.cif.g09.slc.cpg/sg8_12_cif.got.tgz:23678.got - 2010.03.31 10:45:26.
