data_PCOD8052736
_publ_section_title
;
Structure prediction by ZEFSAII (Michael W. Deem and Ramdas Pophale) SiO2 
 PCOD8052736
Probable space group: C M
;
_chemical_formula_sum "Si O2"
_cell_formula_units_Z 32
_cell_length_a 24.468993
_cell_length_b 9.081661
_cell_length_c 21.627451
_cell_angle_alpha 90.000000
_cell_angle_beta 23.080809
_cell_angle_gamma 90.000000
_cell_volume 1884.104206
_symmetry_space_group_name_H-M "C M"
_symmetry_group_IT_number 8
_symmetry_cell_setting 'monoclinic'
loop_
_space_group_symop_operation_xyz
x,y,z
x,-y,z
1/2+x,1/2+y,z
1/2+x,1/2-y,z
loop_
_atom_site_type_symbol
_atom_site_label
_atom_site_fract_x
_atom_site_fract_y
_atom_site_fract_z
Si Si1 0.062410 0.670762 0.648400
Si Si2 0.302839 0.667808 0.893767
Si Si3 0.598798 0.670629 0.177309
Si Si4 0.385485 0.828085 0.478772
Si Si5 0.304329 0.170694 0.075987
Si Si6 0.120531 0.330198 0.723042
Si Si7 0.088949 0.671971 0.378394
Si Si8 0.029156 0.167270 0.566699
O O1 0.044685 0.500000 0.649694
O O2 0.153863 0.690871 0.614999
O O3 0.911206 0.738899 0.823150
O O4 0.121284 0.757710 0.526485
O O5 0.292390 0.500000 0.928493
O O6 0.364869 0.672103 0.758915
O O7 0.152850 0.747751 0.058303
O O8 0.572857 0.500000 0.190455
O O9 0.454734 0.742551 0.349199
O O10 0.716324 0.701797 0.106110
O O11 0.227734 0.769681 0.650052
O O12 0.466654 0.791557 0.457238
O O13 0.386237 0.000000 0.463221
O O14 0.236241 0.262745 0.202734
O O15 0.295770 0.000000 0.102523
O O16 0.464052 0.221266 0.902049
O O17 0.141404 0.500000 0.719947
O O18 0.108183 0.500000 0.368593
O O19 0.044209 0.744041 0.488778
O O20 0.080468 0.000000 0.504328
#
# Coordination Sequence:
#
# PCOD8052736 Si02
#       8
#     4   4   4   4   4   4   4   4
#     4   9  16  29  49  74  99 125 160 201 241 290
#     4   9  17  27  45  74 100 123 155 199 246 289
#     4  10  17  30  50  72  98 130 164 203 248 292
#     4  10  22  34  47  72 105 136 165 203 249 295
#     4   9  17  30  49  71  96 125 164 207 245 290
#     4  10  19  33  51  75 102 133 166 196 246 305
#     4  10  20  33  49  72  99 131 169 206 244 290
#     4   9  18  30  48  74  99 127 163 205 249 289
#
# _framework density 16.984197999999999
#
# number of rings (size 3 to 8) (size 9 to 14) (size 15 to 20)
#    0.750    1.750    1.250    1.875    0.000    3.500 
#    0.000    0.000    0.000    1.500    0.000    7.000 
#    0.000    0.000    0.000    0.000    0.000    0.000 
#
# Total GULP energy -198246.560922 kJ/mol
# GULP energy per Si atom -12390.410058 kJ/mol
# Density = 1.694554 g / cm^3
# Si number density = 16.984198 Si / 1000 Ang^3
#
#
#
# Elastic Constant Matrix: (Units=GPa)
#
#
# Indices 1 2 3 4 5 6 
#
# 1 56.7596 40.3049 40.3782 -0.0004 9.2122 0.0000
# 2 40.3049 92.5048 48.1855 -0.0009 4.3567 0.0010
# 3 40.3782 48.1855 90.6227 -0.0024 1.7245 0.0015
# 4 -0.0004 -0.0009 -0.0024 33.4159 0.0015 3.9517
# 5 9.2122 4.3567 1.7245 0.0015 25.0190 -0.0007
# 6 0.0000 0.0010 0.0015 3.9517 -0.0007 24.2811
#
#
#
# Elastic Compliance Matrix: (Units=1/GPa)
#
#
# Indices 1 2 3 4 5 6 
#
# 1 0.032039 -0.008526 -0.009558 0.000000 -0.009654 0.000001
# 2 -0.008526 0.017327 -0.005423 0.000000 0.000496 0.000000
# 3 -0.009558 -0.005423 0.018116 0.000001 0.003215 -0.000001
# 4 0.000000 0.000000 0.000001 0.030513 -0.000002 -0.004966
# 5 -0.009654 0.000496 0.003215 -0.000002 0.043216 0.000001
# 6 0.000001 0.000000 -0.000001 -0.004966 0.000001 0.041992
#
#
# Mechanical properties :
#
#
# Convention : Reuss Voigt Hill
#
# Bulk Modulus (GPa) = 48.86071 55.29157 52.07614
# Shear Modulus (GPa) = 21.09336 23.94444 22.51890
#
# Velocity S-wave (km/s) = 3.52794 3.75881 3.64521
# Velocity P-wave (km/s) = 6.73988 7.17381 6.96023
#
# Compressibility (1/GPa) = 0.02046634
#
# Stress axis : x y z
#
# Youngs Moduli (GPa) = 31.21198 57.71410 55.19931
#
# Poissons Ratio (x) = 0.49207 0.52761
# Poissons Ratio (y) = 0.26611 0.29937
# Poissons Ratio (z) = 0.29833 0.31301
#
# Static dielectric constant tensor:
#      x y z
#    x 2.827000 0.000000 0.124200 
#    y 0.000000 3.242190 0.000000 
#    z 0.124200 0.000000 3.134550 
# 
# 
# High freq. dielectric constant tensor:
#      x y z
#    x 1.613440 0.000000 0.016820 
#    y 0.000000 1.671160 0.000000 
#    z 0.016820 0.000000 1.644440 
# 
# From -- ./inp_files/17244.got.cif
#   From: 2010.03.12/outbox.cif.g09.slc.cpg/sg8_9_cif.got.tgz:17244.got - 2010.03.31 10:45:26.
