data_PCOD8052148
_publ_section_title
;
Structure prediction by ZEFSAII (Michael W. Deem and Ramdas Pophale) SiO2 
 PCOD8052148
Probable space group: C 2
;
_chemical_formula_sum "Si O2"
_cell_formula_units_Z 24
_cell_length_a 12.959009
_cell_length_b 9.578187
_cell_length_c 18.730821
_cell_angle_alpha 90.000000
_cell_angle_beta 25.207642
_cell_angle_gamma 90.000000
_cell_volume 990.192262
_symmetry_space_group_name_H-M "C 2"
_symmetry_group_IT_number 5
_symmetry_cell_setting 'monoclinic'
loop_
_space_group_symop_operation_xyz
x,y,z
-x,y,-z
1/2+x,1/2+y,z
1/2-x,1/2+y,-z
loop_
_atom_site_type_symbol
_atom_site_label
_atom_site_fract_x
_atom_site_fract_y
_atom_site_fract_z
Si Si1 0.598759 0.940730 0.149654
Si Si2 0.511333 0.334649 0.668120
Si Si3 0.162012 0.062607 0.332021
Si Si4 0.543525 0.846815 0.344050
Si Si5 0.658469 0.731859 0.002795
Si Si6 0.367258 0.129402 0.656904
O O1 0.511206 0.881653 0.280259
O O2 0.736605 0.808482 0.027339
O O3 0.402691 0.995805 0.214645
O O4 0.772560 0.071593 0.051277
O O5 0.473210 0.456339 0.635071
O O6 0.768192 0.350418 0.548518
O O7 0.547444 0.185861 0.605390
O O8 0.280383 0.327032 0.865328
O O9 0.000000 0.105877 0.500000
O O10 0.192971 0.205204 0.266196
O O11 0.691588 0.967492 0.292641
O O12 0.366677 0.728850 0.186363
O O13 0.500000 0.158536 0.500000
#
# Coordination Sequence:
#
# PCOD8052148 Si02
#       6
#     4   4   4   4   4   4
#     4  12  28  49  73 114 153 202 262 331 389 472
#     4  12  24  49  75 107 154 198 254 320 391 466
#     4  12  25  48  77 114 153 203 263 318 390 476
#     4  12  27  47  81 112 151 202 262 318 390 480
#     4  12  29  49  74 111 155 199 260 330 391 463
#     4  12  26  49  77 106 149 200 254 321 396 464
#
# _framework density 24.237717
#
# number of rings (size 3 to 8) (size 9 to 14) (size 15 to 20)
#    0.000    0.000    5.000    4.500    7.000    0.000 
#    0.000    0.000    0.000    0.000    0.000    0.000 
#    0.000    0.000    0.000    0.000    0.000    0.000 
#
# Total GULP energy -148700.199228 kJ/mol
# GULP energy per Si atom -12391.683269 kJ/mol
# Density = 2.418255 g / cm^3
# Si number density = 24.237717 Si / 1000 Ang^3
#
#
#
# Elastic Constant Matrix: (Units=GPa)
#
#
# Indices 1 2 3 4 5 6 
#
# 1 81.7413 30.3834 54.2429 -0.0155 15.5940 0.0070
# 2 30.3834 127.3664 34.3812 -0.0246 13.1818 0.0016
# 3 54.2429 34.3812 100.0968 -0.0718 26.4971 -0.0057
# 4 -0.0155 -0.0246 -0.0718 34.1123 0.0258 7.2058
# 5 15.5940 13.1818 26.4971 0.0258 33.8731 -0.0028
# 6 0.0070 0.0016 -0.0057 7.2058 -0.0028 41.8472
#
#
#
# Elastic Compliance Matrix: (Units=1/GPa)
#
#
# Indices 1 2 3 4 5 6 
#
# 1 0.019559 -0.001968 -0.009764 -0.000012 -0.000600 -0.000002
# 2 -0.001968 0.008898 -0.001656 0.000003 -0.001261 -0.000001
# 3 -0.009764 -0.001656 0.018274 0.000040 -0.009155 -0.000003
# 4 -0.000012 0.000003 0.000040 0.030422 -0.000051 -0.005238
# 5 -0.000600 -0.001261 -0.009155 -0.000051 0.037451 0.000010
# 6 -0.000002 -0.000001 -0.000003 -0.005238 0.000010 0.024798
#
#
# Mechanical properties :
#
#
# Convention : Reuss Voigt Hill
#
# Bulk Modulus (GPa) = 50.11278 60.80215 55.45747
# Shear Modulus (GPa) = 28.92995 34.64632 31.78813
#
# Velocity S-wave (km/s) = 3.45859 3.78489 3.62541
# Velocity P-wave (km/s) = 6.05554 6.65137 6.36044
#
# Compressibility (1/GPa) = 0.01995499
#
# Stress axis : x y z
#
# Youngs Moduli (GPa) = 51.12654 112.37970 54.72239
#
# Poissons Ratio (x) = 0.22116 0.53433
# Poissons Ratio (y) = 0.10061 0.09062
# Poissons Ratio (z) = 0.49922 0.18611
#
# Static dielectric constant tensor:
#      x y z
#    x 4.357550 -0.000020 0.109180 
#    y -0.000020 4.643400 0.000070 
#    z 0.109180 0.000070 4.306950 
# 
# 
# High freq. dielectric constant tensor:
#      x y z
#    x 1.961260 0.000000 0.008710 
#    y 0.000000 1.983500 0.000000 
#    z 0.008710 0.000000 1.954660 
# 
# From -- ./inp_files/60448.got.cif
#   From: 2010.03.12/outbox.cif.g09.slc.cpg/sg5_31_cif.got.tgz:60448.got - 2010.03.31 09:47:26.
