data_PCOD8052663
_publ_section_title
;
Structure prediction by ZEFSAII (Michael W. Deem and Ramdas Pophale) SiO2 
 PCOD8052663
Probable space group: P C
;
_chemical_formula_sum "Si O2"
_cell_formula_units_Z 16
_cell_length_a 9.399318
_cell_length_b 15.698750
_cell_length_c 5.091770
_cell_angle_alpha 90.000000
_cell_angle_beta 90.216941
_cell_angle_gamma 90.000000
_cell_volume 751.323687
_symmetry_space_group_name_H-M "P C"
_symmetry_group_IT_number 7
_symmetry_cell_setting 'monoclinic'
loop_
_space_group_symop_operation_xyz
x,y,z
x,-y,1/2+z
loop_
_atom_site_type_symbol
_atom_site_label
_atom_site_fract_x
_atom_site_fract_y
_atom_site_fract_z
Si Si1 0.598470 0.941957 0.038130
Si Si2 0.244457 0.726524 0.546441
Si Si3 0.102671 0.052723 0.551334
Si Si4 0.342816 0.827088 0.046408
Si Si5 0.857913 0.825421 0.008195
Si Si6 0.904153 0.277848 0.013527
Si Si7 0.733988 0.445047 0.991131
Si Si8 0.411945 0.443831 0.041035
O O1 0.507208 0.854435 0.031909
O O2 0.759457 0.908203 0.041390
O O3 0.567360 0.998318 0.291523
O O4 0.305416 0.789762 0.329382
O O5 0.302179 0.632260 0.494007
O O6 0.074112 0.724721 0.537714
O O7 0.302159 0.758291 0.826697
O O8 0.264562 0.081815 0.511954
O O9 0.017309 0.139231 0.504005
O O10 0.066884 0.979681 0.342237
O O11 0.844347 0.757228 0.239631
O O12 0.828337 0.778481 0.735356
O O13 0.851021 0.373721 0.046737
O O14 0.758175 0.520677 0.198203
O O15 0.573480 0.408583 0.019321
O O16 0.383947 0.516750 0.826416
#
# Coordination Sequence:
#
# PCOD8052663 Si02
#       8
#     2   2   2   2   2   2   2   2
#     4  12  26  46  66  94 130 168 222 276 326 382
#     4  12  24  43  66  98 134 170 213 263 318 387
#     4  12  22  40  64  88 124 168 210 258 316 372
#     4  12  25  42  65  98 128 170 218 267 320 383
#     4  12  25  42  65  98 128 170 218 267 320 383
#     4  12  24  43  66  98 134 170 213 263 318 387
#     4  10  23  42  66  97 129 168 213 257 315 381
#     4  10  23  42  66  97 129 168 213 257 315 381
#
# _framework density 21.295748
#
# number of rings (size 3 to 8) (size 9 to 14) (size 15 to 20)
#    0.000    0.500    2.500    6.000    3.500    1.000 
#    0.000    0.000    0.000    0.000    0.000    0.000 
#    0.000    0.000    0.000    0.000    0.000    0.000 
#
# Total GULP energy -198512.715825 kJ/mol
# GULP energy per Si atom -12407.044739 kJ/mol
# Density = 2.124728 g / cm^3
# Si number density = 21.295748 Si / 1000 Ang^3
#
#
#
# Elastic Constant Matrix: (Units=GPa)
#
#
# Indices 1 2 3 4 5 6 
#
# 1 76.0873 37.8447 31.0137 0.0000 -2.7089 0.0000
# 2 37.8447 88.6833 22.2837 0.0000 -1.9319 0.0000
# 3 31.0137 22.2837 102.6720 0.0000 -11.0342 0.0000
# 4 0.0000 0.0000 0.0000 30.2062 0.0000 5.1648
# 5 -2.7089 -1.9319 -11.0342 0.0000 25.4594 0.0000
# 6 0.0000 0.0000 0.0000 5.1648 0.0000 48.0157
#
#
#
# Elastic Compliance Matrix: (Units=1/GPa)
#
#
# Indices 1 2 3 4 5 6 
#
# 1 0.018127 -0.006725 -0.004052 0.000000 -0.000338 0.000000
# 2 -0.006725 0.014422 -0.001110 0.000000 -0.000102 0.000000
# 3 -0.004052 -0.001110 0.011694 0.000000 0.004553 0.000000
# 4 0.000000 0.000000 0.000000 0.033726 0.000000 -0.003628
# 5 -0.000338 -0.000102 0.004553 0.000000 0.041208 0.000000
# 6 0.000000 0.000000 0.000000 -0.003628 0.000000 0.021217
#
#
# Mechanical properties :
#
#
# Convention : Reuss Voigt Hill
#
# Bulk Modulus (GPa) = 48.85269 49.96966 49.41117
# Shear Modulus (GPa) = 29.24116 32.48962 30.86539
#
# Velocity S-wave (km/s) = 3.70955 3.91018 3.81119
# Velocity P-wave (km/s) = 6.42944 6.62583 6.52837
#
# Compressibility (1/GPa) = 0.02046970
#
# Stress axis : x y z
#
# Youngs Moduli (GPa) = 55.16517 69.33626 85.51368
#
# Poissons Ratio (x) = 0.46627 0.34654
# Poissons Ratio (y) = 0.37097 0.09491
# Poissons Ratio (z) = 0.22355 0.07695
#
# Static dielectric constant tensor:
#      x y z
#    x 3.881530 0.000000 -0.009750 
#    y 0.000000 3.645320 0.000000 
#    z -0.009750 0.000000 3.939180 
# 
# 
# High freq. dielectric constant tensor:
#      x y z
#    x 1.839250 0.000000 -0.002400 
#    y 0.000000 1.836360 0.000000 
#    z -0.002400 0.000000 1.853680 
# 
# From -- ./inp_files/577.got.cif
#   From: 2010.03.12/outbox.cif.g09.slc.cpg/sg7_cif.got.tgz:577.got - 2010.03.30 08:40:41.
