data_PCOD8052027
_publ_section_title
;
Structure prediction by ZEFSAII (Michael W. Deem and Ramdas Pophale) SiO2 
 PCOD8052027
Probable space group: C 2
;
_chemical_formula_sum "Si O2"
_cell_formula_units_Z 20
_cell_length_a 14.133714
_cell_length_b 9.604120
_cell_length_c 9.994044
_cell_angle_alpha 90.000000
_cell_angle_beta 44.999978
_cell_angle_gamma 90.000000
_cell_volume 959.268027
_symmetry_space_group_name_H-M "C 2"
_symmetry_group_IT_number 5
_symmetry_cell_setting 'monoclinic'
loop_
_space_group_symop_operation_xyz
x,y,z
-x,y,-z
1/2+x,1/2+y,z
1/2-x,1/2+y,-z
loop_
_atom_site_type_symbol
_atom_site_label
_atom_site_fract_x
_atom_site_fract_y
_atom_site_fract_z
Si Si1 0.626166 0.622750 0.634560
Si Si2 0.658107 0.997665 0.989320
Si Si3 0.739274 0.310005 0.886892
Si Si4 0.000000 0.966378 0.000000
Si Si5 0.647427 0.935090 0.694468
Si Si6 0.000000 0.216379 0.500000
O O1 0.529015 0.565110 0.845744
O O2 0.671275 0.777630 0.626242
O O3 0.759316 0.531753 0.489533
O O4 0.542658 0.617877 0.580287
O O5 0.702485 0.155125 0.968790
O O6 0.686243 0.951490 0.810129
O O7 0.748849 0.901002 0.991835
O O8 0.503629 0.981265 0.182610
O O9 0.625241 0.367645 0.903774
O O10 0.877055 0.314880 0.665603
#
# Coordination Sequence:
#
# PCOD8052027 Si02
#       6
#     4   4   4   2   4   2
#     4  12  26  47  73 107 143 194 238 300 355 429
#     4  11  25  46  73 106 145 188 239 299 359 424
#     4  12  26  47  73 107 143 194 238 300 355 429
#     4  12  28  44  78 104 144 192 246 292 364 424
#     4  11  25  46  73 106 145 188 239 299 359 424
#     4  12  24  48  72 106 140 192 236 298 352 424
#
# _framework density 20.849229000000001
#
# number of rings (size 3 to 8) (size 9 to 14) (size 15 to 20)
#    0.000    0.400    4.000    4.800    5.600    0.000 
#    0.000    0.000    0.000    0.000    0.000    0.000 
#    0.000    0.000    0.000    0.000    0.000    0.000 
#
# Total GULP energy -124079.816666 kJ/mol
# GULP energy per Si atom -12407.981667 kJ/mol
# Density = 2.080178 g / cm^3
# Si number density = 20.849229 Si / 1000 Ang^3
#
#
#
# Elastic Constant Matrix: (Units=GPa)
#
#
# Indices 1 2 3 4 5 6 
#
# 1 127.8698 67.2056 40.5078 0.0000 7.7519 0.0000
# 2 67.2056 178.8205 67.2058 0.0000 0.0002 0.0000
# 3 40.5078 67.2058 127.8706 0.0000 -7.7507 0.0000
# 4 0.0000 0.0000 0.0000 42.8898 0.0000 0.0000
# 5 7.7519 0.0002 -7.7507 0.0000 40.0551 0.0000
# 6 0.0000 0.0000 0.0000 0.0000 0.0000 42.8898
#
#
#
# Elastic Compliance Matrix: (Units=1/GPa)
#
#
# Indices 1 2 3 4 5 6 
#
# 1 0.010169 -0.003189 -0.001685 0.000000 -0.002294 0.000000
# 2 -0.003189 0.007989 -0.003189 0.000000 0.000000 0.000000
# 3 -0.001685 -0.003189 0.010169 0.000000 0.002294 0.000000
# 4 0.000000 0.000000 0.000000 0.023316 0.000000 0.000000
# 5 -0.002294 0.000000 0.002294 0.000000 0.025853 0.000000
# 6 0.000000 0.000000 0.000000 0.000000 0.000000 0.023316
#
#
# Mechanical properties :
#
#
# Convention : Reuss Voigt Hill
#
# Bulk Modulus (GPa) = 81.94613 87.15549 84.55081
# Shear Modulus (GPa) = 41.32120 42.47639 41.89880
#
# Velocity S-wave (km/s) = 4.45669 4.51856 4.48773
# Velocity P-wave (km/s) = 8.11617 8.31364 8.21550
#
# Compressibility (1/GPa) = 0.01220314
#
# Stress axis : x y z
#
# Youngs Moduli (GPa) = 98.33722 125.17213 98.33819
#
# Poissons Ratio (x) = 0.39914 0.16566
# Poissons Ratio (y) = 0.31357 0.31357
# Poissons Ratio (z) = 0.16566 0.39913
#
# Static dielectric constant tensor:
#      x y z
#    x 3.942600 0.000000 0.000000 
#    y 0.000000 3.785620 0.000000 
#    z 0.000000 0.000000 3.942600 
# 
# 
# High freq. dielectric constant tensor:
#      x y z
#    x 1.830050 0.000000 0.000000 
#    y 0.000000 1.819550 0.000000 
#    z 0.000000 0.000000 1.830050 
# 
# From -- ./inp_files/19237.got.cif
#   From: 2010.03.12/outbox.cif.g09.slc.cpg/sg5_10_cif.got.tgz:19237.got - 2010.03.31 09:47:26.
