data_PCOD8052904
_publ_section_title
;
Structure prediction by ZEFSAII (Michael W. Deem and Ramdas Pophale) SiO2 
 PCOD8052904
Probable space group: C M
;
_chemical_formula_sum "Si O2"
_cell_formula_units_Z 32
_cell_length_a 30.875256
_cell_length_b 8.825902
_cell_length_c 13.506622
_cell_angle_alpha 90.000000
_cell_angle_beta 150.129437
_cell_angle_gamma 90.000000
_cell_volume 1833.085119
_symmetry_space_group_name_H-M "C M"
_symmetry_group_IT_number 8
_symmetry_cell_setting 'monoclinic'
loop_
_space_group_symop_operation_xyz
x,y,z
x,-y,z
1/2+x,1/2+y,z
1/2+x,1/2-y,z
loop_
_atom_site_type_symbol
_atom_site_label
_atom_site_fract_x
_atom_site_fract_y
_atom_site_fract_z
Si Si1 0.625000 0.672043 0.669150
Si Si2 0.358825 0.821675 0.624992
Si Si3 0.529619 0.672134 0.935203
Si Si4 0.945888 0.172431 0.964311
Si Si5 0.468546 0.320596 0.228521
Si Si6 0.201380 0.677945 0.204614
Si Si7 0.723057 0.177830 0.021753
Si Si8 0.316033 0.171094 0.042234
O O1 0.599942 0.500000 0.648034
O O2 0.551437 0.745249 0.452816
O O3 0.634192 0.767881 0.789597
O O4 0.719340 0.675466 0.800747
O O5 0.435734 0.739202 0.713993
O O6 0.369115 0.772364 0.761232
O O7 0.265501 0.769226 0.402390
O O8 0.367850 0.000000 0.631718
O O9 0.540273 0.500000 0.917461
O O10 0.529781 0.676638 0.056593
O O11 0.603794 0.778409 0.039196
O O12 0.911915 0.000000 0.908355
O O13 0.971118 0.241642 0.121039
O O14 0.474628 0.500000 0.239265
O O15 0.379646 0.270973 0.103002
O O16 0.214862 0.500000 0.246419
O O17 0.219305 0.728040 0.127767
O O18 0.733325 0.000000 0.030397
O O19 0.806235 0.258786 0.133925
O O20 0.351688 0.000000 0.120577
#
# Coordination Sequence:
#
# PCOD8052904 Si02
#       8
#     4   4   4   4   4   4   4   4
#     4   8  18  35  53  77 107 137 172 218 262 313
#     4  10  20  36  56  80 110 142 179 224 270 322
#     4   9  19  37  56  79 110 142 179 224 269 320
#     4   8  18  36  55  78 109 139 178 223 262 316
#     4  10  18  35  59  77 104 146 178 214 268 313
#     4  11  21  36  58  80 106 144 183 224 275 321
#     4   9  19  36  55  77 106 139 178 221 264 317
#     4   9  19  35  52  78 110 137 175 224 262 312
#
# _framework density 17.456909
#
# number of rings (size 3 to 8) (size 9 to 14) (size 15 to 20)
#    1.500    1.250    0.000    1.875    0.000    3.000 
#    4.500    0.000    0.000    0.000    0.000    0.000 
#    0.000    0.000    0.000    0.000    0.000    0.000 
#
# Total GULP energy -198214.712390 kJ/mol
# GULP energy per Si atom -12388.419524 kJ/mol
# Density = 1.741718 g / cm^3
# Si number density = 17.456909 Si / 1000 Ang^3
#
#
#
# Elastic Constant Matrix: (Units=GPa)
#
#
# Indices 1 2 3 4 5 6 
#
# 1 61.8175 15.9202 5.4427 0.0000 -2.1162 0.0000
# 2 15.9202 51.4779 19.4128 0.0000 -7.5315 0.0000
# 3 5.4427 19.4128 58.3874 0.0000 -3.7588 0.0000
# 4 0.0000 0.0000 0.0000 26.6562 0.0000 4.2677
# 5 -2.1162 -7.5315 -3.7588 0.0000 27.8971 0.0000
# 6 0.0000 0.0000 0.0000 4.2677 0.0000 25.4779
#
#
#
# Elastic Compliance Matrix: (Units=1/GPa)
#
#
# Indices 1 2 3 4 5 6 
#
# 1 0.017579 -0.005528 0.000191 0.000000 -0.000133 0.000000
# 2 -0.005528 0.024676 -0.007351 0.000000 0.005252 0.000000
# 3 0.000191 -0.007351 0.019596 0.000000 0.000670 0.000000
# 4 0.000000 0.000000 0.000000 0.038549 0.000000 -0.006457
# 5 -0.000133 0.005252 0.000670 0.000000 0.037344 0.000000
# 6 0.000000 0.000000 0.000000 -0.006457 0.000000 0.040331
#
#
# Mechanical properties :
#
#
# Convention : Reuss Voigt Hill
#
# Bulk Modulus (GPa) = 27.41602 28.13711 27.77657
# Shear Modulus (GPa) = 23.19003 24.73336 23.96169
#
# Velocity S-wave (km/s) = 3.64870 3.76816 3.70891
# Velocity P-wave (km/s) = 5.78703 5.92326 5.85554
#
# Compressibility (1/GPa) = 0.03647503
#
# Stress axis : x y z
#
# Youngs Moduli (GPa) = 56.88629 40.52537 51.02974
#
# Poissons Ratio (x) = 0.22402 -0.00973
# Poissons Ratio (y) = 0.31446 0.37511
# Poissons Ratio (z) = -0.01085 0.29790
#
# Static dielectric constant tensor:
#      x y z
#    x 3.116650 0.000000 -0.121870 
#    y 0.000000 3.171930 0.000000 
#    z -0.121870 0.000000 3.129690 
# 
# 
# High freq. dielectric constant tensor:
#      x y z
#    x 1.656280 0.000000 -0.001910 
#    y 0.000000 1.679910 0.000000 
#    z -0.001910 0.000000 1.658010 
# 
# From -- ./inp_files/28387.got.cif
#   From: 2010.03.12/outbox.cif.g09.slc.cpg/sg8_15_cif.got.tgz:28387.got - 2010.03.31 10:45:26.
