data_PCOD8052615
_publ_section_title
;
Structure prediction by ZEFSAII (Michael W. Deem and Ramdas Pophale) SiO2 
 PCOD8052615
Probable space group: P C
;
_chemical_formula_sum "Si O2"
_cell_formula_units_Z 14
_cell_length_a 8.837192
_cell_length_b 15.633076
_cell_length_c 5.220913
_cell_angle_alpha 90.000000
_cell_angle_beta 117.953606
_cell_angle_gamma 90.000000
_cell_volume 637.128323
_symmetry_space_group_name_H-M "P C"
_symmetry_group_IT_number 7
_symmetry_cell_setting 'monoclinic'
loop_
_space_group_symop_operation_xyz
x,y,z
x,-y,1/2+z
loop_
_atom_site_type_symbol
_atom_site_label
_atom_site_fract_x
_atom_site_fract_y
_atom_site_fract_z
Si Si1 0.083490 0.956886 0.301390
Si Si2 0.591133 0.895283 0.132760
Si Si3 0.240261 0.444819 0.673956
Si Si4 0.925280 0.790642 0.323831
Si Si5 0.460403 0.923818 0.531179
Si Si6 0.631551 0.444710 0.972757
Si Si7 0.934399 0.683132 0.829118
O O1 0.284561 0.974872 0.429142
O O2 0.070579 0.855385 0.338002
O O3 0.999870 0.011974 0.467044
O O4 0.773208 0.851535 0.294545
O O5 0.477416 0.866887 0.288423
O O6 0.601445 0.999219 0.122581
O O7 0.499156 0.861637 0.800899
O O8 0.207849 0.513400 0.424744
O O9 0.435876 0.409284 0.822167
O O10 0.103911 0.630153 0.031547
O O11 0.986617 0.740962 0.626295
O O12 0.878727 0.731488 0.044668
O O13 0.664742 0.487797 0.724802
O O14 0.767994 0.369404 0.109443
#
# Coordination Sequence:
#
# PCOD8052615 Si02
#       7
#     2   2   2   2   2   2   2
#     4  12  23  43  63  90 118 166 229 283 322 394
#     4  10  20  38  59  88 111 157 209 272 315 386
#     4  10  21  41  73 102 129 173 224 266 307 383
#     4  12  28  40  62  94 139 172 214 266 353 399
#     4  10  19  39  64  84 107 151 226 277 320 361
#     4  10  21  41  73 102 127 173 228 262 307 387
#     4  12  24  46  60 102 143 178 204 266 344 400
#
# _framework density 21.973595
#
# number of rings (size 3 to 8) (size 9 to 14) (size 15 to 20)
#    0.000    1.143    2.857    4.286    4.000    0.000 
#    7.714    0.000    0.000    0.000    0.000    0.000 
#    0.000    0.000    0.000    0.000    0.000    0.000 
#
# Total GULP energy -173483.687995 kJ/mol
# GULP energy per Si atom -12391.692000 kJ/mol
# Density = 2.192358 g / cm^3
# Si number density = 21.973595 Si / 1000 Ang^3
#
#
#
# Elastic Constant Matrix: (Units=GPa)
#
#
# Indices 1 2 3 4 5 6 
#
# 1 92.3228 49.9301 55.5334 0.0000 -6.2261 0.0000
# 2 49.9301 85.4077 40.8307 0.0000 6.6943 0.0000
# 3 55.5334 40.8307 145.0305 0.0000 -24.6872 0.0000
# 4 0.0000 0.0000 0.0000 28.8865 0.0000 -5.2679
# 5 -6.2261 6.6943 -24.6872 0.0000 39.8392 0.0000
# 6 0.0000 0.0000 0.0000 -5.2679 0.0000 13.7316
#
#
#
# Elastic Compliance Matrix: (Units=1/GPa)
#
#
# Indices 1 2 3 4 5 6 
#
# 1 0.018230 -0.008774 -0.004219 0.000000 0.001709 0.000000
# 2 -0.008774 0.018782 -0.003017 0.000000 -0.006397 0.000000
# 3 -0.004219 -0.003017 0.010435 0.000000 0.006314 0.000000
# 4 0.000000 0.000000 0.000000 0.037222 0.000000 0.014280
# 5 0.001709 -0.006397 0.006314 0.000000 0.030355 0.000000
# 6 0.000000 0.000000 0.000000 0.014280 0.000000 0.078303
#
#
# Mechanical properties :
#
#
# Convention : Reuss Voigt Hill
#
# Bulk Modulus (GPa) = 64.82654 68.37218 66.59936
# Shear Modulus (GPa) = 21.69297 28.25592 24.97444
#
# Velocity S-wave (km/s) = 3.14543 3.58984 3.37496
# Velocity P-wave (km/s) = 6.53894 6.95455 6.74994
#
# Compressibility (1/GPa) = 0.01542578
#
# Stress axis : x y z
#
# Youngs Moduli (GPa) = 54.85431 53.24351 95.83381
#
# Poissons Ratio (x) = 0.46717 0.40436
# Poissons Ratio (y) = 0.48131 0.28910
# Poissons Ratio (z) = 0.23145 0.16062
#
# Static dielectric constant tensor:
#      x y z
#    x 4.141930 0.000000 -0.418410 
#    y 0.000000 3.790970 0.000000 
#    z -0.418410 0.000000 4.760790 
# 
# 
# High freq. dielectric constant tensor:
#      x y z
#    x 1.870680 0.000000 -0.019290 
#    y 0.000000 1.825710 0.000000 
#    z -0.019290 0.000000 1.897640 
# 
# From -- ./inp_files/533.got.cif
#   From: 2010.03.12/outbox.cif.g09.slc.cpg/sg7_cif.got.tgz:533.got - 2010.03.30 08:40:41.
