data_PCOD8052516
_publ_section_title
;
Structure prediction by ZEFSAII (Michael W. Deem and Ramdas Pophale) SiO2 
 PCOD8052516
Probable space group: P M
;
_chemical_formula_sum "Si O2"
_cell_formula_units_Z 16
_cell_length_a 10.108783
_cell_length_b 8.824456
_cell_length_c 17.451562
_cell_angle_alpha 90.000000
_cell_angle_beta 149.681274
_cell_angle_gamma 90.000000
_cell_volume 785.866690
_symmetry_space_group_name_H-M "P M"
_symmetry_group_IT_number 6
_symmetry_cell_setting 'monoclinic'
loop_
_space_group_symop_operation_xyz
x,y,z
x,-y,z
loop_
_atom_site_type_symbol
_atom_site_label
_atom_site_fract_x
_atom_site_fract_y
_atom_site_fract_z
Si Si1 0.270600 0.173443 0.952630
Si Si2 0.308994 0.175611 0.647050
Si Si3 0.257670 0.824334 0.121659
Si Si4 0.291832 0.826615 0.462938
Si Si5 0.781201 0.677760 0.146890
Si Si6 0.783309 0.319811 0.974258
Si Si7 0.781629 0.178733 0.606017
Si Si8 0.783240 0.679782 0.441443
O O1 0.035727 0.228118 0.781010
O O2 0.342837 0.000000 0.972242
O O3 0.177177 0.195103 0.993083
O O4 0.526347 0.270593 0.064894
O O5 0.386895 0.194818 0.597480
O O6 0.525760 0.256509 0.805944
O O7 0.032937 0.253979 0.523313
O O8 0.292187 0.000000 0.662457
O O9 0.534095 0.745804 0.273470
O O10 0.275721 0.000000 0.154282
O O11 0.042551 0.743902 0.065421
O O12 0.525930 0.772276 0.525445
O O13 0.036304 0.728985 0.319942
O O14 0.218560 0.000000 0.409905
O O15 0.780600 0.500000 0.144628
O O16 0.781385 0.740227 0.060415
O O17 0.783946 0.500000 0.968864
O O18 0.782509 0.273091 0.529231
O O19 0.782321 0.000000 0.589006
O O20 0.783566 0.500000 0.435239
#
# Coordination Sequence:
#
# PCOD8052516 Si02
#       8
#     2   2   2   2   2   2   2   2
#     4  10  22  40  63  89 117 151 198 248 294 348
#     4  11  23  41  64  90 119 157 202 247 295 354
#     4  11  23  41  64  90 119 157 202 247 295 354
#     4  10  22  40  63  89 117 151 198 248 294 348
#     4  11  24  39  58  87 122 157 196 239 292 354
#     4  11  24  41  61  91 125 157 196 245 298 356
#     4  10  21  40  64  89 116 152 197 246 298 354
#     4  12  25  40  59  89 125 160 199 246 296 352
#
# _framework density 20.359687999999998
#
# number of rings (size 3 to 8) (size 9 to 14) (size 15 to 20)
#    0.000    1.250    0.000    5.625    0.000   14.000 
#    0.000    1.250    0.000    0.000    0.000    0.000 
#    0.000    0.000    0.000    0.000    0.000    0.000 
#
# Total GULP energy -198505.307612 kJ/mol
# GULP energy per Si atom -12406.581726 kJ/mol
# Density = 2.031335 g / cm^3
# Si number density = 20.359688 Si / 1000 Ang^3
#
#
#
# Elastic Constant Matrix: (Units=GPa)
#
#
# Indices 1 2 3 4 5 6 
#
# 1 82.9466 26.4522 1.8731 0.0000 6.5358 0.0000
# 2 26.4522 88.5648 25.6113 0.0000 -0.4116 0.0000
# 3 1.8731 25.6113 100.6469 0.0000 2.5760 0.0000
# 4 0.0000 0.0000 0.0000 64.7223 0.0000 18.3365
# 5 6.5358 -0.4116 2.5760 0.0000 44.7587 0.0000
# 6 0.0000 0.0000 0.0000 18.3365 0.0000 30.0718
#
#
#
# Elastic Compliance Matrix: (Units=1/GPa)
#
#
# Indices 1 2 3 4 5 6 
#
# 1 0.013579 -0.004326 0.000901 0.000000 -0.002074 0.000000
# 2 -0.004326 0.013570 -0.003397 0.000000 0.000952 0.000000
# 3 0.000901 -0.003397 0.010803 0.000000 -0.000785 0.000000
# 4 0.000000 0.000000 0.000000 0.018677 0.000000 -0.011388
# 5 -0.002074 0.000952 -0.000785 0.000000 0.022699 0.000000
# 6 0.000000 0.000000 0.000000 -0.011388 0.000000 0.040198
#
#
# Mechanical properties :
#
#
# Convention : Reuss Voigt Hill
#
# Bulk Modulus (GPa) = 41.13747 42.22571 41.68159
# Shear Modulus (GPa) = 35.39270 42.45868 38.92569
#
# Velocity S-wave (km/s) = 4.17390 4.57160 4.37727
# Velocity P-wave (km/s) = 6.59377 6.97502 6.78708
#
# Compressibility (1/GPa) = 0.02430874
#
# Stress axis : x y z
#
# Youngs Moduli (GPa) = 73.64533 73.69218 92.56299
#
# Poissons Ratio (x) = 0.31878 -0.08342
# Poissons Ratio (y) = 0.31858 0.31443
# Poissons Ratio (z) = -0.06637 0.25033
#
# Static dielectric constant tensor:
#      x y z
#    x 3.863960 0.000000 -0.142110 
#    y 0.000000 3.729040 0.000000 
#    z -0.142110 0.000000 3.601860 
# 
# 
# High freq. dielectric constant tensor:
#      x y z
#    x 1.813890 0.000000 -0.000900 
#    y 0.000000 1.797260 0.000000 
#    z -0.000900 0.000000 1.812160 
# 
# From -- ./inp_files/5760.got.cif
#   From: 2010.03.12/outbox.cif.g09.slc.cpg/sg6_3_cif.got.tgz:5760.got - 2010.03.30 10:24:59.
