data_PCOD8052480
_publ_section_title
;
Structure prediction by ZEFSAII (Michael W. Deem and Ramdas Pophale) SiO2 
 PCOD8052480
Probable space group: P M
;
_chemical_formula_sum "Si O2"
_cell_formula_units_Z 16
_cell_length_a 9.711210
_cell_length_b 8.515545
_cell_length_c 19.430183
_cell_angle_alpha 90.000000
_cell_angle_beta 151.066461
_cell_angle_gamma 90.000000
_cell_volume 777.362975
_symmetry_space_group_name_H-M "P M"
_symmetry_group_IT_number 6
_symmetry_cell_setting 'monoclinic'
loop_
_space_group_symop_operation_xyz
x,y,z
x,-y,z
loop_
_atom_site_type_symbol
_atom_site_label
_atom_site_fract_x
_atom_site_fract_y
_atom_site_fract_z
Si Si1 0.283190 0.685085 0.007920
Si Si2 0.267974 0.317244 0.273433
Si Si3 0.634285 0.176927 0.547676
Si Si4 0.132990 0.317657 0.559227
Si Si5 0.548683 0.182761 0.260677
Si Si6 0.171980 0.680620 0.733440
Si Si7 0.656926 0.180900 0.714015
Si Si8 0.658390 0.681315 0.046324
O O1 0.240518 0.500000 0.979469
O O2 0.416381 0.719877 0.140243
O O3 0.493856 0.753707 0.040513
O O4 0.977362 0.764739 0.867031
O O5 0.244018 0.500000 0.243088
O O6 0.479157 0.298987 0.429938
O O7 0.384275 0.225307 0.258523
O O8 0.967103 0.242973 0.166646
O O9 0.550143 0.204866 0.589460
O O10 0.969828 0.208703 0.689860
O O11 0.563618 0.000000 0.493294
O O12 0.056976 0.500000 0.518898
O O13 0.153832 0.265050 0.647176
O O14 0.442004 0.285026 0.663828
O O15 0.883801 0.220584 0.413278
O O16 0.511028 0.000000 0.228600
O O17 0.079125 0.500000 0.701900
O O18 0.486683 0.706869 0.900579
O O19 0.633737 0.000000 0.726022
O O20 0.708138 0.500000 0.085008
#
# Coordination Sequence:
#
# PCOD8052480 Si02
#       8
#     2   2   2   2   2   2   2   2
#     4  11  23  43  68  94 125 169 217 264 314 380
#     4  11  23  41  66  95 125 165 215 265 313 380
#     4  11  23  40  63  92 127 167 208 259 322 380
#     4  11  24  41  67  97 124 168 219 264 314 380
#     4  12  26  44  63  92 133 171 207 264 327 383
#     4  10  20  40  67  93 121 159 209 266 318 372
#     4  11  25  43  63  95 133 170 210 263 325 381
#     4   9  21  40  65  96 124 157 209 265 315 366
#
# _framework density 20.582407
#
# number of rings (size 3 to 8) (size 9 to 14) (size 15 to 20)
#    0.000    1.250    2.500    3.000    3.500    2.000 
#    0.000    3.125    0.000    0.000    0.000    0.000 
#    0.000    0.000    0.000    0.000    0.000    0.000 
#
# Total GULP energy -198442.610096 kJ/mol
# GULP energy per Si atom -12402.663131 kJ/mol
# Density = 2.053556 g / cm^3
# Si number density = 20.582407 Si / 1000 Ang^3
#
#
#
# Elastic Constant Matrix: (Units=GPa)
#
#
# Indices 1 2 3 4 5 6 
#
# 1 86.8226 21.5764 42.6072 0.0000 12.9637 0.0000
# 2 21.5764 42.8205 4.7813 0.0000 -3.8739 0.0000
# 3 42.6072 4.7813 104.2719 0.0000 2.8028 0.0000
# 4 0.0000 0.0000 0.0000 18.4974 0.0000 3.7070
# 5 12.9637 -3.8739 2.8028 0.0000 42.3970 0.0000
# 6 0.0000 0.0000 0.0000 3.7070 0.0000 20.6555
#
#
#
# Elastic Compliance Matrix: (Units=1/GPa)
#
#
# Indices 1 2 3 4 5 6 
#
# 1 0.017881 -0.008784 -0.006747 0.000000 -0.005824 0.000000
# 2 -0.008784 0.027998 0.002168 0.000000 0.005101 0.000000
# 3 -0.006747 0.002168 0.012209 0.000000 0.001454 0.000000
# 4 0.000000 0.000000 0.000000 0.056079 0.000000 -0.010064
# 5 -0.005824 0.005101 0.001454 0.000000 0.025737 0.000000
# 6 0.000000 0.000000 0.000000 -0.010064 0.000000 0.050219
#
#
# Mechanical properties :
#
#
# Convention : Reuss Voigt Hill
#
# Bulk Modulus (GPa) = 31.88439 41.31609 36.60024
# Shear Modulus (GPa) = 21.99699 27.30665 24.65182
#
# Velocity S-wave (km/s) = 3.27269 3.64634 3.46455
# Velocity P-wave (km/s) = 5.45943 6.15181 5.81593
#
# Compressibility (1/GPa) = 0.03136331
#
# Stress axis : x y z
#
# Youngs Moduli (GPa) = 55.92431 35.71620 81.90782
#
# Poissons Ratio (x) = 0.31371 0.55265
# Poissons Ratio (y) = 0.49121 -0.17759
# Poissons Ratio (z) = 0.37734 -0.07744
#
# Static dielectric constant tensor:
#      x y z
#    x 3.884430 0.000000 0.045080 
#    y 0.000000 3.603130 0.000000 
#    z 0.045080 0.000000 3.750160 
# 
# 
# High freq. dielectric constant tensor:
#      x y z
#    x 1.815010 0.000000 0.000150 
#    y 0.000000 1.795270 0.000000 
#    z 0.000150 0.000000 1.815520 
# 
# From -- ./inp_files/3702.got.cif
#   From: 2010.03.12/outbox.cif.g09.slc.cpg/sg6_2_cif.got.tgz:3702.got - 2010.03.30 10:24:59.
