data_PCOD8052031
_publ_section_title
;
Structure prediction by ZEFSAII (Michael W. Deem and Ramdas Pophale) SiO2 
 PCOD8052031
Probable space group: C 2
;
_chemical_formula_sum "Si O2"
_cell_formula_units_Z 18
_cell_length_a 12.623885
_cell_length_b 10.795972
_cell_length_c 5.363497
_cell_angle_alpha 90.000000
_cell_angle_beta 81.035222
_cell_angle_gamma 90.000000
_cell_volume 722.046138
_symmetry_space_group_name_H-M "C 2"
_symmetry_group_IT_number 5
_symmetry_cell_setting 'monoclinic'
loop_
_space_group_symop_operation_xyz
x,y,z
-x,y,-z
1/2+x,1/2+y,z
1/2-x,1/2+y,-z
loop_
_atom_site_type_symbol
_atom_site_label
_atom_site_fract_x
_atom_site_fract_y
_atom_site_fract_z
Si Si1 0.830324 0.171570 0.363526
Si Si2 0.165355 0.012753 0.134775
Si Si3 0.894502 0.683149 0.410191
Si Si4 0.106751 0.428354 0.804773
Si Si5 0.000000 0.838327 0.000000
O O1 0.848529 0.101063 0.618902
O O2 0.710005 0.227985 0.404432
O O3 0.904699 0.293384 0.317348
O O4 0.849814 0.086530 0.118082
O O5 0.281821 0.945341 0.081006
O O6 0.064157 0.920181 0.180879
O O7 0.890470 0.534117 0.406170
O O8 0.000000 0.733482 0.500000
O O9 0.903642 0.751082 0.140163
O O10 0.000000 0.453682 0.000000
#
# Coordination Sequence:
#
# PCOD8052031 Si02
#       5
#     4   4   4   4   2
#     4  11  28  49  74 114 155 194 253 306 383 440
#     4  11  29  50  77 111 151 208 242 309 377 449
#     4  11  25  46  78 110 147 204 252 309 372 445
#     4  11  25  49  78 112 153 194 254 314 373 442
#     4  12  28  50  76 110 152 200 258 298 372 470
#
# _framework density 24.929157
#
# number of rings (size 3 to 8) (size 9 to 14) (size 15 to 20)
#    0.000    0.889    1.111    2.667   20.222    1.778 
#    0.000    0.000    0.000    0.000    0.000    0.000 
#    0.000    0.000    0.000    0.000    0.000    0.000 
#
# Total GULP energy -111541.447586 kJ/mol
# GULP energy per Si atom -12393.494176 kJ/mol
# Density = 2.487242 g / cm^3
# Si number density = 24.929157 Si / 1000 Ang^3
#
#
#
# Elastic Constant Matrix: (Units=GPa)
#
#
# Indices 1 2 3 4 5 6 
#
# 1 93.1424 29.3435 8.0876 0.0000 4.7733 0.0000
# 2 29.3435 119.6191 45.6954 0.0000 -1.5765 0.0000
# 3 8.0876 45.6954 119.1211 0.0000 4.4132 0.0000
# 4 0.0000 0.0000 0.0000 21.8788 0.0000 -11.0954
# 5 4.7733 -1.5765 4.4132 0.0000 36.3994 0.0000
# 6 0.0000 0.0000 0.0000 -11.0954 0.0000 39.0545
#
#
#
# Elastic Compliance Matrix: (Units=1/GPa)
#
#
# Indices 1 2 3 4 5 6 
#
# 1 0.011755 -0.003077 0.000446 0.000000 -0.001729 0.000000
# 2 -0.003077 0.010629 -0.003918 0.000000 0.001339 0.000000
# 3 0.000446 -0.003918 0.009921 0.000000 -0.001431 0.000000
# 4 0.000000 0.000000 0.000000 0.053400 0.000000 0.015171
# 5 -0.001729 0.001339 -0.001431 0.000000 0.027931 0.000000
# 6 0.000000 0.000000 0.000000 0.015171 0.000000 0.029915
#
#
# Mechanical properties :
#
#
# Convention : Reuss Voigt Hill
#
# Bulk Modulus (GPa) = 52.06290 55.34839 53.70564
# Shear Modulus (GPa) = 30.66517 36.05029 33.35773
#
# Velocity S-wave (km/s) = 3.51107 3.80690 3.66197
# Velocity P-wave (km/s) = 6.11282 6.44777 6.28253
#
# Compressibility (1/GPa) = 0.01920754
#
# Stress axis : x y z
#
# Youngs Moduli (GPa) = 85.06675 94.08181 100.80123
#
# Poissons Ratio (x) = 0.28949 -0.04499
# Poissons Ratio (y) = 0.26175 0.39494
# Poissons Ratio (z) = -0.03796 0.36862
#
# Static dielectric constant tensor:
#      x y z
#    x 4.853800 0.000000 -0.192470 
#    y 0.000000 4.476200 0.000000 
#    z -0.192470 0.000000 4.399980 
# 
# 
# High freq. dielectric constant tensor:
#      x y z
#    x 2.005380 0.000000 -0.010350 
#    y 0.000000 2.007470 0.000000 
#    z -0.010350 0.000000 1.981540 
# 
# From -- ./inp_files/4423.got.cif
#   From: 2010.03.12/outbox.cif.g09.slc.cpg/sg5_3_cif.got.tgz:4423.got - 2010.03.31 09:47:26.
