data_PCOD8052455
_publ_section_title
;
Structure prediction by ZEFSAII (Michael W. Deem and Ramdas Pophale) SiO2 
 PCOD8052455
Probable space group: P M
;
_chemical_formula_sum "Si O2"
_cell_formula_units_Z 13
_cell_length_a 10.892472
_cell_length_b 7.862171
_cell_length_c 12.935496
_cell_angle_alpha 90.000000
_cell_angle_beta 36.338467
_cell_angle_gamma 90.000000
_cell_volume 656.417348
_symmetry_space_group_name_H-M "P M"
_symmetry_group_IT_number 6
_symmetry_cell_setting 'monoclinic'
loop_
_space_group_symop_operation_xyz
x,y,z
x,-y,z
loop_
_atom_site_type_symbol
_atom_site_label
_atom_site_fract_x
_atom_site_fract_y
_atom_site_fract_z
Si Si1 0.092120 0.683390 0.480260
Si Si2 0.828822 0.500000 0.509872
Si Si3 0.945679 0.500000 0.193366
Si Si4 0.539409 0.196829 0.162531
Si Si5 0.306942 0.803743 0.692095
Si Si6 0.946767 0.807151 0.788034
Si Si7 0.355416 0.500000 0.815175
Si Si8 0.693847 0.807907 0.284811
O O1 0.107568 0.500000 0.525879
O O2 0.316711 0.729008 0.282957
O O3 0.934769 0.668781 0.489059
O O4 0.001894 0.806829 0.629094
O O5 0.863109 0.500000 0.365098
O O6 0.587184 0.500000 0.701878
O O7 0.871030 0.669855 0.184847
O O8 0.195350 0.500000 0.019844
O O9 0.583159 0.235524 0.252353
O O10 0.520162 0.000000 0.152142
O O11 0.724459 0.279525 0.966793
O O12 0.313730 0.673908 0.781777
O O13 0.526988 0.793537 0.487742
O O14 0.131586 0.732690 0.732597
O O15 0.265932 0.000000 0.755719
O O16 0.924537 0.000000 0.838619
O O17 0.788201 0.000000 0.217315
#
# Coordination Sequence:
#
# PCOD8052455 Si02
#       8
#     2   1   1   2   2   2   1   2
#     4  10  23  38  59  80 113 160 192 248 288 338
#     4  10  26  44  56  82 116 154 214 252 278 344
#     4  12  24  41  65  86 119 161 201 250 300 351
#     4  10  20  36  60  92 124 151 187 236 296 364
#     4  10  20  37  64  94 126 157 189 239 302 367
#     4  10  20  36  60  92 124 151 187 236 296 364
#     4  12  24  41  65  86 119 161 201 250 300 351
#     4  10  20  37  64  94 126 157 189 239 302 367
#
# _framework density 19.804473000000002
#
# number of rings (size 3 to 8) (size 9 to 14) (size 15 to 20)
#    0.462    1.231    3.077    1.385    2.154    3.692 
#    0.000    3.077    0.000    0.000    0.000    0.000 
#    0.000    0.000    0.000    0.000    0.000    0.000 
#
# Total GULP energy -161104.401000 kJ/mol
# GULP energy per Si atom -12392.646231 kJ/mol
# Density = 1.975940 g / cm^3
# Si number density = 19.804473 Si / 1000 Ang^3
#
#
#
# Elastic Constant Matrix: (Units=GPa)
#
#
# Indices 1 2 3 4 5 6 
#
# 1 82.1703 31.9811 27.5815 0.0000 -29.1862 0.0000
# 2 31.9811 75.8297 25.9925 0.0000 -11.8549 0.0000
# 3 27.5815 25.9925 126.1258 0.0000 -29.8592 0.0000
# 4 0.0000 0.0000 0.0000 17.9142 0.0000 -2.5672
# 5 -29.1862 -11.8549 -29.8592 0.0000 28.1283 0.0000
# 6 0.0000 0.0000 0.0000 -2.5672 0.0000 13.7741
#
#
#
# Elastic Compliance Matrix: (Units=1/GPa)
#
#
# Indices 1 2 3 4 5 6 
#
# 1 0.021803 -0.006378 0.001691 0.000000 0.021730 0.000000
# 2 -0.006378 0.016373 -0.002555 0.000000 -0.002429 0.000000
# 3 0.001691 -0.002555 0.011014 0.000000 0.012369 0.000000
# 4 0.000000 0.000000 0.000000 0.057353 0.000000 0.010689
# 5 0.021730 -0.002429 0.012369 0.000000 0.070205 0.000000
# 6 0.000000 0.000000 0.000000 0.010689 0.000000 0.074592
#
#
# Mechanical properties :
#
#
# Convention : Reuss Voigt Hill
#
# Bulk Modulus (GPa) = 28.81305 50.58178 39.69742
# Shear Modulus (GPa) = 18.02503 25.20135 21.61319
#
# Velocity S-wave (km/s) = 3.02014 3.57109 3.30711
# Velocity P-wave (km/s) = 5.17127 6.52684 5.88819
#
# Compressibility (1/GPa) = 0.03470649
#
# Stress axis : x y z
#
# Youngs Moduli (GPa) = 45.86588 61.07553 90.79706
#
# Poissons Ratio (x) = 0.38952 -0.15352
# Poissons Ratio (y) = 0.29252 0.23194
# Poissons Ratio (z) = -0.07755 0.15602
#
# Static dielectric constant tensor:
#      x y z
#    x 3.264020 0.000000 -0.205210 
#    y 0.000000 3.642670 0.000000 
#    z -0.205210 0.000000 3.845410 
# 
# 
# High freq. dielectric constant tensor:
#      x y z
#    x 1.738820 0.000000 -0.008510 
#    y 0.000000 1.766490 0.000000 
#    z -0.008510 0.000000 1.791180 
# 
# From -- ./inp_files/5233.got.cif
#   From: 2010.03.12/outbox.cif.g09.slc.cpg/sg6_3_cif.got.tgz:5233.got - 2010.03.30 10:24:59.
