data_PCOD8052216
_publ_section_title
;
Structure prediction by ZEFSAII (Michael W. Deem and Ramdas Pophale) SiO2 
 PCOD8052216
Probable space group: C 2
;
_chemical_formula_sum "Si O2"
_cell_formula_units_Z 14
_cell_length_a 15.000000
_cell_length_b 21.000000
_cell_length_c 15.000000
_cell_angle_alpha 90.000000
_cell_angle_beta 160.000000
_cell_angle_gamma 90.000000
_cell_volume 1616.045177
_symmetry_space_group_name_H-M "C 2"
_symmetry_group_IT_number 5
_symmetry_cell_setting 'monoclinic'
loop_
_space_group_symop_operation_xyz
x,y,z
-x,y,-z
1/2+x,1/2+y,z
1/2-x,1/2+y,-z
loop_
_atom_site_type_symbol
_atom_site_label
_atom_site_fract_x
_atom_site_fract_y
_atom_site_fract_z
Si Si1 0.174454 0.591360 0.530713
Si Si2 0.343220 0.660458 0.934522
Si Si3 0.233362 0.175869 0.545614
Si Si4 0.749753 0.746642 0.992954
Si Si5 0.100301 0.870222 0.939952
Si Si6 0.500000 0.688323 0.500000
Si Si7 0.000000 0.772958 0.000000
Si Si8 0.929944 0.444099 0.538775
O O1 0.189425 0.616150 0.443033
O O2 0.135217 0.516336 0.498270
O O3 0.922503 0.623366 0.342063
O O4 0.453426 0.609112 0.834349
O O5 0.260972 0.719912 0.917189
O O6 0.500000 0.691228 0.000000
O O7 0.499694 0.213761 0.820798
O O8 0.094350 0.146585 0.503721
O O9 0.026306 0.226596 0.310485
O O10 0.795252 0.823685 0.042113
O O11 0.068706 0.818329 0.984778
O O12 0.821003 0.903858 0.664317
O O13 0.318684 0.922668 0.168426
O O14 0.742383 0.732255 0.749643
O O15 0.000000 0.435616 0.500000
#
# Coordination Sequence:
#
# PCOD8052216 Si02
#       8
#     4   4   4   4   4   2   2   4
#     4  10  22  35  49  73 102 129 166 202 236 285
#     4  10  19  35  55  73  96 127 163 207 248 284
#     4  10  19  32  50  73  99 128 159 201 247 285
#     4  10  20  32  49  74 102 125 157 203 247 286
#     4  12  21  32  46  74 102 130 159 193 235 295
#     4  12  18  30  54  74 100 130 154 198 250 292
#     4  12  20  30  48  74 108 124 162 190 230 306
#     4  12  22  32  48  69  99 138 164 188 233 292
#
# _framework density 8.6631239999999998
#
# number of rings (size 3 to 8) (size 9 to 14) (size 15 to 20)
#    0.000    1.143    4.286    3.857    0.000    0.000 
#    0.000    0.000    0.000    0.000    3.714    0.000 
#    0.000    0.000    0.000    0.000    0.000    0.000 
#
# Total GULP energy -173446.426307 kJ/mol
# GULP energy per Si atom -12389.030450 kJ/mol
# Density = 0.864341 g / cm^3
# Si number density = 8.663124 Si / 1000 Ang^3
#
#
#
# Elastic Constant Matrix: (Units=GPa)
#
#
# Indices 1 2 3 4 5 6 
#
# 1 86.4755 38.8792 13.1897 0.0006 22.6200 0.0002
# 2 38.8792 94.5296 25.4931 0.0002 10.0030 -0.0002
# 3 13.1897 25.4931 112.0698 0.0009 22.7547 0.0002
# 4 0.0006 0.0002 0.0009 29.7066 0.0005 8.0955
# 5 22.6200 10.0030 22.7547 0.0005 27.1237 0.0003
# 6 0.0002 -0.0002 0.0002 8.0955 0.0003 28.2369
#
#
#
# Elastic Compliance Matrix: (Units=1/GPa)
#
#
# Indices 1 2 3 4 5 6 
#
# 1 0.017901 -0.006451 0.002301 0.000000 -0.014480 0.000000
# 2 -0.006451 0.013728 -0.002926 0.000000 0.002772 0.000000
# 3 0.002301 -0.002926 0.011436 0.000000 -0.010434 0.000000
# 4 0.000000 0.000000 0.000000 0.036516 0.000000 -0.010469
# 5 -0.014480 0.002772 -0.010434 0.000000 0.056674 0.000000
# 6 0.000000 0.000000 0.000000 -0.010469 0.000000 0.038416
#
#
# Mechanical properties :
#
#
# Convention : Reuss Voigt Hill
#
# Bulk Modulus (GPa) = 34.58779 49.79988 42.19383
# Shear Modulus (GPa) = 25.19389 31.38097 28.28743
#
# Velocity S-wave (km/s) = 3.81739 4.26041 4.04497
# Velocity P-wave (km/s) = 6.27980 7.28055 6.79861
#
# Compressibility (1/GPa) = 0.02891194
#
# Stress axis : x y z
#
# Youngs Moduli (GPa) = 55.86345 72.84564 87.44042
#
# Poissons Ratio (x) = 0.46990 -0.20116
# Poissons Ratio (y) = 0.36035 0.25588
# Poissons Ratio (z) = -0.12851 0.21317
#
# Static dielectric constant tensor:
#      x y z
#    x 3.489800 0.000000 0.215990 
#    y 0.000000 3.105920 0.000000 
#    z 0.215990 0.000000 3.658580 
# 
# 
# High freq. dielectric constant tensor:
#      x y z
#    x 1.662390 0.000000 0.026590 
#    y 0.000000 1.644820 0.000000 
#    z 0.026590 0.000000 1.701670 
# 
# From -- ./inp_files/9832.got.cif
#   From: 2010.06.25/outbox.ucp.g09.slc.cvg/sg5_5_cif.got.tgz:9832.got - 2010.06.28 13:24:32.
