data_PCOD8052887
_publ_section_title
;
Structure prediction by ZEFSAII (Michael W. Deem and Ramdas Pophale) SiO2 
 PCOD8052887
Probable space group: C M
;
_chemical_formula_sum "Si O2"
_cell_formula_units_Z 32
_cell_length_a 20.176011
_cell_length_b 8.878479
_cell_length_c 16.006403
_cell_angle_alpha 90.000000
_cell_angle_beta 36.853862
_cell_angle_gamma 90.000000
_cell_volume 1719.716127
_symmetry_space_group_name_H-M "C M"
_symmetry_group_IT_number 8
_symmetry_cell_setting 'monoclinic'
loop_
_space_group_symop_operation_xyz
x,y,z
x,-y,z
1/2+x,1/2+y,z
1/2+x,1/2-y,z
loop_
_atom_site_type_symbol
_atom_site_label
_atom_site_fract_x
_atom_site_fract_y
_atom_site_fract_z
Si Si1 0.768140 0.824109 0.082730
Si Si2 0.974352 0.323078 0.954394
Si Si3 0.739652 0.324283 0.936872
Si Si4 0.020059 0.674363 0.364324
Si Si5 0.362526 0.326009 0.395244
Si Si6 0.504054 0.671900 0.098147
Si Si7 0.683134 0.678424 0.676375
Si Si8 0.836994 0.675206 0.670043
O O1 0.648401 0.786026 0.242266
O O2 0.794795 0.000000 0.060597
O O3 0.775177 0.772202 0.980263
O O4 0.853232 0.734798 0.054042
O O5 0.980104 0.500000 0.937276
O O6 0.061423 0.248846 0.802399
O O7 0.000956 0.281565 0.022789
O O8 0.761710 0.500000 0.933479
O O9 0.814741 0.259446 0.784664
O O10 0.612187 0.294201 0.043940
O O11 0.000843 0.500000 0.359282
O O12 0.964780 0.773647 0.348708
O O13 0.961610 0.708786 0.512815
O O14 0.340199 0.500000 0.436464
O O15 0.396835 0.300427 0.264222
O O16 0.250032 0.234467 0.527191
O O17 0.507563 0.500000 0.061522
O O18 0.673694 0.500000 0.682098
O O19 0.750227 0.739079 0.689640
O O20 0.811313 0.500000 0.702525
#
# Coordination Sequence:
#
# PCOD8052887 Si02
#       8
#     4   4   4   4   4   4   4   4
#     4  11  23  38  56  80 115 153 191 234 289 344
#     4  12  25  39  58  83 113 151 198 242 288 344
#     4  10  18  34  58  84 113 146 187 233 284 338
#     4   9  18  33  54  81 110 148 191 232 280 334
#     4  10  19  32  55  87 118 148 187 234 282 334
#     4  10  20  36  58  85 118 153 189 234 286 337
#     4  10  19  36  58  82 115 151 187 231 291 345
#     4   8  15  30  55  82 108 140 180 226 278 332
#
# _framework density 18.607723
#
# number of rings (size 3 to 8) (size 9 to 14) (size 15 to 20)
#    0.000    2.000    2.500    3.000    0.000    2.000 
#    0.000    1.875    0.000    6.000    0.000    0.000 
#    0.000    0.000    0.000    0.000    0.000    0.000 
#
# Total GULP energy -198398.018110 kJ/mol
# GULP energy per Si atom -12399.876132 kJ/mol
# Density = 1.856537 g / cm^3
# Si number density = 18.607723 Si / 1000 Ang^3
#
#
#
# Elastic Constant Matrix: (Units=GPa)
#
#
# Indices 1 2 3 4 5 6 
#
# 1 44.7949 26.2180 23.9148 0.0000 -8.4100 0.0000
# 2 26.2180 93.7516 44.4874 0.0005 -8.3891 -0.0005
# 3 23.9148 44.4874 129.2516 0.0000 -8.0616 -0.0001
# 4 0.0000 0.0005 0.0000 30.3934 0.0000 0.4822
# 5 -8.4100 -8.3891 -8.0616 0.0000 25.0820 0.0000
# 6 0.0000 -0.0005 -0.0001 0.4822 0.0000 29.2755
#
#
#
# Elastic Compliance Matrix: (Units=1/GPa)
#
#
# Indices 1 2 3 4 5 6 
#
# 1 0.028625 -0.006087 -0.002786 0.000000 0.006667 0.000000
# 2 -0.006087 0.014255 -0.003684 0.000000 0.001543 0.000000
# 3 -0.002786 -0.003684 0.009577 0.000000 0.000912 0.000000
# 4 0.000000 0.000000 0.000000 0.032911 0.000000 -0.000542
# 5 0.006667 0.001543 0.000912 0.000000 0.042914 0.000000
# 6 0.000000 0.000000 0.000000 -0.000542 0.000000 0.034167
#
#
# Mechanical properties :
#
#
# Convention : Reuss Voigt Hill
#
# Bulk Modulus (GPa) = 36.57018 50.78204 43.67611
# Shear Modulus (GPa) = 25.42247 28.49537 26.95892
#
# Velocity S-wave (km/s) = 3.70027 3.91752 3.81044
# Velocity P-wave (km/s) = 6.16051 6.91467 6.54846
#
# Compressibility (1/GPa) = 0.02734468
#
# Stress axis : x y z
#
# Youngs Moduli (GPa) = 34.93407 70.15148 104.41552
#
# Poissons Ratio (x) = 0.42700 0.29085
# Poissons Ratio (y) = 0.21264 0.38466
# Poissons Ratio (z) = 0.09731 0.25844
#
# Static dielectric constant tensor:
#      x y z
#    x 3.118650 0.000000 -0.029140 
#    y 0.000000 3.311710 0.000000 
#    z -0.029140 0.000000 3.793090 
# 
# 
# High freq. dielectric constant tensor:
#      x y z
#    x 1.686430 0.000000 -0.002280 
#    y 0.000000 1.714310 0.000000 
#    z -0.002280 0.000000 1.743980 
# 
# From -- ./inp_files/27757.got.cif
#   From: 2010.03.12/outbox.cif.g09.slc.cpg/sg8_14_cif.got.tgz:27757.got - 2010.03.31 10:45:26.
