data_PCOD8052323
_publ_section_title
;
Structure prediction by ZEFSAII (Michael W. Deem and Ramdas Pophale) SiO2 
 PCOD8052323
Probable space group: P M
;
_chemical_formula_sum "Si O2"
_cell_formula_units_Z 14
_cell_length_a 14.402988
_cell_length_b 10.254765
_cell_length_c 10.425425
_cell_angle_alpha 90.000000
_cell_angle_beta 31.065515
_cell_angle_gamma 90.000000
_cell_volume 794.578519
_symmetry_space_group_name_H-M "P M"
_symmetry_group_IT_number 6
_symmetry_cell_setting 'monoclinic'
loop_
_space_group_symop_operation_xyz
x,y,z
x,-y,z
loop_
_atom_site_type_symbol
_atom_site_label
_atom_site_fract_x
_atom_site_fract_y
_atom_site_fract_z
Si Si1 0.526410 0.348642 0.277040
Si Si2 0.611861 0.853498 0.960705
Si Si3 0.152582 0.347313 0.841235
Si Si4 0.008769 0.227838 0.516664
Si Si5 0.190084 0.649450 0.079942
Si Si6 0.917106 0.348742 0.892613
Si Si7 0.374237 0.142764 0.005009
O O1 0.519388 0.500000 0.239513
O O2 0.528977 0.256068 0.150649
O O3 0.356439 0.310000 0.563679
O O4 0.703742 0.322736 0.152806
O O5 0.536076 0.822973 0.909370
O O6 0.554541 0.000000 0.071984
O O7 0.827407 0.849946 0.701227
O O8 0.123784 0.500000 0.869587
O O9 0.012139 0.283993 0.905542
O O10 0.114765 0.300607 0.031403
O O11 0.002390 0.291199 0.663523
O O12 0.035172 0.336414 0.371935
O O13 0.183409 0.134559 0.307851
O O14 0.257147 0.500000 0.991992
O O15 0.360682 0.742719 0.914248
O O16 0.962916 0.500000 0.833626
O O17 0.407146 0.000000 0.903118
#
# Coordination Sequence:
#
# PCOD8052323 Si02
#       7
#     2   2   2   2   2   2   2
#     4   9  18  31  50  75 101 131 166 205 250 299
#     4  10  19  33  53  77 102 133 169 208 254 300
#     4   9  17  32  49  71 104 135 161 203 253 299
#     4   9  18  31  53  74 101 127 167 209 249 291
#     4   9  19  34  52  75 104 133 170 209 248 297
#     4   9  16  28  49  74 100 129 161 201 252 297
#     4   9  19  33  50  72 100 134 166 201 254 301
#
# _framework density 17.619403999999999
#
# number of rings (size 3 to 8) (size 9 to 14) (size 15 to 20)
#    0.857    2.000    0.000    1.714    0.000    1.143 
#    2.571    0.714    0.000    4.286    0.000    0.000 
#    0.000    0.000    0.000    0.000    0.000    0.000 
#
# Total GULP energy -173442.898139 kJ/mol
# GULP energy per Si atom -12388.778439 kJ/mol
# Density = 1.757930 g / cm^3
# Si number density = 17.619404 Si / 1000 Ang^3
#
#
#
# Elastic Constant Matrix: (Units=GPa)
#
#
# Indices 1 2 3 4 5 6 
#
# 1 151.3287 47.3183 36.6036 0.0000 10.8113 0.0000
# 2 47.3183 74.0543 11.5935 0.0000 8.0161 0.0000
# 3 36.6036 11.5935 36.7284 0.0000 3.8679 0.0000
# 4 0.0000 0.0000 0.0000 6.7293 0.0000 -3.1722
# 5 10.8113 8.0161 3.8679 0.0000 24.4524 0.0000
# 6 0.0000 0.0000 0.0000 -3.1722 0.0000 23.5193
#
#
#
# Elastic Compliance Matrix: (Units=1/GPa)
#
#
# Indices 1 2 3 4 5 6 
#
# 1 0.010400 -0.005133 -0.008580 0.000000 -0.001558 0.000000
# 2 -0.005133 0.017138 0.000060 0.000000 -0.003358 0.000000
# 3 -0.008580 0.000060 0.035961 0.000000 -0.001914 0.000000
# 4 0.000000 0.000000 0.000000 0.158695 0.000000 0.021405
# 5 -0.001558 -0.003358 -0.001914 0.000000 0.042988 0.000000
# 6 0.000000 0.000000 0.000000 0.021405 0.000000 0.045405
#
#
# Mechanical properties :
#
#
# Convention : Reuss Voigt Hill
#
# Bulk Modulus (GPa) = 27.63111 50.34914 38.99012
# Shear Modulus (GPa) = 14.28743 22.04659 18.16701
#
# Velocity S-wave (km/s) = 2.85071 3.54116 3.21453
# Velocity P-wave (km/s) = 5.15283 6.73482 5.99622
#
# Compressibility (1/GPa) = 0.03619110
#
# Stress axis : x y z
#
# Youngs Moduli (GPa) = 96.15433 58.35071 27.80825
#
# Poissons Ratio (x) = 0.29953 0.23860
# Poissons Ratio (y) = 0.49359 -0.00167
# Poissons Ratio (z) = 0.82502 -0.00349
#
# Static dielectric constant tensor:
#      x y z
#    x 3.508610 0.000000 -0.038200 
#    y 0.000000 3.061940 0.000000 
#    z -0.038200 0.000000 3.081830 
# 
# 
# High freq. dielectric constant tensor:
#      x y z
#    x 1.690340 0.000000 -0.008730 
#    y 0.000000 1.662640 0.000000 
#    z -0.008730 0.000000 1.656890 
# 
# From -- ./inp_files/3957.got.cif
#   From: 2010.03.12/outbox.cif.g09.slc.cpg/sg6_2_cif.got.tgz:3957.got - 2010.03.30 10:24:59.
