data_PCOD8052562
_publ_section_title
;
Structure prediction by ZEFSAII (Michael W. Deem and Ramdas Pophale) SiO2 
 PCOD8052562
Probable space group: P M
;
_chemical_formula_sum "Si O2"
_cell_formula_units_Z 12
_cell_length_a 10.009908
_cell_length_b 8.419298
_cell_length_c 10.124078
_cell_angle_alpha 90.000000
_cell_angle_beta 43.468696
_cell_angle_gamma 90.000000
_cell_volume 586.980232
_symmetry_space_group_name_H-M "P M"
_symmetry_group_IT_number 6
_symmetry_cell_setting 'monoclinic'
loop_
_space_group_symop_operation_xyz
x,y,z
x,-y,z
loop_
_atom_site_type_symbol
_atom_site_label
_atom_site_fract_x
_atom_site_fract_y
_atom_site_fract_z
Si Si1 0.640170 0.816168 0.607040
Si Si2 0.409120 0.182989 0.031473
Si Si3 0.574015 0.317210 0.171931
Si Si4 0.012351 0.316710 0.220322
Si Si5 0.967805 0.815126 0.964709
Si Si6 0.360003 0.314451 0.591199
O O1 0.559079 0.771053 0.808691
O O2 0.830260 0.710492 0.447206
O O3 0.474292 0.782736 0.619481
O O4 0.698337 0.000000 0.555724
O O5 0.430154 0.000000 0.056128
O O6 0.453097 0.290738 0.125890
O O7 0.191517 0.211956 0.138833
O O8 0.636230 0.500000 0.138855
O O9 0.437779 0.267467 0.391568
O O10 0.766765 0.210016 0.031433
O O11 0.073270 0.500000 0.178903
O O12 0.947865 0.267858 0.120485
O O13 0.135644 0.734793 0.757673
O O14 0.011641 0.000000 0.951888
O O15 0.384881 0.500000 0.603028
#
# Coordination Sequence:
#
# PCOD8052562 Si02
#       6
#     2   2   2   2   2   2
#     4  11  23  40  66  96 128 168 216 264 318 380
#     4  11  25  44  66  95 131 170 213 265 324 382
#     4  11  25  44  66  95 131 170 213 265 324 382
#     4  12  24  40  66  96 129 169 215 266 319 381
#     4  12  24  40  66  96 129 169 215 266 319 381
#     4  11  23  40  66  96 128 168 216 264 318 380
#
# _framework density 20.443618000000001
#
# number of rings (size 3 to 8) (size 9 to 14) (size 15 to 20)
#    0.000    0.667    3.333    5.000    0.000    5.333 
#    0.000    0.000    0.000    0.000    0.000    0.000 
#    0.000    0.000    0.000    0.000    0.000    0.000 
#
# Total GULP energy -148911.408100 kJ/mol
# GULP energy per Si atom -12409.284008 kJ/mol
# Density = 2.039709 g / cm^3
# Si number density = 20.443618 Si / 1000 Ang^3
#
#
#
# Elastic Constant Matrix: (Units=GPa)
#
#
# Indices 1 2 3 4 5 6 
#
# 1 73.4893 13.7174 31.5142 0.0000 -1.4178 0.0000
# 2 13.7174 62.6529 37.0386 0.0000 8.4354 0.0000
# 3 31.5142 37.0386 112.0992 0.0000 -4.2784 0.0000
# 4 0.0000 0.0000 0.0000 31.2544 0.0000 -3.4372
# 5 -1.4178 8.4354 -4.2784 0.0000 40.0318 0.0000
# 6 0.0000 0.0000 0.0000 -3.4372 0.0000 36.0677
#
#
#
# Elastic Compliance Matrix: (Units=1/GPa)
#
#
# Indices 1 2 3 4 5 6 
#
# 1 0.015529 -0.001087 -0.003993 0.000000 0.000352 0.000000
# 2 -0.001087 0.020917 -0.006803 0.000000 -0.005173 0.000000
# 3 -0.003993 -0.006803 0.012391 0.000000 0.002616 0.000000
# 4 0.000000 0.000000 0.000000 0.032334 0.000000 0.003081
# 5 0.000352 -0.005173 0.002616 0.000000 0.026362 0.000000
# 6 0.000000 0.000000 0.000000 0.003081 0.000000 0.028019
#
#
# Mechanical properties :
#
#
# Convention : Reuss Voigt Hill
#
# Bulk Modulus (GPa) = 39.88627 45.86463 42.87545
# Shear Modulus (GPa) = 29.81920 32.53552 31.17736
#
# Velocity S-wave (km/s) = 3.82331 3.99366 3.90941
# Velocity P-wave (km/s) = 6.24844 6.61431 6.43398
#
# Compressibility (1/GPa) = 0.02507128
#
# Stress axis : x y z
#
# Youngs Moduli (GPa) = 64.39366 47.80745 80.70398
#
# Poissons Ratio (x) = 0.05196 0.32227
# Poissons Ratio (y) = 0.06998 0.54904
# Poissons Ratio (z) = 0.25714 0.32524
#
# Static dielectric constant tensor:
#      x y z
#    x 3.498340 0.000000 -0.079880 
#    y 0.000000 3.745050 0.000000 
#    z -0.079880 0.000000 3.882950 
# 
# 
# High freq. dielectric constant tensor:
#      x y z
#    x 1.795400 0.000000 -0.008720 
#    y 0.000000 1.811170 0.000000 
#    z -0.008720 0.000000 1.811260 
# 
# From -- ./inp_files/2641.got.cif
#   From: 2010.03.12/outbox.cif.g09.slc.cpg/sg6_2_cif.got.tgz:2641.got - 2010.03.30 10:24:59.
