data_PCOD8052793
_publ_section_title
;
Structure prediction by ZEFSAII (Michael W. Deem and Ramdas Pophale) SiO2 
 PCOD8052793
Probable space group: C M
;
_chemical_formula_sum "Si O2"
_cell_formula_units_Z 32
_cell_length_a 14.966398
_cell_length_b 8.509198
_cell_length_c 12.358604
_cell_angle_alpha 90.000000
_cell_angle_beta 89.590468
_cell_angle_gamma 90.000000
_cell_volume 1573.853275
_symmetry_space_group_name_H-M "C M"
_symmetry_group_IT_number 8
_symmetry_cell_setting 'monoclinic'
loop_
_space_group_symop_operation_xyz
x,y,z
x,-y,z
1/2+x,1/2+y,z
1/2+x,1/2-y,z
loop_
_atom_site_type_symbol
_atom_site_label
_atom_site_fract_x
_atom_site_fract_y
_atom_site_fract_z
Si Si1 0.023110 0.819155 0.655260
Si Si2 0.806511 0.814026 0.440450
Si Si3 0.160897 0.685052 0.273794
Si Si4 0.826648 0.184393 0.874618
Si Si5 0.011269 0.815090 0.418093
Si Si6 0.022305 0.683781 0.875335
Si Si7 0.674857 0.186243 0.033314
Si Si8 0.332246 0.182561 0.657028
O O1 0.054547 0.766608 0.534578
O O2 0.062429 0.717427 0.754250
O O3 0.916749 0.798351 0.654985
O O4 0.047622 0.000000 0.676010
O O5 0.741614 0.749748 0.347032
O O6 0.774302 0.728385 0.551988
O O7 0.907752 0.762702 0.410748
O O8 0.798216 0.000000 0.455742
O O9 0.169083 0.500000 0.265681
O O10 0.064973 0.728489 0.323668
O O11 0.169473 0.759363 0.153781
O O12 0.784563 0.276647 0.771178
O O13 0.929481 0.226857 0.895660
O O14 0.816510 0.000000 0.854180
O O15 0.768405 0.237750 0.978517
O O16 0.019068 0.000000 0.400947
O O17 0.004732 0.500000 0.887382
O O18 0.092047 0.748993 0.962623
O O19 0.668169 0.000000 0.038616
O O20 0.359703 0.000000 0.653789
#
# Coordination Sequence:
#
# PCOD8052793 Si02
#       8
#     4   4   4   4   4   4   4   4
#     4   9  17  32  53  78 109 140 171 207 257 320
#     4   9  19  36  56  77 106 142 175 210 259 317
#     4  10  21  38  57  76 101 139 185 221 254 307
#     4  10  19  35  57  79 106 140 176 212 258 315
#     4   9  19  35  54  79 109 136 166 216 270 310
#     4  10  19  34  55  80 109 137 171 217 265 308
#     4   9  21  38  54  75 105 141 180 219 258 309
#     4  10  18  30  52  82 111 135 168 214 263 312
#
# _framework density 20.332265
#
# number of rings (size 3 to 8) (size 9 to 14) (size 15 to 20)
#    0.000    2.500    0.000    4.500    0.000    5.000 
#    0.000   10.000    0.000    0.000    0.000    0.000 
#    0.000    0.000    0.000    0.000    0.000    0.000 
#
# Total GULP energy -198316.092907 kJ/mol
# GULP energy per Si atom -12394.755807 kJ/mol
# Density = 2.028599 g / cm^3
# Si number density = 20.332265 Si / 1000 Ang^3
#
#
#
# Elastic Constant Matrix: (Units=GPa)
#
#
# Indices 1 2 3 4 5 6 
#
# 1 70.3762 12.7995 40.7616 0.0000 5.3987 0.0000
# 2 12.7995 35.7689 24.3562 0.0000 0.7825 0.0000
# 3 40.7616 24.3562 148.3265 0.0000 4.5395 0.0000
# 4 0.0000 0.0000 0.0000 25.4185 0.0000 -2.8293
# 5 5.3987 0.7825 4.5395 0.0000 36.2089 0.0000
# 6 0.0000 0.0000 0.0000 -2.8293 0.0000 22.8384
#
#
#
# Elastic Compliance Matrix: (Units=1/GPa)
#
#
# Indices 1 2 3 4 5 6 
#
# 1 0.017384 -0.003339 -0.004168 0.000000 -0.001997 0.000000
# 2 -0.003339 0.032118 -0.004367 0.000000 0.000351 0.000000
# 3 -0.004168 -0.004367 0.008616 0.000000 -0.000364 0.000000
# 4 0.000000 0.000000 0.000000 0.039892 0.000000 0.004942
# 5 -0.001997 0.000351 -0.000364 0.000000 0.027953 0.000000
# 6 0.000000 0.000000 0.000000 0.004942 0.000000 0.044398
#
#
# Mechanical properties :
#
#
# Convention : Reuss Voigt Hill
#
# Bulk Modulus (GPa) = 29.09547 45.58958 37.34252
# Shear Modulus (GPa) = 24.32321 28.66343 26.49332
#
# Velocity S-wave (km/s) = 3.46249 3.75874 3.61365
# Velocity P-wave (km/s) = 5.50692 6.42716 5.98476
#
# Compressibility (1/GPa) = 0.03436961
#
# Stress axis : x y z
#
# Youngs Moduli (GPa) = 57.52472 31.13504 116.06950
#
# Poissons Ratio (x) = 0.10396 0.48376
# Poissons Ratio (y) = 0.19207 0.50690
# Poissons Ratio (z) = 0.23976 0.13597
#
# Static dielectric constant tensor:
#      x y z
#    x 3.534090 0.000000 0.074670 
#    y 0.000000 3.372160 0.000000 
#    z 0.074670 0.000000 4.327550 
# 
# 
# High freq. dielectric constant tensor:
#      x y z
#    x 1.777940 0.000000 0.001670 
#    y 0.000000 1.774630 0.000000 
#    z 0.001670 0.000000 1.803490 
# 
# From -- ./inp_files/22774.got.cif
#   From: 2010.03.12/outbox.cif.g09.slc.cpg/sg8_12_cif.got.tgz:22774.got - 2010.03.31 10:45:26.
