data_PCOD8052867
_publ_section_title
;
Structure prediction by ZEFSAII (Michael W. Deem and Ramdas Pophale) SiO2 
 PCOD8052867
Probable space group: C M
;
_chemical_formula_sum "Si O2"
_cell_formula_units_Z 32
_cell_length_a 15.520331
_cell_length_b 13.166283
_cell_length_c 9.211194
_cell_angle_alpha 90.000000
_cell_angle_beta 63.495414
_cell_angle_gamma 90.000000
_cell_volume 1684.433788
_symmetry_space_group_name_H-M "C M"
_symmetry_group_IT_number 8
_symmetry_cell_setting 'monoclinic'
loop_
_space_group_symop_operation_xyz
x,y,z
x,-y,z
1/2+x,1/2+y,z
1/2+x,1/2-y,z
loop_
_atom_site_type_symbol
_atom_site_label
_atom_site_fract_x
_atom_site_fract_y
_atom_site_fract_z
Si Si1 0.265390 0.112049 0.882100
Si Si2 0.525898 0.114075 0.894632
Si Si3 0.116771 0.816937 0.799130
Si Si4 0.911568 0.115607 0.858080
Si Si5 0.057168 0.385341 0.544086
Si Si6 0.830757 0.290020 0.103600
Si Si7 0.395415 0.257303 0.595930
Si Si8 0.244155 0.265254 0.470225
O O1 0.157250 0.117572 0.901626
O O2 0.328213 0.180745 0.731396
O O3 0.308113 0.000000 0.840620
O O4 0.261233 0.145623 0.052137
O O5 0.608205 0.198598 0.860456
O O6 0.502214 0.116676 0.740503
O O7 0.558283 0.000000 0.918880
O O8 0.430364 0.148843 0.050229
O O9 0.185589 0.818938 0.605690
O O10 0.019081 0.870126 0.831318
O O11 0.909650 0.146318 0.689989
O O12 0.877566 0.000000 0.897520
O O13 0.844376 0.180871 0.016009
O O14 0.054228 0.500000 0.480457
O O15 0.169913 0.356381 0.484846
O O16 0.997457 0.303526 0.489478
O O17 0.780515 0.283522 0.295159
O O18 0.340391 0.296276 0.491170
#
# Coordination Sequence:
#
# PCOD8052867 Si02
#       8
#     4   4   4   4   4   4   4   4
#     4  10  18  33  58  81 107 149 195 233 280 340
#     4   9  16  33  58  79 103 144 189 228 276 331
#     4   9  18  35  55  83 108 145 191 237 274 333
#     4  10  19  36  58  79 109 151 193 229 277 341
#     4  10  18  36  63  84 106 147 198 236 279 343
#     4  10  20  35  53  80 116 146 179 236 289 339
#     4  10  19  36  60  84 111 150 194 241 282 338
#     4  10  21  36  56  84 120 146 178 240 300 337
#
# _framework density 18.997481000000001
#
# number of rings (size 3 to 8) (size 9 to 14) (size 15 to 20)
#    0.000    2.250    5.000    1.125    0.000    1.000 
#    4.500   13.750    0.000    0.000    0.000    0.000 
#    0.000    0.000    0.000    0.000    0.000    0.000 
#
# Total GULP energy -198241.650288 kJ/mol
# GULP energy per Si atom -12390.103143 kJ/mol
# Density = 1.895424 g / cm^3
# Si number density = 18.997481 Si / 1000 Ang^3
#
#
#
# Elastic Constant Matrix: (Units=GPa)
#
#
# Indices 1 2 3 4 5 6 
#
# 1 99.6308 21.8976 20.7357 0.0000 5.4495 0.0000
# 2 21.8976 104.5564 17.1480 0.0000 -0.1262 0.0000
# 3 20.7357 17.1480 81.7820 0.0000 -0.4348 0.0000
# 4 0.0000 0.0000 0.0000 10.3507 0.0000 -0.2961
# 5 5.4495 -0.1262 -0.4348 0.0000 19.8932 0.0000
# 6 0.0000 0.0000 0.0000 -0.2961 0.0000 16.8638
#
#
#
# Elastic Compliance Matrix: (Units=1/GPa)
#
#
# Indices 1 2 3 4 5 6 
#
# 1 0.011140 -0.001938 -0.002435 0.000000 -0.003117 0.000000
# 2 -0.001938 0.010242 -0.001653 0.000000 0.000560 0.000000
# 3 -0.002435 -0.001653 0.013197 0.000000 0.000945 0.000000
# 4 0.000000 0.000000 0.000000 0.096661 0.000000 0.001697
# 5 -0.003117 0.000560 0.000945 0.000000 0.051147 0.000000
# 6 0.000000 0.000000 0.000000 0.001697 0.000000 0.059329
#
#
# Mechanical properties :
#
#
# Convention : Reuss Voigt Hill
#
# Bulk Modulus (GPa) = 44.39065 45.05911 44.72488
# Shear Modulus (GPa) = 19.13693 24.50071 21.81882
#
# Velocity S-wave (km/s) = 3.17731 3.59511 3.39265
# Velocity P-wave (km/s) = 6.07270 6.40336 6.24022
#
# Compressibility (1/GPa) = 0.02252726
#
# Stress axis : x y z
#
# Youngs Moduli (GPa) = 89.76522 97.63888 75.77672
#
# Poissons Ratio (x) = 0.18918 0.18451
# Poissons Ratio (y) = 0.17392 0.12528
# Poissons Ratio (z) = 0.21857 0.16142
#
# Static dielectric constant tensor:
#      x y z
#    x 3.890480 0.000000 0.050660 
#    y 0.000000 3.564930 0.000000 
#    z 0.050660 0.000000 3.099020 
# 
# 
# High freq. dielectric constant tensor:
#      x y z
#    x 1.746110 0.000000 -0.003070 
#    y 0.000000 1.730140 0.000000 
#    z -0.003070 0.000000 1.697960 
# 
# From -- ./inp_files/13266.got.cif
#   From: 2010.03.12/outbox.cif.g09.slc.cpg/sg8_7_cif.got.tgz:13266.got - 2010.03.31 10:45:26.
