data_PCOD8052141
_publ_section_title
;
Structure prediction by ZEFSAII (Michael W. Deem and Ramdas Pophale) SiO2 
 PCOD8052141
Probable space group: C 2
;
_chemical_formula_sum "Si O2"
_cell_formula_units_Z 24
_cell_length_a 18.872710
_cell_length_b 5.755032
_cell_length_c 10.108376
_cell_angle_alpha 90.000000
_cell_angle_beta 113.049139
_cell_angle_gamma 90.000000
_cell_volume 1010.255419
_symmetry_space_group_name_H-M "C 2"
_symmetry_group_IT_number 5
_symmetry_cell_setting 'monoclinic'
loop_
_space_group_symop_operation_xyz
x,y,z
-x,y,-z
1/2+x,1/2+y,z
1/2-x,1/2+y,-z
loop_
_atom_site_type_symbol
_atom_site_label
_atom_site_fract_x
_atom_site_fract_y
_atom_site_fract_z
Si Si1 0.700518 0.122720 0.286050
Si Si2 0.283592 0.063128 0.989511
Si Si3 0.500000 0.996153 0.500000
Si Si4 0.354304 0.787407 0.525737
Si Si5 0.000000 0.340280 0.000000
Si Si6 0.549232 0.176454 0.810962
Si Si7 0.080418 0.990851 0.209532
O O1 0.714239 0.978416 0.162300
O O2 0.779524 0.247111 0.382948
O O3 0.633713 0.294779 0.185788
O O4 0.665553 0.987262 0.384143
O O5 0.234111 0.309622 0.956072
O O6 0.359661 0.171205 0.112344
O O7 0.522933 0.153047 0.640581
O O8 0.425454 0.844399 0.482436
O O9 0.377869 0.558073 0.623059
O O10 0.983623 0.473731 0.122056
O O11 0.075610 0.192820 0.096536
O O12 0.508582 0.413162 0.831442
#
# Coordination Sequence:
#
# PCOD8052141 Si02
#       7
#     4   4   2   4   2   4   4
#     4  12  26  50  78 114 154 216 268 331 410 494
#     4  12  31  51  78 115 163 215 270 341 409 490
#     4  12  26  50  72 124 152 204 262 346 406 472
#     4  12  26  47  79 111 162 200 269 335 408 482
#     4  12  24  48  76 108 148 204 266 330 398 490
#     4  12  27  48  76 109 158 200 268 334 403 479
#     4  12  24  45  81 108 147 209 264 328 396 492
#
# _framework density 23.756367999999998
#
# number of rings (size 3 to 8) (size 9 to 14) (size 15 to 20)
#    0.000    0.000    5.000    4.500    7.000    4.667 
#    0.000    0.000    0.000    0.000    0.000    0.000 
#    0.000    0.000    0.000    0.000    0.000    0.000 
#
# Total GULP energy -148670.865054 kJ/mol
# GULP energy per Si atom -12389.238754 kJ/mol
# Density = 2.370230 g / cm^3
# Si number density = 23.756368 Si / 1000 Ang^3
#
#
#
# Elastic Constant Matrix: (Units=GPa)
#
#
# Indices 1 2 3 4 5 6 
#
# 1 129.0727 24.9033 33.0125 0.0000 6.0129 0.0000
# 2 24.9033 81.3357 14.3770 0.0000 -6.1891 0.0000
# 3 33.0125 14.3770 133.9416 0.0000 -6.4573 0.0000
# 4 0.0000 0.0000 0.0000 39.1739 0.0000 16.4091
# 5 6.0129 -6.1891 -6.4573 0.0000 49.0442 0.0000
# 6 0.0000 0.0000 0.0000 16.4091 0.0000 24.2109
#
#
#
# Elastic Compliance Matrix: (Units=1/GPa)
#
#
# Indices 1 2 3 4 5 6 
#
# 1 0.008809 -0.002472 -0.001986 0.000000 -0.001653 0.000000
# 2 -0.002472 0.013324 -0.000730 0.000000 0.001888 0.000000
# 3 -0.001986 -0.000730 0.008092 0.000000 0.001217 0.000000
# 4 0.000000 0.000000 0.000000 0.035648 0.000000 -0.024160
# 5 -0.001653 0.001888 0.001217 0.000000 0.020991 0.000000
# 6 0.000000 0.000000 0.000000 -0.024160 0.000000 0.057679
#
#
# Mechanical properties :
#
#
# Convention : Reuss Voigt Hill
#
# Bulk Modulus (GPa) = 50.37546 54.32618 52.35082
# Shear Modulus (GPa) = 30.95299 40.62294 35.78797
#
# Velocity S-wave (km/s) = 3.61353 4.13968 3.88552
# Velocity P-wave (km/s) = 6.21782 6.76513 6.49724
#
# Compressibility (1/GPa) = 0.01985094
#
# Stress axis : x y z
#
# Youngs Moduli (GPa) = 113.51485 75.05059 123.57370
#
# Poissons Ratio (x) = 0.18553 0.24537
# Poissons Ratio (y) = 0.28062 0.09019
# Poissons Ratio (z) = 0.22540 0.05478
#
# Static dielectric constant tensor:
#      x y z
#    x 4.664710 0.000000 0.225550 
#    y 0.000000 4.252700 0.000000 
#    z 0.225550 0.000000 4.616250 
# 
# 
# High freq. dielectric constant tensor:
#      x y z
#    x 1.946910 0.000000 0.009920 
#    y 0.000000 1.936620 0.000000 
#    z 0.009920 0.000000 1.967270 
# 
# From -- ./inp_files/43817.got.cif
#   From: 2010.03.12/outbox.cif.g09.slc.cpg/sg5_22_cif.got.tgz:43817.got - 2010.03.31 09:47:26.
