data_PCOD8052809
_publ_section_title
;
Structure prediction by ZEFSAII (Michael W. Deem and Ramdas Pophale) SiO2 
 PCOD8052809
Probable space group: C M
;
_chemical_formula_sum "Si O2"
_cell_formula_units_Z 32
_cell_length_a 19.992015
_cell_length_b 8.885737
_cell_length_c 24.998110
_cell_angle_alpha 90.000000
_cell_angle_beta 23.605269
_cell_angle_gamma 90.000000
_cell_volume 1778.227760
_symmetry_space_group_name_H-M "C M"
_symmetry_group_IT_number 8
_symmetry_cell_setting 'monoclinic'
loop_
_space_group_symop_operation_xyz
x,y,z
x,-y,z
1/2+x,1/2+y,z
1/2+x,1/2-y,z
loop_
_atom_site_type_symbol
_atom_site_label
_atom_site_fract_x
_atom_site_fract_y
_atom_site_fract_z
Si Si1 0.351280 0.327104 0.224260
Si Si2 0.645613 0.322339 0.929461
Si Si3 0.141338 0.324997 0.279503
Si Si4 0.820181 0.177803 0.977232
Si Si5 0.942244 0.821793 0.770818
Si Si6 0.427507 0.821954 0.003243
Si Si7 0.805200 0.322524 0.474241
Si Si8 0.939769 0.322210 0.264040
O O1 0.363123 0.500000 0.232267
O O2 0.188967 0.295215 0.306364
O O3 0.333604 0.231193 0.290865
O O4 0.515518 0.277340 0.071297
O O5 0.654109 0.500000 0.915044
O O6 0.825271 0.257642 0.813033
O O7 0.585909 0.248203 0.917872
O O8 0.173887 0.500000 0.240817
O O9 0.254325 0.227838 0.157170
O O10 0.948682 0.279254 0.411982
O O11 0.891060 0.225933 0.867852
O O12 0.833067 0.000000 0.977229
O O13 0.931546 0.262327 0.939623
O O14 0.629707 0.235928 0.120854
O O15 0.128580 0.758552 0.623681
O O16 0.927663 0.000000 0.773729
O O17 0.442711 0.000000 0.993087
O O18 0.790456 0.500000 0.480295
O O19 0.854421 0.255820 0.380086
O O20 0.938517 0.500000 0.265946
#
# Coordination Sequence:
#
# PCOD8052809 Si02
#       8
#     4   4   4   4   4   4   4   4
#     4   9  18  30  50  77 104 133 171 220 262 303
#     4  10  20  35  54  77 109 143 173 217 271 317
#     4   9  17  34  54  75 106 143 176 212 266 317
#     4  10  19  33  53  78 107 140 178 218 262 314
#     4  10  20  35  56  80 106 141 181 217 257 316
#     4  11  21  32  53  82 108 136 177 226 265 309
#     4   9  18  34  55  76 104 142 178 212 259 315
#     4  10  18  31  53  77 104 138 174 214 258 309
#
# _framework density 17.995445
#
# number of rings (size 3 to 8) (size 9 to 14) (size 15 to 20)
#    0.000    2.250    2.500    2.250    0.000    3.000 
#    0.000    2.500    0.000    1.500    0.000    0.000 
#    0.000    0.000    0.000    0.000    0.000    0.000 
#
# Total GULP energy -198411.013276 kJ/mol
# GULP energy per Si atom -12400.688330 kJ/mol
# Density = 1.795449 g / cm^3
# Si number density = 17.995445 Si / 1000 Ang^3
#
#
#
# Elastic Constant Matrix: (Units=GPa)
#
#
# Indices 1 2 3 4 5 6 
#
# 1 153.3325 41.7305 73.3744 0.0043 -14.2887 -0.0001
# 2 41.7305 50.9602 28.6731 -0.0023 -4.4893 -0.0013
# 3 73.3744 28.6731 126.0154 -0.0079 -10.9722 -0.0002
# 4 0.0043 -0.0023 -0.0079 14.0109 0.0005 -3.8249
# 5 -14.2887 -4.4893 -10.9722 0.0005 30.0409 0.0003
# 6 -0.0001 -0.0013 -0.0002 -3.8249 0.0003 33.9135
#
#
#
# Elastic Compliance Matrix: (Units=1/GPa)
#
#
# Indices 1 2 3 4 5 6 
#
# 1 0.010535 -0.005825 -0.004594 -0.000007 0.002462 -0.000001
# 2 -0.005825 0.025794 -0.002461 0.000005 0.000185 0.000002
# 3 -0.004594 -0.002461 0.011308 0.000008 0.001577 0.000001
# 4 -0.000007 0.000005 0.000008 0.073640 -0.000001 0.008305
# 5 0.002462 0.000185 0.001577 -0.000001 0.035063 0.000000
# 6 -0.000001 0.000002 0.000001 0.008305 0.000000 0.030423
#
#
# Mechanical properties :
#
#
# Convention : Reuss Voigt Hill
#
# Bulk Modulus (GPa) = 45.71219 68.65156 57.18187
# Shear Modulus (GPa) = 22.74611 28.02840 25.38726
#
# Velocity S-wave (km/s) = 3.55912 3.95083 3.76008
# Velocity P-wave (km/s) = 6.50746 7.68403 7.12009
#
# Compressibility (1/GPa) = 0.02187600
#
# Stress axis : x y z
#
# Youngs Moduli (GPa) = 94.92037 38.76809 88.43236
#
# Poissons Ratio (x) = 0.22583 0.40630
# Poissons Ratio (y) = 0.55292 0.21766
# Poissons Ratio (z) = 0.43611 0.09542
#
# Static dielectric constant tensor:
#      x y z
#    x 3.492800 0.000000 -0.087000 
#    y 0.000000 3.082550 0.000010 
#    z -0.087000 0.000010 3.313310 
# 
# 
# High freq. dielectric constant tensor:
#      x y z
#    x 1.711480 0.000000 -0.010910 
#    y 0.000000 1.677800 0.000000 
#    z -0.010910 0.000000 1.670500 
# 
# From -- ./inp_files/24297.got.cif
#   From: 2010.03.12/outbox.cif.g09.slc.cpg/sg8_13_cif.got.tgz:24297.got - 2010.03.31 10:45:26.
