data_PCOD8052322
_publ_section_title
;
Structure prediction by ZEFSAII (Michael W. Deem and Ramdas Pophale) SiO2 
 PCOD8052322
Probable space group: P M
;
_chemical_formula_sum "Si O2"
_cell_formula_units_Z 10
_cell_length_a 12.134476
_cell_length_b 10.387409
_cell_length_c 5.278317
_cell_angle_alpha 90.000000
_cell_angle_beta 126.900285
_cell_angle_gamma 90.000000
_cell_volume 532.035818
_symmetry_space_group_name_H-M "P M"
_symmetry_group_IT_number 6
_symmetry_cell_setting 'monoclinic'
loop_
_space_group_symop_operation_xyz
x,y,z
x,-y,z
loop_
_atom_site_type_symbol
_atom_site_label
_atom_site_fract_x
_atom_site_fract_y
_atom_site_fract_z
Si Si1 0.282700 0.849666 0.364740
Si Si2 0.684949 0.643552 0.426782
Si Si3 0.142080 0.151520 0.670083
Si Si4 0.836684 0.854410 0.381477
Si Si5 0.583973 0.747430 0.797168
O O1 0.209779 0.786958 0.511190
O O2 0.445394 0.828783 0.594442
O O3 0.251209 0.000000 0.321035
O O4 0.215677 0.787680 0.019774
O O5 0.749161 0.500000 0.521194
O O6 0.805724 0.751590 0.564702
O O7 0.598599 0.665022 0.562522
O O8 0.582267 0.654829 0.042372
O O9 0.980135 0.183734 0.448489
O O10 0.169208 0.000000 0.705993
O O11 0.842932 0.000000 0.500863
O O12 0.714590 0.844739 0.003987
#
# Coordination Sequence:
#
# PCOD8052322 Si02
#       5
#     2   2   2   2   2
#     4  10  19  33  52  83 118 147 176 226 290 336
#     4  10  22  38  59  83 113 152 188 231 284 332
#     4   9  19  32  51  79 120 150 173 221 289 339
#     4   9  21  36  59  90 114 143 189 238 277 327
#     4  10  21  35  59  83 107 150 192 232 268 330
#
# _framework density 18.795726999999999
#
# number of rings (size 3 to 8) (size 9 to 14) (size 15 to 20)
#    1.200    1.200    0.000    2.400    2.800    1.600 
#    0.000    0.000    0.000    7.200    0.000    0.000 
#    0.000    0.000    0.000    0.000    0.000    0.000 
#
# Total GULP energy -123902.666183 kJ/mol
# GULP energy per Si atom -12390.266618 kJ/mol
# Density = 1.875295 g / cm^3
# Si number density = 18.795727 Si / 1000 Ang^3
#
#
#
# Elastic Constant Matrix: (Units=GPa)
#
#
# Indices 1 2 3 4 5 6 
#
# 1 134.3479 29.3582 81.9881 0.0000 -8.3644 0.0000
# 2 29.3582 70.6184 13.8716 0.0000 -6.3780 0.0000
# 3 81.9881 13.8716 116.8919 0.0000 -2.3079 0.0000
# 4 0.0000 0.0000 0.0000 6.5569 0.0000 -2.9195
# 5 -8.3644 -6.3780 -2.3079 0.0000 49.1455 0.0000
# 6 0.0000 0.0000 0.0000 -2.9195 0.0000 11.5029
#
#
#
# Elastic Compliance Matrix: (Units=1/GPa)
#
#
# Indices 1 2 3 4 5 6 
#
# 1 0.014137 -0.003894 -0.009424 0.000000 0.001458 0.000000
# 2 -0.003894 0.015733 0.000892 0.000000 0.001421 0.000000
# 3 -0.009424 0.000892 0.015044 0.000000 -0.000782 0.000000
# 4 0.000000 0.000000 0.000000 0.171943 0.000000 0.043640
# 5 0.001458 0.001421 -0.000782 0.000000 0.020744 0.000000
# 6 0.000000 0.000000 0.000000 0.043640 0.000000 0.098010
#
#
# Mechanical properties :
#
#
# Convention : Reuss Voigt Hill
#
# Bulk Modulus (GPa) = 49.84885 63.58824 56.71854
# Shear Modulus (GPa) = 13.61843 26.55040 20.08442
#
# Velocity S-wave (km/s) = 2.69467 3.76250 3.27243
# Velocity P-wave (km/s) = 6.02168 7.26498 6.67235
#
# Compressibility (1/GPa) = 0.02006064
#
# Stress axis : x y z
#
# Youngs Moduli (GPa) = 70.73870 63.56256 66.47203
#
# Poissons Ratio (x) = 0.24752 0.62646
# Poissons Ratio (y) = 0.27546 -0.05932
# Poissons Ratio (z) = 0.66668 -0.05672
#
# Static dielectric constant tensor:
#      x y z
#    x 3.486630 0.000000 -0.217760 
#    y 0.000000 2.995500 0.000000 
#    z -0.217760 0.000000 3.456150 
# 
# 
# High freq. dielectric constant tensor:
#      x y z
#    x 1.735580 0.000000 -0.009780 
#    y 0.000000 1.681990 0.000000 
#    z -0.009780 0.000000 1.727940 
# 
# From -- ./inp_files/762.got.cif
#   From: 2010.03.12/outbox.cif.g09.slc.cpg/sg6_1_cif.got.tgz:762.got - 2010.03.30 10:24:59.
