data_PCOD8052267
_publ_section_title
;
Structure prediction by ZEFSAII (Michael W. Deem and Ramdas Pophale) SiO2 
 PCOD8052267
Probable space group: P M
;
_chemical_formula_sum "Si O2"
_cell_formula_units_Z 16
_cell_length_a 11.597509
_cell_length_b 9.363009
_cell_length_c 9.537996
_cell_angle_alpha 90.000000
_cell_angle_beta 110.397813
_cell_angle_gamma 90.000000
_cell_volume 970.764154
_symmetry_space_group_name_H-M "P M"
_symmetry_group_IT_number 6
_symmetry_cell_setting 'monoclinic'
loop_
_space_group_symop_operation_xyz
x,y,z
x,-y,z
loop_
_atom_site_type_symbol
_atom_site_label
_atom_site_fract_x
_atom_site_fract_y
_atom_site_fract_z
Si Si1 0.582910 0.665616 0.029100
Si Si2 0.786050 0.332510 0.344157
Si Si3 0.099877 0.843154 0.807104
Si Si4 0.309139 0.667991 0.991901
Si Si5 0.829159 0.168925 0.631016
Si Si6 0.744148 0.166318 0.900715
Si Si7 0.946741 0.167109 0.211708
Si Si8 0.171630 0.843435 0.136160
O O1 0.588008 0.500000 0.992883
O O2 0.668144 0.700548 0.198480
O O3 0.445696 0.714497 0.009163
O O4 0.625225 0.751012 0.909489
O O5 0.808812 0.500000 0.373831
O O6 0.759854 0.258097 0.481951
O O7 0.908003 0.261456 0.328478
O O8 0.214837 0.733915 0.835254
O O9 0.973381 0.786659 0.686769
O O10 0.133763 0.000000 0.759015
O O11 0.076973 0.859154 0.964855
O O12 0.291493 0.500000 0.990428
O O13 0.278478 0.732133 0.134987
O O14 0.768817 0.215149 0.752333
O O15 0.814603 0.000000 0.600113
O O16 0.714549 0.000000 0.896392
O O17 0.860556 0.208000 0.044744
O O18 0.088163 0.207150 0.232101
O O19 0.935289 0.000000 0.245075
O O20 0.230123 0.000000 0.193032
#
# Coordination Sequence:
#
# PCOD8052267 Si02
#       8
#     2   2   2   2   2   2   2   2
#     4   9  19  33  45  65  97 127 154 189 230 267
#     4  10  21  32  44  67  99 129 155 185 223 274
#     4   8  15  28  46  69  93 115 143 187 232 271
#     4   9  16  27  45  68  92 120 155 191 227 268
#     4  10  18  32  49  70  97 123 149 185 236 282
#     4   9  16  27  48  70  88 115 156 196 227 269
#     4   9  15  29  48  68  92 119 150 188 235 276
#     4   8  14  26  45  69  92 114 142 185 232 269
#
# _framework density 16.481863000000001
#
# number of rings (size 3 to 8) (size 9 to 14) (size 15 to 20)
#    0.750    2.250    1.250    0.375    0.000    3.000 
#    0.000    1.250    0.000    1.500    0.000    3.500 
#    0.000    0.000    0.000    0.000    0.000    0.000 
#
# Total GULP energy -198243.148584 kJ/mol
# GULP energy per Si atom -12390.196786 kJ/mol
# Density = 1.644435 g / cm^3
# Si number density = 16.481863 Si / 1000 Ang^3
#
#
#
# Elastic Constant Matrix: (Units=GPa)
#
#
# Indices 1 2 3 4 5 6 
#
# 1 120.4375 61.7877 37.5549 0.0000 -14.2738 0.0000
# 2 61.7877 76.0621 38.7161 0.0000 -12.0143 0.0000
# 3 37.5549 38.7161 72.8392 0.0000 -16.0678 0.0000
# 4 0.0000 0.0000 0.0000 21.6904 0.0000 -1.6730
# 5 -14.2738 -12.0143 -16.0678 0.0000 18.9592 0.0000
# 6 0.0000 0.0000 0.0000 -1.6730 0.0000 27.6225
#
#
#
# Elastic Compliance Matrix: (Units=1/GPa)
#
#
# Indices 1 2 3 4 5 6 
#
# 1 0.014536 -0.010756 -0.001066 0.000000 0.003224 0.000000
# 2 -0.010756 0.026240 -0.008019 0.000000 0.001734 0.000000
# 3 -0.001066 -0.008019 0.021208 0.000000 0.012089 0.000000
# 4 0.000000 0.000000 0.000000 0.046320 0.000000 0.002805
# 5 0.003224 0.001734 0.012089 0.000000 0.066516 0.000000
# 6 0.000000 0.000000 0.000000 0.002805 0.000000 0.036372
#
#
# Mechanical properties :
#
#
# Convention : Reuss Voigt Hill
#
# Bulk Modulus (GPa) = 44.84087 60.60625 52.72356
# Shear Modulus (GPa) = 19.35670 22.40643 20.88157
#
# Velocity S-wave (km/s) = 3.43071 3.69109 3.56327
# Velocity P-wave (km/s) = 6.55425 7.41733 6.99911
#
# Compressibility (1/GPa) = 0.02230108
#
# Stress axis : x y z
#
# Youngs Moduli (GPa) = 68.79641 38.10933 47.15239
#
# Poissons Ratio (x) = 0.40990 0.05027
# Poissons Ratio (y) = 0.73996 0.37813
# Poissons Ratio (z) = 0.07335 0.30561
#
# Static dielectric constant tensor:
#      x y z
#    x 3.015100 0.000000 -0.132680 
#    y 0.000000 3.025930 0.000000 
#    z -0.132680 0.000000 2.837530 
# 
# 
# High freq. dielectric constant tensor:
#      x y z
#    x 1.622380 0.000000 -0.013890 
#    y 0.000000 1.633490 0.000000 
#    z -0.013890 0.000000 1.600200 
# 
# From -- ./inp_files/3528.got.cif
#   From: 2010.03.12/outbox.cif.g09.slc.cpg/sg6_2_cif.got.tgz:3528.got - 2010.03.30 10:24:59.
