data_PCOD8052779
_publ_section_title
;
Structure prediction by ZEFSAII (Michael W. Deem and Ramdas Pophale) SiO2 
 PCOD8052779
Probable space group: C M
;
_chemical_formula_sum "Si O2"
_cell_formula_units_Z 32
_cell_length_a 28.454397
_cell_length_b 8.425922
_cell_length_c 23.226052
_cell_angle_alpha 90.000000
_cell_angle_beta 163.066155
_cell_angle_gamma 90.000000
_cell_volume 1621.937083
_symmetry_space_group_name_H-M "C M"
_symmetry_group_IT_number 8
_symmetry_cell_setting 'monoclinic'
loop_
_space_group_symop_operation_xyz
x,y,z
x,-y,z
1/2+x,1/2+y,z
1/2+x,1/2-y,z
loop_
_atom_site_type_symbol
_atom_site_label
_atom_site_fract_x
_atom_site_fract_y
_atom_site_fract_z
Si Si1 0.924040 0.182878 0.030470
Si Si2 0.186624 0.685675 0.907383
Si Si3 0.359429 0.814863 0.715388
Si Si4 0.098819 0.816273 0.691582
Si Si5 0.154098 0.184661 0.992811
Si Si6 0.535902 0.689205 0.277861
Si Si7 0.307698 0.687549 0.777315
Si Si8 0.461267 0.814263 0.423316
O O1 0.042340 0.254546 0.218558
O O2 0.963577 0.000000 0.070616
O O3 0.744142 0.201874 0.843594
O O4 0.927009 0.250919 0.968767
O O5 0.173275 0.500000 0.880799
O O6 0.128297 0.724056 0.902974
O O7 0.371314 0.748290 0.115670
O O8 0.066244 0.772952 0.720533
O O9 0.190911 0.745684 0.493058
O O10 0.359919 0.788520 0.783971
O O11 0.381883 0.000000 0.727678
O O12 0.501054 0.714307 0.853492
O O13 0.954764 0.773591 0.478179
O O14 0.144456 0.000000 0.739148
O O15 0.312489 0.250177 0.211093
O O16 0.172901 0.000000 0.001420
O O17 0.536857 0.500000 0.278920
O O18 0.327825 0.500000 0.789387
O O19 0.123753 0.727325 0.578818
O O20 0.443495 0.000000 0.414139
#
# Coordination Sequence:
#
# PCOD8052779 Si02
#       8
#     4   4   4   4   4   4   4   4
#     4   8  15  31  53  76 103 134 171 214 261 309
#     4  10  19  35  58  81 107 139 175 215 263 315
#     4  11  22  35  51  74 106 141 175 214 263 314
#     4  10  18  29  51  83 112 135 168 215 263 312
#     4  11  23  38  54  75 105 141 182 223 263 310
#     4   8  16  32  55  79 101 132 174 213 251 306
#     4   9  17  32  55  79 101 129 168 216 264 311
#     4   9  19  36  57  79 105 139 177 218 266 315
#
# _framework density 19.729493999999999
#
# number of rings (size 3 to 8) (size 9 to 14) (size 15 to 20)
#    0.000    2.500    0.000    4.500    0.000    3.000 
#    0.000    6.875    0.000    6.000    0.000    0.000 
#    0.000    0.000    0.000    0.000    0.000    0.000 
#
# Total GULP energy -198278.965871 kJ/mol
# GULP energy per Si atom -12392.435367 kJ/mol
# Density = 1.968459 g / cm^3
# Si number density = 19.729494 Si / 1000 Ang^3
#
#
#
# Elastic Constant Matrix: (Units=GPa)
#
#
# Indices 1 2 3 4 5 6 
#
# 1 123.4423 17.8108 62.5043 -0.0013 -31.6080 -0.0008
# 2 17.8108 33.4192 12.5330 -0.0010 -4.0056 -0.0009
# 3 62.5043 12.5330 45.6804 -0.0026 -20.5941 -0.0024
# 4 -0.0013 -0.0010 -0.0026 21.2923 -0.0017 -5.1811
# 5 -31.6080 -4.0056 -20.5941 -0.0017 35.4773 -0.0014
# 6 -0.0008 -0.0009 -0.0024 -5.1811 -0.0014 31.4574
#
#
#
# Elastic Compliance Matrix: (Units=1/GPa)
#
#
# Indices 1 2 3 4 5 6 
#
# 1 0.026707 -0.000784 -0.034730 -0.000003 0.003546 -0.000002
# 2 -0.000784 0.033493 -0.009111 0.000000 -0.002206 0.000000
# 3 -0.034730 -0.009111 0.077879 0.000010 0.013237 0.000007
# 4 -0.000003 0.000000 0.000010 0.048926 0.000006 0.008058
# 5 0.003546 -0.002206 0.013237 0.000006 0.038781 0.000004
# 6 -0.000002 0.000000 0.000007 0.008058 0.000004 0.033116
#
#
# Mechanical properties :
#
#
# Convention : Reuss Voigt Hill
#
# Bulk Modulus (GPa) = 20.47903 43.13757 31.80830
# Shear Modulus (GPa) = 13.72011 24.95833 19.33922
#
# Velocity S-wave (km/s) = 2.63993 3.56058 3.13424
# Velocity P-wave (km/s) = 4.43787 6.23022 5.40880
#
# Compressibility (1/GPa) = 0.04883044
#
# Stress axis : x y z
#
# Youngs Moduli (GPa) = 37.44314 29.85681 12.84043
#
# Poissons Ratio (x) = 0.02342 0.44594
# Poissons Ratio (y) = 0.02936 0.11698
# Poissons Ratio (z) = 1.30039 0.27201
#
# Static dielectric constant tensor:
#      x y z
#    x 3.628880 0.000000 -0.523970 
#    y 0.000000 3.271300 0.000000 
#    z -0.523970 0.000000 3.860920 
# 
# 
# High freq. dielectric constant tensor:
#      x y z
#    x 1.763460 0.000000 -0.040050 
#    y 0.000000 1.749950 0.000000 
#    z -0.040050 0.000000 1.756590 
# 
# From -- ./inp_files/16798.got.cif
#   From: 2010.03.12/outbox.cif.g09.slc.cpg/sg8_9_cif.got.tgz:16798.got - 2010.03.31 10:45:26.
