data_PCOD8052460
_publ_section_title
;
Structure prediction by ZEFSAII (Michael W. Deem and Ramdas Pophale) SiO2 
 PCOD8052460
Probable space group: P M
;
_chemical_formula_sum "Si O2"
_cell_formula_units_Z 16
_cell_length_a 13.599345
_cell_length_b 8.785017
_cell_length_c 8.919528
_cell_angle_alpha 90.000000
_cell_angle_beta 49.155203
_cell_angle_gamma 90.000000
_cell_volume 806.124621
_symmetry_space_group_name_H-M "P M"
_symmetry_group_IT_number 6
_symmetry_cell_setting 'monoclinic'
loop_
_space_group_symop_operation_xyz
x,y,z
x,-y,z
loop_
_atom_site_type_symbol
_atom_site_label
_atom_site_fract_x
_atom_site_fract_y
_atom_site_fract_z
Si Si1 0.601060 0.325326 0.528990
Si Si2 0.110355 0.180053 0.032715
Si Si3 0.338182 0.819929 0.292636
Si Si4 0.361751 0.820812 0.606719
Si Si5 0.580999 0.322509 0.897964
Si Si6 0.869912 0.320911 0.106746
Si Si7 0.840601 0.319745 0.795373
Si Si8 0.095446 0.319176 0.373665
O O1 0.568859 0.500000 0.525631
O O2 0.490563 0.225428 0.564572
O O3 0.608431 0.293143 0.697114
O O4 0.738332 0.278160 0.322960
O O5 0.112632 0.257454 0.190938
O O6 0.983399 0.225649 0.068515
O O7 0.115148 0.000000 0.049191
O O8 0.235253 0.243234 0.818196
O O9 0.365583 0.758938 0.433018
O O10 0.207838 0.740411 0.368483
O O11 0.319128 0.000000 0.304590
O O12 0.456131 0.773427 0.068364
O O13 0.353556 0.000000 0.610938
O O14 0.555797 0.500000 0.956908
O O15 0.704639 0.257809 0.865908
O O16 0.900907 0.500000 0.087463
O O17 0.857459 0.264336 0.948537
O O18 0.837753 0.500000 0.790382
O O19 0.959232 0.258339 0.576465
O O20 0.100015 0.500000 0.364770
#
# Coordination Sequence:
#
# PCOD8052460 Si02
#       8
#     2   2   2   2   2   2   2   2
#     4  10  21  36  59  87 114 145 187 233 278 328
#     4  11  23  39  58  83 114 150 187 229 278 332
#     4  11  23  39  57  82 114 149 187 231 279 332
#     4  10  23  40  57  79 113 151 189 231 278 330
#     4  10  20  37  59  85 114 147 186 231 279 331
#     4  10  20  37  60  86 113 146 186 231 279 331
#     4   9  19  36  60  86 113 144 186 235 280 326
#     4  11  22  38  60  86 113 146 186 231 279 332
#
# _framework density 19.848047999999999
#
# number of rings (size 3 to 8) (size 9 to 14) (size 15 to 20)
#    0.000    1.750    0.000    4.125    0.000    8.000 
#    0.000    3.750    0.000    0.000    0.000    0.000 
#    0.000    0.000    0.000    0.000    0.000    0.000 
#
# Total GULP energy -198474.377999 kJ/mol
# GULP energy per Si atom -12404.648625 kJ/mol
# Density = 1.980287 g / cm^3
# Si number density = 19.848048 Si / 1000 Ang^3
#
#
#
# Elastic Constant Matrix: (Units=GPa)
#
#
# Indices 1 2 3 4 5 6 
#
# 1 110.1076 25.0605 26.0624 0.0000 -2.3460 0.0000
# 2 25.0605 46.7595 31.4721 0.0000 -1.4395 0.0000
# 3 26.0624 31.4721 127.4984 0.0000 -2.4334 0.0000
# 4 0.0000 0.0000 0.0000 23.0906 0.0000 1.5416
# 5 -2.3460 -1.4395 -2.4334 0.0000 41.1002 0.0000
# 6 0.0000 0.0000 0.0000 1.5416 0.0000 34.6819
#
#
#
# Elastic Compliance Matrix: (Units=1/GPa)
#
#
# Indices 1 2 3 4 5 6 
#
# 1 0.010435 -0.004977 -0.000897 0.000000 0.000368 0.000000
# 2 -0.004977 0.028032 -0.005896 0.000000 0.000349 0.000000
# 3 -0.000897 -0.005896 0.009488 0.000000 0.000304 0.000000
# 4 0.000000 0.000000 0.000000 0.043437 0.000000 -0.001931
# 5 0.000368 0.000349 0.000304 0.000000 0.024382 0.000000
# 6 0.000000 0.000000 0.000000 -0.001931 0.000000 0.028919
#
#
# Mechanical properties :
#
#
# Convention : Reuss Voigt Hill
#
# Bulk Modulus (GPa) = 40.95882 49.95062 45.45472
# Shear Modulus (GPa) = 28.34917 33.22590 30.78754
#
# Velocity S-wave (km/s) = 3.78340 4.09591 3.94275
# Velocity P-wave (km/s) = 6.30607 6.89854 6.60894
#
# Compressibility (1/GPa) = 0.02441476
#
# Stress axis : x y z
#
# Youngs Moduli (GPa) = 95.83019 35.67302 105.39903
#
# Poissons Ratio (x) = 0.17755 0.09459
# Poissons Ratio (y) = 0.47697 0.62138
# Poissons Ratio (z) = 0.08600 0.21031
#
# Static dielectric constant tensor:
#      x y z
#    x 3.734500 0.000000 -0.073490 
#    y 0.000000 3.415970 0.000000 
#    z -0.073490 0.000000 3.864310 
# 
# 
# High freq. dielectric constant tensor:
#      x y z
#    x 1.792100 0.000000 0.001620 
#    y 0.000000 1.755270 0.000000 
#    z 0.001620 0.000000 1.795460 
# 
# From -- ./inp_files/2688.got.cif
#   From: 2010.03.12/outbox.cif.g09.slc.cpg/sg6_2_cif.got.tgz:2688.got - 2010.03.30 10:24:59.
