data_PCOD8052986
_publ_section_title
;
Structure prediction by ZEFSAII (Michael W. Deem and Ramdas Pophale) SiO2 
 PCOD8052986
Probable space group: C M
;
_chemical_formula_sum "Si O2"
_cell_formula_units_Z 32
_cell_length_a 27.931506
_cell_length_b 8.893194
_cell_length_c 14.062320
_cell_angle_alpha 90.000000
_cell_angle_beta 30.057002
_cell_angle_gamma 90.000000
_cell_volume 1749.550989
_symmetry_space_group_name_H-M "C M"
_symmetry_group_IT_number 8
_symmetry_cell_setting 'monoclinic'
loop_
_space_group_symop_operation_xyz
x,y,z
x,-y,z
1/2+x,1/2+y,z
1/2+x,1/2-y,z
loop_
_atom_site_type_symbol
_atom_site_label
_atom_site_fract_x
_atom_site_fract_y
_atom_site_fract_z
Si Si1 0.329820 0.826385 0.216850
Si Si2 0.979909 0.823171 0.839894
Si Si3 0.970391 0.670719 0.670966
Si Si4 0.514730 0.679170 0.212310
Si Si5 0.415525 0.178152 0.558380
Si Si6 0.721808 0.323528 0.795686
Si Si7 0.149075 0.669899 0.472331
Si Si8 0.340403 0.175093 0.415640
O O1 0.243630 0.768777 0.298980
O O2 0.305764 0.795628 0.368235
O O3 0.349106 0.000000 0.162210
O O4 0.422729 0.731313 0.030054
O O5 0.926950 0.770599 0.832348
O O6 0.083779 0.744137 0.667608
O O7 0.992627 0.000000 0.819718
O O8 0.932519 0.500000 0.747507
O O9 0.939718 0.737725 0.622373
O O10 0.086941 0.673924 0.481168
O O11 0.514254 0.500000 0.217224
O O12 0.488634 0.742923 0.360750
O O13 0.437710 0.734181 0.267450
O O14 0.619261 0.745129 0.002200
O O15 0.305871 0.223648 0.724552
O O16 0.431015 0.000000 0.523524
O O17 0.708377 0.500000 0.819088
O O18 0.755639 0.270206 0.632176
O O19 0.177014 0.500000 0.452470
O O20 0.363022 0.000000 0.395795
#
# Coordination Sequence:
#
# PCOD8052986 Si02
#       8
#     4   4   4   4   4   4   4   4
#     4  11  21  35  56  81 106 142 187 227 274 326
#     4  10  20  35  54  76 108 145 179 223 272 319
#     4   8  17  35  56  76 106 143 180 223 268 315
#     4  10  19  32  52  81 109 132 172 224 265 312
#     4   9  17  35  57  74 104 145 176 209 263 320
#     4   8  16  33  54  75 101 134 170 210 258 315
#     4   9  19  36  54  77 108 139 181 227 269 317
#     4   9  20  37  55  74 102 140 179 215 263 324
#
# _framework density 18.290407999999999
#
# number of rings (size 3 to 8) (size 9 to 14) (size 15 to 20)
#    0.750    2.000    0.000    2.625    0.000    2.500 
#    2.250    6.250    0.000    0.000    0.000    0.000 
#    0.000    0.000    0.000    0.000    0.000    0.000 
#
# Total GULP energy -198270.319994 kJ/mol
# GULP energy per Si atom -12391.895000 kJ/mol
# Density = 1.824878 g / cm^3
# Si number density = 18.290408 Si / 1000 Ang^3
#
#
#
# Elastic Constant Matrix: (Units=GPa)
#
#
# Indices 1 2 3 4 5 6 
#
# 1 62.4399 22.9014 19.1063 0.0000 3.9410 0.0000
# 2 22.9014 59.4080 22.0289 0.0000 1.9437 0.0000
# 3 19.1063 22.0289 100.5422 0.0000 -11.0594 0.0000
# 4 0.0000 0.0000 0.0000 30.7608 0.0000 -0.5632
# 5 3.9410 1.9437 -11.0594 0.0000 23.3746 0.0000
# 6 0.0000 0.0000 0.0000 -0.5632 0.0000 23.9773
#
#
#
# Elastic Compliance Matrix: (Units=1/GPa)
#
#
# Indices 1 2 3 4 5 6 
#
# 1 0.019438 -0.006341 -0.002750 0.000000 -0.004051 0.000000
# 2 -0.006341 0.020683 -0.003585 0.000000 -0.002347 0.000000
# 3 -0.002750 -0.003585 0.011960 0.000000 0.006421 0.000000
# 4 0.000000 0.000000 0.000000 0.032523 0.000000 0.000764
# 5 -0.004051 -0.002347 0.006421 0.000000 0.046698 0.000000
# 6 0.000000 0.000000 0.000000 0.000764 0.000000 0.041724
#
#
# Mechanical properties :
#
#
# Convention : Reuss Voigt Hill
#
# Bulk Modulus (GPa) = 37.41141 38.94035 38.17588
# Shear Modulus (GPa) = 24.12095 26.17944 25.15019
#
# Velocity S-wave (km/s) = 3.63543 3.78738 3.71219
# Velocity P-wave (km/s) = 6.17417 6.36097 6.26827
#
# Compressibility (1/GPa) = 0.02672981
#
# Stress axis : x y z
#
# Youngs Moduli (GPa) = 51.44456 48.34825 83.60917
#
# Poissons Ratio (x) = 0.30658 0.22994
# Poissons Ratio (y) = 0.32621 0.29973
# Poissons Ratio (z) = 0.14148 0.17332
#
# Static dielectric constant tensor:
#      x y z
#    x 3.307360 0.000000 -0.007660 
#    y 0.000000 3.214250 0.000000 
#    z -0.007660 0.000000 3.381890 
# 
# 
# High freq. dielectric constant tensor:
#      x y z
#    x 1.697260 0.000000 -0.001220 
#    y 0.000000 1.700520 0.000000 
#    z -0.001220 0.000000 1.700930 
# 
# From -- ./inp_files/28316.got.cif
#   From: 2010.03.12/outbox.cif.g09.slc.cpg/sg8_15_cif.got.tgz:28316.got - 2010.03.31 10:45:26.
