data_PCOD8052304
_publ_section_title
;
Structure prediction by ZEFSAII (Michael W. Deem and Ramdas Pophale) SiO2 
 PCOD8052304
Probable space group: P M
;
_chemical_formula_sum "Si O2"
_cell_formula_units_Z 12
_cell_length_a 9.259528
_cell_length_b 8.576329
_cell_length_c 15.742213
_cell_angle_alpha 90.000000
_cell_angle_beta 148.072604
_cell_angle_gamma 90.000000
_cell_volume 661.125366
_symmetry_space_group_name_H-M "P M"
_symmetry_group_IT_number 6
_symmetry_cell_setting 'monoclinic'
loop_
_space_group_symop_operation_xyz
x,y,z
x,-y,z
loop_
_atom_site_type_symbol
_atom_site_label
_atom_site_fract_x
_atom_site_fract_y
_atom_site_fract_z
Si Si1 0.982620 0.815761 0.371770
Si Si2 0.032400 0.319957 0.228798
Si Si3 0.002674 0.320008 0.026702
Si Si4 0.610146 0.819995 0.521157
Si Si5 0.583834 0.317049 0.678957
Si Si6 0.598410 0.815548 0.329657
O O1 0.804010 0.751546 0.361080
O O2 0.857850 0.733175 0.224098
O O3 0.296170 0.770047 0.544244
O O4 0.954233 0.000000 0.348719
O O5 0.126608 0.500000 0.286181
O O6 0.285683 0.202562 0.357677
O O7 0.885052 0.296402 0.064236
O O8 0.046833 0.500000 0.028145
O O9 0.781043 0.250283 0.851031
O O10 0.294265 0.241615 0.158838
O O11 0.726687 0.720835 0.658910
O O12 0.712483 0.760090 0.479476
O O13 0.683439 0.000000 0.572905
O O14 0.534297 0.500000 0.663759
O O15 0.587489 0.000000 0.324421
#
# Coordination Sequence:
#
# PCOD8052304 Si02
#       6
#     2   2   2   2   2   2
#     4  10  19  32  49  72  97 124 157 194 232 278
#     4   9  16  29  48  69  92 123 158 193 230 276
#     4   9  19  33  50  71  96 123 157 195 234 278
#     4   9  16  29  48  69  92 123 158 193 230 276
#     4  10  19  32  49  72  97 124 157 194 232 278
#     4   9  19  33  50  71  96 123 157 195 234 278
#
# _framework density 18.150869
#
# number of rings (size 3 to 8) (size 9 to 14) (size 15 to 20)
#    0.000    2.667    0.000    4.000    0.000    4.000 
#    0.000    1.667    0.000    8.000    0.000    0.000 
#    0.000    0.000    0.000    0.000    0.000    0.000 
#
# Total GULP energy -148676.518867 kJ/mol
# GULP energy per Si atom -12389.709906 kJ/mol
# Density = 1.810956 g / cm^3
# Si number density = 18.150869 Si / 1000 Ang^3
#
#
#
# Elastic Constant Matrix: (Units=GPa)
#
#
# Indices 1 2 3 4 5 6 
#
# 1 155.7259 26.1409 65.5307 0.0000 -32.4745 0.0000
# 2 26.1409 31.8054 18.2389 0.0000 -7.3112 0.0000
# 3 65.5307 18.2389 114.1280 0.0000 -34.5549 0.0000
# 4 0.0000 0.0000 0.0000 16.1809 0.0000 -1.6049
# 5 -32.4745 -7.3112 -34.5549 0.0000 30.1497 0.0000
# 6 0.0000 0.0000 0.0000 -1.6049 0.0000 15.2713
#
#
#
# Elastic Compliance Matrix: (Units=1/GPa)
#
#
# Indices 1 2 3 4 5 6 
#
# 1 0.009742 -0.004924 -0.003049 0.000000 0.005804 0.000000
# 2 -0.004924 0.037298 -0.003064 0.000000 0.000230 0.000000
# 3 -0.003049 -0.003064 0.014982 0.000000 0.013144 0.000000
# 4 0.000000 0.000000 0.000000 0.062452 0.000000 0.006563
# 5 0.005804 0.000230 0.013144 0.000000 0.054539 0.000000
# 6 0.000000 0.000000 0.000000 0.006563 0.000000 0.066172
#
#
# Mechanical properties :
#
#
# Convention : Reuss Voigt Hill
#
# Bulk Modulus (GPa) = 25.03284 57.94223 41.48754
# Shear Modulus (GPa) = 17.82057 25.10365 21.46211
#
# Velocity S-wave (km/s) = 3.13677 3.72298 3.44238
# Velocity P-wave (km/s) = 5.19043 7.10441 6.22146
#
# Compressibility (1/GPa) = 0.03994752
#
# Stress axis : x y z
#
# Youngs Moduli (GPa) = 102.65280 26.81124 66.74577
#
# Poissons Ratio (x) = 0.13201 0.20353
# Poissons Ratio (y) = 0.50544 0.20450
# Poissons Ratio (z) = 0.31302 0.08215
#
# Static dielectric constant tensor:
#      x y z
#    x 3.941640 0.000000 -0.644650 
#    y 0.000000 3.272180 0.000000 
#    z -0.644650 0.000000 3.424350 
# 
# 
# High freq. dielectric constant tensor:
#      x y z
#    x 1.702290 0.000000 -0.041550 
#    y 0.000000 1.705350 0.000000 
#    z -0.041550 0.000000 1.677140 
# 
# From -- ./inp_files/2418.got.cif
#   From: 2010.03.12/outbox.cif.g09.slc.cpg/sg6_2_cif.got.tgz:2418.got - 2010.03.30 10:24:59.
