data_PCOD8052733
_publ_section_title
;
Structure prediction by ZEFSAII (Michael W. Deem and Ramdas Pophale) SiO2 
 PCOD8052733
Probable space group: C M
;
_chemical_formula_sum "Si O2"
_cell_formula_units_Z 32
_cell_length_a 20.257899
_cell_length_b 8.863921
_cell_length_c 19.943923
_cell_angle_alpha 90.000000
_cell_angle_beta 149.749955
_cell_angle_gamma 90.000000
_cell_volume 1804.127314
_symmetry_space_group_name_H-M "C M"
_symmetry_group_IT_number 8
_symmetry_cell_setting 'monoclinic'
loop_
_space_group_symop_operation_xyz
x,y,z
x,-y,z
1/2+x,1/2+y,z
1/2+x,1/2-y,z
loop_
_atom_site_type_symbol
_atom_site_label
_atom_site_fract_x
_atom_site_fract_y
_atom_site_fract_z
Si Si1 0.076270 0.322420 0.824670
Si Si2 0.386550 0.822004 0.281046
Si Si3 0.804639 0.322810 0.351317
Si Si4 0.841170 0.320017 0.529741
Si Si5 0.024507 0.821690 0.056785
Si Si6 0.859419 0.821012 0.035496
Si Si7 0.112537 0.323094 0.006767
Si Si8 0.055329 0.820896 0.321820
O O1 0.081262 0.500000 0.816976
O O2 0.958179 0.251240 0.677488
O O3 0.215136 0.252921 0.921986
O O4 0.050901 0.285525 0.880290
O O5 0.397964 0.780920 0.370409
O O6 0.252409 0.757313 0.133547
O O7 0.510454 0.748808 0.353119
O O8 0.385504 0.000000 0.269210
O O9 0.793400 0.500000 0.350533
O O10 0.858412 0.256530 0.468749
O O11 0.658289 0.263181 0.208584
O O12 0.845953 0.500000 0.535359
O O13 0.702306 0.264203 0.436849
O O14 0.010781 0.738969 0.973066
O O15 0.905653 0.774142 0.001347
O O16 0.028128 0.000000 0.046986
O O17 0.960723 0.758765 0.179938
O O18 0.858441 0.000000 0.041224
O O19 0.135383 0.500000 0.036318
O O20 0.048536 0.000000 0.320784
#
# Coordination Sequence:
#
# PCOD8052733 Si02
#       8
#     4   4   4   4   4   4   4   4
#     4   9  17  28  46  72  98 124 161 202 236 276
#     4  10  19  30  48  73 100 126 156 200 246 285
#     4   8  14  26  44  65  90 120 156 193 233 280
#     4   9  16  28  48  72  95 125 162 199 238 282
#     4   9  16  28  48  71  94 122 159 203 244 282
#     4   9  15  27  47  70  95 122 159 203 234 270
#     4  10  18  30  48  71 100 128 159 199 238 283
#     4  10  17  29  51  74  96 123 162 203 237 278
#
# _framework density 17.737107999999999
#
# number of rings (size 3 to 8) (size 9 to 14) (size 15 to 20)
#    0.000    2.750    2.500    1.500    0.000    0.000 
#    0.000    1.875    0.000    3.000    0.000    0.000 
#    0.000    0.000    0.000    0.000    0.000    0.000 
#
# Total GULP energy -198313.549688 kJ/mol
# GULP energy per Si atom -12394.596855 kJ/mol
# Density = 1.769674 g / cm^3
# Si number density = 17.737108 Si / 1000 Ang^3
#
#
#
# Elastic Constant Matrix: (Units=GPa)
#
#
# Indices 1 2 3 4 5 6 
#
# 1 171.5433 28.8915 82.8652 0.0001 -5.0593 0.0000
# 2 28.8915 25.5199 18.3496 -0.0001 -1.9687 0.0000
# 3 82.8652 18.3496 127.9404 -0.0002 -4.6259 -0.0001
# 4 0.0001 -0.0001 -0.0002 9.2124 -0.0001 -1.1710
# 5 -5.0593 -1.9687 -4.6259 -0.0001 26.8559 0.0000
# 6 0.0000 0.0000 -0.0001 -1.1710 0.0000 28.1310
#
#
#
# Elastic Compliance Matrix: (Units=1/GPa)
#
#
# Indices 1 2 3 4 5 6 
#
# 1 0.009506 -0.007041 -0.005133 0.000000 0.000391 0.000000
# 2 -0.007041 0.049029 -0.002404 0.000000 0.001853 0.000000
# 3 -0.005133 -0.002404 0.011516 0.000000 0.000840 0.000000
# 4 0.000000 0.000000 0.000000 0.109127 0.000000 0.004543
# 5 0.000391 0.001853 0.000840 0.000000 0.037590 0.000000
# 6 0.000000 0.000000 0.000000 0.004543 0.000000 0.035737
#
#
# Mechanical properties :
#
#
# Convention : Reuss Voigt Hill
#
# Bulk Modulus (GPa) = 24.45377 65.02402 44.73890
# Shear Modulus (GPa) = 16.93229 25.83301 21.38265
#
# Velocity S-wave (km/s) = 3.09305 3.82047 3.47584
# Velocity P-wave (km/s) = 5.15487 7.49672 6.43325
#
# Compressibility (1/GPa) = 0.04089349
#
# Stress axis : x y z
#
# Youngs Moduli (GPa) = 105.19122 20.39627 86.83541
#
# Poissons Ratio (x) = 0.14362 0.44574
# Poissons Ratio (y) = 0.74069 0.20877
# Poissons Ratio (z) = 0.53997 0.04904
#
# Static dielectric constant tensor:
#      x y z
#    x 3.633540 0.000000 -0.080030 
#    y 0.000000 2.842930 0.000000 
#    z -0.080030 0.000000 3.336680 
# 
# 
# High freq. dielectric constant tensor:
#      x y z
#    x 1.706240 0.000000 -0.006660 
#    y 0.000000 1.636720 0.000000 
#    z -0.006660 0.000000 1.659050 
# 
# From -- ./inp_files/23731.got.cif
#   From: 2010.03.12/outbox.cif.g09.slc.cpg/sg8_12_cif.got.tgz:23731.got - 2010.03.31 10:45:26.
