data_PCOD8052773
_publ_section_title
;
Structure prediction by ZEFSAII (Michael W. Deem and Ramdas Pophale) SiO2 
 PCOD8052773
Probable space group: C M
;
_chemical_formula_sum "Si O2"
_cell_formula_units_Z 32
_cell_length_a 19.131564
_cell_length_b 8.877126
_cell_length_c 25.528855
_cell_angle_alpha 90.000000
_cell_angle_beta 25.233470
_cell_angle_gamma 90.000000
_cell_volume 1848.321258
_symmetry_space_group_name_H-M "C M"
_symmetry_group_IT_number 8
_symmetry_cell_setting 'monoclinic'
loop_
_space_group_symop_operation_xyz
x,y,z
x,-y,z
1/2+x,1/2+y,z
1/2+x,1/2-y,z
loop_
_atom_site_type_symbol
_atom_site_label
_atom_site_fract_x
_atom_site_fract_y
_atom_site_fract_z
Si Si1 0.221920 0.175262 0.212990
Si Si2 0.589772 0.676888 0.674078
Si Si3 0.465046 0.174134 0.245567
Si Si4 0.273955 0.166142 0.896619
Si Si5 0.421571 0.678750 0.164623
Si Si6 0.828076 0.173398 0.038222
Si Si7 0.000960 0.667001 0.833003
Si Si8 0.860380 0.824685 0.419815
O O1 0.270377 0.266156 0.232082
O O2 0.326623 0.234803 0.093020
O O3 0.030774 0.206877 0.333633
O O4 0.260105 0.000000 0.194530
O O5 0.602844 0.500000 0.670169
O O6 0.405617 0.723501 0.779000
O O7 0.624038 0.749598 0.708568
O O8 0.720020 0.735954 0.544812
O O9 0.407960 0.240707 0.229335
O O10 0.658992 0.194116 0.121649
O O11 0.366878 0.263952 0.356521
O O12 0.414562 0.000000 0.282765
O O13 0.324580 0.153234 0.923700
O O14 0.283524 0.000000 0.863834
O O15 0.088791 0.228640 0.021094
O O16 0.416951 0.500000 0.175865
O O17 0.863713 0.000000 0.027066
O O18 0.976931 0.237697 0.902231
O O19 0.069515 0.500000 0.799967
O O20 0.816855 0.000000 0.448339
#
# Coordination Sequence:
#
# PCOD8052773 Si02
#       8
#     4   4   4   4   4   4   4   4
#     4  10  22  35  50  72 104 140 169 204 251 302
#     4  10  18  29  49  76 101 127 166 213 251 289
#     4  10  19  30  49  74 100 129 167 211 250 293
#     4   8  17  30  48  73 100 130 162 200 245 294
#     4  11  20  33  52  76 105 136 168 204 250 302
#     4  10  18  30  49  75 102 129 166 210 251 293
#     4   9  16  28  47  72 100 128 160 199 244 293
#     4  10  20  35  52  72 100 135 172 209 250 296
#
# _framework density 17.313006999999999
#
# number of rings (size 3 to 8) (size 9 to 14) (size 15 to 20)
#    0.750    1.500    1.250    3.000    0.000    3.500 
#    0.000    0.000    0.000    1.500    0.000    0.000 
#    0.000    0.000    0.000    0.000    0.000    0.000 
#
# Total GULP energy -198317.330422 kJ/mol
# GULP energy per Si atom -12394.833151 kJ/mol
# Density = 1.727360 g / cm^3
# Si number density = 17.313007 Si / 1000 Ang^3
#
#
#
# Elastic Constant Matrix: (Units=GPa)
#
#
# Indices 1 2 3 4 5 6 
#
# 1 69.8176 22.7169 17.2644 0.0003 5.0947 -0.0004
# 2 22.7169 103.3119 41.5870 -0.0021 5.3362 -0.0006
# 3 17.2644 41.5870 85.2336 -0.0067 14.3602 0.0011
# 4 0.0003 -0.0021 -0.0067 30.6456 0.0009 7.6420
# 5 5.0947 5.3362 14.3602 0.0009 15.5265 -0.0004
# 6 -0.0004 -0.0006 0.0011 7.6420 -0.0004 27.0282
#
#
#
# Elastic Compliance Matrix: (Units=1/GPa)
#
#
# Indices 1 2 3 4 5 6 
#
# 1 0.015775 -0.002776 -0.001338 -0.000001 -0.002985 0.000000
# 2 -0.002776 0.012565 -0.005916 -0.000001 0.002064 0.000001
# 3 -0.001338 -0.005916 0.017145 0.000004 -0.013385 -0.000002
# 4 -0.000001 -0.000001 0.000004 0.035106 -0.000006 -0.009926
# 5 -0.002985 0.002064 -0.013385 -0.000006 0.077056 0.000003
# 6 0.000000 0.000001 -0.000002 -0.009926 0.000003 0.039805
#
#
# Mechanical properties :
#
#
# Convention : Reuss Voigt Hill
#
# Bulk Modulus (GPa) = 39.33169 46.83329 43.08249
# Shear Modulus (GPa) = 22.12523 26.42637 24.27580
#
# Velocity S-wave (km/s) = 3.57873 3.91114 3.74862
# Velocity P-wave (km/s) = 6.31219 6.89244 6.60868
#
# Compressibility (1/GPa) = 0.02542479
#
# Stress axis : x y z
#
# Youngs Moduli (GPa) = 63.39179 79.58852 58.32568
#
# Poissons Ratio (x) = 0.22093 0.07804
# Poissons Ratio (y) = 0.17597 0.34506
# Poissons Ratio (z) = 0.08482 0.47085
#
# Static dielectric constant tensor:
#      x y z
#    x 2.944460 0.000000 0.097910 
#    y 0.000000 3.319120 0.000000 
#    z 0.097910 0.000000 3.025480 
# 
# 
# High freq. dielectric constant tensor:
#      x y z
#    x 1.635520 0.000000 0.017990 
#    y 0.000000 1.686270 0.000000 
#    z 0.017990 0.000000 1.650830 
# 
# From -- ./inp_files/32112.got.cif
#   From: 2010.03.12/outbox.cif.g09.slc.cpg/sg8_17_cif.got.tgz:32112.got - 2010.03.31 10:45:26.
