data_PCOD8052763
_publ_section_title
;
Structure prediction by ZEFSAII (Michael W. Deem and Ramdas Pophale) SiO2 
 PCOD8052763
Probable space group: C M
;
_chemical_formula_sum "Si O2"
_cell_formula_units_Z 24
_cell_length_a 18.295248
_cell_length_b 8.887526
_cell_length_c 23.944027
_cell_angle_alpha 90.000000
_cell_angle_beta 20.312643
_cell_angle_gamma 90.000000
_cell_volume 1351.525643
_symmetry_space_group_name_H-M "C M"
_symmetry_group_IT_number 8
_symmetry_cell_setting 'monoclinic'
loop_
_space_group_symop_operation_xyz
x,y,z
x,-y,z
1/2+x,1/2+y,z
1/2+x,1/2-y,z
loop_
_atom_site_type_symbol
_atom_site_label
_atom_site_fract_x
_atom_site_fract_y
_atom_site_fract_z
Si Si1 0.387630 0.677070 0.539150
Si Si2 0.360086 0.825944 0.217718
Si Si3 0.234181 0.828213 0.424249
Si Si4 0.188335 0.828645 0.578235
Si Si5 0.808195 0.675709 0.706388
Si Si6 0.215362 0.322654 0.882818
O O1 0.381067 0.500000 0.552730
O O2 0.628868 0.738067 0.367672
O O3 0.285246 0.717454 0.553669
O O4 0.252827 0.752623 0.685741
O O5 0.404790 0.800638 0.252499
O O6 0.363314 0.000000 0.200443
O O7 0.545663 0.751945 0.048022
O O8 0.321326 0.808133 0.424801
O O9 0.050218 0.709372 0.546533
O O10 0.143417 0.000000 0.483475
O O11 0.946736 0.782991 0.740134
O O12 0.205041 0.000000 0.587851
O O13 0.763442 0.500000 0.735730
O O14 0.669231 0.746866 0.855847
O O15 0.192290 0.500000 0.891748
#
# Coordination Sequence:
#
# PCOD8052763 Si02
#       6
#     4   4   4   4   4   4
#     4  10  19  32  50  70  95 126 159 194 234 280
#     4   8  15  30  52  72  90 122 162 193 228 277
#     4   8  15  30  50  70  93 124 159 190 228 280
#     4   9  17  29  47  71  98 126 156 192 232 275
#     4  10  18  29  47  70  95 123 159 196 231 277
#     4   9  17  32  52  71  95 125 157 193 233 279
#
# _framework density 17.757709999999999
#
# number of rings (size 3 to 8) (size 9 to 14) (size 15 to 20)
#    0.000    3.000    0.000    4.000    0.000    2.667 
#    0.000    5.833    0.000    2.000    0.000    0.000 
#    0.000    0.000    0.000    0.000    0.000    0.000 
#
# Total GULP energy -148678.345047 kJ/mol
# GULP energy per Si atom -12389.862087 kJ/mol
# Density = 1.771729 g / cm^3
# Si number density = 17.757710 Si / 1000 Ang^3
#
#
#
# Elastic Constant Matrix: (Units=GPa)
#
#
# Indices 1 2 3 4 5 6 
#
# 1 143.1878 42.9616 60.2798 0.0108 31.0589 -0.0003
# 2 42.9616 60.7809 25.3831 0.0568 8.3550 0.0025
# 3 60.2798 25.3831 96.4183 -0.0175 36.5908 0.0069
# 4 0.0108 0.0568 -0.0175 11.1684 0.0153 1.5691
# 5 31.0589 8.3550 36.5908 0.0153 32.4433 0.0003
# 6 -0.0003 0.0025 0.0069 1.5691 0.0003 31.9590
#
#
#
# Elastic Compliance Matrix: (Units=1/GPa)
#
#
# Indices 1 2 3 4 5 6 
#
# 1 0.011398 -0.005836 -0.003530 0.000021 -0.005428 0.000000
# 2 -0.005836 0.021504 -0.003551 -0.000116 0.004055 0.000005
# 3 -0.003530 -0.003551 0.020776 0.000081 -0.019139 -0.000008
# 4 0.000021 -0.000116 0.000081 0.090161 -0.000124 -0.004427
# 5 -0.005428 0.004055 -0.019139 -0.000124 0.056561 0.000009
# 6 0.000000 0.000005 -0.000008 -0.004427 0.000009 0.031507
#
#
# Mechanical properties :
#
#
# Convention : Reuss Voigt Hill
#
# Bulk Modulus (GPa) = 35.91426 61.95954 48.93690
# Shear Modulus (GPa) = 18.72499 26.56497 22.64498
#
# Velocity S-wave (km/s) = 3.25078 3.87197 3.57490
# Velocity P-wave (km/s) = 5.86162 7.41329 6.68265
#
# Compressibility (1/GPa) = 0.02784409
#
# Stress axis : x y z
#
# Youngs Moduli (GPa) = 87.73240 46.50391 48.13201
#
# Poissons Ratio (x) = 0.27142 0.16989
# Poissons Ratio (y) = 0.51205 0.17091
# Poissons Ratio (z) = 0.30967 0.16513
#
# Static dielectric constant tensor:
#      x y z
#    x 3.450080 -0.000010 0.473980 
#    y -0.000010 3.017540 0.000010 
#    z 0.473980 0.000010 3.370920 
# 
# 
# High freq. dielectric constant tensor:
#      x y z
#    x 1.690710 0.000000 0.037460 
#    y 0.000000 1.667150 0.000000 
#    z 0.037460 0.000000 1.656230 
# 
# From -- ./inp_files/14190.got.cif
#   From: 2010.03.12/outbox.cif.g09.slc.cpg/sg8_8_cif.got.tgz:14190.got - 2010.03.31 10:45:26.
