data_PCOD8052704
_publ_section_title
;
Structure prediction by ZEFSAII (Michael W. Deem and Ramdas Pophale) SiO2 
 PCOD8052704
Probable space group: C M
;
_chemical_formula_sum "Si O2"
_cell_formula_units_Z 32
_cell_length_a 24.694432
_cell_length_b 8.818762
_cell_length_c 21.969474
_cell_angle_alpha 90.000000
_cell_angle_beta 157.142990
_cell_angle_gamma 90.000000
_cell_volume 1858.412256
_symmetry_space_group_name_H-M "C M"
_symmetry_group_IT_number 8
_symmetry_cell_setting 'monoclinic'
loop_
_space_group_symop_operation_xyz
x,y,z
x,-y,z
1/2+x,1/2+y,z
1/2+x,1/2-y,z
loop_
_atom_site_type_symbol
_atom_site_label
_atom_site_fract_x
_atom_site_fract_y
_atom_site_fract_z
Si Si1 0.675940 0.322516 0.042080
Si Si2 0.505591 0.326207 0.589603
Si Si3 0.940174 0.825963 0.651182
Si Si4 0.112402 0.678291 0.476431
Si Si5 0.880840 0.679089 0.707424
Si Si6 0.884433 0.327589 0.148549
Si Si7 0.196905 0.322664 0.871872
Si Si8 0.403017 0.680238 0.353436
O O1 0.647103 0.500000 0.021035
O O2 0.777480 0.288594 0.091431
O O3 0.756247 0.257096 0.184275
O O4 0.530845 0.236220 0.884400
O O5 0.550635 0.500000 0.628460
O O6 0.396690 0.308571 0.534514
O O7 0.649138 0.234700 0.755038
O O8 0.433965 0.265619 0.454654
O O9 0.848296 0.730619 0.603793
O O10 0.098023 0.761181 0.819418
O O11 0.939046 0.000000 0.671722
O O12 0.114604 0.500000 0.493616
O O13 0.266943 0.745731 0.633531
O O14 0.037712 0.708058 0.333760
O O15 0.031504 0.762985 0.446223
O O16 0.871081 0.500000 0.702525
O O17 0.872593 0.500000 0.114834
O O18 0.852097 0.225580 0.054767
O O19 0.177245 0.500000 0.855095
O O20 0.389346 0.500000 0.333795
#
# Coordination Sequence:
#
# PCOD8052704 Si02
#       8
#     4   4   4   4   4   4   4   4
#     4  10  19  31  50  73 100 135 168 207 254 302
#     4   8  17  31  49  72 101 134 166 206 254 296
#     4   9  17  31  49  72 101 132 162 201 249 302
#     4  10  22  36  51  72 104 142 168 201 257 315
#     4  12  22  33  51  78 104 133 170 212 255 302
#     4   9  17  31  49  70  99 132 167 202 249 305
#     4  10  17  25  46  76 100 124 160 208 248 284
#     4  10  19  34  53  77 103 132 173 217 248 292
#
# _framework density 17.218999
#
# number of rings (size 3 to 8) (size 9 to 14) (size 15 to 20)
#    0.750    1.500    1.250    4.125    0.000    3.500 
#    0.000    0.000    0.000    1.500    0.000    7.000 
#    0.000    0.000    0.000    0.000    0.000    0.000 
#
# Total GULP energy -198223.268422 kJ/mol
# GULP energy per Si atom -12388.954276 kJ/mol
# Density = 1.717981 g / cm^3
# Si number density = 17.218999 Si / 1000 Ang^3
#
#
#
# Elastic Constant Matrix: (Units=GPa)
#
#
# Indices 1 2 3 4 5 6 
#
# 1 57.4136 14.8223 32.8155 0.0009 -14.8165 0.0004
# 2 14.8223 66.5923 22.5318 0.0028 -10.3238 0.0017
# 3 32.8155 22.5318 74.7724 0.0034 -12.0491 0.0020
# 4 0.0009 0.0028 0.0034 28.0167 0.0014 -1.5843
# 5 -14.8165 -10.3238 -12.0491 0.0014 31.0066 0.0007
# 6 0.0004 0.0017 0.0020 -1.5843 0.0007 22.8001
#
#
#
# Elastic Compliance Matrix: (Units=1/GPa)
#
#
# Indices 1 2 3 4 5 6 
#
# 1 0.025151 -0.001183 -0.009397 0.000000 0.007973 0.000000
# 2 -0.001183 0.017220 -0.004093 -0.000001 0.003578 -0.000001
# 3 -0.009397 -0.004093 0.018977 -0.000002 0.001521 -0.000001
# 4 0.000000 -0.000001 -0.000002 0.035834 -0.000003 0.002490
# 5 0.007973 0.003578 0.001521 -0.000003 0.037843 -0.000002
# 6 0.000000 -0.000001 -0.000001 0.002490 -0.000002 0.044033
#
#
# Mechanical properties :
#
#
# Convention : Reuss Voigt Hill
#
# Bulk Modulus (GPa) = 31.24862 37.67974 34.46418
# Shear Modulus (GPa) = 22.82369 24.93859 23.88114
#
# Velocity S-wave (km/s) = 3.64468 3.80981 3.72816
# Velocity P-wave (km/s) = 5.99156 6.42518 6.21216
#
# Compressibility (1/GPa) = 0.03200141
#
# Stress axis : x y z
#
# Youngs Moduli (GPa) = 39.75922 58.07325 52.69645
#
# Poissons Ratio (x) = 0.06868 0.49519
# Poissons Ratio (y) = 0.04702 0.21571
# Poissons Ratio (z) = 0.37362 0.23772
#
# Static dielectric constant tensor:
#      x y z
#    x 3.019520 0.000000 -0.230810 
#    y 0.000000 3.212640 0.000000 
#    z -0.230810 0.000000 3.250800 
# 
# 
# High freq. dielectric constant tensor:
#      x y z
#    x 1.628130 0.000000 -0.020960 
#    y 0.000000 1.676480 0.000000 
#    z -0.020960 0.000000 1.653700 
# 
# From -- ./inp_files/32607.got.cif
#   From: 2010.03.12/outbox.cif.g09.slc.cpg/sg8_17_cif.got.tgz:32607.got - 2010.03.31 10:45:26.
