data_PCOD8052329
_publ_section_title
;
Structure prediction by ZEFSAII (Michael W. Deem and Ramdas Pophale) SiO2 
 PCOD8052329
Probable space group: P M
;
_chemical_formula_sum "Si O2"
_cell_formula_units_Z 16
_cell_length_a 20.241429
_cell_length_b 9.173930
_cell_length_c 9.071643
_cell_angle_alpha 90.000000
_cell_angle_beta 149.627224
_cell_angle_gamma 90.000000
_cell_volume 851.746041
_symmetry_space_group_name_H-M "P M"
_symmetry_group_IT_number 6
_symmetry_cell_setting 'monoclinic'
loop_
_space_group_symop_operation_xyz
x,y,z
x,-y,z
loop_
_atom_site_type_symbol
_atom_site_label
_atom_site_fract_x
_atom_site_fract_y
_atom_site_fract_z
Si Si1 0.259800 0.663537 0.693020
Si Si2 0.009706 0.830341 0.153834
Si Si3 0.310272 0.661498 0.444040
Si Si4 0.557659 0.830281 0.957732
Si Si5 0.510380 0.831307 0.205044
Si Si6 0.761158 0.167843 0.875783
Si Si7 0.782591 0.330255 0.219856
Si Si8 0.025594 0.668908 0.883052
O O1 0.245311 0.500000 0.728031
O O2 0.284286 0.662893 0.567235
O O3 0.126988 0.752131 0.468359
O O4 0.383263 0.739936 0.009267
O O5 0.044146 0.000000 0.205751
O O6 0.877388 0.802569 0.986827
O O7 0.987126 0.766868 0.947993
O O8 0.353653 0.500000 0.475908
O O9 0.424525 0.774260 0.622733
O O10 0.171655 0.707214 0.103821
O O11 0.570881 0.000000 0.949602
O O12 0.555469 0.793715 0.126285
O O13 0.680529 0.748989 0.127980
O O14 0.626449 0.788779 0.537766
O O15 0.472727 0.000000 0.143265
O O16 0.759031 0.000000 0.922826
O O17 0.778182 0.270385 0.047517
O O18 0.748613 0.500000 0.152851
O O19 0.926858 0.299645 0.560344
O O20 0.021783 0.500000 0.926849
#
# Coordination Sequence:
#
# PCOD8052329 Si02
#       8
#     2   2   2   2   2   2   2   2
#     4   9  17  30  51  80 110 137 168 210 258 307
#     4  10  19  33  56  82 106 136 173 213 260 311
#     4   8  15  30  51  76 105 133 165 210 258 302
#     4  10  19  33  55  81 106 134 170 212 259 310
#     4   9  18  34  56  80 105 135 173 216 260 306
#     4  10  22  38  53  74 106 140 176 218 259 304
#     4  11  23  37  53  75 105 141 177 214 260 311
#     4   9  19  35  55  80 107 134 170 217 262 307
#
# _framework density 18.784941
#
# number of rings (size 3 to 8) (size 9 to 14) (size 15 to 20)
#    0.000    2.500    0.000    3.000    0.000    7.000 
#    0.000    1.250    0.000    3.000    0.000    0.000 
#    0.000    0.000    0.000    0.000    0.000    0.000 
#
# Total GULP energy -198403.073144 kJ/mol
# GULP energy per Si atom -12400.192072 kJ/mol
# Density = 1.874219 g / cm^3
# Si number density = 18.784941 Si / 1000 Ang^3
#
#
#
# Elastic Constant Matrix: (Units=GPa)
#
#
# Indices 1 2 3 4 5 6 
#
# 1 20.2900 29.5685 38.1790 0.0000 -6.2762 0.0000
# 2 29.5685 107.1523 67.9806 0.0000 0.7743 0.0000
# 3 38.1790 67.9806 151.3474 0.0000 12.5391 0.0000
# 4 0.0000 0.0000 0.0000 31.5849 0.0000 4.9898
# 5 -6.2762 0.7743 12.5391 0.0000 19.9839 0.0000
# 6 0.0000 0.0000 0.0000 4.9898 0.0000 28.4287
#
#
#
# Elastic Compliance Matrix: (Units=1/GPa)
#
#
# Indices 1 2 3 4 5 6 
#
# 1 0.216019 -0.028658 -0.049929 0.000000 0.100283 0.000000
# 2 -0.028658 0.017070 0.000383 0.000000 -0.009902 0.000000
# 3 -0.049929 0.000383 0.021446 0.000000 -0.029152 0.000000
# 4 0.000000 0.000000 0.000000 0.032564 0.000000 -0.005716
# 5 0.100283 -0.009902 -0.029152 0.000000 0.100211 0.000000
# 6 0.000000 0.000000 0.000000 -0.005716 0.000000 0.036179
#
#
# Mechanical properties :
#
#
# Convention : Reuss Voigt Hill
#
# Bulk Modulus (GPa) = 10.19109 61.13845 35.66477
# Shear Modulus (GPa) = 8.16185 25.53693 16.84939
#
# Velocity S-wave (km/s) = 2.08670 3.69105 2.99818
# Velocity P-wave (km/s) = 3.35301 7.12617 5.56889
#
# Compressibility (1/GPa) = 0.09812495
#
# Stress axis : x y z
#
# Youngs Moduli (GPa) = 4.62922 58.58380 46.62910
#
# Poissons Ratio (x) = 1.67892 2.32815
# Poissons Ratio (y) = 0.13267 -0.01784
# Poissons Ratio (z) = 0.23113 -0.02242
#
# Static dielectric constant tensor:
#      x y z
#    x 3.134340 0.000000 0.251530 
#    y 0.000000 3.592640 0.000000 
#    z 0.251530 0.000000 3.805030 
# 
# 
# High freq. dielectric constant tensor:
#      x y z
#    x 1.698200 0.000000 0.021900 
#    y 0.000000 1.736720 0.000000 
#    z 0.021900 0.000000 1.741250 
# 
# From -- ./inp_files/4127.got.cif
#   From: 2010.03.12/outbox.cif.g09.slc.cpg/sg6_3_cif.got.tgz:4127.got - 2010.03.30 10:24:59.
