data_PCOD8052385
_publ_section_title
;
Structure prediction by ZEFSAII (Michael W. Deem and Ramdas Pophale) SiO2 
 PCOD8052385
Probable space group: P M
;
_chemical_formula_sum "Si O2"
_cell_formula_units_Z 16
_cell_length_a 9.791657
_cell_length_b 8.738373
_cell_length_c 12.040827
_cell_angle_alpha 90.000000
_cell_angle_beta 51.303852
_cell_angle_gamma 90.000000
_cell_volume 804.082591
_symmetry_space_group_name_H-M "P M"
_symmetry_group_IT_number 6
_symmetry_cell_setting 'monoclinic'
loop_
_space_group_symop_operation_xyz
x,y,z
x,-y,z
loop_
_atom_site_type_symbol
_atom_site_label
_atom_site_fract_x
_atom_site_fract_y
_atom_site_fract_z
Si Si1 0.970670 0.680595 0.797680
Si Si2 0.943226 0.179553 0.268214
Si Si3 0.582550 0.681057 0.948217
Si Si4 0.251052 0.818432 0.498272
Si Si5 0.468427 0.671245 0.774074
Si Si6 0.553777 0.179421 0.505097
Si Si7 0.252324 0.318167 0.253482
Si Si8 0.068765 0.671070 0.991472
O O1 0.991626 0.500000 0.766043
O O2 0.768563 0.732870 0.901772
O O3 0.073251 0.769016 0.649662
O O4 0.046284 0.731268 0.877837
O O5 0.749143 0.244578 0.391248
O O6 0.077846 0.267133 0.278660
O O7 0.959314 0.000000 0.283576
O O8 0.975684 0.213056 0.122334
O O9 0.561806 0.500000 0.957510
O O10 0.576419 0.738369 0.823487
O O11 0.424481 0.748222 0.103197
O O12 0.418453 0.754059 0.482410
O O13 0.254116 0.746568 0.375800
O O14 0.254597 0.000000 0.486332
O O15 0.529765 0.500000 0.708735
O O16 0.486884 0.782257 0.661332
O O17 0.271413 0.666560 0.918414
O O18 0.557955 0.000000 0.487847
O O19 0.254165 0.500000 0.257905
O O20 0.987953 0.500000 0.044589
#
# Coordination Sequence:
#
# PCOD8052385 Si02
#       8
#     2   2   2   2   2   2   2   2
#     4  10  21  39  62  89 119 155 199 247 296 350
#     4  11  24  41  61  88 122 160 201 245 297 357
#     4   9  20  38  60  88 118 149 193 247 298 348
#     4  11  24  42  60  86 124 162 199 244 296 358
#     4  10  19  37  62  87 115 149 198 252 295 345
#     4  10  24  42  59  85 123 161 200 243 294 356
#     4  11  23  42  64  88 120 158 199 248 300 354
#     4  10  20  37  62  89 117 150 199 252 296 348
#
# _framework density 19.898454000000001
#
# number of rings (size 3 to 8) (size 9 to 14) (size 15 to 20)
#    0.000    1.750    2.500    1.125    3.500    2.500 
#    0.000    1.250    0.000    0.000    0.000    0.000 
#    0.000    0.000    0.000    0.000    0.000    0.000 
#
# Total GULP energy -198419.799108 kJ/mol
# GULP energy per Si atom -12401.237444 kJ/mol
# Density = 1.985316 g / cm^3
# Si number density = 19.898454 Si / 1000 Ang^3
#
#
#
# Elastic Constant Matrix: (Units=GPa)
#
#
# Indices 1 2 3 4 5 6 
#
# 1 117.5144 27.5513 58.7148 0.0000 -0.0403 0.0000
# 2 27.5513 43.0943 31.3642 0.0000 -1.8546 0.0000
# 3 58.7148 31.3642 123.4441 0.0000 1.1631 0.0000
# 4 0.0000 0.0000 0.0000 21.8161 0.0000 2.4968
# 5 -0.0403 -1.8546 1.1631 0.0000 39.8034 0.0000
# 6 0.0000 0.0000 0.0000 2.4968 0.0000 26.5684
#
#
#
# Elastic Compliance Matrix: (Units=1/GPa)
#
#
# Indices 1 2 3 4 5 6 
#
# 1 0.011759 -0.004232 -0.004517 0.000000 -0.000053 0.000000
# 2 -0.004232 0.030087 -0.005646 0.000000 0.001563 0.000000
# 3 -0.004517 -0.005646 0.011690 0.000000 -0.000609 0.000000
# 4 0.000000 0.000000 0.000000 0.046336 0.000000 -0.004354
# 5 -0.000053 0.001563 -0.000609 0.000000 0.025214 0.000000
# 6 0.000000 0.000000 0.000000 -0.004354 0.000000 0.038048
#
#
# Mechanical properties :
#
#
# Convention : Reuss Voigt Hill
#
# Bulk Modulus (GPa) = 40.41301 57.70149 49.05725
# Shear Modulus (GPa) = 24.97840 28.73241 26.85541
#
# Velocity S-wave (km/s) = 3.54686 3.80406 3.67771
# Velocity P-wave (km/s) = 6.09322 6.95381 6.53769
#
# Compressibility (1/GPa) = 0.02474451
#
# Stress axis : x y z
#
# Youngs Moduli (GPa) = 85.04280 33.23661 85.54619
#
# Poissons Ratio (x) = 0.14067 0.38642
# Poissons Ratio (y) = 0.35994 0.48300
# Poissons Ratio (z) = 0.38414 0.18766
#
# Static dielectric constant tensor:
#      x y z
#    x 3.895930 0.000000 -0.092600 
#    y 0.000000 3.382700 0.000000 
#    z -0.092600 0.000000 3.646240 
# 
# 
# High freq. dielectric constant tensor:
#      x y z
#    x 1.792700 0.000000 0.002320 
#    y 0.000000 1.753880 0.000000 
#    z 0.002320 0.000000 1.782090 
# 
# From -- ./inp_files/3727.got.cif
#   From: 2010.03.12/outbox.cif.g09.slc.cpg/sg6_2_cif.got.tgz:3727.got - 2010.03.30 10:24:59.
