data_PCOD8052252
_publ_section_title
;
Structure prediction by ZEFSAII (Michael W. Deem and Ramdas Pophale) SiO2 
 PCOD8052252
Probable space group: P M
;
_chemical_formula_sum "Si O2"
_cell_formula_units_Z 16
_cell_length_a 11.482482
_cell_length_b 8.724699
_cell_length_c 12.261599
_cell_angle_alpha 90.000000
_cell_angle_beta 132.501093
_cell_angle_gamma 90.000000
_cell_volume 905.642151
_symmetry_space_group_name_H-M "P M"
_symmetry_group_IT_number 6
_symmetry_cell_setting 'monoclinic'
loop_
_space_group_symop_operation_xyz
x,y,z
x,-y,z
loop_
_atom_site_type_symbol
_atom_site_label
_atom_site_fract_x
_atom_site_fract_y
_atom_site_fract_z
Si Si1 0.426140 0.676995 0.733700
Si Si2 0.091156 0.673639 0.606689
Si Si3 0.591769 0.671271 0.521410
Si Si4 0.311896 0.821127 0.444987
Si Si5 0.993889 0.679035 0.301396
Si Si6 0.747062 0.820309 0.997673
Si Si7 0.848810 0.671359 0.849684
Si Si8 0.896100 0.821237 0.667087
O O1 0.437045 0.500000 0.701538
O O2 0.279939 0.694677 0.724817
O O3 0.396210 0.786977 0.612657
O O4 0.583169 0.728097 0.895753
O O5 0.044924 0.500000 0.608152
O O6 0.018703 0.717547 0.443763
O O7 0.020949 0.786311 0.652239
O O8 0.559842 0.500000 0.457075
O O9 0.427999 0.764653 0.421498
O O10 0.666685 0.665175 0.691600
O O11 0.721727 0.753923 0.525695
O O12 0.147506 0.731231 0.330568
O O13 0.279204 0.000000 0.411549
O O14 0.967190 0.500000 0.263900
O O15 0.841663 0.773456 0.165909
O O16 0.854237 0.773075 0.961695
O O17 0.713112 0.000000 0.974673
O O18 0.911249 0.500000 0.914636
O O19 0.953948 0.746865 0.819109
O O20 0.880335 0.000000 0.674492
#
# Coordination Sequence:
#
# PCOD8052252 Si02
#       8
#     2   2   2   2   2   2   2   2
#     4  10  19  32  51  72  99 136 175 209 249 304
#     4   9  19  35  53  74  99 134 176 212 246 300
#     4   9  17  29  48  72  99 131 166 203 245 298
#     4  11  19  30  49  77 106 129 166 216 261 297
#     4  10  22  37  53  72 104 144 175 204 251 314
#     4  12  22  33  51  79 109 134 168 214 264 306
#     4   9  18  31  50  73 100 133 169 205 246 301
#     4  10  18  29  49  77 104 129 165 215 262 296
#
# _framework density 17.667023
#
# number of rings (size 3 to 8) (size 9 to 14) (size 15 to 20)
#    0.750    1.250    1.250    5.250    0.000    3.000 
#    0.000    0.000    0.000    1.500    0.000    5.250 
#    0.000    0.000    0.000    0.000    0.000    0.000 
#
# Total GULP energy -198344.160079 kJ/mol
# GULP energy per Si atom -12396.510005 kJ/mol
# Density = 1.762681 g / cm^3
# Si number density = 17.667023 Si / 1000 Ang^3
#
#
#
# Elastic Constant Matrix: (Units=GPa)
#
#
# Indices 1 2 3 4 5 6 
#
# 1 89.3825 34.7162 25.2142 0.0000 0.1014 0.0000
# 2 34.7162 106.1982 12.9355 0.0000 -5.4601 0.0000
# 3 25.2142 12.9355 60.4543 0.0000 9.1222 0.0000
# 4 0.0000 0.0000 0.0000 23.6037 0.0000 -0.7999
# 5 0.1014 -5.4601 9.1222 0.0000 18.5717 0.0000
# 6 0.0000 0.0000 0.0000 -0.7999 0.0000 27.9483
#
#
#
# Elastic Compliance Matrix: (Units=1/GPa)
#
#
# Indices 1 2 3 4 5 6 
#
# 1 0.014205 -0.003929 -0.005290 0.000000 0.001366 0.000000
# 2 -0.003929 0.011063 -0.001320 0.000000 0.003923 0.000000
# 3 -0.005290 -0.001320 0.020612 0.000000 -0.010484 0.000000
# 4 0.000000 0.000000 0.000000 0.042407 0.000000 0.001214
# 5 0.001366 0.003923 -0.010484 0.000000 0.060141 0.000000
# 6 0.000000 0.000000 0.000000 0.001214 0.000000 0.035815
#
#
# Mechanical properties :
#
#
# Convention : Reuss Voigt Hill
#
# Bulk Modulus (GPa) = 40.31997 44.64076 42.48037
# Shear Modulus (GPa) = 23.40949 26.23602 24.82276
#
# Velocity S-wave (km/s) = 3.64406 3.85779 3.75244
# Velocity P-wave (km/s) = 6.37003 6.72057 6.54764
#
# Compressibility (1/GPa) = 0.02480160
#
# Stress axis : x y z
#
# Youngs Moduli (GPa) = 70.40006 90.38946 48.51499
#
# Poissons Ratio (x) = 0.35513 0.25663
# Poissons Ratio (y) = 0.27660 0.06406
# Poissons Ratio (z) = 0.37240 0.11935
#
# Static dielectric constant tensor:
#      x y z
#    x 3.159110 0.000000 0.131000 
#    y 0.000000 3.265050 0.000000 
#    z 0.131000 0.000000 2.929820 
# 
# 
# High freq. dielectric constant tensor:
#      x y z
#    x 1.674790 0.000000 0.011100 
#    y 0.000000 1.697660 0.000000 
#    z 0.011100 0.000000 1.638070 
# 
# From -- ./inp_files/5056.got.cif
#   From: 2010.03.12/outbox.cif.g09.slc.cpg/sg6_3_cif.got.tgz:5056.got - 2010.03.30 10:24:59.
