data_PCOD8052070
_publ_section_title
;
Structure prediction by ZEFSAII (Michael W. Deem and Ramdas Pophale) SiO2 
 PCOD8052070
Probable space group: C 2
;
_chemical_formula_sum "Si O2"
_cell_formula_units_Z 20
_cell_length_a 6.691104
_cell_length_b 17.259219
_cell_length_c 7.838253
_cell_angle_alpha 90.000000
_cell_angle_beta 99.501205
_cell_angle_gamma 90.000000
_cell_volume 892.769534
_symmetry_space_group_name_H-M "C 2"
_symmetry_group_IT_number 5
_symmetry_cell_setting 'monoclinic'
loop_
_space_group_symop_operation_xyz
x,y,z
-x,y,-z
1/2+x,1/2+y,z
1/2-x,1/2+y,-z
loop_
_atom_site_type_symbol
_atom_site_label
_atom_site_fract_x
_atom_site_fract_y
_atom_site_fract_z
Si Si1 0.189032 0.857860 0.117537
Si Si2 0.500000 0.635359 0.500000
Si Si3 0.620995 0.364132 0.667400
Si Si4 0.959706 0.247421 0.803267
Si Si5 0.654425 0.017730 0.369047
Si Si6 0.000000 0.472124 0.000000
O O1 0.345011 0.797914 0.223615
O O2 0.061804 0.902554 0.246359
O O3 0.303213 0.918088 0.007770
O O4 0.000000 0.813274 0.000000
O O5 0.423822 0.684587 0.651823
O O6 0.319044 0.584307 0.403264
O O7 0.500000 0.319293 0.500000
O O8 0.763865 0.303252 0.788157
O O9 0.753584 0.432273 0.604809
O O10 0.000000 0.212877 0.000000
O O11 0.500000 0.029239 0.500000
O O12 0.542336 0.025785 0.169787
#
# Coordination Sequence:
#
# PCOD8052070 Si02
#       6
#     4   2   4   4   4   2
#     4  12  20  42  77 113 136 176 249 306 360 406
#     4  12  32  48  66 106 158 194 232 298 376 428
#     4  12  24  42  80 110 141 188 245 309 359 422
#     4  12  25  49  72 107 147 190 248 302 351 446
#     4  12  27  48  69 107 149 194 240 294 365 435
#     4  12  24  44  78 114 140 182 254 310 342 446
#
# _framework density 22.402197999999999
#
# number of rings (size 3 to 8) (size 9 to 14) (size 15 to 20)
#    0.000    0.000    8.000    2.400    1.400    4.000 
#    1.800    0.000    0.000    0.000    0.000    0.000 
#    0.000    0.000    0.000    0.000    0.000    0.000 
#
# Total GULP energy -123907.505676 kJ/mol
# GULP energy per Si atom -12390.750568 kJ/mol
# Density = 2.235121 g / cm^3
# Si number density = 22.402198 Si / 1000 Ang^3
#
#
#
# Elastic Constant Matrix: (Units=GPa)
#
#
# Indices 1 2 3 4 5 6 
#
# 1 147.3229 34.2221 56.4241 0.0000 -6.2382 0.0000
# 2 34.2221 83.6122 48.1616 0.0000 1.8138 0.0000
# 3 56.4241 48.1616 171.7002 0.0000 9.1115 0.0000
# 4 0.0000 0.0000 0.0000 29.2569 0.0000 10.0336
# 5 -6.2382 1.8138 9.1115 0.0000 44.7608 0.0000
# 6 0.0000 0.0000 0.0000 10.0336 0.0000 21.2737
#
#
#
# Elastic Compliance Matrix: (Units=1/GPa)
#
#
# Indices 1 2 3 4 5 6 
#
# 1 0.008189 -0.002131 -0.002182 0.000000 0.001672 0.000000
# 2 -0.002131 0.014822 -0.003447 0.000000 -0.000196 0.000000
# 3 -0.002182 -0.003447 0.007599 0.000000 -0.001711 0.000000
# 4 0.000000 0.000000 0.000000 0.040775 0.000000 -0.019231
# 5 0.001672 -0.000196 -0.001711 0.000000 0.022930 0.000000
# 6 0.000000 0.000000 0.000000 -0.019231 0.000000 0.056077
#
#
# Mechanical properties :
#
#
# Convention : Reuss Voigt Hill
#
# Bulk Modulus (GPa) = 66.26940 75.58345 70.92643
# Shear Modulus (GPa) = 29.24959 36.64678 32.94818
#
# Velocity S-wave (km/s) = 3.61731 4.04896 3.83921
# Velocity P-wave (km/s) = 6.86239 7.46132 7.16811
#
# Compressibility (1/GPa) = 0.01508992
#
# Stress axis : x y z
#
# Youngs Moduli (GPa) = 122.10875 67.46775 131.59959
#
# Poissons Ratio (x) = 0.14379 0.28717
# Poissons Ratio (y) = 0.26024 0.45359
# Poissons Ratio (z) = 0.26646 0.23254
#
# Static dielectric constant tensor:
#      x y z
#    x 4.335190 0.000000 0.077780 
#    y 0.000000 3.557150 0.000000 
#    z 0.077780 0.000000 4.619420 
# 
# 
# High freq. dielectric constant tensor:
#      x y z
#    x 1.910010 0.000000 0.003130 
#    y 0.000000 1.823160 0.000000 
#    z 0.003130 0.000000 1.919790 
# 
# From -- ./inp_files/12107.got.cif
#   From: 2010.03.12/outbox.cif.g09.slc.cpg/sg5_7_cif.got.tgz:12107.got - 2010.03.31 09:47:26.
