data_PCOD8052421
_publ_section_title
;
Structure prediction by ZEFSAII (Michael W. Deem and Ramdas Pophale) SiO2 
 PCOD8052421
Probable space group: P M
;
_chemical_formula_sum "Si O2"
_cell_formula_units_Z 16
_cell_length_a 10.973726
_cell_length_b 9.304420
_cell_length_c 9.270458
_cell_angle_alpha 90.000000
_cell_angle_beta 65.062461
_cell_angle_gamma 90.000000
_cell_volume 858.303292
_symmetry_space_group_name_H-M "P M"
_symmetry_group_IT_number 6
_symmetry_cell_setting 'monoclinic'
loop_
_space_group_symop_operation_xyz
x,y,z
x,-y,z
loop_
_atom_site_type_symbol
_atom_site_label
_atom_site_fract_x
_atom_site_fract_y
_atom_site_fract_z
Si Si1 0.889500 0.332820 0.198950
Si Si2 0.341811 0.334548 0.279925
Si Si3 0.579330 0.831324 0.646896
Si Si4 0.886602 0.165254 0.482247
Si Si5 0.124603 0.168164 0.568996
Si Si6 0.115725 0.666584 0.869538
Si Si7 0.373982 0.665798 0.933679
Si Si8 0.584112 0.664724 0.361229
O O1 0.911790 0.500000 0.217371
O O2 0.937727 0.254542 0.319681
O O3 0.735376 0.294090 0.238553
O O4 0.980767 0.283702 0.019339
O O5 0.297291 0.500000 0.322543
O O6 0.237227 0.232562 0.410039
O O7 0.489748 0.308461 0.271476
O O8 0.345287 0.290386 0.111894
O O9 0.734660 0.793616 0.600090
O O10 0.495291 0.763655 0.818283
O O11 0.533290 0.762551 0.518328
O O12 0.551864 0.000000 0.653203
O O13 0.978909 0.200381 0.573364
O O14 0.896943 0.000000 0.431425
O O15 0.131991 0.239039 0.720603
O O16 0.151691 0.000000 0.572323
O O17 0.108698 0.500000 0.827974
O O18 0.241014 0.697555 0.909687
O O19 0.417847 0.500000 0.900146
O O20 0.577205 0.500000 0.417724
#
# Coordination Sequence:
#
# PCOD8052421 Si02
#       8
#     2   2   2   2   2   2   2   2
#     4   9  18  34  57  82 105 135 175 213 254 309
#     4  10  21  37  56  78 106 138 172 215 264 308
#     4  10  20  35  55  78 106 140 175 211 256 310
#     4   9  20  37  54  76 107 139 172 215 262 305
#     4  11  23  37  54  77 105 138 177 217 259 310
#     4  10  21  36  54  78 108 138 172 216 261 306
#     4  10  21  36  54  78 107 138 173 215 261 307
#     4   9  18  34  56  81 108 136 170 214 259 305
#
# _framework density 18.64143
#
# number of rings (size 3 to 8) (size 9 to 14) (size 15 to 20)
#    0.000    2.250    0.000    2.250    0.000    8.500 
#    0.000    1.250    0.000    0.000    0.000    0.000 
#    0.000    0.000    0.000    0.000    0.000    0.000 
#
# Total GULP energy -198466.816403 kJ/mol
# GULP energy per Si atom -12404.176025 kJ/mol
# Density = 1.859900 g / cm^3
# Si number density = 18.641430 Si / 1000 Ang^3
#
#
#
# Elastic Constant Matrix: (Units=GPa)
#
#
# Indices 1 2 3 4 5 6 
#
# 1 104.3474 56.0518 73.5969 0.0000 12.0728 0.0000
# 2 56.0518 87.1853 80.2588 0.0000 3.7630 0.0000
# 3 73.5969 80.2588 163.9779 0.0000 5.2768 0.0000
# 4 0.0000 0.0000 0.0000 3.5907 0.0000 -5.2377
# 5 12.0728 3.7630 5.2768 0.0000 31.5984 0.0000
# 6 0.0000 0.0000 0.0000 -5.2377 0.0000 27.0111
#
#
#
# Elastic Compliance Matrix: (Units=1/GPa)
#
#
# Indices 1 2 3 4 5 6 
#
# 1 0.016601 -0.006821 -0.003955 0.000000 -0.004870 0.000000
# 2 -0.006821 0.023698 -0.008576 0.000000 0.001216 0.000000
# 3 -0.003955 -0.008576 0.012055 0.000000 0.000520 0.000000
# 4 0.000000 0.000000 0.000000 0.388335 0.000000 0.075302
# 5 -0.004870 0.001216 0.000520 0.000000 0.033276 0.000000
# 6 0.000000 0.000000 0.000000 0.075302 0.000000 0.051624
#
#
# Mechanical properties :
#
#
# Convention : Reuss Voigt Hill
#
# Bulk Modulus (GPa) = 73.27666 86.14728 79.71197
# Shear Modulus (GPa) = 8.78977 22.14693 15.46835
#
# Velocity S-wave (km/s) = 2.17380 3.45055 2.88372
# Velocity P-wave (km/s) = 6.75976 7.88595 7.34447
#
# Compressibility (1/GPa) = 0.01364691
#
# Stress axis : x y z
#
# Youngs Moduli (GPa) = 60.23824 42.19773 82.95544
#
# Poissons Ratio (x) = 0.28785 0.32812
# Poissons Ratio (y) = 0.41091 0.71147
# Poissons Ratio (z) = 0.23826 0.36191
#
# Static dielectric constant tensor:
#      x y z
#    x 3.601960 0.000000 -0.074640 
#    y 0.000000 3.423320 0.000000 
#    z -0.074640 0.000000 3.417930 
# 
# 
# High freq. dielectric constant tensor:
#      x y z
#    x 1.733590 0.000000 -0.004010 
#    y 0.000000 1.721430 0.000000 
#    z -0.004010 0.000000 1.723370 
# 
# From -- ./inp_files/3472.got.cif
#   From: 2010.03.12/outbox.cif.g09.slc.cpg/sg6_2_cif.got.tgz:3472.got - 2010.03.30 10:24:59.
