data_PCOD8052593
_publ_section_title
;
Structure prediction by ZEFSAII (Michael W. Deem and Ramdas Pophale) SiO2 
 PCOD8052593
Probable space group: P C
;
_chemical_formula_sum "Si O2"
_cell_formula_units_Z 16
_cell_length_a 11.325089
_cell_length_b 15.294336
_cell_length_c 5.156181
_cell_angle_alpha 90.000000
_cell_angle_beta 120.134483
_cell_angle_gamma 90.000000
_cell_volume 772.397590
_symmetry_space_group_name_H-M "P C"
_symmetry_group_IT_number 7
_symmetry_cell_setting 'monoclinic'
loop_
_space_group_symop_operation_xyz
x,y,z
x,-y,1/2+z
loop_
_atom_site_type_symbol
_atom_site_label
_atom_site_fract_x
_atom_site_fract_y
_atom_site_fract_z
Si Si1 0.697950 0.441079 0.657990
Si Si2 0.441855 0.322292 0.398476
Si Si3 0.374787 0.032548 0.660761
Si Si4 0.073748 0.959792 0.200669
Si Si5 0.956970 0.670003 0.407615
Si Si6 0.371772 0.768313 0.316919
Si Si7 0.203133 0.446284 0.221226
Si Si8 0.062403 0.760485 0.017858
O O1 0.719305 0.509656 0.451724
O O2 0.547355 0.400597 0.473370
O O3 0.800493 0.359489 0.751768
O O4 0.466187 0.273910 0.698160
O O5 0.291072 0.362014 0.245786
O O6 0.446628 0.251561 0.171266
O O7 0.358132 0.129974 0.742812
O O8 0.453552 0.024525 0.470684
O O9 0.232122 0.987831 0.406335
O O10 0.003586 0.979065 0.400703
O O11 0.057021 0.861258 0.090876
O O12 0.045602 0.582332 0.543569
O O13 0.987297 0.742751 0.661533
O O14 0.985700 0.706926 0.154636
O O15 0.218732 0.728718 0.157136
O O16 0.236230 0.479241 0.546632
#
# Coordination Sequence:
#
# PCOD8052593 Si02
#       8
#     2   2   2   2   2   2   2   2
#     4  12  26  50  70  86 120 168 224 260 308 388
#     4  12  25  40  63  91 122 163 203 263 319 367
#     4  10  19  30  53  86 133 164 200 235 305 361
#     4  10  19  30  53  86 133 164 200 235 305 361
#     4  12  25  40  63  91 122 163 203 263 319 367
#     4  12  21  37  59  95 134 157 198 261 312 365
#     4  12  22  36  56  86 116 144 188 246 318 374
#     4  12  21  37  59  95 134 157 198 261 312 365
#
# _framework density 20.71472
#
# number of rings (size 3 to 8) (size 9 to 14) (size 15 to 20)
#    0.000    0.500    5.000    6.000    3.500    0.000 
#    0.000    0.000    0.000    0.000    0.000   17.500 
#    0.000    0.000    0.000    0.000    0.000    0.000 
#
# Total GULP energy -198342.650228 kJ/mol
# GULP energy per Si atom -12396.415639 kJ/mol
# Density = 2.066757 g / cm^3
# Si number density = 20.714720 Si / 1000 Ang^3
#
#
#
# Elastic Constant Matrix: (Units=GPa)
#
#
# Indices 1 2 3 4 5 6 
#
# 1 77.3293 30.7847 43.5270 0.0000 -26.2205 0.0000
# 2 30.7847 98.0553 29.7793 0.0000 -12.4246 0.0000
# 3 43.5270 29.7793 91.3900 0.0000 -34.3620 0.0000
# 4 0.0000 0.0000 0.0000 44.6340 0.0000 -11.6099
# 5 -26.2205 -12.4246 -34.3620 0.0000 42.5731 0.0000
# 6 0.0000 0.0000 0.0000 -11.6099 0.0000 22.8523
#
#
#
# Elastic Compliance Matrix: (Units=1/GPa)
#
#
# Indices 1 2 3 4 5 6 
#
# 1 0.019860 -0.003642 -0.005847 0.000000 0.006449 0.000000
# 2 -0.003642 0.011993 -0.002442 0.000000 -0.000714 0.000000
# 3 -0.005847 -0.002442 0.018521 0.000000 0.010635 0.000000
# 4 0.000000 0.000000 0.000000 0.025816 0.000000 0.013116
# 5 0.006449 -0.000714 0.010635 0.000000 0.035837 0.000000
# 6 0.000000 0.000000 0.000000 0.013116 0.000000 0.050422
#
#
# Mechanical properties :
#
#
# Convention : Reuss Voigt Hill
#
# Bulk Modulus (GPa) = 37.71834 52.77295 45.24565
# Shear Modulus (GPa) = 25.62162 32.85746 29.23954
#
# Velocity S-wave (km/s) = 3.52075 3.98702 3.76112
# Velocity P-wave (km/s) = 5.89708 6.83568 6.38365
#
# Compressibility (1/GPa) = 0.02651230
#
# Stress axis : x y z
#
# Youngs Moduli (GPa) = 50.35371 83.38326 53.99172
#
# Poissons Ratio (x) = 0.30368 0.31569
# Poissons Ratio (y) = 0.18339 0.13183
# Poissons Ratio (z) = 0.29442 0.20359
#
# Static dielectric constant tensor:
#      x y z
#    x 4.035510 0.000000 -0.818700 
#    y 0.000000 3.696780 0.000000 
#    z -0.818700 0.000000 4.200240 
# 
# 
# High freq. dielectric constant tensor:
#      x y z
#    x 1.791970 0.000000 -0.050740 
#    y 0.000000 1.816720 0.000000 
#    z -0.050740 0.000000 1.808100 
# 
# From -- ./inp_files/1152.got.cif
#   From: 2010.03.12/outbox.cif.g09.slc.cpg/sg7_cif.got.tgz:1152.got - 2010.03.30 08:40:41.
