data_PCOD8052968
_publ_section_title
;
Structure prediction by ZEFSAII (Michael W. Deem and Ramdas Pophale) SiO2 
 PCOD8052968
Probable space group: C M
;
_chemical_formula_sum "Si O2"
_cell_formula_units_Z 32
_cell_length_a 28.538484
_cell_length_b 8.725019
_cell_length_c 22.562846
_cell_angle_alpha 90.000000
_cell_angle_beta 161.492158
_cell_angle_gamma 90.000000
_cell_volume 1783.385438
_symmetry_space_group_name_H-M "C M"
_symmetry_group_IT_number 8
_symmetry_cell_setting 'monoclinic'
loop_
_space_group_symop_operation_xyz
x,y,z
x,-y,z
1/2+x,1/2+y,z
1/2+x,1/2-y,z
loop_
_atom_site_type_symbol
_atom_site_label
_atom_site_fract_x
_atom_site_fract_y
_atom_site_fract_z
Si Si1 0.927170 0.317309 0.171670
Si Si2 0.780978 0.680199 0.176356
Si Si3 0.669710 0.180375 0.162708
Si Si4 0.076454 0.318554 0.467720
Si Si5 0.023766 0.681842 0.160304
Si Si6 0.892079 0.181885 0.887407
Si Si7 0.633959 0.318209 0.879324
Si Si8 0.824717 0.180698 0.465963
O O1 0.931009 0.500000 0.175028
O O2 0.037882 0.256253 0.355581
O O3 0.976693 0.251520 0.167620
O O4 0.761950 0.258823 0.988547
O O5 0.769621 0.500000 0.176354
O O6 0.735205 0.775687 0.178393
O O7 0.947595 0.728797 0.359069
O O8 0.671029 0.728326 0.991257
O O9 0.784746 0.235149 0.351503
O O10 0.643469 0.000000 0.135670
O O11 0.512795 0.260987 0.985091
O O12 0.082939 0.500000 0.472489
O O13 0.233218 0.251953 0.676522
O O14 0.004906 0.500000 0.133511
O O15 0.193393 0.730596 0.352647
O O16 0.919467 0.755932 0.985970
O O17 0.893341 0.000000 0.889979
O O18 0.627964 0.500000 0.868343
O O19 0.478219 0.243616 0.672174
O O20 0.843698 0.000000 0.489927
#
# Coordination Sequence:
#
# PCOD8052968 Si02
#       8
#     4   4   4   4   4   4   4   4
#     4   8  14  26  45  68  92 117 149 191 232 270
#     4   9  17  31  51  73  96 121 153 195 238 279
#     4  10  20  33  48  69  98 126 156 195 234 277
#     4   8  16  30  48  72  97 122 157 196 230 272
#     4   9  17  29  46  68  94 120 150 193 236 272
#     4  10  19  32  50  69  94 128 161 192 229 277
#     4   8  14  26  46  70  91 114 151 193 228 270
#     4   8  15  27  42  63  90 118 149 187 227 267
#
# _framework density 17.943401999999999
#
# number of rings (size 3 to 8) (size 9 to 14) (size 15 to 20)
#    0.000    3.250    0.000    3.000    0.000    2.000 
#    0.000    6.250    0.000   11.250    0.000    0.000 
#    0.000    0.000    0.000    0.000    0.000    0.000 
#
# Total GULP energy -198315.016833 kJ/mol
# GULP energy per Si atom -12394.688552 kJ/mol
# Density = 1.790256 g / cm^3
# Si number density = 17.943402 Si / 1000 Ang^3
#
#
#
# Elastic Constant Matrix: (Units=GPa)
#
#
# Indices 1 2 3 4 5 6 
#
# 1 164.4938 19.6337 85.6766 0.0001 -0.9450 0.0000
# 2 19.6337 24.7230 21.9881 0.0001 -1.5271 0.0000
# 3 85.6766 21.9881 187.5004 0.0001 4.4026 0.0001
# 4 0.0001 0.0001 0.0001 16.6584 0.0000 -2.6878
# 5 -0.9450 -1.5271 4.4026 0.0000 13.8276 0.0000
# 6 0.0000 0.0000 0.0001 -2.6878 0.0000 24.4853
#
#
#
# Elastic Compliance Matrix: (Units=1/GPa)
#
#
# Indices 1 2 3 4 5 6 
#
# 1 0.008273 -0.003464 -0.003404 0.000000 0.001266 0.000000
# 2 -0.003464 0.047238 -0.004104 0.000000 0.006287 0.000000
# 3 -0.003404 -0.004104 0.007442 0.000000 -0.003055 0.000000
# 4 0.000000 0.000000 0.000000 0.061112 0.000000 0.006708
# 5 0.001266 0.006287 -0.003055 0.000000 0.074073 0.000000
# 6 0.000000 0.000000 0.000000 0.006708 0.000000 0.041577
#
#
# Mechanical properties :
#
#
# Convention : Reuss Voigt Hill
#
# Bulk Modulus (GPa) = 24.38559 70.14601 47.26580
# Shear Modulus (GPa) = 18.16014 27.62218 22.89116
#
# Velocity S-wave (km/s) = 3.18477 3.92778 3.57563
# Velocity P-wave (km/s) = 5.20994 7.72967 6.59133
#
# Compressibility (1/GPa) = 0.04100782
#
# Stress axis : x y z
#
# Youngs Moduli (GPa) = 120.87749 21.16944 134.37928
#
# Poissons Ratio (x) = 0.07334 0.45738
# Poissons Ratio (y) = 0.41878 0.55151
# Poissons Ratio (z) = 0.41143 0.08688
#
# Static dielectric constant tensor:
#      x y z
#    x 3.449420 0.000000 0.016470 
#    y 0.000000 2.822990 0.000000 
#    z 0.016470 0.000000 3.869000 
# 
# 
# High freq. dielectric constant tensor:
#      x y z
#    x 1.699670 0.000000 0.000390 
#    y 0.000000 1.646510 0.000000 
#    z 0.000390 0.000000 1.702300 
# 
# From -- ./inp_files/15838.got.cif
#   From: 2010.03.12/outbox.cif.g09.slc.cpg/sg8_8_cif.got.tgz:15838.got - 2010.03.31 10:45:26.
