data_PCOD8052468
_publ_section_title
;
Structure prediction by ZEFSAII (Michael W. Deem and Ramdas Pophale) SiO2 
 PCOD8052468
Probable space group: P M
;
_chemical_formula_sum "Si O2"
_cell_formula_units_Z 16
_cell_length_a 9.190255
_cell_length_b 8.475011
_cell_length_c 11.125193
_cell_angle_alpha 90.000000
_cell_angle_beta 113.931733
_cell_angle_gamma 90.000000
_cell_volume 792.018936
_symmetry_space_group_name_H-M "P M"
_symmetry_group_IT_number 6
_symmetry_cell_setting 'monoclinic'
loop_
_space_group_symop_operation_xyz
x,y,z
x,-y,z
loop_
_atom_site_type_symbol
_atom_site_label
_atom_site_fract_x
_atom_site_fract_y
_atom_site_fract_z
Si Si1 0.971340 0.814454 0.599220
Si Si2 0.189338 0.682622 0.070176
Si Si3 0.281405 0.683648 0.590511
Si Si4 0.661173 0.185014 0.366354
Si Si5 0.329272 0.815410 0.351014
Si Si6 0.503151 0.816248 0.072229
Si Si7 0.579200 0.317252 0.846656
Si Si8 0.890429 0.181439 0.845106
O O1 0.826369 0.743461 0.470384
O O2 0.934244 0.776238 0.724119
O O3 0.127658 0.717783 0.618549
O O4 0.000592 0.000000 0.587427
O O5 0.146732 0.500000 0.041685
O O6 0.221256 0.722370 0.219797
O O7 0.340094 0.721459 0.036472
O O8 0.040015 0.785621 0.979686
O O9 0.294752 0.500000 0.564180
O O10 0.267819 0.780767 0.463149
O O11 0.435188 0.742978 0.715106
O O12 0.511979 0.243000 0.397183
O O13 0.631165 0.233071 0.217586
O O14 0.677556 0.000000 0.387782
O O15 0.314877 0.000000 0.316955
O O16 0.461778 0.000000 0.070759
O O17 0.580112 0.780126 0.970300
O O18 0.558137 0.500000 0.871177
O O19 0.743391 0.289840 0.833358
O O20 0.839196 0.000000 0.840962
#
# Coordination Sequence:
#
# PCOD8052468 Si02
#       8
#     2   2   2   2   2   2   2   2
#     4  10  21  38  60  84 112 149 194 241 289 344
#     4  11  22  38  60  87 121 155 190 237 296 354
#     4  11  24  39  56  83 118 154 192 237 294 352
#     4   8  17  35  59  86 112 142 184 236 287 334
#     4  10  20  38  63  87 114 150 194 240 287 344
#     4  10  20  37  61  87 117 154 198 242 287 345
#     4  11  24  40  58  83 118 157 196 243 299 351
#     4  11  23  39  61  87 114 151 200 246 291 348
#
# _framework density 20.201537999999999
#
# number of rings (size 3 to 8) (size 9 to 14) (size 15 to 20)
#    0.000    1.750    0.000    5.250    0.000    7.000 
#    0.000    7.500    0.000    0.000    0.000    0.000 
#    0.000    0.000    0.000    0.000    0.000    0.000 
#
# Total GULP energy -198476.579800 kJ/mol
# GULP energy per Si atom -12404.786237 kJ/mol
# Density = 2.015556 g / cm^3
# Si number density = 20.201538 Si / 1000 Ang^3
#
#
#
# Elastic Constant Matrix: (Units=GPa)
#
#
# Indices 1 2 3 4 5 6 
#
# 1 104.4374 11.9669 68.2078 0.0000 3.1642 0.0000
# 2 11.9669 45.2880 18.7842 0.0000 -5.3726 0.0000
# 3 68.2078 18.7842 123.5352 0.0000 7.7523 0.0000
# 4 0.0000 0.0000 0.0000 26.2185 0.0000 -1.3521
# 5 3.1642 -5.3726 7.7523 0.0000 42.4041 0.0000
# 6 0.0000 0.0000 0.0000 -1.3521 0.0000 30.6589
#
#
#
# Elastic Compliance Matrix: (Units=1/GPa)
#
#
# Indices 1 2 3 4 5 6 
#
# 1 0.014993 -0.000515 -0.008220 0.000000 0.000319 0.000000
# 2 -0.000515 0.024168 -0.003627 0.000000 0.003764 0.000000
# 3 -0.008220 -0.003627 0.013328 0.000000 -0.002283 0.000000
# 4 0.000000 0.000000 0.000000 0.038228 0.000000 0.001686
# 5 0.000319 0.003764 -0.002283 0.000000 0.024453 0.000000
# 6 0.000000 0.000000 0.000000 0.001686 0.000000 0.032691
#
#
# Mechanical properties :
#
#
# Convention : Reuss Voigt Hill
#
# Bulk Modulus (GPa) = 36.01524 52.35316 44.18420
# Shear Modulus (GPa) = 27.49694 31.47640 29.48667
#
# Velocity S-wave (km/s) = 3.69335 3.95158 3.82465
# Velocity P-wave (km/s) = 6.00454 6.84045 6.43608
#
# Compressibility (1/GPa) = 0.02776602
#
# Stress axis : x y z
#
# Youngs Moduli (GPa) = 66.69912 41.37756 75.03007
#
# Poissons Ratio (x) = 0.02129 0.61673
# Poissons Ratio (y) = 0.03432 0.27213
# Poissons Ratio (z) = 0.54825 0.15007
#
# Static dielectric constant tensor:
#      x y z
#    x 3.578500 0.000000 0.113370 
#    y 0.000000 3.485110 0.000000 
#    z 0.113370 0.000000 3.831480 
# 
# 
# High freq. dielectric constant tensor:
#      x y z
#    x 1.787930 0.000000 0.001050 
#    y 0.000000 1.780460 0.000000 
#    z 0.001050 0.000000 1.802860 
# 
# From -- ./inp_files/3740.got.cif
#   From: 2010.03.12/outbox.cif.g09.slc.cpg/sg6_2_cif.got.tgz:3740.got - 2010.03.30 10:24:59.
