data_PCOD8052777
_publ_section_title
;
Structure prediction by ZEFSAII (Michael W. Deem and Ramdas Pophale) SiO2 
 PCOD8052777
Probable space group: C M
;
_chemical_formula_sum "Si O2"
_cell_formula_units_Z 32
_cell_length_a 28.509669
_cell_length_b 8.927106
_cell_length_c 23.120814
_cell_angle_alpha 90.000000
_cell_angle_beta 163.142764
_cell_angle_gamma 90.000000
_cell_volume 1706.420160
_symmetry_space_group_name_H-M "C M"
_symmetry_group_IT_number 8
_symmetry_cell_setting 'monoclinic'
loop_
_space_group_symop_operation_xyz
x,y,z
x,-y,z
1/2+x,1/2+y,z
1/2+x,1/2-y,z
loop_
_atom_site_type_symbol
_atom_site_label
_atom_site_fract_x
_atom_site_fract_y
_atom_site_fract_z
Si Si1 0.667190 0.825323 0.661520
Si Si2 0.242329 0.827665 0.523206
Si Si3 0.562378 0.177123 0.957420
Si Si4 0.596950 0.329426 0.237233
Si Si5 0.870142 0.175845 0.250637
Si Si6 0.890844 0.824341 0.143381
Si Si7 0.016380 0.169705 0.020324
Si Si8 0.283515 0.824655 0.907652
O O1 0.530231 0.760223 0.458850
O O2 0.837058 0.790327 0.830758
O O3 0.639349 0.000000 0.637465
O O4 0.657878 0.748664 0.713931
O O5 0.400115 0.749760 0.737546
O O6 0.247587 0.808060 0.459052
O O7 0.074399 0.761986 0.350414
O O8 0.250248 0.000000 0.550537
O O9 0.572977 0.220497 0.036884
O O10 0.559972 0.000000 0.948490
O O11 0.718527 0.238979 0.108004
O O12 0.526519 0.500000 0.161285
O O13 0.462929 0.210024 0.097030
O O14 0.640766 0.306153 0.221334
O O15 0.834920 0.212400 0.142100
O O16 0.897959 0.000000 0.292953
O O17 0.767157 0.743338 0.953095
O O18 0.885932 0.000000 0.123889
O O19 0.024187 0.000000 0.006397
O O20 0.250175 0.000000 0.870669
#
# Coordination Sequence:
#
# PCOD8052777 Si02
#       8
#     4   4   4   4   4   4   4   4
#     4  10  20  35  55  77 102 134 174 216 258 305
#     4   8  14  28  51  72  92 125 165 204 245 291
#     4  10  20  33  50  74 104 136 169 207 251 300
#     4   8  15  30  50  72  99 130 168 210 251 298
#     4  10  21  35  51  74 105 140 177 214 253 302
#     4   9  17  32  52  73 101 136 172 208 251 304
#     4   9  18  32  51  75 100 128 165 210 255 301
#     4  10  18  29  50  79 105 127 162 213 264 309
#
# _framework density 18.75271
#
# number of rings (size 3 to 8) (size 9 to 14) (size 15 to 20)
#    0.000    2.750    0.000    3.750    0.000    4.500 
#    0.000    5.000    0.000    3.000    0.000    0.000 
#    0.000    0.000    0.000    0.000    0.000    0.000 
#
# Total GULP energy -198298.918229 kJ/mol
# GULP energy per Si atom -12393.682389 kJ/mol
# Density = 1.871003 g / cm^3
# Si number density = 18.752710 Si / 1000 Ang^3
#
#
#
# Elastic Constant Matrix: (Units=GPa)
#
#
# Indices 1 2 3 4 5 6 
#
# 1 127.7432 35.6043 49.4294 0.0022 -22.9841 0.0014
# 2 35.6043 60.6384 19.8164 0.0034 -9.5357 0.0030
# 3 49.4294 19.8164 34.3273 0.0027 -13.8279 0.0026
# 4 0.0022 0.0034 0.0027 20.9976 0.0012 -8.0106
# 5 -22.9841 -9.5357 -13.8279 0.0012 28.2662 0.0009
# 6 0.0014 0.0030 0.0026 -8.0106 0.0009 27.9850
#
#
#
# Elastic Compliance Matrix: (Units=1/GPa)
#
#
# Indices 1 2 3 4 5 6 
#
# 1 0.018118 -0.002532 -0.023710 0.000002 0.002280 0.000002
# 2 -0.002532 0.020723 -0.007885 -0.000003 0.001075 -0.000002
# 3 -0.023710 -0.007885 0.073463 -0.000010 0.013999 -0.000008
# 4 0.000002 -0.000003 -0.000010 0.053463 -0.000007 0.015303
# 5 0.002280 0.001075 0.013999 -0.000007 0.044443 -0.000005
# 6 0.000002 -0.000002 -0.000008 0.015303 -0.000005 0.040114
#
#
# Mechanical properties :
#
#
# Convention : Reuss Voigt Hill
#
# Bulk Modulus (GPa) = 22.69994 48.04545 35.37269
# Shear Modulus (GPa) = 15.00329 23.30702 19.15516
#
# Velocity S-wave (km/s) = 2.83160 3.52925 3.19950
# Velocity P-wave (km/s) = 4.77722 6.50259 5.70550
#
# Compressibility (1/GPa) = 0.04405298
#
# Stress axis : x y z
#
# Youngs Moduli (GPa) = 55.19297 48.25460 13.61231
#
# Poissons Ratio (x) = 0.12216 0.32274
# Poissons Ratio (y) = 0.13973 0.10733
# Poissons Ratio (z) = 1.30860 0.38047
#
# Static dielectric constant tensor:
#      x y z
#    x 3.480210 0.000000 -0.325550 
#    y 0.000000 3.169140 0.000000 
#    z -0.325550 0.000000 3.523590 
# 
# 
# High freq. dielectric constant tensor:
#      x y z
#    x 1.722390 0.000000 -0.035030 
#    y 0.000000 1.704440 0.000000 
#    z -0.035030 0.000000 1.713770 
# 
# From -- ./inp_files/16799.got.cif
#   From: 2010.03.12/outbox.cif.g09.slc.cpg/sg8_9_cif.got.tgz:16799.got - 2010.03.31 10:45:26.
