data_PCOD8052250
_publ_section_title
;
Structure prediction by ZEFSAII (Michael W. Deem and Ramdas Pophale) SiO2 
 PCOD8052250
Probable space group: P M
;
_chemical_formula_sum "Si O2"
_cell_formula_units_Z 16
_cell_length_a 9.532471
_cell_length_b 8.989408
_cell_length_c 11.643271
_cell_angle_alpha 90.000000
_cell_angle_beta 110.006811
_cell_angle_gamma 90.000000
_cell_volume 937.515838
_symmetry_space_group_name_H-M "P M"
_symmetry_group_IT_number 6
_symmetry_cell_setting 'monoclinic'
loop_
_space_group_symop_operation_xyz
x,y,z
x,-y,z
loop_
_atom_site_type_symbol
_atom_site_label
_atom_site_fract_x
_atom_site_fract_y
_atom_site_fract_z
Si Si1 0.730660 0.330083 0.480770
Si Si2 0.413190 0.326037 0.282408
Si Si3 0.364076 0.824901 0.027276
Si Si4 0.184320 0.335120 0.801280
Si Si5 0.561165 0.327147 0.653355
Si Si6 0.027663 0.173561 0.555619
Si Si7 0.514399 0.337197 0.884599
Si Si8 0.291787 0.825840 0.462781
O O1 0.779361 0.500000 0.474575
O O2 0.582159 0.292326 0.367791
O O3 0.700123 0.298379 0.607400
O O4 0.862026 0.223935 0.472923
O O5 0.384796 0.500000 0.256630
O O6 0.381194 0.240427 0.157270
O O7 0.299037 0.265731 0.346356
O O8 0.352952 0.000000 0.030265
O O9 0.212533 0.758445 0.927224
O O10 0.510363 0.778123 0.990354
O O11 0.122160 0.500000 0.813860
O O12 0.345909 0.348553 0.785137
O O13 0.069013 0.255211 0.685386
O O14 0.510742 0.500000 0.626410
O O15 0.611749 0.290606 0.799706
O O16 0.426776 0.218351 0.583531
O O17 0.137122 0.215491 0.482078
O O18 0.032635 0.000000 0.582638
O O19 0.565458 0.500000 0.945263
O O20 0.302003 0.000000 0.438003
#
# Coordination Sequence:
#
# PCOD8052250 Si02
#       8
#     2   2   2   2   2   2   2   2
#     4   9  20  33  49  71 100 133 164 200 244 294
#     4  10  20  35  52  72  96 129 170 206 241 288
#     4  10  18  29  48  75 102 126 159 203 248 289
#     4   9  17  29  49  73  97 127 161 199 239 284
#     4   9  16  30  49  72  97 126 164 204 242 285
#     4  11  21  32  48  74 105 133 162 199 249 298
#     4   8  15  27  47  72  96 124 157 197 239 281
#     4  10  19  29  46  71  97 126 161 204 248 289
#
# _framework density 17.066378
#
# number of rings (size 3 to 8) (size 9 to 14) (size 15 to 20)
#    0.750    1.750    1.250    3.000    0.000    4.500 
#    0.000    0.000    0.000    1.500    0.000    5.250 
#    0.000    0.000    0.000    0.000    0.000    0.000 
#
# Total GULP energy -198251.290710 kJ/mol
# GULP energy per Si atom -12390.705669 kJ/mol
# Density = 1.702753 g / cm^3
# Si number density = 17.066378 Si / 1000 Ang^3
#
#
#
# Elastic Constant Matrix: (Units=GPa)
#
#
# Indices 1 2 3 4 5 6 
#
# 1 71.3231 41.9501 32.5405 0.0000 -9.4819 0.0000
# 2 41.9501 118.5762 65.3641 0.0000 -7.4428 0.0000
# 3 32.5405 65.3641 118.9446 0.0000 -13.0063 0.0000
# 4 0.0000 0.0000 0.0000 30.1607 0.0000 -2.0673
# 5 -9.4819 -7.4428 -13.0063 0.0000 16.6016 0.0000
# 6 0.0000 0.0000 0.0000 -2.0673 0.0000 20.4374
#
#
#
# Elastic Compliance Matrix: (Units=1/GPa)
#
#
# Indices 1 2 3 4 5 6 
#
# 1 0.018809 -0.005451 -0.001359 0.000000 0.007234 0.000000
# 2 -0.005451 0.013679 -0.006229 0.000000 -0.001861 0.000000
# 3 -0.001359 -0.006229 0.012919 0.000000 0.006552 0.000000
# 4 0.000000 0.000000 0.000000 0.033387 0.000000 0.003377
# 5 0.007234 -0.001861 0.006552 0.000000 0.068665 0.000000
# 6 0.000000 0.000000 0.000000 0.003377 0.000000 0.049272
#
#
# Mechanical properties :
#
#
# Convention : Reuss Voigt Hill
#
# Bulk Modulus (GPa) = 51.73945 65.39480 58.56713
# Shear Modulus (GPa) = 21.81012 24.70588 23.25800
#
# Velocity S-wave (km/s) = 3.57873 3.80891 3.69561
# Velocity P-wave (km/s) = 6.88904 7.59900 7.25271
#
# Compressibility (1/GPa) = 0.01932761
#
# Stress axis : x y z
#
# Youngs Moduli (GPa) = 53.16744 73.10575 77.40694
#
# Poissons Ratio (x) = 0.39849 0.10521
# Poissons Ratio (y) = 0.28981 0.48219
# Poissons Ratio (z) = 0.07226 0.45539
#
# Static dielectric constant tensor:
#      x y z
#    x 2.900470 0.000000 -0.203430 
#    y 0.000000 3.220100 0.000000 
#    z -0.203430 0.000000 3.098430 
# 
# 
# High freq. dielectric constant tensor:
#      x y z
#    x 1.618440 0.000000 -0.019090 
#    y 0.000000 1.667510 0.000000 
#    z -0.019090 0.000000 1.649680 
# 
# From -- ./inp_files/4571.got.cif
#   From: 2010.03.12/outbox.cif.g09.slc.cpg/sg6_3_cif.got.tgz:4571.got - 2010.03.30 10:24:59.
