data_PCOD8052963
_publ_section_title
;
Structure prediction by ZEFSAII (Michael W. Deem and Ramdas Pophale) SiO2 
 PCOD8052963
Probable space group: C M
;
_chemical_formula_sum "Si O2"
_cell_formula_units_Z 32
_cell_length_a 20.394921
_cell_length_b 8.904360
_cell_length_c 12.116040
_cell_angle_alpha 90.000000
_cell_angle_beta 128.289021
_cell_angle_gamma 90.000000
_cell_volume 1727.018794
_symmetry_space_group_name_H-M "C M"
_symmetry_group_IT_number 8
_symmetry_cell_setting 'monoclinic'
loop_
_space_group_symop_operation_xyz
x,y,z
x,-y,z
1/2+x,1/2+y,z
1/2+x,1/2-y,z
loop_
_atom_site_type_symbol
_atom_site_label
_atom_site_fract_x
_atom_site_fract_y
_atom_site_fract_z
Si Si1 0.836150 0.172094 0.340720
Si Si2 0.229351 0.823948 0.897883
Si Si3 0.907296 0.823059 0.047322
Si Si4 0.464323 0.824699 0.315648
Si Si5 0.931434 0.673181 0.618983
Si Si6 0.482402 0.825839 0.916024
Si Si7 0.587454 0.827112 0.632776
Si Si8 0.167872 0.672028 0.050804
O O1 0.883970 0.268549 0.299035
O O2 0.858010 0.229164 0.486554
O O3 0.737283 0.190998 0.218377
O O4 0.864173 0.000000 0.357217
O O5 0.168366 0.776363 0.734084
O O6 0.245381 0.000000 0.910262
O O7 0.316248 0.740778 0.975142
O O8 0.186886 0.778922 0.968330
O O9 0.970996 0.759412 0.205844
O O10 0.903718 0.000000 0.053512
O O11 0.938798 0.777457 0.960225
O O12 0.548809 0.792640 0.472173
O O13 0.451681 0.000000 0.280974
O O14 0.910495 0.500000 0.574401
O O15 0.936142 0.709891 0.752825
O O16 0.019921 0.713658 0.656093
O O17 0.471696 0.000000 0.936820
O O18 0.579639 0.781683 0.011121
O O19 0.614662 0.000000 0.671038
O O20 0.163968 0.500000 0.003283
#
# Coordination Sequence:
#
# PCOD8052963 Si02
#       8
#     4   4   4   4   4   4   4   4
#     4  10  19  31  55  87 117 149 186 235 283 334
#     4  12  23  35  58  88 116 150 195 240 283 341
#     4  12  25  40  58  83 118 155 194 242 293 344
#     4  10  20  36  58  84 114 152 192 234 288 345
#     4   9  18  34  57  82 114 153 187 230 285 340
#     4  10  21  40  61  81 112 156 198 234 286 347
#     4   9  18  35  58  85 116 148 186 236 290 337
#     4  10  20  37  59  84 115 151 190 237 286 334
#
# _framework density 18.529039999999998
#
# number of rings (size 3 to 8) (size 9 to 14) (size 15 to 20)
#    0.000    1.750    2.500    3.750    0.000    4.000 
#    0.000    1.250    0.000    4.500    0.000    0.000 
#    0.000    0.000    0.000    0.000    0.000    0.000 
#
# Total GULP energy -198450.336219 kJ/mol
# GULP energy per Si atom -12403.146014 kJ/mol
# Density = 1.848687 g / cm^3
# Si number density = 18.529040 Si / 1000 Ang^3
#
#
#
# Elastic Constant Matrix: (Units=GPa)
#
#
# Indices 1 2 3 4 5 6 
#
# 1 52.2575 35.8084 37.5497 0.0000 -11.3171 0.0000
# 2 35.8084 119.0443 59.4308 0.0000 -5.6363 0.0000
# 3 37.5497 59.4308 122.8032 0.0000 -4.6410 0.0000
# 4 0.0000 0.0000 0.0000 34.5764 0.0000 -1.3390
# 5 -11.3171 -5.6363 -4.6410 0.0000 23.9053 0.0000
# 6 0.0000 0.0000 0.0000 -1.3390 0.0000 28.4610
#
#
#
# Elastic Compliance Matrix: (Units=1/GPa)
#
#
# Indices 1 2 3 4 5 6 
#
# 1 0.029659 -0.005358 -0.006037 0.000000 0.011606 0.000000
# 2 -0.005358 0.012104 -0.004239 0.000000 -0.000506 0.000000
# 3 -0.006037 -0.004239 0.011983 0.000000 -0.001531 0.000000
# 4 0.000000 0.000000 0.000000 0.028974 0.000000 0.001363
# 5 0.011606 -0.000506 -0.001531 0.000000 0.046909 0.000000
# 6 0.000000 0.000000 0.000000 0.001363 0.000000 0.035200
#
#
# Mechanical properties :
#
#
# Convention : Reuss Voigt Hill
#
# Bulk Modulus (GPa) = 44.48811 62.18698 53.33754
# Shear Modulus (GPa) = 24.55930 28.14295 26.35112
#
# Velocity S-wave (km/s) = 3.64462 3.90148 3.77523
# Velocity P-wave (km/s) = 6.46321 7.34371 6.91749
#
# Compressibility (1/GPa) = 0.02247791
#
# Stress axis : x y z
#
# Youngs Moduli (GPa) = 33.71684 82.61761 83.45489
#
# Poissons Ratio (x) = 0.44265 0.50384
# Poissons Ratio (y) = 0.18065 0.35373
# Poissons Ratio (z) = 0.20356 0.35018
#
# Static dielectric constant tensor:
#      x y z
#    x 3.126340 0.000000 0.047020 
#    y 0.000000 3.425250 0.000000 
#    z 0.047020 0.000000 3.738190 
# 
# 
# High freq. dielectric constant tensor:
#      x y z
#    x 1.684360 0.000000 0.004670 
#    y 0.000000 1.721590 0.000000 
#    z 0.004670 0.000000 1.737980 
# 
# From -- ./inp_files/23749.got.cif
#   From: 2010.03.12/outbox.cif.g09.slc.cpg/sg8_12_cif.got.tgz:23749.got - 2010.03.31 10:45:26.
