data_PCOD8052971
_publ_section_title
;
Structure prediction by ZEFSAII (Michael W. Deem and Ramdas Pophale) SiO2 
 PCOD8052971
Probable space group: C M
;
_chemical_formula_sum "Si O2"
_cell_formula_units_Z 32
_cell_length_a 18.802484
_cell_length_b 9.062366
_cell_length_c 25.771215
_cell_angle_alpha 90.000000
_cell_angle_beta 23.793666
_cell_angle_gamma 90.000000
_cell_volume 1771.638616
_symmetry_space_group_name_H-M "C M"
_symmetry_group_IT_number 8
_symmetry_cell_setting 'monoclinic'
loop_
_space_group_symop_operation_xyz
x,y,z
x,-y,z
1/2+x,1/2+y,z
1/2+x,1/2-y,z
loop_
_atom_site_type_symbol
_atom_site_label
_atom_site_fract_x
_atom_site_fract_y
_atom_site_fract_z
Si Si1 0.432310 0.172505 0.936690
Si Si2 0.580542 0.168557 0.144817
Si Si3 0.915251 0.667723 0.661936
Si Si4 0.274386 0.663065 0.390051
Si Si5 0.584454 0.834207 0.406309
Si Si6 0.401599 0.830355 0.153546
Si Si7 0.073067 0.830217 0.944446
Si Si8 0.785497 0.169187 0.651567
O O1 0.478053 0.263171 0.957650
O O2 0.575277 0.199282 0.795030
O O3 0.422102 0.000000 0.957820
O O4 0.248551 0.227745 0.036840
O O5 0.432613 0.219348 0.285554
O O6 0.503331 0.190424 0.139360
O O7 0.630674 0.000000 0.123134
O O8 0.893519 0.500000 0.653463
O O9 0.786964 0.683827 0.797248
O O10 0.856727 0.791559 0.660741
O O11 0.124713 0.693468 0.534528
O O12 0.357412 0.500000 0.341354
O O13 0.166900 0.672851 0.408267
O O14 0.387061 0.764749 0.540007
O O15 0.708697 0.743753 0.284124
O O16 0.569576 0.000000 0.395106
O O17 0.374001 0.000000 0.157779
O O18 0.519508 0.755238 0.031380
O O19 0.014745 0.000000 0.988106
O O20 0.828721 0.000000 0.610743
#
# Coordination Sequence:
#
# PCOD8052971 Si02
#       8
#     4   4   4   4   4   4   4   4
#     4  10  20  33  50  72  99 130 162 199 243 289
#     4  10  20  32  48  71  98 128 162 201 242 286
#     4   8  15  27  44  67  93 122 156 195 237 283
#     4   8  14  26  44  66  92 120 154 195 238 283
#     4   9  16  27  45  68  93 123 158 197 240 283
#     4  10  20  33  49  72 101 130 162 200 242 286
#     4  10  19  32  51  74 100 129 162 198 239 289
#     4   9  16  26  43  68  94 120 154 197 241 283
#
# _framework density 18.062373999999998
#
# number of rings (size 3 to 8) (size 9 to 14) (size 15 to 20)
#    0.000    2.750    0.000    3.000    0.000    6.500 
#    0.000    0.000    0.000    1.500    0.000    5.250 
#    0.000    0.000    0.000    0.000    0.000    0.000 
#
# Total GULP energy -198277.113435 kJ/mol
# GULP energy per Si atom -12392.319590 kJ/mol
# Density = 1.802126 g / cm^3
# Si number density = 18.062374 Si / 1000 Ang^3
#
#
#
# Elastic Constant Matrix: (Units=GPa)
#
#
# Indices 1 2 3 4 5 6 
#
# 1 18.2200 26.2515 28.3521 -0.0089 0.1740 0.0037
# 2 26.2515 128.8520 80.1845 -0.0200 -0.6247 -0.0073
# 3 28.3521 80.1845 166.4024 -0.0676 -0.2971 -0.0351
# 4 -0.0089 -0.0200 -0.0676 36.6402 -0.0124 1.2335
# 5 0.1740 -0.6247 -0.2971 -0.0124 21.9830 -0.0049
# 6 0.0037 -0.0073 -0.0351 1.2335 -0.0049 21.0580
#
#
#
# Elastic Compliance Matrix: (Units=1/GPa)
#
#
# Indices 1 2 3 4 5 6 
#
# 1 0.085995 -0.012007 -0.008868 -0.000001 -0.001142 -0.000034
# 2 -0.012007 0.012763 -0.004103 -0.000003 0.000402 0.000000
# 3 -0.008868 -0.004103 0.009498 0.000013 0.000082 0.000015
# 4 -0.000001 -0.000003 0.000013 0.027346 0.000015 -0.001602
# 5 -0.001142 0.000402 0.000082 0.000015 0.045511 0.000010
# 6 -0.000034 0.000000 0.000015 -0.001602 0.000010 0.047582
#
#
# Mechanical properties :
#
#
# Convention : Reuss Voigt Hill
#
# Bulk Modulus (GPa) = 17.15309 64.78341 40.96825
# Shear Modulus (GPa) = 16.77368 27.84864 22.31116
#
# Velocity S-wave (km/s) = 3.05069 3.93084 3.51839
# Velocity P-wave (km/s) = 4.68253 7.51973 6.26388
#
# Compressibility (1/GPa) = 0.05829853
#
# Stress axis : x y z
#
# Youngs Moduli (GPa) = 11.62852 78.35426 105.28498
#
# Poissons Ratio (x) = 0.94079 0.93371
# Poissons Ratio (y) = 0.13962 0.43203
# Poissons Ratio (z) = 0.10313 0.32152
#
# Static dielectric constant tensor:
#      x y z
#    x 2.666590 -0.000020 -0.034640 
#    y -0.000020 3.500360 0.000020 
#    z -0.034640 0.000020 3.873310 
# 
# 
# High freq. dielectric constant tensor:
#      x y z
#    x 1.619810 0.000000 -0.003110 
#    y 0.000000 1.715640 0.000000 
#    z -0.003110 0.000000 1.727320 
# 
# From -- ./inp_files/22952.got.cif
#   From: 2010.03.12/outbox.cif.g09.slc.cpg/sg8_12_cif.got.tgz:22952.got - 2010.03.31 10:45:26.
