data_PCOD8052638
_publ_section_title
;
Structure prediction by ZEFSAII (Michael W. Deem and Ramdas Pophale) SiO2 
 PCOD8052638
Probable space group: P C
;
_chemical_formula_sum "Si O2"
_cell_formula_units_Z 16
_cell_length_a 18.413450
_cell_length_b 7.754447
_cell_length_c 5.217378
_cell_angle_alpha 90.000000
_cell_angle_beta 96.067930
_cell_angle_gamma 90.000000
_cell_volume 740.795309
_symmetry_space_group_name_H-M "P C"
_symmetry_group_IT_number 7
_symmetry_cell_setting 'monoclinic'
loop_
_space_group_symop_operation_xyz
x,y,z
x,-y,1/2+z
loop_
_atom_site_type_symbol
_atom_site_label
_atom_site_fract_x
_atom_site_fract_y
_atom_site_fract_z
Si Si1 0.954430 0.605586 0.186710
Si Si2 0.505079 0.113110 0.853559
Si Si3 0.374883 0.617529 0.330568
Si Si4 0.754776 0.431124 0.490729
Si Si5 0.243737 0.883290 0.274216
Si Si6 0.122834 0.389613 0.729103
Si Si7 0.591662 0.577748 0.409517
Si Si8 0.834808 0.110666 0.553656
O O1 0.937753 0.538235 0.465920
O O2 0.038304 0.663741 0.196557
O O3 0.905677 0.771724 0.112070
O O4 0.445230 0.260568 0.856998
O O5 0.583269 0.214112 0.903913
O O6 0.497972 0.024691 0.575742
O O7 0.374626 0.504395 0.585139
O O8 0.303969 0.735563 0.300093
O O9 0.796688 0.525641 0.740601
O O10 0.674734 0.511721 0.421841
O O11 0.760256 0.226377 0.541410
O O12 0.165322 0.791102 0.248522
O O13 0.253105 0.003940 0.523586
O O14 0.144025 0.497181 0.484220
O O15 0.551727 0.499311 0.643532
O O16 0.834349 0.969896 0.772866
#
# Coordination Sequence:
#
# PCOD8052638 Si02
#       8
#     2   2   2   2   2   2   2   2
#     4  10  21  39  63  86 117 163 205 244 295 363
#     4  12  24  41  64  95 125 150 195 256 306 347
#     4  12  24  42  66  89 120 166 208 242 292 363
#     4  10  21  41  63  82 115 158 197 235 289 365
#     4  12  24  39  60  91 128 161 199 255 308 343
#     4  10  21  39  61  87 119 162 210 245 291 363
#     4  10  21  41  63  86 116 159 197 231 289 365
#     4  12  24  38  60  92 122 151 197 256 306 347
#
# _framework density 21.598407999999999
#
# number of rings (size 3 to 8) (size 9 to 14) (size 15 to 20)
#    0.000    1.000    0.000    7.500    0.000    1.000 
#    0.000   15.000    0.000    0.000    0.000    0.000 
#    0.000    0.000    0.000    0.000    0.000    0.000 
#
# Total GULP energy -198349.525150 kJ/mol
# GULP energy per Si atom -12396.845322 kJ/mol
# Density = 2.154925 g / cm^3
# Si number density = 21.598408 Si / 1000 Ang^3
#
#
#
# Elastic Constant Matrix: (Units=GPa)
#
#
# Indices 1 2 3 4 5 6 
#
# 1 86.1413 57.0445 29.4730 0.0000 15.7237 0.0000
# 2 57.0445 122.0083 43.5732 0.0000 10.9299 0.0000
# 3 29.4730 43.5732 165.4598 0.0000 -12.0995 0.0000
# 4 0.0000 0.0000 0.0000 58.7767 0.0000 2.6395
# 5 15.7237 10.9299 -12.0995 0.0000 15.9049 0.0000
# 6 0.0000 0.0000 0.0000 2.6395 0.0000 44.7172
#
#
#
# Elastic Compliance Matrix: (Units=1/GPa)
#
#
# Indices 1 2 3 4 5 6 
#
# 1 0.020507 -0.006848 -0.003164 0.000000 -0.017975 0.000000
# 2 -0.006848 0.012568 -0.002358 0.000000 -0.003660 0.000000
# 3 -0.003164 -0.002358 0.008022 0.000000 0.010850 0.000000
# 4 0.000000 0.000000 0.000000 0.017059 0.000000 -0.001007
# 5 -0.017975 -0.003660 0.010850 0.000000 0.091413 0.000000
# 6 0.000000 0.000000 0.000000 -0.001007 0.000000 0.022422
#
#
# Mechanical properties :
#
#
# Convention : Reuss Voigt Hill
#
# Bulk Modulus (GPa) = 61.13284 70.42122 65.77703
# Shear Modulus (GPa) = 24.73023 40.11435 32.42229
#
# Velocity S-wave (km/s) = 3.38746 4.31430 3.87866
# Velocity P-wave (km/s) = 6.60800 7.58242 7.11192
#
# Compressibility (1/GPa) = 0.01635782
#
# Stress axis : x y z
#
# Youngs Moduli (GPa) = 48.76358 79.56920 124.66265
#
# Poissons Ratio (x) = 0.54488 0.39443
# Poissons Ratio (y) = 0.33392 0.29389
# Poissons Ratio (z) = 0.15429 0.18759
#
# Static dielectric constant tensor:
#      x y z
#    x 4.171500 0.000000 -0.306840 
#    y 0.000000 3.990080 0.000000 
#    z -0.306840 0.000000 5.856510 
# 
# 
# High freq. dielectric constant tensor:
#      x y z
#    x 1.851070 0.000000 -0.001260 
#    y 0.000000 1.849130 0.000000 
#    z -0.001260 0.000000 1.885010 
# 
# From -- ./inp_files/1342.got.cif
#   From: 2010.03.12/outbox.cif.g09.slc.cpg/sg7_cif.got.tgz:1342.got - 2010.03.30 08:40:41.
