data_PCOD8052940
_publ_section_title
;
Structure prediction by ZEFSAII (Michael W. Deem and Ramdas Pophale) SiO2 
 PCOD8052940
Probable space group: C M
;
_chemical_formula_sum "Si O2"
_cell_formula_units_Z 32
_cell_length_a 20.057491
_cell_length_b 8.932641
_cell_length_c 25.075460
_cell_angle_alpha 90.000000
_cell_angle_beta 23.580444
_cell_angle_gamma 90.000000
_cell_volume 1797.234434
_symmetry_space_group_name_H-M "C M"
_symmetry_group_IT_number 8
_symmetry_cell_setting 'monoclinic'
loop_
_space_group_symop_operation_xyz
x,y,z
x,-y,z
1/2+x,1/2+y,z
1/2+x,1/2-y,z
loop_
_atom_site_type_symbol
_atom_site_label
_atom_site_fract_x
_atom_site_fract_y
_atom_site_fract_z
Si Si1 0.048780 0.822102 0.736770
Si Si2 0.050425 0.325047 0.251176
Si Si3 0.406942 0.674819 0.459301
Si Si4 0.992393 0.171013 0.512445
Si Si5 0.942215 0.676565 0.713016
Si Si6 0.213627 0.172129 0.445297
Si Si7 0.223207 0.175982 0.778266
Si Si8 0.404341 0.677256 0.954279
O O1 0.230348 0.754821 0.594236
O O2 0.925560 0.764487 0.780648
O O3 0.970210 0.761443 0.849403
O O4 0.062596 0.000000 0.725238
O O5 0.066618 0.500000 0.252757
O O6 0.011146 0.240278 0.334342
O O7 0.909314 0.295867 0.309755
O O8 0.222431 0.258061 0.101610
O O9 0.374420 0.500000 0.473806
O O10 0.517582 0.705109 0.431396
O O11 0.838533 0.266268 0.646263
O O12 0.160964 0.207144 0.422575
O O13 0.940515 0.000000 0.559098
O O14 0.941031 0.500000 0.724377
O O15 0.787588 0.729987 0.789012
O O16 0.114665 0.720299 0.557850
O O17 0.171917 0.000000 0.490871
O O18 0.033524 0.227767 0.906140
O O19 0.238228 0.000000 0.763999
O O20 0.393233 0.500000 0.958596
#
# Coordination Sequence:
#
# PCOD8052940 Si02
#       8
#     4   4   4   4   4   4   4   4
#     4  11  20  33  54  77 103 135 175 218 255 305
#     4  10  20  35  55  76 102 139 177 213 254 307
#     4  11  21  33  51  78 108 134 170 219 262 304
#     4   9  18  31  49  75 104 131 166 215 259 301
#     4  10  19  30  50  78 106 132 166 217 265 301
#     4   9  17  31  51  74 101 135 173 208 253 307
#     4   9  17  32  52  74 102 136 172 212 254 301
#     4   9  19  35  54  76 102 136 179 216 250 302
#
# _framework density 17.805133999999999
#
# number of rings (size 3 to 8) (size 9 to 14) (size 15 to 20)
#    0.000    2.250    2.500    1.125    0.000    1.000 
#    0.000    3.125    0.000    1.500    0.000    0.000 
#    0.000    0.000    0.000    0.000    0.000    0.000 
#
# Total GULP energy -198346.032754 kJ/mol
# GULP energy per Si atom -12396.627047 kJ/mol
# Density = 1.776461 g / cm^3
# Si number density = 17.805134 Si / 1000 Ang^3
#
#
#
# Elastic Constant Matrix: (Units=GPa)
#
#
# Indices 1 2 3 4 5 6 
#
# 1 145.5277 37.0676 73.8431 -0.0077 -7.3796 -0.0038
# 2 37.0676 45.9023 27.8627 0.0334 -0.0077 -0.0022
# 3 73.8431 27.8627 121.8081 0.0810 -7.3505 -0.0018
# 4 -0.0077 0.0334 0.0810 12.0775 0.0053 -1.0710
# 5 -7.3796 -0.0077 -7.3505 0.0053 27.4541 -0.0019
# 6 -0.0038 -0.0022 -0.0018 -1.0710 -0.0019 25.7213
#
#
#
# Elastic Compliance Matrix: (Units=1/GPa)
#
#
# Indices 1 2 3 4 5 6 
#
# 1 0.011119 -0.005742 -0.005333 0.000058 0.001559 0.000003
# 2 -0.005742 0.028329 -0.003143 -0.000060 -0.002377 -0.000001
# 3 -0.005333 -0.003143 0.012274 -0.000078 0.001852 -0.000003
# 4 0.000058 -0.000060 -0.000078 0.083106 -0.000021 0.003461
# 5 0.001559 -0.002377 0.001852 -0.000021 0.037339 0.000002
# 6 0.000003 -0.000001 -0.000003 0.003461 0.000002 0.039022
#
#
# Mechanical properties :
#
#
# Convention : Reuss Voigt Hill
#
# Bulk Modulus (GPa) = 42.94333 65.64276 54.29305
# Shear Modulus (GPa) = 20.21122 24.68156 22.44639
#
# Velocity S-wave (km/s) = 3.37283 3.72722 3.55444
# Velocity P-wave (km/s) = 6.27207 7.44783 6.88509
#
# Compressibility (1/GPa) = 0.02328650
#
# Stress axis : x y z
#
# Youngs Moduli (GPa) = 89.93358 35.29924 81.47599
#
# Poissons Ratio (x) = 0.20267 0.43454
# Poissons Ratio (y) = 0.51636 0.25606
# Poissons Ratio (z) = 0.47965 0.11094
#
# Static dielectric constant tensor:
#      x y z
#    x 3.852660 -0.000010 -0.217640 
#    y -0.000010 3.218940 0.000000 
#    z -0.217640 0.000000 3.230350 
# 
# 
# High freq. dielectric constant tensor:
#      x y z
#    x 1.709010 0.000000 -0.013880 
#    y 0.000000 1.680270 0.000000 
#    z -0.013880 0.000000 1.655680 
# 
# From -- ./inp_files/23601.got.cif
#   From: 2010.03.12/outbox.cif.g09.slc.cpg/sg8_12_cif.got.tgz:23601.got - 2010.03.31 10:45:26.
