data_PCOD8052324
_publ_section_title
;
Structure prediction by ZEFSAII (Michael W. Deem and Ramdas Pophale) SiO2 
 PCOD8052324
Probable space group: P M
;
_chemical_formula_sum "Si O2"
_cell_formula_units_Z 16
_cell_length_a 8.285866
_cell_length_b 19.379809
_cell_length_c 9.425206
_cell_angle_alpha 90.000000
_cell_angle_beta 148.350454
_cell_angle_gamma 90.000000
_cell_volume 794.159463
_symmetry_space_group_name_H-M "P M"
_symmetry_group_IT_number 6
_symmetry_cell_setting 'monoclinic'
loop_
_space_group_symop_operation_xyz
x,y,z
x,-y,z
loop_
_atom_site_type_symbol
_atom_site_label
_atom_site_fract_x
_atom_site_fract_y
_atom_site_fract_z
Si Si1 0.424150 0.648971 0.471780
Si Si2 0.270298 0.926498 0.528762
Si Si3 0.779521 0.579832 0.968276
Si Si4 0.573453 0.073412 0.046441
Si Si5 0.590598 0.350859 0.270450
Si Si6 0.342631 0.221845 0.592685
Si Si7 0.234824 0.420122 0.773613
Si Si8 0.631979 0.778209 0.112884
O O1 0.508436 0.654355 0.372048
O O2 0.478200 0.723164 0.584244
O O3 0.075910 0.623918 0.232748
O O4 0.661874 0.595434 0.721413
O O5 0.430418 0.855083 0.596136
O O6 0.908604 0.924812 0.222674
O O7 0.406363 0.000000 0.568911
O O8 0.312683 0.926617 0.730733
O O9 0.868617 0.500000 0.048719
O O10 0.507502 0.601213 0.871371
O O11 0.543565 0.145388 0.111038
O O12 0.540852 0.000000 0.109038
O O13 0.536028 0.276334 0.159931
O O14 0.938812 0.375906 0.508906
O O15 0.352533 0.404326 0.020459
O O16 0.981544 0.228047 0.332275
O O17 0.458598 0.236656 0.837061
O O18 0.145595 0.500000 0.693393
#
# Coordination Sequence:
#
# PCOD8052324 Si02
#       8
#     2   2   2   2   2   2   2   2
#     4  12  24  37  56  83 114 143 176 221 270 321
#     4   8  14  25  44  72 100 128 170 220 260 296
#     4  11  24  42  62  81 104 139 182 224 268 322
#     4   8  14  25  44  72 100 128 170 220 260 296
#     4  12  24  37  56  83 114 143 176 221 270 321
#     4  10  19  33  54  76 104 142 180 218 260 313
#     4  11  24  42  62  81 104 139 182 224 268 322
#     4  10  19  33  54  76 104 142 180 218 260 313
#
# _framework density 20.147088
#
# number of rings (size 3 to 8) (size 9 to 14) (size 15 to 20)
#    0.000    1.750    0.000    6.000    0.000    5.000 
#    0.000    0.000    0.000    0.750    0.000    0.000 
#    0.000   24.000    0.000    0.000    0.000    5.000 
#
# Total GULP energy -198266.724506 kJ/mol
# GULP energy per Si atom -12391.670282 kJ/mol
# Density = 2.010123 g / cm^3
# Si number density = 20.147088 Si / 1000 Ang^3
#
#
#
# Elastic Constant Matrix: (Units=GPa)
#
#
# Indices 1 2 3 4 5 6 
#
# 1 53.7835 50.2408 18.2427 0.0000 -12.4552 0.0000
# 2 50.2408 158.5811 33.6491 0.0000 -4.3562 0.0000
# 3 18.2427 33.6491 126.8144 0.0000 -1.6213 0.0000
# 4 0.0000 0.0000 0.0000 28.1884 0.0000 0.4806
# 5 -12.4552 -4.3562 -1.6213 0.0000 28.0579 0.0000
# 6 0.0000 0.0000 0.0000 0.4806 0.0000 5.7954
#
#
#
# Elastic Compliance Matrix: (Units=1/GPa)
#
#
# Indices 1 2 3 4 5 6 
#
# 1 0.030275 -0.008871 -0.001849 0.000000 0.011955 0.000000
# 2 -0.008871 0.009306 -0.001226 0.000000 -0.002564 0.000000
# 3 -0.001849 -0.001226 0.008470 0.000000 -0.000521 0.000000
# 4 0.000000 0.000000 0.000000 0.035526 0.000000 -0.002946
# 5 0.011955 -0.002564 -0.000521 0.000000 0.040520 0.000000
# 6 0.000000 0.000000 0.000000 -0.002946 0.000000 0.172794
#
#
# Mechanical properties :
#
#
# Convention : Reuss Voigt Hill
#
# Bulk Modulus (GPa) = 41.38974 60.38269 50.88621
# Shear Modulus (GPa) = 15.20519 28.21145 21.70832
#
# Velocity S-wave (km/s) = 2.75018 3.74608 3.28608
# Velocity P-wave (km/s) = 5.53832 6.98189 6.30158
#
# Compressibility (1/GPa) = 0.02416058
#
# Stress axis : x y z
#
# Youngs Moduli (GPa) = 33.03007 107.45637 118.06265
#
# Poissons Ratio (x) = 0.95325 0.21824
# Poissons Ratio (y) = 0.29301 0.14474
# Poissons Ratio (z) = 0.06106 0.13173
#
# Static dielectric constant tensor:
#      x y z
#    x 3.037000 0.000000 0.038710 
#    y 0.000000 4.373650 0.000000 
#    z 0.038710 0.000000 3.893400 
# 
# 
# High freq. dielectric constant tensor:
#      x y z
#    x 1.710690 0.000000 0.007160 
#    y 0.000000 1.819890 0.000000 
#    z 0.007160 0.000000 1.814130 
# 
# From -- ./inp_files/3263.got.cif
#   From: 2010.03.12/outbox.cif.g09.slc.cpg/sg6_2_cif.got.tgz:3263.got - 2010.03.30 10:24:59.
