data_PCOD8052936
_publ_section_title
;
Structure prediction by ZEFSAII (Michael W. Deem and Ramdas Pophale) SiO2 
 PCOD8052936
Probable space group: C M
;
_chemical_formula_sum "Si O2"
_cell_formula_units_Z 32
_cell_length_a 19.272934
_cell_length_b 8.863612
_cell_length_c 11.596607
_cell_angle_alpha 90.000000
_cell_angle_beta 115.172869
_cell_angle_gamma 90.000000
_cell_volume 1792.882379
_symmetry_space_group_name_H-M "C M"
_symmetry_group_IT_number 8
_symmetry_cell_setting 'monoclinic'
loop_
_space_group_symop_operation_xyz
x,y,z
x,-y,z
1/2+x,1/2+y,z
1/2+x,1/2-y,z
loop_
_atom_site_type_symbol
_atom_site_label
_atom_site_fract_x
_atom_site_fract_y
_atom_site_fract_z
Si Si1 0.571960 0.179109 0.355120
Si Si2 0.845363 0.324160 0.083559
Si Si3 0.777211 0.830387 0.834296
Si Si4 0.997798 0.177557 0.104533
Si Si5 0.715763 0.678229 0.577914
Si Si6 0.875386 0.677043 0.581330
Si Si7 0.915963 0.322251 0.361850
Si Si8 0.441536 0.666475 0.831217
O O1 0.570980 0.263219 0.229122
O O2 0.646934 0.230207 0.474519
O O3 0.498525 0.237198 0.376752
O O4 0.572336 0.000000 0.337576
O O5 0.830567 0.500000 0.051934
O O6 0.929118 0.282819 0.097894
O O7 0.847626 0.283895 0.222083
O O8 0.779665 0.233445 0.967341
O O9 0.722778 0.726445 0.716796
O O10 0.862828 0.825651 0.846512
O O11 0.744347 0.000000 0.813322
O O12 0.981783 0.000000 0.116211
O O13 0.007799 0.204854 0.972852
O O14 0.702045 0.500000 0.559843
O O15 0.791945 0.731711 0.563807
O O16 0.876564 0.500000 0.572223
O O17 0.894722 0.750908 0.470671
O O18 0.940128 0.722678 0.720908
O O19 0.922890 0.500000 0.380453
O O20 0.454210 0.500000 0.789145
#
# Coordination Sequence:
#
# PCOD8052936 Si02
#       8
#     4   4   4   4   4   4   4   4
#     4  10  19  31  48  68  93 122 151 186 227 272
#     4   9  15  25  43  66  91 117 150 189 227 267
#     4   9  16  27  43  64  91 119 150 188 227 266
#     4   9  16  27  43  64  91 118 149 189 228 267
#     4  10  19  30  47  70  94 120 151 187 227 271
#     4   9  17  30  48  68  91 120 152 184 221 268
#     4   8  16  30  47  68  92 120 151 183 223 268
#     4   8  15  26  41  64  91 116 144 184 228 263
#
# _framework density 17.848354
#
# number of rings (size 3 to 8) (size 9 to 14) (size 15 to 20)
#    0.000    3.000    0.000    3.375    0.000    4.000 
#    0.000    3.750    0.000    1.500    0.000    1.750 
#    0.000    0.000    0.000    0.000    0.000    0.000 
#
# Total GULP energy -198242.828874 kJ/mol
# GULP energy per Si atom -12390.176805 kJ/mol
# Density = 1.780773 g / cm^3
# Si number density = 17.848354 Si / 1000 Ang^3
#
#
#
# Elastic Constant Matrix: (Units=GPa)
#
#
# Indices 1 2 3 4 5 6 
#
# 1 34.3117 18.0329 44.2482 0.0000 -3.6380 0.0000
# 2 18.0329 55.8566 39.6892 0.0000 -4.0337 0.0000
# 3 44.2482 39.6892 171.9540 0.0000 -7.1356 0.0000
# 4 0.0000 0.0000 0.0000 36.9814 0.0000 4.8234
# 5 -3.6380 -4.0337 -7.1356 0.0000 22.3244 0.0000
# 6 0.0000 0.0000 0.0000 4.8234 0.0000 10.6887
#
#
#
# Elastic Compliance Matrix: (Units=1/GPa)
#
#
# Indices 1 2 3 4 5 6 
#
# 1 0.046455 -0.007628 -0.010070 0.000000 0.002973 0.000000
# 2 -0.007628 0.022787 -0.003220 0.000000 0.001845 0.000000
# 3 -0.010070 -0.003220 0.009180 0.000000 0.000711 0.000000
# 4 0.000000 0.000000 0.000000 0.028732 0.000000 -0.012966
# 5 0.002973 0.001845 0.000711 0.000000 0.045839 0.000000
# 6 0.000000 0.000000 0.000000 -0.012966 0.000000 0.099407
#
#
# Mechanical properties :
#
#
# Convention : Reuss Voigt Hill
#
# Bulk Modulus (GPa) = 27.33308 51.78478 39.55893
# Shear Modulus (GPa) = 16.31689 24.67570 20.49630
#
# Velocity S-wave (km/s) = 3.02685 3.72226 3.39242
# Velocity P-wave (km/s) = 5.25005 6.89568 6.12835
#
# Compressibility (1/GPa) = 0.03658571
#
# Stress axis : x y z
#
# Youngs Moduli (GPa) = 21.52617 43.88496 108.93739
#
# Poissons Ratio (x) = 0.33474 1.09702
# Poissons Ratio (y) = 0.16419 0.35080
# Poissons Ratio (z) = 0.21677 0.14132
#
# Static dielectric constant tensor:
#      x y z
#    x 2.898020 0.000000 -0.182590 
#    y 0.000000 3.249630 0.000000 
#    z -0.182590 0.000000 3.960740 
# 
# 
# High freq. dielectric constant tensor:
#      x y z
#    x 1.615580 0.000000 -0.002740 
#    y 0.000000 1.688400 0.000000 
#    z -0.002740 0.000000 1.719460 
# 
# From -- ./inp_files/23679.got.cif
#   From: 2010.03.12/outbox.cif.g09.slc.cpg/sg8_12_cif.got.tgz:23679.got - 2010.03.31 10:45:26.
