data_PCOD8052200
_publ_section_title
;
Structure prediction by ZEFSAII (Michael W. Deem and Ramdas Pophale) SiO2 
 PCOD8052200
Probable space group: C 2
;
_chemical_formula_sum "Si O2"
_cell_formula_units_Z 22
_cell_length_a 17.703188
_cell_length_b 4.913142
_cell_length_c 10.445484
_cell_angle_alpha 90.000000
_cell_angle_beta 79.081184
_cell_angle_gamma 90.000000
_cell_volume 892.082674
_symmetry_space_group_name_H-M "C 2"
_symmetry_group_IT_number 5
_symmetry_cell_setting 'monoclinic'
loop_
_space_group_symop_operation_xyz
x,y,z
-x,y,-z
1/2+x,1/2+y,z
1/2-x,1/2+y,-z
loop_
_atom_site_type_symbol
_atom_site_label
_atom_site_fract_x
_atom_site_fract_y
_atom_site_fract_z
Si Si1 0.607814 0.959840 0.300126
Si Si2 0.000000 0.847681 0.500000
Si Si3 0.258491 0.732248 0.582471
Si Si4 0.534718 0.655002 0.724733
Si Si5 0.802453 0.569237 0.969593
Si Si6 0.616908 0.173305 0.801609
O O1 0.659349 0.791814 0.381932
O O2 0.554330 0.746741 0.238760
O O3 0.555752 0.167665 0.395693
O O4 0.659113 0.122222 0.180705
O O5 0.948825 0.040417 0.424035
O O6 0.258200 0.422284 0.534513
O O7 0.194249 0.783511 0.711007
O O8 0.552292 0.410839 0.818533
O O9 0.589744 0.909631 0.732358
O O10 0.867858 0.605969 0.055818
O O11 0.729716 0.764516 0.010759
#
# Coordination Sequence:
#
# PCOD8052200 Si02
#       6
#     4   2   4   4   4   4
#     4  12  30  53  85 115 163 212 263 328 404 469
#     4  12  28  52  82 118 166 202 266 318 416 464
#     4  12  29  45  79 118 156 207 264 323 395 467
#     4  12  28  50  78 119 160 207 256 332 397 468
#     4  12  29  56  84 116 159 211 271 329 394 471
#     4  12  27  53  78 116 160 205 270 327 390 475
#
# _framework density 24.661393
#
# number of rings (size 3 to 8) (size 9 to 14) (size 15 to 20)
#    0.000    0.000    3.636    3.818   15.273    0.727 
#    3.273    0.000    0.000    0.000    0.000    0.000 
#    0.000    0.000    0.000    0.000    0.000    0.000 
#
# Total GULP energy -136484.390737 kJ/mol
# GULP energy per Si atom -12407.671885 kJ/mol
# Density = 2.460526 g / cm^3
# Si number density = 24.661393 Si / 1000 Ang^3
#
#
#
# Elastic Constant Matrix: (Units=GPa)
#
#
# Indices 1 2 3 4 5 6 
#
# 1 123.5857 50.9603 59.1694 0.0000 25.2030 0.0000
# 2 50.9603 125.9931 28.3359 0.0000 8.4958 0.0000
# 3 59.1694 28.3359 118.0565 0.0000 -7.6742 0.0000
# 4 0.0000 0.0000 0.0000 23.8528 0.0000 5.4061
# 5 25.2030 8.4958 -7.6742 0.0000 51.8138 0.0000
# 6 0.0000 0.0000 0.0000 5.4061 0.0000 33.6929
#
#
#
# Elastic Compliance Matrix: (Units=1/GPa)
#
#
# Indices 1 2 3 4 5 6 
#
# 1 0.014424 -0.003807 -0.006797 0.000000 -0.007399 0.000000
# 2 -0.003807 0.009544 -0.000368 0.000000 0.000232 0.000000
# 3 -0.006797 -0.000368 0.012302 0.000000 0.005188 0.000000
# 4 0.000000 0.000000 0.000000 0.043506 0.000000 -0.006981
# 5 -0.007399 0.000232 0.005188 0.000000 0.023629 0.000000
# 6 0.000000 0.000000 0.000000 -0.006981 0.000000 0.030800
#
#
# Mechanical properties :
#
#
# Convention : Reuss Voigt Hill
#
# Bulk Modulus (GPa) = 69.79159 71.61850 70.70505
# Shear Modulus (GPa) = 31.07084 37.14989 34.11037
#
# Velocity S-wave (km/s) = 3.55336 3.88545 3.72310
# Velocity P-wave (km/s) = 6.72283 7.01660 6.87129
#
# Compressibility (1/GPa) = 0.01432837
#
# Stress axis : x y z
#
# Youngs Moduli (GPa) = 69.32899 104.78188 81.28484
#
# Poissons Ratio (x) = 0.39887 0.55245
# Poissons Ratio (y) = 0.26391 0.02989
# Poissons Ratio (z) = 0.47120 0.03853
#
# Static dielectric constant tensor:
#      x y z
#    x 4.564950 0.000000 0.306050 
#    y 0.000000 4.592020 0.000000 
#    z 0.306050 0.000000 4.334960 
# 
# 
# High freq. dielectric constant tensor:
#      x y z
#    x 1.993420 0.000000 0.016580 
#    y 0.000000 1.994030 0.000000 
#    z 0.016580 0.000000 1.974460 
# 
# From -- ./inp_files/28332.got.cif
#   From: 2010.03.12/outbox.cif.g09.slc.cpg/sg5_15_cif.got.tgz:28332.got - 2010.03.31 09:47:26.
