data_PCOD8052680
_publ_section_title
;
Structure prediction by ZEFSAII (Michael W. Deem and Ramdas Pophale) SiO2 
 PCOD8052680
Probable space group: P C
;
_chemical_formula_sum "Si O2"
_cell_formula_units_Z 12
_cell_length_a 5.180021
_cell_length_b 19.995541
_cell_length_c 4.887408
_cell_angle_alpha 90.000000
_cell_angle_beta 95.615515
_cell_angle_gamma 90.000000
_cell_volume 503.795231
_symmetry_space_group_name_H-M "P C"
_symmetry_group_IT_number 7
_symmetry_cell_setting 'monoclinic'
loop_
_space_group_symop_operation_xyz
x,y,z
x,-y,1/2+z
loop_
_atom_site_type_symbol
_atom_site_label
_atom_site_fract_x
_atom_site_fract_y
_atom_site_fract_z
Si Si1 0.708200 0.842119 0.219430
Si Si2 0.441303 0.951133 0.919445
Si Si3 0.502752 0.368043 0.907310
Si Si4 0.482102 0.722658 0.904526
Si Si5 0.232143 0.163752 0.096838
Si Si6 0.998331 0.454726 0.946987
O O1 0.476360 0.845547 0.417863
O O2 0.975644 0.842067 0.399814
O O3 0.699320 0.907399 0.017991
O O4 0.696779 0.775895 0.029423
O O5 0.228688 0.892986 0.835705
O O6 0.414485 0.998398 0.660849
O O7 0.394110 0.321722 0.652271
O O8 0.273760 0.418708 0.952012
O O9 0.591646 0.324596 0.177477
O O10 0.761017 0.406623 0.842364
O O11 0.241423 0.764553 0.751878
O O12 0.980575 0.479926 0.255505
#
# Coordination Sequence:
#
# PCOD8052680 Si02
#       6
#     2   2   2   2   2   2
#     4  11  26  47  71 103 147 187 232 308 355 417
#     4  11  24  47  72 105 140 191 244 292 358 433
#     4  12  26  44  76 104 142 190 236 290 348 426
#     4  11  26  47  70 111 142 185 244 292 360 421
#     4  11  26  47  71 103 147 187 232 308 355 417
#     4  12  26  48  72 106 146 186 234 288 348 414
#
# _framework density 23.819199999999999
#
# number of rings (size 3 to 8) (size 9 to 14) (size 15 to 20)
#    0.000    0.667    3.333    3.000    2.333    9.333 
#    0.000    0.000    0.000    0.000    0.000    0.000 
#    0.000    0.000    0.000    0.000    0.000    0.000 
#
# Total GULP energy -148705.551482 kJ/mol
# GULP energy per Si atom -12392.129290 kJ/mol
# Density = 2.376499 g / cm^3
# Si number density = 23.819200 Si / 1000 Ang^3
#
#
#
# Elastic Constant Matrix: (Units=GPa)
#
#
# Indices 1 2 3 4 5 6 
#
# 1 87.0801 8.0486 24.9287 0.0000 15.9791 0.0000
# 2 8.0486 114.3250 39.5097 0.0000 -3.6858 0.0000
# 3 24.9287 39.5097 148.1996 0.0000 5.4527 0.0000
# 4 0.0000 0.0000 0.0000 63.0590 0.0000 -0.1165
# 5 15.9791 -3.6858 5.4527 0.0000 44.4634 0.0000
# 6 0.0000 0.0000 0.0000 -0.1165 0.0000 6.0797
#
#
#
# Elastic Compliance Matrix: (Units=1/GPa)
#
#
# Indices 1 2 3 4 5 6 
#
# 1 0.012876 -0.000393 -0.001898 0.000000 -0.004427 0.000000
# 2 -0.000393 0.009702 -0.002567 0.000000 0.001260 0.000000
# 3 -0.001898 -0.002567 0.007769 0.000000 -0.000483 0.000000
# 4 0.000000 0.000000 0.000000 0.015859 0.000000 0.000304
# 5 -0.004427 0.001260 -0.000483 0.000000 0.024245 0.000000
# 6 0.000000 0.000000 0.000000 0.000304 0.000000 0.164488
#
#
# Mechanical properties :
#
#
# Convention : Reuss Voigt Hill
#
# Bulk Modulus (GPa) = 48.47124 54.95319 51.71222
# Shear Modulus (GPa) = 19.87816 41.19494 30.53655
#
# Velocity S-wave (km/s) = 2.89198 4.16322 3.58441
# Velocity P-wave (km/s) = 5.61651 6.79933 6.23603
#
# Compressibility (1/GPa) = 0.02063079
#
# Stress axis : x y z
#
# Youngs Moduli (GPa) = 77.66527 103.06733 128.71591
#
# Poissons Ratio (x) = 0.04053 0.24432
# Poissons Ratio (y) = 0.03054 0.33040
# Poissons Ratio (z) = 0.14742 0.26456
#
# Static dielectric constant tensor:
#      x y z
#    x 4.112580 0.000000 -0.184780 
#    y 0.000000 4.872660 0.000000 
#    z -0.184780 0.000000 4.987670 
# 
# 
# High freq. dielectric constant tensor:
#      x y z
#    x 1.905490 0.000000 0.010490 
#    y 0.000000 1.969680 0.000000 
#    z 0.010490 0.000000 1.982940 
# 
# From -- ./inp_files/246.got.cif
#   From: 2010.03.12/outbox.cif.g09.slc.cpg/sg7_cif.got.tgz:246.got - 2010.03.30 08:40:41.
