data_PCOD8052347
_publ_section_title
;
Structure prediction by ZEFSAII (Michael W. Deem and Ramdas Pophale) SiO2 
 PCOD8052347
Probable space group: P M
;
_chemical_formula_sum "Si O2"
_cell_formula_units_Z 16
_cell_length_a 5.115387
_cell_length_b 8.600207
_cell_length_c 20.388636
_cell_angle_alpha 90.000000
_cell_angle_beta 120.171698
_cell_angle_gamma 90.000000
_cell_volume 775.447160
_symmetry_space_group_name_H-M "P M"
_symmetry_group_IT_number 6
_symmetry_cell_setting 'monoclinic'
loop_
_space_group_symop_operation_xyz
x,y,z
x,-y,z
loop_
_atom_site_type_symbol
_atom_site_label
_atom_site_fract_x
_atom_site_fract_y
_atom_site_fract_z
Si Si1 0.878520 0.314743 0.905350
Si Si2 0.151866 0.180750 0.325613
Si Si3 0.205392 0.683290 0.819123
Si Si4 0.800404 0.680509 0.399582
Si Si5 0.155162 0.180806 0.559956
Si Si6 0.910247 0.181153 0.152316
Si Si7 0.846026 0.180110 0.655932
Si Si8 0.261016 0.682846 0.077734
O O1 0.879223 0.500000 0.903164
O O2 0.541344 0.245806 0.863638
O O3 0.030717 0.245072 0.859182
O O4 0.057625 0.257114 0.991816
O O5 0.499949 0.225019 0.379917
O O6 0.930057 0.274680 0.345143
O O7 0.058045 0.222967 0.240265
O O8 0.111714 0.000000 0.336620
O O9 0.224908 0.500000 0.828422
O O10 0.041769 0.721928 0.731033
O O11 0.719109 0.500000 0.389511
O O12 0.052516 0.717395 0.485571
O O13 0.497631 0.226436 0.620548
O O14 0.947038 0.222844 0.595386
O O15 0.132386 0.000000 0.537678
O O16 0.607029 0.279828 0.104223
O O17 0.157411 0.226657 0.129369
O O18 0.831804 0.000000 0.137254
O O19 0.903217 0.000000 0.678058
O O20 0.222667 0.500000 0.084384
#
# Coordination Sequence:
#
# PCOD8052347 Si02
#       8
#     2   2   2   2   2   2   2   2
#     4   9  19  35  55  81 111 147 190 233 286 350
#     4  11  24  43  64  85 120 167 200 231 296 374
#     4  10  19  34  56  79 108 146 187 234 288 344
#     4  12  25  40  63  95 123 148 197 260 296 334
#     4  10  21  38  58  79 112 156 191 226 288 362
#     4  11  24  41  61  89 123 157 198 247 298 354
#     4  10  21  36  55  81 111 146 191 236 280 342
#     4  11  22  39  64  89 118 159 204 247 294 354
#
# _framework density 20.633254999999998
#
# number of rings (size 3 to 8) (size 9 to 14) (size 15 to 20)
#    0.000    1.500    0.000    5.250    0.000    9.000 
#    0.000    3.750    0.000    0.000    0.000    0.000 
#    0.000    0.000    0.000    0.000    0.000    0.000 
#
# Total GULP energy -198507.051016 kJ/mol
# GULP energy per Si atom -12406.690689 kJ/mol
# Density = 2.058629 g / cm^3
# Si number density = 20.633255 Si / 1000 Ang^3
#
#
#
# Elastic Constant Matrix: (Units=GPa)
#
#
# Indices 1 2 3 4 5 6 
#
# 1 108.5834 15.3895 16.8058 0.0000 2.5954 0.0000
# 2 15.3895 40.5944 31.7866 0.0000 -1.6073 0.0000
# 3 16.8058 31.7866 97.1896 0.0000 1.5475 0.0000
# 4 0.0000 0.0000 0.0000 25.7334 0.0000 6.6777
# 5 2.5954 -1.6073 1.5475 0.0000 39.2159 0.0000
# 6 0.0000 0.0000 0.0000 6.6777 0.0000 17.0496
#
#
#
# Elastic Compliance Matrix: (Units=1/GPa)
#
#
# Indices 1 2 3 4 5 6 
#
# 1 0.009784 -0.003258 -0.000614 0.000000 -0.000757 0.000000
# 2 -0.003258 0.034325 -0.010695 0.000000 0.002045 0.000000
# 3 -0.000614 -0.010695 0.013908 0.000000 -0.000947 0.000000
# 4 0.000000 0.000000 0.000000 0.043256 0.000000 -0.016942
# 5 -0.000757 0.002045 -0.000947 0.000000 0.025671 0.000000
# 6 0.000000 0.000000 0.000000 -0.016942 0.000000 0.065288
#
#
# Mechanical properties :
#
#
# Convention : Reuss Voigt Hill
#
# Bulk Modulus (GPa) = 34.62360 41.59233 38.10797
# Shear Modulus (GPa) = 21.64536 28.55880 25.10208
#
# Velocity S-wave (km/s) = 3.24242 3.72441 3.49174
# Velocity P-wave (km/s) = 5.55289 6.22066 5.89624
#
# Compressibility (1/GPa) = 0.02888203
#
# Stress axis : x y z
#
# Youngs Moduli (GPa) = 102.20272 29.13332 71.89884
#
# Poissons Ratio (x) = 0.09493 0.04416
# Poissons Ratio (y) = 0.33302 0.76898
# Poissons Ratio (z) = 0.06277 0.31159
#
# Static dielectric constant tensor:
#      x y z
#    x 3.978670 0.000000 0.009180 
#    y 0.000000 3.512050 0.000000 
#    z 0.009180 0.000000 3.753730 
# 
# 
# High freq. dielectric constant tensor:
#      x y z
#    x 1.826320 0.000000 -0.000070 
#    y 0.000000 1.788420 0.000000 
#    z -0.000070 0.000000 1.820220 
# 
# From -- ./inp_files/5885.got.cif
#   From: 2010.03.12/outbox.cif.g09.slc.cpg/sg6_3_cif.got.tgz:5885.got - 2010.03.30 10:24:59.
