data_PCOD8052529
_publ_section_title
;
Structure prediction by ZEFSAII (Michael W. Deem and Ramdas Pophale) SiO2 
 PCOD8052529
Probable space group: P M
;
_chemical_formula_sum "Si O2"
_cell_formula_units_Z 12
_cell_length_a 14.508061
_cell_length_b 8.880567
_cell_length_c 7.395708
_cell_angle_alpha 90.000000
_cell_angle_beta 40.124196
_cell_angle_gamma 90.000000
_cell_volume 614.068415
_symmetry_space_group_name_H-M "P M"
_symmetry_group_IT_number 6
_symmetry_cell_setting 'monoclinic'
loop_
_space_group_symop_operation_xyz
x,y,z
x,-y,z
loop_
_atom_site_type_symbol
_atom_site_label
_atom_site_fract_x
_atom_site_fract_y
_atom_site_fract_z
Si Si1 0.343400 0.176663 0.328600
Si Si2 0.129658 0.175867 0.970340
Si Si3 0.168124 0.322572 0.287005
Si Si4 0.640960 0.323338 0.882261
Si Si5 0.816237 0.822572 0.314838
Si Si6 0.854707 0.324134 0.882770
O O1 0.292028 0.244211 0.215836
O O2 0.492184 0.249990 0.163817
O O3 0.363696 0.000000 0.274983
O O4 0.228775 0.217490 0.653225
O O5 0.185611 0.270408 0.055227
O O6 0.969902 0.227988 0.160724
O O7 0.135816 0.000000 0.008480
O O8 0.188513 0.500000 0.266316
O O9 0.014461 0.272006 0.593888
O O10 0.620642 0.500000 0.889570
O O11 0.755589 0.282525 0.863004
O O12 0.692339 0.255800 0.615370
O O13 0.798751 0.770412 0.135516
O O14 0.795839 0.000000 0.355337
O O15 0.848557 0.500000 0.939383
#
# Coordination Sequence:
#
# PCOD8052529 Si02
#       6
#     2   2   2   2   2   2
#     4  11  24  43  63  91 127 164 204 255 309 365
#     4  10  22  39  62  91 124 162 207 255 304 363
#     4  11  22  38  64  94 123 163 206 253 308 363
#     4  11  24  43  63  91 127 164 204 255 309 365
#     4  11  22  38  64  94 123 163 206 253 308 363
#     4  10  22  39  62  91 124 162 207 255 304 363
#
# _framework density 19.541798
#
# number of rings (size 3 to 8) (size 9 to 14) (size 15 to 20)
#    0.000    1.333    3.333    2.000    0.000    5.333 
#    0.000    3.333    0.000    0.000    0.000    0.000 
#    0.000    0.000    0.000    0.000    0.000    0.000 
#
# Total GULP energy -148896.847562 kJ/mol
# GULP energy per Si atom -12408.070630 kJ/mol
# Density = 1.949732 g / cm^3
# Si number density = 19.541798 Si / 1000 Ang^3
#
#
#
# Elastic Constant Matrix: (Units=GPa)
#
#
# Indices 1 2 3 4 5 6 
#
# 1 74.8082 40.8003 29.8702 0.0000 3.2165 0.0000
# 2 40.8003 81.8712 42.2078 0.0000 6.0965 0.0000
# 3 29.8702 42.2078 77.1235 0.0000 6.9720 0.0000
# 4 0.0000 0.0000 0.0000 37.6277 0.0000 1.9822
# 5 3.2165 6.0965 6.9720 0.0000 39.4690 0.0000
# 6 0.0000 0.0000 0.0000 1.9822 0.0000 37.1797
#
#
#
# Elastic Compliance Matrix: (Units=1/GPa)
#
#
# Indices 1 2 3 4 5 6 
#
# 1 0.018846 -0.007850 -0.003022 0.000000 0.000210 0.000000
# 2 -0.007850 0.020323 -0.007984 0.000000 -0.001089 0.000000
# 3 -0.003022 -0.007984 0.018671 0.000000 -0.001819 0.000000
# 4 0.000000 0.000000 0.000000 0.026651 0.000000 -0.001421
# 5 0.000210 -0.001089 -0.001819 0.000000 0.025809 0.000000
# 6 0.000000 0.000000 0.000000 -0.001421 0.000000 0.026972
#
#
# Mechanical properties :
#
#
# Convention : Reuss Voigt Hill
#
# Bulk Modulus (GPa) = 49.68049 51.06216 50.37132
# Shear Modulus (GPa) = 27.51895 30.91694 29.21795
#
# Velocity S-wave (km/s) = 3.75668 3.98187 3.87091
# Velocity P-wave (km/s) = 6.65543 6.87945 6.76837
#
# Compressibility (1/GPa) = 0.02012863
#
# Stress axis : x y z
#
# Youngs Moduli (GPa) = 53.06036 49.20493 53.56040
#
# Poissons Ratio (x) = 0.38624 0.16188
# Poissons Ratio (y) = 0.41650 0.42761
# Poissons Ratio (z) = 0.16037 0.39284
#
# Static dielectric constant tensor:
#      x y z
#    x 3.562200 0.000000 -0.024920 
#    y 0.000000 3.537060 0.000000 
#    z -0.024920 0.000000 3.556580 
# 
# 
# High freq. dielectric constant tensor:
#      x y z
#    x 1.766010 0.000000 0.004310 
#    y 0.000000 1.768100 0.000000 
#    z 0.004310 0.000000 1.766980 
# 
# From -- ./inp_files/1827.got.cif
#   From: 2010.03.12/outbox.cif.g09.slc.cpg/sg6_1_cif.got.tgz:1827.got - 2010.03.30 10:24:59.
