data_PCOD8052291
_publ_section_title
;
Structure prediction by ZEFSAII (Michael W. Deem and Ramdas Pophale) SiO2 
 PCOD8052291
Probable space group: P M
;
_chemical_formula_sum "Si O2"
_cell_formula_units_Z 16
_cell_length_a 12.131601
_cell_length_b 8.714835
_cell_length_c 9.879150
_cell_angle_alpha 90.000000
_cell_angle_beta 50.545254
_cell_angle_gamma 90.000000
_cell_volume 806.464878
_symmetry_space_group_name_H-M "P M"
_symmetry_group_IT_number 6
_symmetry_cell_setting 'monoclinic'
loop_
_space_group_symop_operation_xyz
x,y,z
x,-y,z
loop_
_atom_site_type_symbol
_atom_site_label
_atom_site_fract_x
_atom_site_fract_y
_atom_site_fract_z
Si Si1 0.289410 0.182563 0.962890
Si Si2 0.976162 0.817395 0.280491
Si Si3 0.218990 0.828084 0.508690
Si Si4 0.441292 0.172638 0.108391
Si Si5 0.734657 0.182378 0.261862
Si Si6 0.930544 0.183407 0.620823
Si Si7 0.715789 0.679064 0.989855
Si Si8 0.419532 0.816409 0.582091
O O1 0.356121 0.246142 0.772065
O O2 0.281075 0.000000 0.968342
O O3 0.399440 0.235813 0.993325
O O4 0.129855 0.248251 0.111835
O O5 0.854483 0.757859 0.272651
O O6 0.938659 0.756479 0.459998
O O7 0.979738 0.000000 0.277901
O O8 0.295117 0.830462 0.304932
O O9 0.316238 0.745667 0.546335
O O10 0.065127 0.750706 0.602540
O O11 0.192307 0.000000 0.582507
O O12 0.506651 0.000000 0.050963
O O13 0.549076 0.285747 0.099772
O O14 0.580504 0.243936 0.432994
O O15 0.734942 0.000000 0.251039
O O16 0.772060 0.247764 0.085030
O O17 0.790274 0.248066 0.800585
O O18 0.929657 0.000000 0.622223
O O19 0.744306 0.500000 0.972898
O O20 0.422508 0.000000 0.574185
#
# Coordination Sequence:
#
# PCOD8052291 Si02
#       8
#     2   2   2   2   2   2   2   2
#     4   9  17  29  52  89 121 138 169 229 290 339
#     4   9  18  32  55  90 121 142 177 230 287 341
#     4   9  16  30  55  85 112 140 181 231 282 333
#     4  10  18  35  61  84 110 144 186 238 287 334
#     4  10  20  36  58  84 115 150 187 231 282 338
#     4  10  20  36  60  88 114 147 188 236 287 340
#     4  12  26  40  54  79 115 157 199 239 279 331
#     4   9  17  28  49  85 118 140 171 222 280 332
#
# _framework density 19.839673999999999
#
# number of rings (size 3 to 8) (size 9 to 14) (size 15 to 20)
#    0.000    2.250    2.500    1.125    3.500    0.000 
#    0.000    1.250    0.000    0.750    0.000    0.000 
#    0.000    0.000    0.000    0.000    0.000    0.000 
#
# Total GULP energy -198358.373704 kJ/mol
# GULP energy per Si atom -12397.398357 kJ/mol
# Density = 1.979452 g / cm^3
# Si number density = 19.839674 Si / 1000 Ang^3
#
#
#
# Elastic Constant Matrix: (Units=GPa)
#
#
# Indices 1 2 3 4 5 6 
#
# 1 130.1187 20.8976 41.6020 0.0000 17.5827 0.0000
# 2 20.8976 23.7911 16.7772 0.0000 2.1073 0.0000
# 3 41.6020 16.7772 119.6763 0.0000 15.5552 0.0000
# 4 0.0000 0.0000 0.0000 3.7024 0.0000 0.3659
# 5 17.5827 2.1073 15.5552 0.0000 36.9684 0.0000
# 6 0.0000 0.0000 0.0000 0.3659 0.0000 5.0392
#
#
#
# Elastic Compliance Matrix: (Units=1/GPa)
#
#
# Indices 1 2 3 4 5 6 
#
# 1 0.009921 -0.006984 -0.002019 0.000000 -0.003471 0.000000
# 2 -0.006984 0.051560 -0.005131 0.000000 0.002541 0.000000
# 3 -0.002019 -0.005131 0.010170 0.000000 -0.003027 0.000000
# 4 0.000000 0.000000 0.000000 0.272045 0.000000 -0.019753
# 5 -0.003471 0.002541 -0.003027 0.000000 0.029830 0.000000
# 6 0.000000 0.000000 0.000000 -0.019753 0.000000 0.199877
#
#
# Mechanical properties :
#
#
# Convention : Reuss Voigt Hill
#
# Bulk Modulus (GPa) = 23.04924 48.01550 35.53237
# Shear Modulus (GPa) = 8.11516 22.09597 15.10556
#
# Velocity S-wave (km/s) = 2.02466 3.34087 2.76231
# Velocity P-wave (km/s) = 4.13626 6.25589 5.30306
#
# Compressibility (1/GPa) = 0.04338538
#
# Stress axis : x y z
#
# Youngs Moduli (GPa) = 100.79236 19.39492 98.32571
#
# Poissons Ratio (x) = 0.13545 0.19849
# Poissons Ratio (y) = 0.70391 0.50448
# Poissons Ratio (z) = 0.20347 0.09951
#
# Static dielectric constant tensor:
#      x y z
#    x 3.826840 0.000000 0.059370 
#    y 0.000000 2.882970 0.000000 
#    z 0.059370 0.000000 3.746660 
# 
# 
# High freq. dielectric constant tensor:
#      x y z
#    x 1.791130 0.000000 0.003930 
#    y 0.000000 1.695670 0.000000 
#    z 0.003930 0.000000 1.783740 
# 
# From -- ./inp_files/3454.got.cif
#   From: 2010.03.12/outbox.cif.g09.slc.cpg/sg6_2_cif.got.tgz:3454.got - 2010.03.30 10:24:59.
