data_PCOD8052344
_publ_section_title
;
Structure prediction by ZEFSAII (Michael W. Deem and Ramdas Pophale) SiO2 
 PCOD8052344
Probable space group: P M
;
_chemical_formula_sum "Si O2"
_cell_formula_units_Z 16
_cell_length_a 5.138954
_cell_length_b 8.355227
_cell_length_c 20.600398
_cell_angle_alpha 90.000000
_cell_angle_beta 60.091805
_cell_angle_gamma 90.000000
_cell_volume 766.726095
_symmetry_space_group_name_H-M "P M"
_symmetry_group_IT_number 6
_symmetry_cell_setting 'monoclinic'
loop_
_space_group_symop_operation_xyz
x,y,z
x,-y,z
loop_
_atom_site_type_symbol
_atom_site_label
_atom_site_fract_x
_atom_site_fract_y
_atom_site_fract_z
Si Si1 0.578860 0.190233 0.837870
Si Si2 0.826712 0.814132 0.425662
Si Si3 0.897737 0.309577 0.178417
Si Si4 0.484376 0.686990 0.346831
Si Si5 0.905673 0.809977 0.925121
Si Si6 0.524492 0.687791 0.589766
Si Si7 0.568941 0.689729 0.092551
Si Si8 0.866028 0.188733 0.668780
O O1 0.760910 0.255391 0.876822
O O2 0.736232 0.253222 0.753044
O O3 0.242414 0.258307 0.885453
O O4 0.570385 0.000000 0.837427
O O5 0.628320 0.716409 0.399043
O O6 0.736049 0.759791 0.508402
O O7 0.178439 0.782348 0.373611
O O8 0.758009 0.000000 0.424284
O O9 0.901637 0.500000 0.176879
O O10 0.715644 0.249604 0.263740
O O11 0.749108 0.240887 0.131474
O O12 0.233444 0.240216 0.139391
O O13 0.413937 0.500000 0.347364
O O14 0.900999 0.000000 0.927500
O O15 0.718943 0.744997 0.008032
O O16 0.578931 0.500000 0.587572
O O17 0.620360 0.769783 0.645087
O O18 0.179243 0.723805 0.616018
O O19 0.562644 0.500000 0.095220
O O20 0.923634 0.000000 0.663054
#
# Coordination Sequence:
#
# PCOD8052344 Si02
#       8
#     2   2   2   2   2   2   2   2
#     4   9  19  35  57  80 109 147 190 233 284 346
#     4  12  25  42  62  90 124 158 195 244 298 354
#     4   9  19  35  57  80 109 147 190 233 284 346
#     4  11  22  41  66  90 116 157 204 247 294 354
#     4  10  19  34  54  80 110 146 187 232 282 340
#     4  12  25  42  62  90 124 158 195 244 298 354
#     4  10  19  34  54  80 110 146 187 232 282 340
#     4  11  22  41  66  90 116 157 204 247 294 354
#
# _framework density 20.867947000000001
#
# number of rings (size 3 to 8) (size 9 to 14) (size 15 to 20)
#    0.000    1.500    0.000    6.000    0.000    4.000 
#    0.000    7.500    0.000    0.000    0.000    0.000 
#    0.000    0.000    0.000    0.000    0.000    0.000 
#
# Total GULP energy -198483.301992 kJ/mol
# GULP energy per Si atom -12405.206374 kJ/mol
# Density = 2.082045 g / cm^3
# Si number density = 20.867947 Si / 1000 Ang^3
#
#
#
# Elastic Constant Matrix: (Units=GPa)
#
#
# Indices 1 2 3 4 5 6 
#
# 1 115.8741 13.5823 16.5497 0.0000 0.3618 0.0000
# 2 13.5823 40.8431 28.3086 0.0000 -3.1093 0.0000
# 3 16.5497 28.3086 107.1184 0.0000 -1.5854 0.0000
# 4 0.0000 0.0000 0.0000 36.4369 0.0000 4.6821
# 5 0.3618 -3.1093 -1.5854 0.0000 46.5024 0.0000
# 6 0.0000 0.0000 0.0000 4.6821 0.0000 35.0050
#
#
#
# Elastic Compliance Matrix: (Units=1/GPa)
#
#
# Indices 1 2 3 4 5 6 
#
# 1 0.009030 -0.002514 -0.000735 0.000000 -0.000263 0.000000
# 2 -0.002514 0.030815 -0.007728 0.000000 0.001816 0.000000
# 3 -0.000735 -0.007728 0.011490 0.000000 -0.000119 0.000000
# 4 0.000000 0.000000 0.000000 0.027925 0.000000 -0.003735
# 5 -0.000263 0.001816 -0.000119 0.000000 0.021624 0.000000
# 6 0.000000 0.000000 0.000000 -0.003735 0.000000 0.029067
#
#
# Mechanical properties :
#
#
# Convention : Reuss Voigt Hill
#
# Bulk Modulus (GPa) = 34.03557 42.30187 38.16872
# Shear Modulus (GPa) = 30.92196 37.28188 34.10192
#
# Velocity S-wave (km/s) = 3.85358 4.23136 4.04688
# Velocity P-wave (km/s) = 6.01211 6.64739 6.33772
#
# Compressibility (1/GPa) = 0.02938103
#
# Stress axis : x y z
#
# Youngs Moduli (GPa) = 110.73599 32.45208 87.03534
#
# Poissons Ratio (x) = 0.08158 0.06395
# Poissons Ratio (y) = 0.27838 0.67263
# Poissons Ratio (z) = 0.08136 0.25080
#
# Static dielectric constant tensor:
#      x y z
#    x 4.092720 0.000000 -0.013560 
#    y 0.000000 3.277330 0.000000 
#    z -0.013560 0.000000 3.982290 
# 
# 
# High freq. dielectric constant tensor:
#      x y z
#    x 1.835900 0.000000 -0.000350 
#    y 0.000000 1.791390 0.000000 
#    z -0.000350 0.000000 1.834980 
# 
# From -- ./inp_files/5884.got.cif
#   From: 2010.03.12/outbox.cif.g09.slc.cpg/sg6_3_cif.got.tgz:5884.got - 2010.03.30 10:24:59.
