data_PCOD8052897
_publ_section_title
;
Structure prediction by ZEFSAII (Michael W. Deem and Ramdas Pophale) SiO2 
 PCOD8052897
Probable space group: C M
;
_chemical_formula_sum "Si O2"
_cell_formula_units_Z 28
_cell_length_a 7.914150
_cell_length_b 13.553522
_cell_length_c 11.760930
_cell_angle_alpha 90.000000
_cell_angle_beta 123.425731
_cell_angle_gamma 90.000000
_cell_volume 1052.874921
_symmetry_space_group_name_H-M "C M"
_symmetry_group_IT_number 8
_symmetry_cell_setting 'monoclinic'
loop_
_space_group_symop_operation_xyz
x,y,z
x,-y,z
1/2+x,1/2+y,z
1/2+x,1/2-y,z
loop_
_atom_site_type_symbol
_atom_site_label
_atom_site_fract_x
_atom_site_fract_y
_atom_site_fract_z
Si Si1 0.798660 0.193300 0.451670
Si Si2 0.286040 0.114537 0.880157
Si Si3 0.835223 0.116476 0.705356
Si Si4 0.516418 0.389221 0.134287
Si Si5 0.639573 0.882129 0.860581
Si Si6 0.136780 0.889838 0.425656
Si Si7 0.926498 0.614163 0.182857
O O1 0.739486 0.143803 0.549091
O O2 0.820371 0.312273 0.476630
O O3 0.614250 0.178230 0.296001
O O4 0.004535 0.144892 0.483834
O O5 0.423245 0.158135 0.827070
O O6 0.062657 0.164506 0.800593
O O7 0.249796 0.000000 0.844741
O O8 0.407485 0.130866 0.041735
O O9 0.686322 0.155579 0.750239
O O10 0.851365 0.000000 0.725610
O O11 0.523487 0.500000 0.086767
O O12 0.493318 0.390705 0.261787
O O13 0.728858 0.341789 0.173360
O O14 0.321125 0.336718 0.006276
O O15 0.636245 0.000000 0.870845
O O16 0.225724 0.000000 0.482105
O O17 0.966119 0.500000 0.228896
#
# Coordination Sequence:
#
# PCOD8052897 Si02
#       7
#     4   4   4   4   4   4   4
#     4  12  25  44  72 105 146 194 253 306 378 453
#     4   9  17  32  60  99 147 200 251 305 378 445
#     4  10  20  38  64 103 150 197 248 309 373 453
#     4   9  17  34  65 102 141 187 242 305 371 437
#     4   9  16  31  60 100 144 193 245 301 369 443
#     4  11  25  47  73 106 150 196 248 314 378 448
#     4  10  18  34  65 107 150 195 248 312 374 443
#
# _framework density 26.593852999999999
#
# number of rings (size 3 to 8) (size 9 to 14) (size 15 to 20)
#    0.000    2.000    1.429    3.000    0.000    2.286 
#    5.143    1.429    3.143    0.000    0.000    1.000 
#    0.000    0.000    0.000    0.000    0.000    0.000 
#
# Total GULP energy -173587.942995 kJ/mol
# GULP energy per Si atom -12399.138785 kJ/mol
# Density = 2.653332 g / cm^3
# Si number density = 26.593853 Si / 1000 Ang^3
#
#
#
# Elastic Constant Matrix: (Units=GPa)
#
#
# Indices 1 2 3 4 5 6 
#
# 1 155.8522 46.6229 39.6627 0.0000 -29.5474 0.0000
# 2 46.6229 89.5279 0.2664 0.0000 -6.8831 0.0000
# 3 39.6627 0.2664 80.9113 0.0000 -21.1609 0.0000
# 4 0.0000 0.0000 0.0000 -16.1430 0.0000 4.4735
# 5 -29.5474 -6.8831 -21.1609 0.0000 46.7503 0.0000
# 6 0.0000 0.0000 0.0000 4.4735 0.0000 32.5252
#
#
#
# Elastic Compliance Matrix: (Units=1/GPa)
#
#
# Indices 1 2 3 4 5 6 
#
# 1 0.009411 -0.004612 -0.003652 0.000000 0.003616 0.000000
# 2 -0.004612 0.013572 0.002242 0.000000 0.000098 0.000000
# 3 -0.003652 0.002242 0.015454 0.000000 0.005017 0.000000
# 4 0.000000 0.000000 0.000000 -0.059672 0.000000 0.008207
# 5 0.003616 0.000098 0.005017 0.000000 0.025961 0.000000
# 6 0.000000 0.000000 0.000000 0.008207 0.000000 0.029617
#
#
# Mechanical properties :
#
#
# Convention : Reuss Voigt Hill
#
# Bulk Modulus (GPa) = 37.88995 55.48839 46.68917
# Shear Modulus (GPa) = 90.60286 28.60913 59.60599
#
# Velocity S-wave (km/s) = 5.84321 3.28347 4.73942
# Velocity P-wave (km/s) = 7.73322 5.94014 6.89521
#
# Compressibility (1/GPa) = 0.02639222
#
# Stress axis : x y z
#
# Youngs Moduli (GPa) = 106.25831 73.67918 64.70680
#
# Poissons Ratio (x) = 0.33981 0.23634
# Poissons Ratio (y) = 0.49007 -0.14506
# Poissons Ratio (z) = 0.38810 -0.16517
#
# Static dielectric constant tensor:
#      x y z
#    x 4.935960 0.000000 -0.134040 
#    y 0.000000 4.698950 0.000000 
#    z -0.134040 0.000000 4.524550 
# 
# 
# High freq. dielectric constant tensor:
#      x y z
#    x 2.069600 0.000000 -0.013100 
#    y 0.000000 2.065950 0.000000 
#    z -0.013100 0.000000 2.056580 
# 
# From -- ./inp_files/18901.got.cif
#   From: 2010.03.12/outbox.cif.g09.slc.cpg/sg8_10_cif.got.tgz:18901.got - 2010.03.31 10:45:26.
