data_PCOD8052985
_publ_section_title
;
Structure prediction by ZEFSAII (Michael W. Deem and Ramdas Pophale) SiO2 
 PCOD8052985
Probable space group: C M
;
_chemical_formula_sum "Si O2"
_cell_formula_units_Z 32
_cell_length_a 28.030354
_cell_length_b 8.874152
_cell_length_c 14.094112
_cell_angle_alpha 90.000000
_cell_angle_beta 29.870502
_cell_angle_gamma 90.000000
_cell_volume 1746.057643
_symmetry_space_group_name_H-M "C M"
_symmetry_group_IT_number 8
_symmetry_cell_setting 'monoclinic'
loop_
_space_group_symop_operation_xyz
x,y,z
x,-y,z
1/2+x,1/2+y,z
1/2+x,1/2-y,z
loop_
_atom_site_type_symbol
_atom_site_label
_atom_site_fract_x
_atom_site_fract_y
_atom_site_fract_z
Si Si1 0.252370 0.824991 0.329170
Si Si2 0.872903 0.176621 0.971727
Si Si3 0.941793 0.329327 0.682684
Si Si4 0.538160 0.822751 0.125834
Si Si5 0.422542 0.178527 0.503873
Si Si6 0.746223 0.179456 0.709344
Si Si7 0.060094 0.670884 0.650538
Si Si8 0.344662 0.176295 0.366355
O O1 0.279987 0.726823 0.189935
O O2 0.144903 0.777116 0.539448
O O3 0.320415 0.784532 0.299972
O O4 0.256814 0.000000 0.295839
O O5 0.887145 0.000000 0.953230
O O6 0.865249 0.227691 0.874004
O O7 0.963242 0.262527 0.865015
O O8 0.902352 0.500000 0.749277
O O9 0.954843 0.269565 0.553277
O O10 0.043769 0.322781 0.563504
O O11 0.504957 0.767979 0.288116
O O12 0.454559 0.773988 0.196214
O O13 0.549965 0.000000 0.105050
O O14 0.640951 0.754485 0.918769
O O15 0.321736 0.256444 0.654735
O O16 0.408091 0.000000 0.520694
O O17 0.771860 0.234241 0.559611
O O18 0.748566 0.000000 0.708233
O O19 0.077132 0.500000 0.656210
O O20 0.330762 0.000000 0.412361
#
# Coordination Sequence:
#
# PCOD8052985 Si02
#       8
#     4   4   4   4   4   4   4   4
#     4  11  21  35  56  81 107 141 185 229 275 324
#     4  10  20  35  54  77 108 143 179 224 272 320
#     4   8  17  35  56  76 105 144 182 221 267 317
#     4   8  16  33  54  75 101 135 170 208 258 316
#     4   9  17  35  57  74 104 144 177 211 262 320
#     4  10  19  32  52  81 108 132 174 224 264 312
#     4   9  19  36  54  76 107 142 183 224 268 317
#     4   9  20  37  55  74 102 141 178 213 264 324
#
# _framework density 18.327002
#
# number of rings (size 3 to 8) (size 9 to 14) (size 15 to 20)
#    0.750    2.000    0.000    2.625    0.000    2.500 
#    2.250    6.250    0.000    0.000    0.000    0.000 
#    0.000    0.000    0.000    0.000    0.000    0.000 
#
# Total GULP energy -198271.393548 kJ/mol
# GULP energy per Si atom -12391.962097 kJ/mol
# Density = 1.828529 g / cm^3
# Si number density = 18.327002 Si / 1000 Ang^3
#
#
#
# Elastic Constant Matrix: (Units=GPa)
#
#
# Indices 1 2 3 4 5 6 
#
# 1 55.9184 30.8927 18.7052 0.0000 2.7917 0.0000
# 2 30.8927 70.8483 28.6586 0.0000 3.9370 0.0000
# 3 18.7052 28.6586 97.3751 0.0000 -9.9296 0.0000
# 4 0.0000 0.0000 0.0000 28.8801 0.0000 -2.4462
# 5 2.7917 3.9370 -9.9296 0.0000 23.5327 0.0000
# 6 0.0000 0.0000 0.0000 -2.4462 0.0000 23.3533
#
#
#
# Elastic Compliance Matrix: (Units=1/GPa)
#
#
# Indices 1 2 3 4 5 6 
#
# 1 0.023906 -0.009493 -0.002012 0.000000 -0.002097 0.000000
# 2 -0.009493 0.020347 -0.004595 0.000000 -0.004217 0.000000
# 3 -0.002012 -0.004595 0.012656 0.000000 0.006347 0.000000
# 4 0.000000 0.000000 0.000000 0.034936 0.000000 0.003659
# 5 -0.002097 -0.004217 0.006347 0.000000 0.046126 0.000000
# 6 0.000000 0.000000 0.000000 0.003659 0.000000 0.043204
#
#
# Mechanical properties :
#
#
# Convention : Reuss Voigt Hill
#
# Bulk Modulus (GPa) = 40.47249 42.29497 41.38373
# Shear Modulus (GPa) = 22.56209 24.87891 23.72050
#
# Velocity S-wave (km/s) = 3.51249 3.68842 3.60153
# Velocity P-wave (km/s) = 6.21141 6.42397 6.31858
#
# Compressibility (1/GPa) = 0.02470814
#
# Stress axis : x y z
#
# Youngs Moduli (GPa) = 41.83120 49.14705 79.01656
#
# Poissons Ratio (x) = 0.46658 0.15897
# Poissons Ratio (y) = 0.39712 0.36306
# Poissons Ratio (z) = 0.08416 0.22582
#
# Static dielectric constant tensor:
#      x y z
#    x 3.351880 0.000000 0.027530 
#    y 0.000000 3.189770 0.000000 
#    z 0.027530 0.000000 3.369220 
# 
# 
# High freq. dielectric constant tensor:
#      x y z
#    x 1.699660 0.000000 0.002820 
#    y 0.000000 1.701400 0.000000 
#    z 0.002820 0.000000 1.701890 
# 
# From -- ./inp_files/28380.got.cif
#   From: 2010.03.12/outbox.cif.g09.slc.cpg/sg8_15_cif.got.tgz:28380.got - 2010.03.31 10:45:26.
