data_PCOD8052884
_publ_section_title
;
Structure prediction by ZEFSAII (Michael W. Deem and Ramdas Pophale) SiO2 
 PCOD8052884
Probable space group: C M
;
_chemical_formula_sum "Si O2"
_cell_formula_units_Z 28
_cell_length_a 12.728988
_cell_length_b 13.154534
_cell_length_c 9.921145
_cell_angle_alpha 90.000000
_cell_angle_beta 115.624396
_cell_angle_gamma 90.000000
_cell_volume 1497.850230
_symmetry_space_group_name_H-M "C M"
_symmetry_group_IT_number 8
_symmetry_cell_setting 'monoclinic'
loop_
_space_group_symop_operation_xyz
x,y,z
x,-y,z
1/2+x,1/2+y,z
1/2+x,1/2-y,z
loop_
_atom_site_type_symbol
_atom_site_label
_atom_site_fract_x
_atom_site_fract_y
_atom_site_fract_z
Si Si1 0.780260 0.616734 0.489400
Si Si2 0.733624 0.388238 0.973395
Si Si3 0.846669 0.117878 0.991088
Si Si4 0.923684 0.615806 0.304036
Si Si5 0.862312 0.697857 0.806835
Si Si6 0.063502 0.221463 0.249081
Si Si7 0.620171 0.799067 0.997868
O O1 0.779786 0.500000 0.537639
O O2 0.873994 0.633432 0.424479
O O3 0.813985 0.692003 0.629193
O O4 0.652833 0.643691 0.365067
O O5 0.683390 0.500000 0.970545
O O6 0.790786 0.380948 0.858676
O O7 0.627034 0.311279 0.929882
O O8 0.828073 0.357607 0.138139
O O9 0.953685 0.154079 0.142407
O O10 0.861045 0.000000 0.958259
O O11 0.845813 0.187624 0.855900
O O12 0.725946 0.129676 0.007565
O O13 0.967357 0.500000 0.310032
O O14 0.028996 0.694123 0.340955
O O15 0.995470 0.657652 0.882831
O O16 0.122963 0.283870 0.160225
#
# Coordination Sequence:
#
# PCOD8052884 Si02
#       7
#     4   4   4   4   4   4   4
#     4  11  23  38  59  85 114 155 190 231 285 341
#     4  10  18  34  57  84 111 144 193 232 271 337
#     4  10  21  36  58  87 112 147 191 236 287 337
#     4  10  20  35  58  87 115 147 191 229 278 339
#     4  10  22  38  55  83 117 149 188 234 284 332
#     4  11  19  38  59  85 118 147 190 237 282 333
#     4  10  19  35  56  83 113 147 185 237 277 331
#
# _framework density 18.693458
#
# number of rings (size 3 to 8) (size 9 to 14) (size 15 to 20)
#    0.000    1.714    5.714    0.857    0.000    6.286 
#    0.000    2.143    0.000    1.714    0.000    0.000 
#    0.000    0.000    0.000    0.000    0.000    0.000 
#
# Total GULP energy -173585.666464 kJ/mol
# GULP energy per Si atom -12398.976176 kJ/mol
# Density = 1.865091 g / cm^3
# Si number density = 18.693458 Si / 1000 Ang^3
#
#
#
# Elastic Constant Matrix: (Units=GPa)
#
#
# Indices 1 2 3 4 5 6 
#
# 1 94.8127 34.4991 38.1175 0.0000 -10.0006 0.0000
# 2 34.4991 95.6724 29.4598 0.0000 -8.8049 0.0000
# 3 38.1175 29.4598 104.6688 0.0000 -10.1984 0.0000
# 4 0.0000 0.0000 0.0000 21.3244 0.0000 -4.7367
# 5 -10.0006 -8.8049 -10.1984 0.0000 21.8641 0.0000
# 6 0.0000 0.0000 0.0000 -4.7367 0.0000 4.4624
#
#
#
# Elastic Compliance Matrix: (Units=1/GPa)
#
#
# Indices 1 2 3 4 5 6 
#
# 1 0.013624 -0.003495 -0.003675 0.000000 0.003110 0.000000
# 2 -0.003495 0.012566 -0.002018 0.000000 0.002520 0.000000
# 3 -0.003675 -0.002018 0.011751 0.000000 0.002988 0.000000
# 4 0.000000 0.000000 0.000000 0.061363 0.000000 0.065136
# 5 0.003110 0.002520 0.002988 0.000000 0.049568 0.000000
# 6 0.000000 0.000000 0.000000 0.065136 0.000000 0.293238
#
#
# Mechanical properties :
#
#
# Convention : Reuss Voigt Hill
#
# Bulk Modulus (GPa) = 51.11136 55.47852 53.29494
# Shear Modulus (GPa) = 10.70642 22.40201 16.55422
#
# Velocity S-wave (km/s) = 2.39579 3.46553 2.97907
# Velocity P-wave (km/s) = 5.92066 6.76429 6.35649
#
# Compressibility (1/GPa) = 0.01956512
#
# Stress axis : x y z
#
# Youngs Moduli (GPa) = 73.39835 79.57906 85.09601
#
# Poissons Ratio (x) = 0.27813 0.31271
# Poissons Ratio (y) = 0.25653 0.17176
# Poissons Ratio (z) = 0.26973 0.16063
#
# Static dielectric constant tensor:
#      x y z
#    x 3.566990 0.000000 -0.129900 
#    y 0.000000 3.478710 0.000000 
#    z -0.129900 0.000000 3.240910 
# 
# 
# High freq. dielectric constant tensor:
#      x y z
#    x 1.733430 0.000000 -0.013600 
#    y 0.000000 1.724320 0.000000 
#    z -0.013600 0.000000 1.703150 
# 
# From -- ./inp_files/10597.got.cif
#   From: 2010.03.12/outbox.cif.g09.slc.cpg/sg8_6_cif.got.tgz:10597.got - 2010.03.31 10:45:26.
