data_PCOD8052035
_publ_section_title
;
Structure prediction by ZEFSAII (Michael W. Deem and Ramdas Pophale) SiO2 
 PCOD8052035
Probable space group: C 2
;
_chemical_formula_sum "Si O2"
_cell_formula_units_Z 18
_cell_length_a 5.313248
_cell_length_b 23.675454
_cell_length_c 5.574119
_cell_angle_alpha 90.000000
_cell_angle_beta 90.882383
_cell_angle_gamma 90.000000
_cell_volume 701.105115
_symmetry_space_group_name_H-M "C 2"
_symmetry_group_IT_number 5
_symmetry_cell_setting 'monoclinic'
loop_
_space_group_symop_operation_xyz
x,y,z
-x,y,-z
1/2+x,1/2+y,z
1/2-x,1/2+y,-z
loop_
_atom_site_type_symbol
_atom_site_label
_atom_site_fract_x
_atom_site_fract_y
_atom_site_fract_z
Si Si1 0.500000 0.842170 0.500000
Si Si2 0.646329 0.263089 0.258689
Si Si3 0.749253 0.410133 0.869027
Si Si4 0.747209 0.520103 0.637020
Si Si5 0.250874 0.639670 0.150593
O O1 0.391347 0.803009 0.280178
O O2 0.275312 0.881738 0.604888
O O3 0.500000 0.278871 0.500000
O O4 0.726861 0.197858 0.293436
O O5 0.500000 0.271391 0.000000
O O6 0.749145 0.478905 0.867633
O O7 0.500000 0.386960 0.000000
O O8 0.000000 0.388805 0.000000
O O9 0.500000 0.498438 0.500000
O O10 0.718718 0.586546 0.676459
O O11 0.000000 0.506609 0.500000
O O12 0.500000 0.644252 0.000000
O O13 0.000000 0.627056 0.000000
#
# Coordination Sequence:
#
# PCOD8052035 Si02
#       5
#     2   4   4   4   4
#     4  12  32  50  82 116 168 216 292 338 414 502
#     4  11  30  52  82 120 166 218 282 344 420 494
#     4  12  29  51  79 115 161 218 272 342 418 493
#     4  12  24  45  78 115 160 206 265 338 416 496
#     4  11  25  47  77 116 160 206 264 338 416 494
#
# _framework density 25.673757999999999
#
# number of rings (size 3 to 8) (size 9 to 14) (size 15 to 20)
#    0.000    0.444    1.111    4.667   14.000    0.000 
#    0.000    0.000    0.000    0.000    0.000    0.000 
#    0.000    0.000    0.000    0.000    0.000    0.000 
#
# Total GULP energy -111542.574640 kJ/mol
# GULP energy per Si atom -12393.619404 kJ/mol
# Density = 2.561532 g / cm^3
# Si number density = 25.673758 Si / 1000 Ang^3
#
#
#
# Elastic Constant Matrix: (Units=GPa)
#
#
# Indices 1 2 3 4 5 6 
#
# 1 137.7734 42.1578 54.5330 0.0000 -2.6598 0.0000
# 2 42.1578 165.0171 41.1531 0.0000 3.1432 0.0000
# 3 54.5330 41.1531 117.7257 0.0000 -8.7006 0.0000
# 4 0.0000 0.0000 0.0000 34.7812 0.0000 2.7288
# 5 -2.6598 3.1432 -8.7006 0.0000 45.3158 0.0000
# 6 0.0000 0.0000 0.0000 2.7288 0.0000 38.6840
#
#
#
# Elastic Compliance Matrix: (Units=1/GPa)
#
#
# Indices 1 2 3 4 5 6 
#
# 1 0.009177 -0.001403 -0.003767 0.000000 -0.000087 0.000000
# 2 -0.001403 0.006891 -0.001826 0.000000 -0.000911 0.000000
# 3 -0.003767 -0.001826 0.011027 0.000000 0.002023 0.000000
# 4 0.000000 0.000000 0.000000 0.028911 0.000000 -0.002039
# 5 -0.000087 -0.000911 0.002023 0.000000 0.022514 0.000000
# 6 0.000000 0.000000 0.000000 -0.002039 0.000000 0.025994
#
#
# Mechanical properties :
#
#
# Convention : Reuss Voigt Hill
#
# Bulk Modulus (GPa) = 76.32165 77.35600 76.83882
# Shear Modulus (GPa) = 40.69169 42.60101 41.64635
#
# Velocity S-wave (km/s) = 3.98547 4.07790 4.03195
# Velocity P-wave (km/s) = 7.13937 7.23658 7.18814
#
# Compressibility (1/GPa) = 0.01310244
#
# Stress axis : x y z
#
# Youngs Moduli (GPa) = 108.96767 145.11035 90.68586
#
# Poissons Ratio (x) = 0.20365 0.34160
# Poissons Ratio (y) = 0.15293 0.16561
# Poissons Ratio (z) = 0.41046 0.26500
#
# Static dielectric constant tensor:
#      x y z
#    x 4.828130 0.000000 0.061350 
#    y 0.000000 5.986580 0.000000 
#    z 0.061350 0.000000 4.423290 
# 
# 
# High freq. dielectric constant tensor:
#      x y z
#    x 2.042930 0.000000 -0.001950 
#    y 0.000000 2.058450 0.000000 
#    z -0.001950 0.000000 2.006840 
# 
# From -- ./inp_files/873.got.cif
#   From: 2010.03.12/outbox.cif.g09.slc.cpg/sg5_1_cif.got.tgz:873.got - 2010.03.31 09:47:26.
