data_PCOD8052788
_publ_section_title
;
Structure prediction by ZEFSAII (Michael W. Deem and Ramdas Pophale) SiO2 
 PCOD8052788
Probable space group: C M
;
_chemical_formula_sum "Si O2"
_cell_formula_units_Z 32
_cell_length_a 20.005579
_cell_length_b 9.317157
_cell_length_c 12.125700
_cell_angle_alpha 90.000000
_cell_angle_beta 55.133232
_cell_angle_gamma 90.000000
_cell_volume 1854.433465
_symmetry_space_group_name_H-M "C M"
_symmetry_group_IT_number 8
_symmetry_cell_setting 'monoclinic'
loop_
_space_group_symop_operation_xyz
x,y,z
x,-y,z
1/2+x,1/2+y,z
1/2+x,1/2-y,z
loop_
_atom_site_type_symbol
_atom_site_label
_atom_site_fract_x
_atom_site_fract_y
_atom_site_fract_z
Si Si1 0.063430 0.331366 0.338940
Si Si2 0.645555 0.170137 0.041114
Si Si3 0.118937 0.331207 0.523740
Si Si4 0.884399 0.667930 0.555050
Si Si5 0.595995 0.335885 0.880303
Si Si6 0.827059 0.165736 0.822421
Si Si7 0.728233 0.335407 0.573786
Si Si8 0.989208 0.835753 0.782898
O O1 0.055535 0.500000 0.331076
O O2 0.107591 0.266515 0.189817
O O3 0.117118 0.294458 0.395716
O O4 0.971994 0.268471 0.437234
O O5 0.637372 0.000000 0.042802
O O6 0.594956 0.234878 0.987396
O O7 0.739758 0.219110 0.948606
O O8 0.119293 0.500000 0.545538
O O9 0.200785 0.263003 0.497456
O O10 0.037875 0.266901 0.654603
O O11 0.889417 0.500000 0.578947
O O12 0.852626 0.745259 0.692923
O O13 0.822210 0.696520 0.512966
O O14 0.599293 0.500000 0.917239
O O15 0.674330 0.298324 0.731855
O O16 0.514363 0.304138 0.885818
O O17 0.892855 0.189984 0.858204
O O18 0.822920 0.000000 0.791038
O O19 0.714446 0.500000 0.552477
O O20 0.013508 0.000000 0.731205
#
# Coordination Sequence:
#
# PCOD8052788 Si02
#       8
#     4   4   4   4   4   4   4   4
#     4   9  19  34  51  73 101 135 168 201 249 300
#     4  10  20  34  51  73 103 134 165 204 251 299
#     4  10  18  30  51  75  99 128 166 207 246 294
#     4  10  18  33  54  73  98 133 170 206 245 295
#     4   9  17  31  49  71  99 130 166 203 247 299
#     4  10  19  31  51  77 101 128 167 212 248 287
#     4   9  18  31  50  74 101 129 160 206 255 295
#     4   9  18  32  49  72 102 131 162 205 253 295
#
# _framework density 17.255945000000001
#
# number of rings (size 3 to 8) (size 9 to 14) (size 15 to 20)
#    0.000    2.500    2.500    1.125    0.000    2.500 
#    0.000    3.125    0.000    1.500    0.000    0.000 
#    0.000    0.000    0.000    0.000    0.000    0.000 
#
# Total GULP energy -198375.223724 kJ/mol
# GULP energy per Si atom -12398.451483 kJ/mol
# Density = 1.721667 g / cm^3
# Si number density = 17.255945 Si / 1000 Ang^3
#
#
#
# Elastic Constant Matrix: (Units=GPa)
#
#
# Indices 1 2 3 4 5 6 
#
# 1 134.5301 46.8310 71.3080 0.0000 4.7436 0.0000
# 2 46.8310 50.9760 41.9445 0.0000 7.4167 0.0000
# 3 71.3080 41.9445 119.5053 0.0000 5.4809 0.0000
# 4 0.0000 0.0000 0.0000 17.9540 0.0000 4.6966
# 5 4.7436 7.4167 5.4809 0.0000 25.8598 0.0000
# 6 0.0000 0.0000 0.0000 4.6966 0.0000 28.5183
#
#
#
# Elastic Compliance Matrix: (Units=1/GPa)
#
#
# Indices 1 2 3 4 5 6 
#
# 1 0.012701 -0.007781 -0.004891 0.000000 0.000938 0.000000
# 2 -0.007781 0.033276 -0.006730 0.000000 -0.006690 0.000000
# 3 -0.004891 -0.006730 0.013651 0.000000 -0.000066 0.000000
# 4 0.000000 0.000000 0.000000 0.058205 0.000000 -0.009586
# 5 0.000938 -0.006690 -0.000066 0.000000 0.040431 0.000000
# 6 0.000000 0.000000 0.000000 -0.009586 0.000000 0.036644
#
#
# Mechanical properties :
#
#
# Convention : Reuss Voigt Hill
#
# Bulk Modulus (GPa) = 48.01756 69.46427 58.74091
# Shear Modulus (GPa) = 20.77684 24.12828 22.45256
#
# Velocity S-wave (km/s) = 3.47369 3.74339 3.61106
# Velocity P-wave (km/s) = 6.63143 7.68288 7.17643
#
# Compressibility (1/GPa) = 0.02082571
#
# Stress axis : x y z
#
# Youngs Moduli (GPa) = 78.73365 30.05178 73.25328
#
# Poissons Ratio (x) = 0.23382 0.35827
# Poissons Ratio (y) = 0.61259 0.49299
# Poissons Ratio (z) = 0.38507 0.20225
#
# Static dielectric constant tensor:
#      x y z
#    x 3.575530 0.000000 -0.069470 
#    y 0.000000 3.095730 0.000000 
#    z -0.069470 0.000000 3.110810 
# 
# 
# High freq. dielectric constant tensor:
#      x y z
#    x 1.684270 0.000000 0.001710 
#    y 0.000000 1.653680 0.000000 
#    z 0.001710 0.000000 1.634130 
# 
# From -- ./inp_files/22927.got.cif
#   From: 2010.03.12/outbox.cif.g09.slc.cpg/sg8_12_cif.got.tgz:22927.got - 2010.03.31 10:45:26.
