data_PCOD8052142
_publ_section_title
;
Structure prediction by ZEFSAII (Michael W. Deem and Ramdas Pophale) SiO2 
 PCOD8052142
Probable space group: C 2
;
_chemical_formula_sum "Si O2"
_cell_formula_units_Z 22
_cell_length_a 22.262465
_cell_length_b 5.167139
_cell_length_c 9.105363
_cell_angle_alpha 90.000000
_cell_angle_beta 114.780265
_cell_angle_gamma 90.000000
_cell_volume 950.975112
_symmetry_space_group_name_H-M "C 2"
_symmetry_group_IT_number 5
_symmetry_cell_setting 'monoclinic'
loop_
_space_group_symop_operation_xyz
x,y,z
-x,y,-z
1/2+x,1/2+y,z
1/2-x,1/2+y,-z
loop_
_atom_site_type_symbol
_atom_site_label
_atom_site_fract_x
_atom_site_fract_y
_atom_site_fract_z
Si Si1 0.394686 0.953750 0.382969
Si Si2 0.500000 0.037081 0.000000
Si Si3 0.619197 0.414563 0.088003
Si Si4 0.437082 0.715953 0.712557
Si Si5 0.754076 0.361742 0.101402
Si Si6 0.054597 0.967490 0.719682
O O1 0.397993 0.908309 0.562714
O O2 0.318922 0.940979 0.256965
O O3 0.438487 0.721337 0.369707
O O4 0.427285 0.219178 0.360049
O O5 0.431562 0.188227 0.928513
O O6 0.498795 0.866876 0.851319
O O7 0.613227 0.630506 0.209334
O O8 0.695273 0.322210 0.160040
O O9 0.602224 0.508964 0.907170
O O10 0.475898 0.465237 0.682942
O O11 0.735248 0.592103 0.970893
#
# Coordination Sequence:
#
# PCOD8052142 Si02
#       6
#     4   2   4   4   4   4
#     4  12  28  49  75 113 153 195 259 316 375 451
#     4  12  24  46  74 104 158 194 258 312 394 444
#     4  12  25  45  78 104 149 203 255 305 390 452
#     4  12  28  45  76 116 152 202 255 327 379 457
#     4  12  26  50  78 106 148 207 258 310 380 466
#     4  12  24  48  77 108 149 199 246 314 386 451
#
# _framework density 23.134150999999999
#
# number of rings (size 3 to 8) (size 9 to 14) (size 15 to 20)
#    0.000    0.000    7.273    1.636    5.091    2.909 
#    3.273    0.000    0.000    0.000    0.000    0.000 
#    0.000    0.000    0.000    0.000    0.000    0.000 
#
# Total GULP energy -136339.991659 kJ/mol
# GULP energy per Si atom -12394.544696 kJ/mol
# Density = 2.308150 g / cm^3
# Si number density = 23.134151 Si / 1000 Ang^3
#
#
#
# Elastic Constant Matrix: (Units=GPa)
#
#
# Indices 1 2 3 4 5 6 
#
# 1 144.2686 46.7512 44.5978 0.0000 -5.8325 0.0000
# 2 46.7512 113.2418 28.5197 0.0000 -17.5498 0.0000
# 3 44.5978 28.5197 140.8739 0.0000 -6.7497 0.0000
# 4 0.0000 0.0000 0.0000 62.6791 0.0000 -7.4848
# 5 -5.8325 -17.5498 -6.7497 0.0000 31.6422 0.0000
# 6 0.0000 0.0000 0.0000 -7.4848 0.0000 21.0506
#
#
#
# Elastic Compliance Matrix: (Units=1/GPa)
#
#
# Indices 1 2 3 4 5 6 
#
# 1 0.008564 -0.003095 -0.002113 0.000000 -0.000589 0.000000
# 2 -0.003095 0.011208 -0.001029 0.000000 0.005427 0.000000
# 3 -0.002113 -0.001029 0.008012 0.000000 0.000749 0.000000
# 4 0.000000 0.000000 0.000000 0.016662 0.000000 0.005924
# 5 -0.000589 0.005427 0.000749 0.000000 0.034664 0.000000
# 6 0.000000 0.000000 0.000000 0.005924 0.000000 0.049611
#
#
# Mechanical properties :
#
#
# Convention : Reuss Voigt Hill
#
# Bulk Modulus (GPa) = 65.31583 70.90240 68.10911
# Shear Modulus (GPa) = 34.17680 41.64207 37.90944
#
# Velocity S-wave (km/s) = 3.84778 4.24727 4.05245
# Velocity P-wave (km/s) = 6.93075 7.40050 7.16947
#
# Compressibility (1/GPa) = 0.01531023
#
# Stress axis : x y z
#
# Youngs Moduli (GPa) = 116.77236 89.21801 124.81755
#
# Poissons Ratio (x) = 0.27609 0.26371
# Poissons Ratio (y) = 0.36136 0.12849
# Poissons Ratio (z) = 0.24672 0.09185
#
# Static dielectric constant tensor:
#      x y z
#    x 3.341700 0.000000 -1.147990 
#    y 0.000000 4.259910 0.000000 
#    z -1.147990 0.000000 3.902030 
# 
# 
# High freq. dielectric constant tensor:
#      x y z
#    x 1.911790 0.000000 -0.007310 
#    y 0.000000 1.919320 0.000000 
#    z -0.007310 0.000000 1.922390 
# 
# From -- ./inp_files/28312.got.cif
#   From: 2010.03.12/outbox.cif.g09.slc.cpg/sg5_15_cif.got.tgz:28312.got - 2010.03.31 09:47:26.
