data_PCOD8052681
_publ_section_title
;
Structure prediction by ZEFSAII (Michael W. Deem and Ramdas Pophale) SiO2 
 PCOD8052681
Probable space group: P C
;
_chemical_formula_sum "Si O2"
_cell_formula_units_Z 12
_cell_length_a 6.816563
_cell_length_b 14.868296
_cell_length_c 5.372356
_cell_angle_alpha 90.000000
_cell_angle_beta 71.569910
_cell_angle_gamma 90.000000
_cell_volume 516.564985
_symmetry_space_group_name_H-M "P C"
_symmetry_group_IT_number 7
_symmetry_cell_setting 'monoclinic'
loop_
_space_group_symop_operation_xyz
x,y,z
x,-y,1/2+z
loop_
_atom_site_type_symbol
_atom_site_label
_atom_site_fract_x
_atom_site_fract_y
_atom_site_fract_z
Si Si1 0.758100 0.326101 0.000000
Si Si2 0.307610 0.944614 0.406589
Si Si3 0.109360 0.555166 0.246143
Si Si4 0.040655 0.794356 0.712152
Si Si5 0.655073 0.824757 0.147047
Si Si6 0.373206 0.294666 0.435870
O O1 0.544542 0.354142 0.219533
O O2 0.923553 0.287456 0.128552
O O3 0.704448 0.252394 0.820155
O O4 0.868938 0.412821 0.833479
O O5 0.152995 0.859214 0.469762
O O6 0.546841 0.910906 0.318890
O O7 0.264024 0.001628 0.671726
O O8 0.154894 0.502626 0.481843
O O9 0.261585 0.641448 0.181164
O O10 0.206228 0.748749 0.823131
O O11 0.870084 0.853296 0.931159
O O12 0.489078 0.788886 0.014555
#
# Coordination Sequence:
#
# PCOD8052681 Si02
#       6
#     2   2   2   2   2   2
#     4  11  25  45  78 102 139 192 251 290 350 442
#     4  12  28  46  70 110 152 186 238 307 371 421
#     4  12  28  46  70 110 152 186 238 307 371 421
#     4  11  24  47  76 102 139 194 247 291 356 438
#     4  11  25  45  78 102 139 192 251 290 350 442
#     4  11  24  47  76 102 139 194 247 291 356 438
#
# _framework density 23.230381000000001
#
# number of rings (size 3 to 8) (size 9 to 14) (size 15 to 20)
#    0.000    0.667    3.333    3.000    9.333    2.667 
#    0.000    0.000    0.000    0.000    0.000    0.000 
#    0.000    0.000    0.000    0.000    0.000    0.000 
#
# Total GULP energy -148823.835502 kJ/mol
# GULP energy per Si atom -12401.986292 kJ/mol
# Density = 2.317751 g / cm^3
# Si number density = 23.230381 Si / 1000 Ang^3
#
#
#
# Elastic Constant Matrix: (Units=GPa)
#
#
# Indices 1 2 3 4 5 6 
#
# 1 138.9087 28.5418 52.1051 0.0000 -9.9724 0.0000
# 2 28.5418 61.9631 31.3405 0.0000 -10.1997 0.0000
# 3 52.1051 31.3405 141.2035 0.0000 -18.9021 0.0000
# 4 0.0000 0.0000 0.0000 58.5459 0.0000 -13.1751
# 5 -9.9724 -10.1997 -18.9021 0.0000 59.9339 0.0000
# 6 0.0000 0.0000 0.0000 -13.1751 0.0000 35.9616
#
#
#
# Elastic Compliance Matrix: (Units=1/GPa)
#
#
# Indices 1 2 3 4 5 6 
#
# 1 0.008740 -0.002678 -0.002607 0.000000 0.000176 0.000000
# 2 -0.002678 0.019210 -0.003025 0.000000 0.001870 0.000000
# 3 -0.002607 -0.003025 0.008967 0.000000 0.001879 0.000000
# 4 0.000000 0.000000 0.000000 0.018615 0.000000 0.006820
# 5 0.000176 0.001870 0.001879 0.000000 0.017625 0.000000
# 6 0.000000 0.000000 0.000000 0.006820 0.000000 0.030306
#
#
# Mechanical properties :
#
#
# Convention : Reuss Voigt Hill
#
# Bulk Modulus (GPa) = 49.27043 62.89446 56.08245
# Shear Modulus (GPa) = 39.41664 46.22748 42.82206
#
# Velocity S-wave (km/s) = 4.12366 4.46573 4.29810
# Velocity P-wave (km/s) = 6.62784 7.32962 6.98755
#
# Compressibility (1/GPa) = 0.02029615
#
# Stress axis : x y z
#
# Youngs Moduli (GPa) = 114.41884 52.05586 111.51953
#
# Poissons Ratio (x) = 0.13941 0.29074
# Poissons Ratio (y) = 0.30643 0.33737
# Poissons Ratio (z) = 0.29829 0.15748
#
# Static dielectric constant tensor:
#      x y z
#    x 4.283120 0.000000 -0.640680 
#    y 0.000000 4.142420 0.000000 
#    z -0.640680 0.000000 4.553750 
# 
# 
# High freq. dielectric constant tensor:
#      x y z
#    x 1.926720 0.000000 -0.016690 
#    y 0.000000 1.899100 0.000000 
#    z -0.016690 0.000000 1.944830 
# 
# From -- ./inp_files/144.got.cif
#   From: 2010.03.12/outbox.cif.g09.slc.cpg/sg7_cif.got.tgz:144.got - 2010.03.30 08:40:41.
