data_PCOD8052325
_publ_section_title
;
Structure prediction by ZEFSAII (Michael W. Deem and Ramdas Pophale) SiO2 
 PCOD8052325
Probable space group: P M
;
_chemical_formula_sum "Si O2"
_cell_formula_units_Z 16
_cell_length_a 9.339653
_cell_length_b 8.536587
_cell_length_c 11.296767
_cell_angle_alpha 90.000000
_cell_angle_beta 114.175630
_cell_angle_gamma 90.000000
_cell_volume 821.682783
_symmetry_space_group_name_H-M "P M"
_symmetry_group_IT_number 6
_symmetry_cell_setting 'monoclinic'
loop_
_space_group_symop_operation_xyz
x,y,z
x,-y,z
loop_
_atom_site_type_symbol
_atom_site_label
_atom_site_fract_x
_atom_site_fract_y
_atom_site_fract_z
Si Si1 0.378950 0.813088 0.248920
Si Si2 0.523146 0.185711 0.535923
Si Si3 0.830775 0.186332 0.770917
Si Si4 0.148506 0.318065 0.775811
Si Si5 0.202258 0.184583 0.543556
Si Si6 0.061096 0.185054 0.251101
Si Si7 0.441271 0.185211 0.010302
Si Si8 0.762920 0.813595 0.013938
O O1 0.499130 0.755720 0.392419
O O2 0.205545 0.748955 0.221974
O O3 0.429130 0.743896 0.138926
O O4 0.376644 0.000000 0.245027
O O5 0.687195 0.249572 0.641709
O O6 0.378045 0.240568 0.569100
O O7 0.523660 0.000000 0.538776
O O8 0.796026 0.241873 0.892202
O O9 0.987631 0.268173 0.781717
O O10 0.850502 0.000000 0.768386
O O11 0.176735 0.500000 0.805163
O O12 0.141146 0.279295 0.634931
O O13 0.290293 0.225153 0.882735
O O14 0.084113 0.228284 0.396518
O O15 0.198310 0.000000 0.569981
O O16 0.059953 0.000000 0.236159
O O17 0.898514 0.254775 0.146000
O O18 0.454720 0.000000 0.022732
O O19 0.596533 0.255746 0.000983
O O20 0.758695 0.000000 0.017854
#
# Coordination Sequence:
#
# PCOD8052325 Si02
#       8
#     2   2   2   2   2   2   2   2
#     4   8  14  26  49  81 111 133 158 200 250 298
#     4   8  15  29  53  85 110 129 162 207 250 297
#     4  10  19  33  54  77 104 136 170 208 251 300
#     4  12  25  37  49  70 102 136 175 219 258 299
#     4   9  17  33  57  80 103 133 168 205 250 304
#     4   8  14  26  48  80 111 133 159 201 249 297
#     4  10  19  33  55  79 103 133 169 208 253 304
#     4   9  17  29  51  84 110 129 163 210 253 297
#
# _framework density 19.472235000000001
#
# number of rings (size 3 to 8) (size 9 to 14) (size 15 to 20)
#    0.000    2.750    0.000    4.125    0.000    5.000 
#    0.000    6.250    0.000    9.750    0.000    0.000 
#    0.000    0.000    0.000    0.000    0.000    0.000 
#
# Total GULP energy -198345.904892 kJ/mol
# GULP energy per Si atom -12396.619056 kJ/mol
# Density = 1.942792 g / cm^3
# Si number density = 19.472235 Si / 1000 Ang^3
#
#
#
# Elastic Constant Matrix: (Units=GPa)
#
#
# Indices 1 2 3 4 5 6 
#
# 1 152.9237 8.3357 90.4993 0.0000 -2.7559 0.0000
# 2 8.3357 11.3191 3.9186 0.0000 -5.1871 0.0000
# 3 90.4993 3.9186 157.0736 0.0000 2.7916 0.0000
# 4 0.0000 0.0000 0.0000 2.3185 0.0000 -0.3525
# 5 -2.7559 -5.1871 2.7916 0.0000 43.7380 0.0000
# 6 0.0000 0.0000 0.0000 -0.3525 0.0000 2.4714
#
#
#
# Elastic Compliance Matrix: (Units=1/GPa)
#
#
# Indices 1 2 3 4 5 6 
#
# 1 0.010263 -0.005382 -0.005786 0.000000 0.000378 0.000000
# 2 -0.005382 0.097261 0.000476 0.000000 0.011165 0.000000
# 3 -0.005786 0.000476 0.009705 0.000000 -0.000927 0.000000
# 4 0.000000 0.000000 0.000000 0.440867 0.000000 0.062874
# 5 0.000378 0.011165 -0.000927 0.000000 0.024271 0.000000
# 6 0.000000 0.000000 0.000000 0.062874 0.000000 0.413592
#
#
# Mechanical properties :
#
#
# Convention : Reuss Voigt Hill
#
# Bulk Modulus (GPa) = 10.43344 58.53595 34.48470
# Shear Modulus (GPa) = 4.76512 24.27645 14.52079
#
# Velocity S-wave (km/s) = 1.56603 3.53472 2.73375
# Velocity P-wave (km/s) = 2.93933 6.84000 5.26428
#
# Compressibility (1/GPa) = 0.09584566
#
# Stress axis : x y z
#
# Youngs Moduli (GPa) = 97.43382 10.28158 103.04427
#
# Poissons Ratio (x) = 0.05534 0.59619
# Poissons Ratio (y) = 0.52441 -0.04906
# Poissons Ratio (z) = 0.56373 -0.00490
#
# Static dielectric constant tensor:
#      x y z
#    x 3.804390 0.000000 0.052170 
#    y 0.000000 2.880790 0.000000 
#    z 0.052170 0.000000 3.958050 
# 
# 
# High freq. dielectric constant tensor:
#      x y z
#    x 1.763710 0.000000 -0.000640 
#    y 0.000000 1.691330 0.000000 
#    z -0.000640 0.000000 1.776910 
# 
# From -- ./inp_files/3618.got.cif
#   From: 2010.03.12/outbox.cif.g09.slc.cpg/sg6_2_cif.got.tgz:3618.got - 2010.03.30 10:24:59.
