data_PCOD8052100
_publ_section_title
;
Structure prediction by ZEFSAII (Michael W. Deem and Ramdas Pophale) SiO2 
 PCOD8052100
Probable space group: C 2
;
_chemical_formula_sum "Si O2"
_cell_formula_units_Z 32
_cell_length_a 23.731032
_cell_length_b 13.946604
_cell_length_c 8.617182
_cell_angle_alpha 90.000000
_cell_angle_beta 147.591319
_cell_angle_gamma 90.000000
_cell_volume 1528.545799
_symmetry_space_group_name_H-M "C 2"
_symmetry_group_IT_number 5
_symmetry_cell_setting 'monoclinic'
loop_
_space_group_symop_operation_xyz
x,y,z
-x,y,-z
1/2+x,1/2+y,z
1/2-x,1/2+y,-z
loop_
_atom_site_type_symbol
_atom_site_label
_atom_site_fract_x
_atom_site_fract_y
_atom_site_fract_z
Si Si1 0.300182 0.806130 0.301113
Si Si2 0.208390 0.952933 0.852758
Si Si3 0.432021 0.966052 0.698265
Si Si4 0.581453 0.024648 0.813244
Si Si5 0.189839 0.657545 0.607175
Si Si6 0.548255 0.300671 0.439032
Si Si7 0.378018 0.654163 0.243574
Si Si8 0.139222 0.707514 0.140901
O O1 0.377349 0.863768 0.595806
O O2 0.362496 0.743365 0.321430
O O3 0.238055 0.736927 0.269385
O O4 0.228111 0.885667 0.048258
O O5 0.113050 0.897221 0.543002
O O6 0.167952 0.058123 0.790748
O O7 0.316874 0.967142 0.010596
O O8 0.509090 0.947010 0.732125
O O9 0.344338 0.046980 0.460139
O O10 0.500000 0.000592 0.000000
O O11 0.500000 0.071377 0.500000
O O12 0.606671 0.104284 0.000517
O O13 0.129119 0.712134 0.605775
O O14 0.166526 0.702743 0.385517
O O15 0.313953 0.669215 0.933374
O O16 0.500000 0.302781 0.500000
O O17 0.453834 0.285272 0.096683
O O18 0.500000 0.640032 0.500000
#
# Coordination Sequence:
#
# PCOD8052100 Si02
#       8
#     4   4   4   4   4   4   4   4
#     4  12  26  44  69 104 140 187 237 285 344 429
#     4  12  25  42  70 103 137 179 243 288 343 408
#     4  12  25  43  73 106 142 180 235 292 359 411
#     4  12  23  41  72 100 136 188 237 292 339 413
#     4  12  24  46  72 108 141 179 234 306 350 408
#     4  12  23  41  74 104 135 181 238 286 343 415
#     4  12  27  46  70  99 143 187 234 292 352 420
#     4  12  25  44  72 103 144 182 232 295 356 406
#
# _framework density 20.934930000000001
#
# number of rings (size 3 to 8) (size 9 to 14) (size 15 to 20)
#    0.000    0.000    8.750    1.125    1.750    2.000 
#    0.000    0.000    2.750    0.000    0.000    0.000 
#    0.000    0.000    0.000    0.000    0.000    0.000 
#
# Total GULP energy -198317.857981 kJ/mol
# GULP energy per Si atom -12394.866124 kJ/mol
# Density = 2.088728 g / cm^3
# Si number density = 20.934930 Si / 1000 Ang^3
#
#
#
# Elastic Constant Matrix: (Units=GPa)
#
#
# Indices 1 2 3 4 5 6 
#
# 1 70.7768 -11.3673 37.3219 0.0000 -4.3471 0.0000
# 2 -11.3673 51.5108 4.9149 0.0000 -19.0686 0.0000
# 3 37.3219 4.9149 114.6427 0.0000 -1.3205 0.0000
# 4 0.0000 0.0000 0.0000 36.9603 0.0000 4.2542
# 5 -4.3471 -19.0686 -1.3205 0.0000 22.3157 0.0000
# 6 0.0000 0.0000 0.0000 4.2542 0.0000 26.5276
#
#
#
# Elastic Compliance Matrix: (Units=1/GPa)
#
#
# Indices 1 2 3 4 5 6 
#
# 1 0.019857 0.009227 -0.006729 0.000000 0.011355 0.000000
# 2 0.009227 0.032785 -0.004069 0.000000 0.029571 0.000000
# 3 -0.006729 -0.004069 0.011040 0.000000 -0.004134 0.000000
# 4 0.000000 0.000000 0.000000 0.027565 0.000000 -0.004421
# 5 0.011355 0.029571 -0.004134 0.000000 0.072047 0.000000
# 6 0.000000 0.000000 0.000000 -0.004421 0.000000 0.038406
#
#
# Mechanical properties :
#
#
# Convention : Reuss Voigt Hill
#
# Bulk Modulus (GPa) = 16.51793 33.18548 24.85170
# Shear Modulus (GPa) = 22.22017 30.89807 26.55912
#
# Velocity S-wave (km/s) = 3.26144 3.84593 3.56568
# Velocity P-wave (km/s) = 4.69999 5.96722 5.37110
#
# Compressibility (1/GPa) = 0.06054029
#
# Stress axis : x y z
#
# Youngs Moduli (GPa) = 50.36083 30.50199 90.57768
#
# Poissons Ratio (x) = -0.28145 0.60951
# Poissons Ratio (y) = -0.46470 0.36855
# Poissons Ratio (z) = 0.33889 0.12411
#
# Static dielectric constant tensor:
#      x y z
#    x 3.827420 0.000000 0.201520 
#    y 0.000000 3.873100 0.000000 
#    z 0.201520 0.000000 4.131030 
# 
# 
# High freq. dielectric constant tensor:
#      x y z
#    x 1.814560 0.000000 0.012580 
#    y 0.000000 1.822140 0.000000 
#    z 0.012580 0.000000 1.826220 
# 
# From -- ./inp_files/31081.got.cif
#   From: 2010.03.12/outbox.cif.g09.slc.cpg/sg5_16_cif.got.tgz:31081.got - 2010.03.31 09:47:26.
