data_PCOD8052613
_publ_section_title
;
Structure prediction by ZEFSAII (Michael W. Deem and Ramdas Pophale) SiO2 
 PCOD8052613
Probable space group: P C
;
_chemical_formula_sum "Si O2"
_cell_formula_units_Z 16
_cell_length_a 7.238547
_cell_length_b 17.119985
_cell_length_c 5.668289
_cell_angle_alpha 90.000000
_cell_angle_beta 55.801738
_cell_angle_gamma 90.000000
_cell_volume 580.983149
_symmetry_space_group_name_H-M "P C"
_symmetry_group_IT_number 7
_symmetry_cell_setting 'monoclinic'
loop_
_space_group_symop_operation_xyz
x,y,z
x,-y,1/2+z
loop_
_atom_site_type_symbol
_atom_site_label
_atom_site_fract_x
_atom_site_fract_y
_atom_site_fract_z
Si Si1 0.117830 0.969139 0.716590
Si Si2 0.442008 0.694847 0.370167
Si Si3 0.864803 0.718014 0.383374
Si Si4 0.611485 0.970846 0.081006
Si Si5 0.378141 0.517311 0.322537
Si Si6 0.876744 0.538786 0.426688
Si Si7 0.198281 0.805166 0.841914
Si Si8 0.568396 0.806802 0.912997
O O1 0.108325 0.875434 0.745323
O O2 0.228151 0.990196 0.376188
O O3 0.865469 0.003808 0.899086
O O4 0.674266 0.714547 0.324592
O O5 0.440383 0.605043 0.318293
O O6 0.234792 0.723863 0.675900
O O7 0.414587 0.742800 0.150371
O O8 0.950441 0.630006 0.375079
O O9 0.788758 0.759110 0.680366
O O10 0.039405 0.781237 0.166913
O O11 0.499669 0.989824 0.422184
O O12 0.621907 0.877520 0.049500
O O13 0.249137 0.487547 0.657355
O O14 0.604427 0.466708 0.123075
O O15 0.965147 0.502565 0.616567
O O16 0.431905 0.837334 0.783591
#
# Coordination Sequence:
#
# PCOD8052613 Si02
#       8
#     2   2   2   2   2   2   2   2
#     4  10  24  46  74 102 142 193 239 295 359 426
#     4  11  24  44  69 101 143 189 239 297 361 429
#     4  11  24  44  71  99 144 190 235 304 355 432
#     4  10  24  44  74 107 137 185 244 293 354 431
#     4  10  19  37  70  97 131 183 240 287 352 422
#     4  10  19  38  68 100 129 182 243 284 354 422
#     4  11  28  44  68 112 143 188 242 295 365 428
#     4  11  26  43  72 102 143 190 236 291 366 428
#
# _framework density 27.539525000000001
#
# number of rings (size 3 to 8) (size 9 to 14) (size 15 to 20)
#    0.000    1.500    2.500    2.250   12.250    2.000 
#    0.000    1.250    0.000    0.000    0.000    0.000 
#    0.000    0.000    0.000    0.000    0.000    0.000 
#
# Total GULP energy -198416.257683 kJ/mol
# GULP energy per Si atom -12401.016105 kJ/mol
# Density = 2.747684 g / cm^3
# Si number density = 27.539525 Si / 1000 Ang^3
#
#
#
# Elastic Constant Matrix: (Units=GPa)
#
#
# Indices 1 2 3 4 5 6 
#
# 1 96.5212 20.7460 65.0758 0.0000 22.0046 0.0000
# 2 20.7460 169.1885 73.3631 0.0000 11.2853 0.0000
# 3 65.0758 73.3631 239.2796 0.0000 27.9158 0.0000
# 4 0.0000 0.0000 0.0000 52.9910 0.0000 11.0312
# 5 22.0046 11.2853 27.9158 0.0000 21.8087 0.0000
# 6 0.0000 0.0000 0.0000 11.0312 0.0000 24.3409
#
#
#
# Elastic Compliance Matrix: (Units=1/GPa)
#
#
# Indices 1 2 3 4 5 6 
#
# 1 0.014790 0.000134 -0.002721 0.000000 -0.011509 0.000000
# 2 0.000134 0.006837 -0.002003 0.000000 -0.001109 0.000000
# 3 -0.002721 -0.002003 0.005986 0.000000 -0.003881 0.000000
# 4 0.000000 0.000000 0.000000 0.020837 0.000000 -0.009443
# 5 -0.011509 -0.001109 -0.003881 0.000000 0.063007 0.000000
# 6 0.000000 0.000000 0.000000 -0.009443 0.000000 0.045363
#
#
# Mechanical properties :
#
#
# Convention : Reuss Voigt Hill
#
# Bulk Modulus (GPa) = 54.25137 91.48434 72.86785
# Shear Modulus (GPa) = 29.04553 42.88174 35.96364
#
# Velocity S-wave (km/s) = 3.25112 3.95029 3.61763
# Velocity P-wave (km/s) = 5.81681 7.35512 6.63072
#
# Compressibility (1/GPa) = 0.01843271
#
# Stress axis : x y z
#
# Youngs Moduli (GPa) = 67.61420 146.26885 167.05521
#
# Poissons Ratio (x) = -0.01958 0.45449
# Poissons Ratio (y) = -0.00905 0.33464
# Poissons Ratio (z) = 0.18395 0.29301
#
# Static dielectric constant tensor:
#      x y z
#    x 5.432350 0.000000 0.254950 
#    y 0.000000 4.670560 0.000000 
#    z 0.254950 0.000000 5.637130 
# 
# 
# High freq. dielectric constant tensor:
#      x y z
#    x 2.154350 0.000000 0.000660 
#    y 0.000000 2.095870 0.000000 
#    z 0.000660 0.000000 2.146440 
# 
# From -- ./inp_files/766.got.cif
#   From: 2010.03.12/outbox.cif.g09.slc.cpg/sg7_cif.got.tgz:766.got - 2010.03.30 08:40:41.
