data_PCOD8052055
_publ_section_title
;
Structure prediction by ZEFSAII (Michael W. Deem and Ramdas Pophale) SiO2 
 PCOD8052055
Probable space group: C 2
;
_chemical_formula_sum "Si O2"
_cell_formula_units_Z 20
_cell_length_a 20.345724
_cell_length_b 8.551951
_cell_length_c 5.437536
_cell_angle_alpha 90.000000
_cell_angle_beta 59.075566
_cell_angle_gamma 90.000000
_cell_volume 811.614394
_symmetry_space_group_name_H-M "C 2"
_symmetry_group_IT_number 5
_symmetry_cell_setting 'monoclinic'
loop_
_space_group_symop_operation_xyz
x,y,z
-x,y,-z
1/2+x,1/2+y,z
1/2-x,1/2+y,-z
loop_
_atom_site_type_symbol
_atom_site_label
_atom_site_fract_x
_atom_site_fract_y
_atom_site_fract_z
Si Si1 0.370825 0.683130 0.723838
Si Si2 0.267268 0.315935 0.194720
Si Si3 0.410694 0.331483 0.638887
Si Si4 0.586175 0.851989 0.865806
Si Si5 0.685751 0.108774 0.505520
O O1 0.278529 0.715077 0.926139
O O2 0.396254 0.510914 0.590474
O O3 0.391191 0.783858 0.444126
O O4 0.410367 0.736007 0.903457
O O5 0.255274 0.229695 0.479298
O O6 0.239613 0.495208 0.239797
O O7 0.359230 0.310843 0.981748
O O8 0.500000 0.297282 0.500000
O O9 0.379352 0.205571 0.508637
O O10 0.641233 0.002111 0.795869
O O11 0.500000 0.910074 0.000000
#
# Coordination Sequence:
#
# PCOD8052055 Si02
#       5
#     4   4   4   4   4
#     4  11  27  49  78 110 150 212 253 317 382 472
#     4  11  27  47  76 105 153 199 267 305 394 455
#     4  12  28  46  76 112 156 196 258 324 392 452
#     4  11  26  48  78 110 158 198 260 314 394 457
#     4  11  28  45  75 111 148 207 254 324 378 467
#
# _framework density 24.642240999999999
#
# number of rings (size 3 to 8) (size 9 to 14) (size 15 to 20)
#    0.000    0.800    0.000    4.200   25.200    0.000 
#    0.000    0.000    0.000    0.000    0.000    0.000 
#    0.000    0.000    0.000    0.000    0.000    0.000 
#
# Total GULP energy -123893.876655 kJ/mol
# GULP energy per Si atom -12389.387665 kJ/mol
# Density = 2.458615 g / cm^3
# Si number density = 24.642241 Si / 1000 Ang^3
#
#
#
# Elastic Constant Matrix: (Units=GPa)
#
#
# Indices 1 2 3 4 5 6 
#
# 1 145.6958 52.3144 50.3683 0.0000 -19.0634 0.0000
# 2 52.3144 154.0212 35.4490 0.0000 10.6621 0.0000
# 3 50.3683 35.4490 85.0151 0.0000 8.0104 0.0000
# 4 0.0000 0.0000 0.0000 27.2573 0.0000 9.9726
# 5 -19.0634 10.6621 8.0104 0.0000 44.4419 0.0000
# 6 0.0000 0.0000 0.0000 9.9726 0.0000 48.3384
#
#
#
# Elastic Compliance Matrix: (Units=1/GPa)
#
#
# Indices 1 2 3 4 5 6 
#
# 1 0.010655 -0.002726 -0.005767 0.000000 0.006264 0.000000
# 2 -0.002726 0.007943 -0.001432 0.000000 -0.002817 0.000000
# 3 -0.005767 -0.001432 0.016253 0.000000 -0.005060 0.000000
# 4 0.000000 0.000000 0.000000 0.039683 0.000000 -0.008187
# 5 0.006264 -0.002817 -0.005060 0.000000 0.026776 0.000000
# 6 0.000000 0.000000 0.000000 -0.008187 0.000000 0.022376
#
#
# Mechanical properties :
#
#
# Convention : Reuss Voigt Hill
#
# Bulk Modulus (GPa) = 66.65254 73.44395 70.04824
# Shear Modulus (GPa) = 33.66194 40.44755 37.05475
#
# Velocity S-wave (km/s) = 3.69999 4.05580 3.88197
# Velocity P-wave (km/s) = 6.73498 7.19733 6.96999
#
# Compressibility (1/GPa) = 0.01500318
#
# Stress axis : x y z
#
# Youngs Moduli (GPa) = 93.84830 125.89877 61.52745
#
# Poissons Ratio (x) = 0.34315 0.35481
# Poissons Ratio (y) = 0.25579 0.08809
# Poissons Ratio (z) = 0.54120 0.18026
#
# Static dielectric constant tensor:
#      x y z
#    x 4.748280 0.000000 -0.478210 
#    y 0.000000 4.685100 0.000000 
#    z -0.478210 0.000000 4.497200 
# 
# 
# High freq. dielectric constant tensor:
#      x y z
#    x 1.983010 0.000000 -0.015250 
#    y 0.000000 2.000320 0.000000 
#    z -0.015250 0.000000 1.983260 
# 
# From -- ./inp_files/9202.got.cif
#   From: 2010.03.12/outbox.cif.g09.slc.cpg/sg5_5_cif.got.tgz:9202.got - 2010.03.31 09:47:26.
