data_PCOD8052470
_publ_section_title
;
Structure prediction by ZEFSAII (Michael W. Deem and Ramdas Pophale) SiO2 
 PCOD8052470
Probable space group: P M
;
_chemical_formula_sum "Si O2"
_cell_formula_units_Z 16
_cell_length_a 12.503347
_cell_length_b 8.932865
_cell_length_c 12.315275
_cell_angle_alpha 90.000000
_cell_angle_beta 35.575350
_cell_angle_gamma 90.000000
_cell_volume 800.229958
_symmetry_space_group_name_H-M "P M"
_symmetry_group_IT_number 6
_symmetry_cell_setting 'monoclinic'
loop_
_space_group_symop_operation_xyz
x,y,z
x,-y,z
loop_
_atom_site_type_symbol
_atom_site_label
_atom_site_fract_x
_atom_site_fract_y
_atom_site_fract_z
Si Si1 0.932120 0.328364 0.044240
Si Si2 0.811792 0.826564 0.573105
Si Si3 0.336114 0.329770 0.665841
Si Si4 0.581067 0.676932 0.942967
Si Si5 0.331707 0.832043 0.452112
Si Si6 0.700921 0.173291 0.420537
Si Si7 0.215056 0.175255 0.313905
Si Si8 0.730315 0.830386 0.027740
O O1 0.873239 0.500000 0.077727
O O2 0.823304 0.262597 0.234945
O O3 0.890688 0.242924 0.966220
O O4 0.149279 0.312833 0.889447
O O5 0.667357 0.726792 0.757770
O O6 0.781117 0.795284 0.472365
O O7 0.019210 0.776629 0.428481
O O8 0.780669 0.000000 0.628814
O O9 0.407157 0.500000 0.607901
O O10 0.288388 0.284674 0.581991
O O11 0.489487 0.224369 0.591654
O O12 0.579691 0.500000 0.952806
O O13 0.706458 0.742604 0.935316
O O14 0.372312 0.735255 0.120379
O O15 0.217881 0.784223 0.439357
O O16 0.277168 0.000000 0.533568
O O17 0.547485 0.824841 0.250039
O O18 0.709078 0.000000 0.382024
O O19 0.257733 0.000000 0.262827
O O20 0.785781 0.000000 0.952655
#
# Coordination Sequence:
#
# PCOD8052470 Si02
#       8
#     2   2   2   2   2   2   2   2
#     4  11  24  40  60  90 124 160 202 252 311 367
#     4  10  23  43  66  90 119 161 213 258 298 356
#     4  11  24  39  59  89 126 163 200 249 308 368
#     4  11  23  38  60  93 129 162 198 246 308 368
#     4   9  18  34  59  90 121 156 200 248 302 361
#     4  11  24  43  65  89 120 162 211 258 303 356
#     4   9  20  40  63  89 121 160 206 254 303 355
#     4  10  20  37  62  90 124 162 202 249 303 361
#
# _framework density 19.994251999999999
#
# number of rings (size 3 to 8) (size 9 to 14) (size 15 to 20)
#    0.000    1.750    1.250    3.375    1.750    6.500 
#    0.000    3.750    0.000    0.000    0.000    0.000 
#    0.000    0.000    0.000    0.000    0.000    0.000 
#
# Total GULP energy -198475.954764 kJ/mol
# GULP energy per Si atom -12404.747173 kJ/mol
# Density = 1.994874 g / cm^3
# Si number density = 19.994252 Si / 1000 Ang^3
#
#
#
# Elastic Constant Matrix: (Units=GPa)
#
#
# Indices 1 2 3 4 5 6 
#
# 1 117.5677 42.3402 41.4701 0.0000 -14.3778 0.0000
# 2 42.3402 108.0470 35.6171 0.0000 -4.8264 0.0000
# 3 41.4701 35.6171 60.3125 0.0000 -12.9747 0.0000
# 4 0.0000 0.0000 0.0000 30.4547 0.0000 0.6733
# 5 -14.3778 -4.8264 -12.9747 0.0000 21.6642 0.0000
# 6 0.0000 0.0000 0.0000 0.6733 0.0000 10.4263
#
#
#
# Elastic Compliance Matrix: (Units=1/GPa)
#
#
# Indices 1 2 3 4 5 6 
#
# 1 0.011983 -0.002584 -0.005885 0.000000 0.003853 0.000000
# 2 -0.002584 0.012106 -0.005925 0.000000 -0.002566 0.000000
# 3 -0.005885 -0.005925 0.026403 0.000000 0.010587 0.000000
# 4 0.000000 0.000000 0.000000 0.032883 0.000000 -0.002123
# 5 0.003853 -0.002566 0.010587 0.000000 0.054485 0.000000
# 6 0.000000 0.000000 0.000000 -0.002123 0.000000 0.096048
#
#
# Mechanical properties :
#
#
# Convention : Reuss Voigt Hill
#
# Bulk Modulus (GPa) = 46.07052 58.30910 52.18981
# Shear Modulus (GPa) = 18.52331 23.60902 21.06616
#
# Velocity S-wave (km/s) = 3.04704 3.43999 3.24946
# Velocity P-wave (km/s) = 5.95577 6.70852 6.34332
#
# Compressibility (1/GPa) = 0.02170586
#
# Stress axis : x y z
#
# Youngs Moduli (GPa) = 83.45013 82.60263 37.87454
#
# Poissons Ratio (x) = 0.21343 0.22288
# Poissons Ratio (y) = 0.21562 0.22439
# Poissons Ratio (z) = 0.49109 0.48939
#
# Static dielectric constant tensor:
#      x y z
#    x 3.671670 0.000000 -0.078680 
#    y 0.000000 3.667520 0.000000 
#    z -0.078680 0.000000 3.541230 
# 
# 
# High freq. dielectric constant tensor:
#      x y z
#    x 1.779670 0.000000 -0.006590 
#    y 0.000000 1.782700 0.000000 
#    z -0.006590 0.000000 1.781490 
# 
# From -- ./inp_files/5021.got.cif
#   From: 2010.03.12/outbox.cif.g09.slc.cpg/sg6_3_cif.got.tgz:5021.got - 2010.03.30 10:24:59.
