data_PCOD8052645
_publ_section_title
;
Structure prediction by ZEFSAII (Michael W. Deem and Ramdas Pophale) SiO2 
 PCOD8052645
Probable space group: P C
;
_chemical_formula_sum "Si O2"
_cell_formula_units_Z 16
_cell_length_a 9.781207
_cell_length_b 17.172512
_cell_length_c 5.178630
_cell_angle_alpha 90.000000
_cell_angle_beta 53.665585
_cell_angle_gamma 90.000000
_cell_volume 700.722101
_symmetry_space_group_name_H-M "P C"
_symmetry_group_IT_number 7
_symmetry_cell_setting 'monoclinic'
loop_
_space_group_symop_operation_xyz
x,y,z
x,-y,1/2+z
loop_
_atom_site_type_symbol
_atom_site_label
_atom_site_fract_x
_atom_site_fract_y
_atom_site_fract_z
Si Si1 0.031690 0.047546 0.096560
Si Si2 0.038154 0.699260 0.126264
Si Si3 0.541751 0.219037 0.513680
Si Si4 0.919625 0.217844 0.238455
Si Si5 0.428814 0.047875 0.656055
Si Si6 0.422190 0.697481 0.628619
Si Si7 0.898173 0.463652 0.901253
Si Si8 0.521634 0.469115 0.893683
O O1 0.928084 0.125563 0.268530
O O2 0.980325 0.986725 0.376609
O O3 0.230183 0.067377 0.877396
O O4 0.039768 0.759396 0.363669
O O5 0.914812 0.627986 0.334880
O O6 0.229650 0.669157 0.880816
O O7 0.972313 0.739908 0.941828
O O8 0.730748 0.243877 0.377673
O O9 0.530627 0.126665 0.490294
O O10 0.493173 0.260577 0.301983
O O11 0.421543 0.244253 0.885420
O O12 0.480803 0.987905 0.373020
O O13 0.537517 0.622374 0.434900
O O14 0.988152 0.489205 0.066401
O O15 0.701539 0.489252 0.127943
O O16 0.423046 0.485103 0.734285
#
# Coordination Sequence:
#
# PCOD8052645 Si02
#       8
#     2   2   2   2   2   2   2   2
#     4  10  21  40  67  97 135 179 223 276 337 397
#     4  12  26  45  70 100 139 180 232 283 338 408
#     4  12  27  43  70 103 140 184 227 282 339 404
#     4  12  27  43  70 103 140 184 227 282 339 404
#     4  10  21  40  67  97 135 179 223 276 337 397
#     4  12  26  45  70 100 139 180 232 283 338 408
#     4  10  23  40  67  96 130 175 216 286 336 413
#     4  10  23  40  67  96 130 175 216 286 336 413
#
# _framework density 22.833589
#
# number of rings (size 3 to 8) (size 9 to 14) (size 15 to 20)
#    0.000    1.000    0.000    6.000   10.500    4.000 
#    0.000    0.000    0.000    0.000    0.000    0.000 
#    0.000    0.000    0.000    0.000    0.000    0.000 
#
# Total GULP energy -198429.300060 kJ/mol
# GULP energy per Si atom -12401.831254 kJ/mol
# Density = 2.278162 g / cm^3
# Si number density = 22.833589 Si / 1000 Ang^3
#
#
#
# Elastic Constant Matrix: (Units=GPa)
#
#
# Indices 1 2 3 4 5 6 
#
# 1 79.5370 56.5214 55.3171 0.0000 37.6151 0.0000
# 2 56.5214 139.6497 50.6893 0.0000 11.1349 0.0000
# 3 55.3171 50.6893 103.6609 0.0000 38.4569 0.0000
# 4 0.0000 0.0000 0.0000 39.8468 0.0000 9.0723
# 5 37.6151 11.1349 38.4569 0.0000 57.7730 0.0000
# 6 0.0000 0.0000 0.0000 9.0723 0.0000 32.1010
#
#
#
# Elastic Compliance Matrix: (Units=1/GPa)
#
#
# Indices 1 2 3 4 5 6 
#
# 1 0.029407 -0.008416 -0.006741 0.000000 -0.013038 0.000000
# 2 -0.008416 0.011218 -0.002955 0.000000 0.005284 0.000000
# 3 -0.006741 -0.002955 0.017063 0.000000 -0.006400 0.000000
# 4 0.000000 0.000000 0.000000 0.026822 0.000000 -0.007580
# 5 -0.013038 0.005284 -0.006400 0.000000 0.029039 0.000000
# 6 0.000000 0.000000 0.000000 -0.007580 0.000000 0.033294
#
#
# Mechanical properties :
#
#
# Convention : Reuss Voigt Hill
#
# Bulk Modulus (GPa) = 46.58652 71.98925 59.28788
# Shear Modulus (GPa) = 26.28501 36.63215 31.45858
#
# Velocity S-wave (km/s) = 3.39655 4.00973 3.71581
# Velocity P-wave (km/s) = 5.98573 7.28241 6.66567
#
# Compressibility (1/GPa) = 0.02146544
#
# Stress axis : x y z
#
# Youngs Moduli (GPa) = 34.00522 89.14018 58.60584
#
# Poissons Ratio (x) = 0.75020 0.39504
# Poissons Ratio (y) = 0.28619 0.17318
# Poissons Ratio (z) = 0.22922 0.26341
#
# Static dielectric constant tensor:
#      x y z
#    x 4.641340 0.000000 0.723560 
#    y 0.000000 3.992230 0.000000 
#    z 0.723560 0.000000 4.635150 
# 
# 
# High freq. dielectric constant tensor:
#      x y z
#    x 1.904170 0.000000 0.027090 
#    y 0.000000 1.906870 0.000000 
#    z 0.027090 0.000000 1.910460 
# 
# From -- ./inp_files/785.got.cif
#   From: 2010.03.12/outbox.cif.g09.slc.cpg/sg7_cif.got.tgz:785.got - 2010.03.30 08:40:41.
