data_PCOD8052937
_publ_section_title
;
Structure prediction by ZEFSAII (Michael W. Deem and Ramdas Pophale) SiO2 
 PCOD8052937
Probable space group: C M
;
_chemical_formula_sum "Si O2"
_cell_formula_units_Z 32
_cell_length_a 19.119104
_cell_length_b 16.477876
_cell_length_c 4.921246
_cell_angle_alpha 90.000000
_cell_angle_beta 83.277828
_cell_angle_gamma 90.000000
_cell_volume 1539.741949
_symmetry_space_group_name_H-M "C M"
_symmetry_group_IT_number 8
_symmetry_cell_setting 'monoclinic'
loop_
_space_group_symop_operation_xyz
x,y,z
x,-y,z
1/2+x,1/2+y,z
1/2+x,1/2-y,z
loop_
_atom_site_type_symbol
_atom_site_label
_atom_site_fract_x
_atom_site_fract_y
_atom_site_fract_z
Si Si1 0.230870 0.748093 0.969020
Si Si2 0.411573 0.906545 0.534914
Si Si3 0.110680 0.908198 0.565768
Si Si4 0.262527 0.153138 0.462041
Si Si5 0.480949 0.833055 0.986282
Si Si6 0.207277 0.589970 0.228850
Si Si7 0.618170 0.088446 0.758495
Si Si8 0.076285 0.807553 0.070572
O O1 0.262459 0.768047 0.659899
O O2 0.259514 0.817545 0.154013
O O3 0.256739 0.659548 0.068677
O O4 0.144560 0.748695 0.993005
O O5 0.331959 0.899877 0.465907
O O6 0.418791 0.845703 0.792575
O O7 0.426261 0.000000 0.612152
O O8 0.463983 0.881984 0.267088
O O9 0.195205 0.903196 0.550827
O O10 0.078208 0.844145 0.370080
O O11 0.088948 0.000000 0.503674
O O12 0.077896 0.884079 0.869184
O O13 0.545559 0.865177 0.776621
O O14 0.502866 0.741382 0.060527
O O15 0.244279 0.500000 0.240042
O O16 0.179078 0.625377 0.531768
O O17 0.141370 0.581478 0.058492
O O18 0.604643 0.000000 0.637163
#
# Coordination Sequence:
#
# PCOD8052937 Si02
#       8
#     4   4   4   4   4   4   4   4
#     4  10  19  35  56  80 112 147 189 240 292 334
#     4  12  25  40  57  83 119 164 204 230 268 338
#     4  10  20  37  60  86 113 143 183 246 303 341
#     4  10  22  37  58  81 111 153 198 236 278 333
#     4  12  23  37  56  81 121 157 195 233 276 339
#     4  10  19  30  50  80 112 143 181 227 285 347
#     4  10  19  30  47  74 112 151 180 215 268 334
#     4  10  21  34  56  85 114 148 184 235 294 356
#
# _framework density 20.782705
#
# number of rings (size 3 to 8) (size 9 to 14) (size 15 to 20)
#    0.000    1.500    1.250    4.875    3.500    1.000 
#    0.000    3.750    0.000    0.000    0.000   17.500 
#    0.000    0.000    0.000    0.000    0.000    0.000 
#
# Total GULP energy -198304.088563 kJ/mol
# GULP energy per Si atom -12394.005535 kJ/mol
# Density = 2.073540 g / cm^3
# Si number density = 20.782705 Si / 1000 Ang^3
#
#
#
# Elastic Constant Matrix: (Units=GPa)
#
#
# Indices 1 2 3 4 5 6 
#
# 1 55.5289 31.8875 19.1200 0.0000 15.1338 0.0000
# 2 31.8875 94.1164 10.4489 0.0000 -4.6706 0.0000
# 3 19.1200 10.4489 88.2528 0.0000 4.7388 0.0000
# 4 0.0000 0.0000 0.0000 22.9814 0.0000 2.0188
# 5 15.1338 -4.6706 4.7388 0.0000 24.0864 0.0000
# 6 0.0000 0.0000 0.0000 2.0188 0.0000 24.5566
#
#
#
# Elastic Compliance Matrix: (Units=1/GPa)
#
#
# Indices 1 2 3 4 5 6 
#
# 1 0.031883 -0.011373 -0.004414 0.000000 -0.021370 0.000000
# 2 -0.011373 0.014958 0.000155 0.000000 0.010016 0.000000
# 3 -0.004414 0.000155 0.012248 0.000000 0.000394 0.000000
# 4 0.000000 0.000000 0.000000 0.043830 0.000000 -0.003603
# 5 -0.021370 0.010016 0.000394 0.000000 0.056809 0.000000
# 6 0.000000 0.000000 0.000000 -0.003603 0.000000 0.041018
#
#
# Mechanical properties :
#
#
# Convention : Reuss Voigt Hill
#
# Bulk Modulus (GPa) = 35.93672 40.09008 38.01340
# Shear Modulus (GPa) = 20.72247 26.08768 23.40507
#
# Velocity S-wave (km/s) = 3.16112 3.54681 3.35950
# Velocity P-wave (km/s) = 5.53649 6.00875 5.77745
#
# Compressibility (1/GPa) = 0.02782669
#
# Stress axis : x y z
#
# Youngs Moduli (GPa) = 31.36455 66.85316 81.64742
#
# Poissons Ratio (x) = 0.76031 0.36035
# Poissons Ratio (y) = 0.35670 -0.01266
# Poissons Ratio (z) = 0.13843 -0.01037
#
# Static dielectric constant tensor:
#      x y z
#    x 3.351060 0.000000 0.159360 
#    y 0.000000 3.773260 0.000000 
#    z 0.159360 0.000000 3.904120 
# 
# 
# High freq. dielectric constant tensor:
#      x y z
#    x 1.755190 0.000000 0.011080 
#    y 0.000000 1.812530 0.000000 
#    z 0.011080 0.000000 1.836580 
# 
# From -- ./inp_files/4973.got.cif
#   From: 2010.03.12/outbox.cif.g09.slc.cpg/sg8_3_cif.got.tgz:4973.got - 2010.03.31 10:45:26.
