data_PCOD8052007
_publ_section_title
;
Structure prediction by ZEFSAII (Michael W. Deem and Ramdas Pophale) SiO2 
 PCOD8052007
Probable space group: C 2
;
_chemical_formula_sum "Si O2"
_cell_formula_units_Z 30
_cell_length_a 15.052162
_cell_length_b 16.670662
_cell_length_c 11.862641
_cell_angle_alpha 90.000000
_cell_angle_beta 28.055888
_cell_angle_gamma 90.000000
_cell_volume 1400.032742
_symmetry_space_group_name_H-M "C 2"
_symmetry_group_IT_number 5
_symmetry_cell_setting 'monoclinic'
loop_
_space_group_symop_operation_xyz
x,y,z
-x,y,-z
1/2+x,1/2+y,z
1/2-x,1/2+y,-z
loop_
_atom_site_type_symbol
_atom_site_label
_atom_site_fract_x
_atom_site_fract_y
_atom_site_fract_z
Si Si1 0.840009 0.992350 0.397585
Si Si2 0.777941 0.277276 0.731896
Si Si3 0.773965 0.673439 0.431842
Si Si4 0.500000 0.418683 0.000000
Si Si5 0.449742 0.744572 0.932697
Si Si6 0.117652 0.026459 0.255318
Si Si7 0.973418 0.428603 0.905353
Si Si8 0.690033 0.182740 0.041370
O O1 0.933296 0.979943 0.171595
O O2 0.657106 0.937272 0.620495
O O3 0.809134 0.084494 0.470020
O O4 0.000182 0.967124 0.306246
O O5 0.713311 0.210114 0.710163
O O6 0.000000 0.288575 0.500000
O O7 0.682253 0.363086 0.816615
O O8 0.703483 0.254608 0.937958
O O9 0.635451 0.734580 0.649307
O O10 0.968425 0.662346 0.284637
O O11 0.404344 0.838062 0.991347
O O12 0.500000 0.708633 0.000000
O O13 0.261155 0.706126 0.087857
O O14 0.000000 0.035430 0.500000
O O15 0.162261 0.115088 0.161399
O O16 0.316463 0.984171 0.030801
O O17 0.000000 0.464177 0.000000
#
# Coordination Sequence:
#
# PCOD8052007 Si02
#       8
#     4   4   4   2   4   4   4   4
#     4  12  26  44  69 106 149 185 233 294 366 430
#     4  12  24  45  75 108 136 183 245 304 358 426
#     4  12  24  45  74 100 140 186 243 287 344 435
#     4  12  30  44  70 108 156 192 226 298 382 446
#     4  11  27  46  67  98 141 187 236 289 346 431
#     4  12  24  43  74 106 135 177 239 306 358 414
#     4  11  25  44  70 103 140 180 235 298 356 418
#     4  12  24  43  75 103 133 184 239 302 353 420
#
# _framework density 21.428070999999999
#
# number of rings (size 3 to 8) (size 9 to 14) (size 15 to 20)
#    0.000    0.267    6.667    2.000    2.800    0.533 
#    0.000    0.000    0.000    0.000    0.000    0.000 
#    0.000    0.000    0.000    0.000    0.000    0.000 
#
# Total GULP energy -185891.804702 kJ/mol
# GULP energy per Si atom -12392.786980 kJ/mol
# Density = 2.137930 g / cm^3
# Si number density = 21.428071 Si / 1000 Ang^3
#
#
#
# Elastic Constant Matrix: (Units=GPa)
#
#
# Indices 1 2 3 4 5 6 
#
# 1 161.3801 32.9568 50.6206 -0.2466 -8.3666 0.0520
# 2 32.9568 51.7557 22.9802 -0.6857 1.2299 0.1498
# 3 50.6206 22.9802 86.5536 -0.7897 -8.5543 0.1959
# 4 -0.2466 -0.6857 -0.7897 409.3681 0.3881 -81.5295
# 5 -8.3666 1.2299 -8.5543 0.3881 44.1503 -0.0903
# 6 0.0520 0.1498 0.1959 -81.5295 -0.0903 44.1632
#
#
#
# Elastic Compliance Matrix: (Units=1/GPa)
#
#
# Indices 1 2 3 4 5 6 
#
# 1 0.008138 -0.003549 -0.003726 -0.000008 0.000919 0.000006
# 2 -0.003549 0.023589 -0.004402 0.000030 -0.002183 -0.000006
# 3 -0.003726 -0.004402 0.015134 0.000014 0.002349 -0.000017
# 4 -0.000008 0.000030 0.000014 0.003863 -0.000019 0.007132
# 5 0.000919 -0.002183 0.002349 -0.000019 0.023340 0.000009
# 6 0.000006 -0.000006 -0.000017 0.007132 0.000009 0.035809
#
#
# Mechanical properties :
#
#
# Convention : Reuss Voigt Hill
#
# Bulk Modulus (GPa) = 42.54548 56.97830 49.76189
# Shear Modulus (GPa) = 35.44483 112.41179 73.92831
#
# Velocity S-wave (km/s) = 4.07151 7.25079 5.88010
# Velocity P-wave (km/s) = 6.48082 9.83600 8.32910
#
# Compressibility (1/GPa) = 0.02350426
#
# Stress axis : x y z
#
# Youngs Moduli (GPa) = 122.88205 42.39307 66.07646
#
# Poissons Ratio (x) = 0.15047 0.24622
# Poissons Ratio (y) = 0.43616 0.29090
# Poissons Ratio (z) = 0.45789 0.18663
#
# Static dielectric constant tensor:
#      x y z
#    x 3.740650 0.000090 -0.037870 
#    y 0.000090 3.858090 -0.000020 
#    z -0.037870 -0.000020 3.899240 
# 
# 
# High freq. dielectric constant tensor:
#      x y z
#    x 1.854050 0.000000 -0.015700 
#    y 0.000000 1.836130 0.000000 
#    z -0.015700 0.000000 1.846780 
# 
# From -- ./inp_files/43307.got.cif
#   From: 2010.03.12/outbox.cif.g09.slc.cpg/sg5_22_cif.got.tgz:43307.got - 2010.03.31 09:47:26.
