data_PCOD8052096
_publ_section_title
;
Structure prediction by ZEFSAII (Michael W. Deem and Ramdas Pophale) SiO2 
 PCOD8052096
Probable space group: C 2
;
_chemical_formula_sum "Si O2"
_cell_formula_units_Z 24
_cell_length_a 27.084564
_cell_length_b 6.477211
_cell_length_c 14.957339
_cell_angle_alpha 90.000000
_cell_angle_beta 26.002755
_cell_angle_gamma 90.000000
_cell_volume 1150.400349
_symmetry_space_group_name_H-M "C 2"
_symmetry_group_IT_number 5
_symmetry_cell_setting 'monoclinic'
loop_
_space_group_symop_operation_xyz
x,y,z
-x,y,-z
1/2+x,1/2+y,z
1/2-x,1/2+y,-z
loop_
_atom_site_type_symbol
_atom_site_label
_atom_site_fract_x
_atom_site_fract_y
_atom_site_fract_z
Si Si1 0.822329 0.633470 0.770814
Si Si2 0.000000 0.263912 0.000000
Si Si3 0.880273 0.481045 0.485357
Si Si4 0.459087 0.146993 0.185842
Si Si5 0.000000 0.970038 0.500000
Si Si6 0.350425 0.381335 0.208735
Si Si7 0.905280 0.298920 0.781608
O O1 0.823056 0.532917 0.672678
O O2 0.897489 0.832629 0.635551
O O3 0.870405 0.478089 0.768095
O O4 0.699377 0.714288 0.993178
O O5 0.970972 0.409463 0.132485
O O6 0.892848 0.118997 0.148605
O O7 0.914376 0.662662 0.360634
O O8 0.781525 0.353640 0.597534
O O9 0.999909 0.370750 0.303902
O O10 0.368418 0.265135 0.272860
O O11 0.578544 0.264864 0.984333
O O12 0.960249 0.105222 0.645987
#
# Coordination Sequence:
#
# PCOD8052096 Si02
#       7
#     4   2   4   4   2   4   4
#     4  12  26  46  70 101 137 178 231 287 342 410
#     4   8  18  44  68  86 130 192 214 276 336 374
#     4  12  25  42  69 108 130 177 237 266 344 406
#     4   9  22  44  64  95 140 175 224 279 326 397
#     4  12  22  48  70  88 136 182 210 288 352 392
#     4   9  22  44  64  95 140 175 224 279 326 397
#     4  12  26  46  70 101 137 178 231 287 342 410
#
# _framework density 20.862302
#
# number of rings (size 3 to 8) (size 9 to 14) (size 15 to 20)
#    0.000    1.667    5.000    0.000    4.667    4.000 
#    6.000    0.000    0.000    0.000    0.000    0.000 
#    0.000    0.000    0.000    0.000    0.000    0.000 
#
# Total GULP energy -148699.378422 kJ/mol
# GULP energy per Si atom -12391.614869 kJ/mol
# Density = 2.081482 g / cm^3
# Si number density = 20.862302 Si / 1000 Ang^3
#
#
#
# Elastic Constant Matrix: (Units=GPa)
#
#
# Indices 1 2 3 4 5 6 
#
# 1 67.1432 24.0339 34.1985 0.0000 -33.3686 0.0001
# 2 24.0339 109.6846 36.8318 -0.0012 -18.8698 0.0002
# 3 34.1985 36.8318 133.8539 -0.0005 -28.1227 0.0001
# 4 0.0000 -0.0012 -0.0005 50.6942 0.0001 2.6390
# 5 -33.3686 -18.8698 -28.1227 0.0001 35.5149 0.0001
# 6 0.0001 0.0002 0.0001 2.6390 0.0001 27.4319
#
#
#
# Elastic Compliance Matrix: (Units=1/GPa)
#
#
# Indices 1 2 3 4 5 6 
#
# 1 0.028563 -0.001431 -0.001710 0.000000 0.024723 0.000000
# 2 -0.001431 0.010558 -0.001971 0.000000 0.002704 0.000000
# 3 -0.001710 -0.001971 0.009468 0.000000 0.004843 0.000000
# 4 0.000000 0.000000 0.000000 0.019825 0.000000 -0.001907
# 5 0.024723 0.002704 0.004843 0.000000 0.056658 0.000000
# 6 0.000000 0.000000 0.000000 -0.001907 0.000000 0.036637
#
#
# Mechanical properties :
#
#
# Convention : Reuss Voigt Hill
#
# Bulk Modulus (GPa) = 26.06603 55.64558 40.85580
# Shear Modulus (GPa) = 27.06768 37.10269 32.08518
#
# Velocity S-wave (km/s) = 3.60591 4.22175 3.92593
# Velocity P-wave (km/s) = 5.46427 7.10598 6.33850
#
# Compressibility (1/GPa) = 0.03836411
#
# Stress axis : x y z
#
# Youngs Moduli (GPa) = 35.00985 94.71663 105.62287
#
# Poissons Ratio (x) = 0.13558 0.18057
# Poissons Ratio (y) = 0.05011 0.20822
# Poissons Ratio (z) = 0.05985 0.18672
#
# Static dielectric constant tensor:
#      x y z
#    x 2.930620 0.000000 -0.041980 
#    y 0.000000 3.845280 0.000000 
#    z -0.041980 0.000000 3.945110 
# 
# 
# High freq. dielectric constant tensor:
#      x y z
#    x 1.814060 0.000000 -0.001250 
#    y 0.000000 1.812960 0.000000 
#    z -0.001250 0.000000 1.834720 
# 
# From -- ./inp_files/53911.got.cif
#   From: 2010.03.12/outbox.cif.g09.slc.cpg/sg5_27_cif.got.tgz:53911.got - 2010.03.31 09:47:26.
