data_PCOD8052434
_publ_section_title
;
Structure prediction by ZEFSAII (Michael W. Deem and Ramdas Pophale) SiO2 
 PCOD8052434
Probable space group: P M
;
_chemical_formula_sum "Si O2"
_cell_formula_units_Z 16
_cell_length_a 12.497339
_cell_length_b 8.851701
_cell_length_c 12.499343
_cell_angle_alpha 90.000000
_cell_angle_beta 35.564279
_cell_angle_gamma 90.000000
_cell_volume 804.206845
_symmetry_space_group_name_H-M "P M"
_symmetry_group_IT_number 6
_symmetry_cell_setting 'monoclinic'
loop_
_space_group_symop_operation_xyz
x,y,z
x,-y,z
loop_
_atom_site_type_symbol
_atom_site_label
_atom_site_fract_x
_atom_site_fract_y
_atom_site_fract_z
Si Si1 0.796560 0.822012 0.463110
Si Si2 0.785209 0.672908 0.858499
Si Si3 0.572850 0.170724 0.850800
Si Si4 0.305881 0.177707 0.568388
Si Si5 0.901335 0.177705 0.972698
Si Si6 0.192217 0.327085 0.451723
Si Si7 0.184211 0.170738 0.239715
Si Si8 0.676461 0.321709 0.343191
O O1 0.660531 0.772773 0.669157
O O2 0.741578 0.723187 0.407373
O O3 0.002285 0.772535 0.327963
O O4 0.782253 0.000000 0.448225
O O5 0.750333 0.500000 0.918809
O O6 0.628578 0.726553 0.905412
O O7 0.976387 0.696622 0.642740
O O8 0.778760 0.770276 0.971844
O O9 0.640350 0.000000 0.819081
O O10 0.352037 0.178977 0.018988
O O11 0.305387 0.229790 0.445556
O O12 0.472639 0.256900 0.493122
O O13 0.337121 0.000000 0.546912
O O14 0.114537 0.224515 0.781508
O O15 0.825832 0.256973 0.139511
O O16 0.879821 0.000000 0.003999
O O17 0.252532 0.500000 0.416814
O O18 0.239436 0.273295 0.294935
O O19 0.152520 0.000000 0.307131
O O20 0.669566 0.500000 0.336463
#
# Coordination Sequence:
#
# PCOD8052434 Si02
#       8
#     2   2   2   2   2   2   2   2
#     4  10  22  42  62  84 120 162 211 260 299 354
#     4  10  20  35  58  89 127 162 196 246 308 366
#     4  10  21  37  60  88 117 157 205 251 299 357
#     4  10  22  41  65  91 121 162 210 256 303 364
#     4  10  22  41  65  91 121 162 210 256 303 364
#     4  10  20  35  58  89 127 162 196 246 308 366
#     4  10  21  37  60  88 117 157 205 251 299 357
#     4  12  26  42  64  92 126 164 205 256 317 376
#
# _framework density 19.895379999999999
#
# number of rings (size 3 to 8) (size 9 to 14) (size 15 to 20)
#    0.000    1.750    1.250    2.625    1.750    5.000 
#    0.000    2.500    0.000    0.000    0.000    0.000 
#    0.000    0.000    0.000    0.000    0.000    0.000 
#
# Total GULP energy -198469.529923 kJ/mol
# GULP energy per Si atom -12404.345620 kJ/mol
# Density = 1.985010 g / cm^3
# Si number density = 19.895380 Si / 1000 Ang^3
#
#
#
# Elastic Constant Matrix: (Units=GPa)
#
#
# Indices 1 2 3 4 5 6 
#
# 1 125.3685 53.2963 79.9290 0.0000 14.0141 0.0000
# 2 53.2963 100.5361 49.8359 0.0000 2.0221 0.0000
# 3 79.9290 49.8359 117.2165 0.0000 -7.5915 0.0000
# 4 0.0000 0.0000 0.0000 25.1573 0.0000 -2.2109
# 5 14.0141 2.0221 -7.5915 0.0000 16.8560 0.0000
# 6 0.0000 0.0000 0.0000 -2.2109 0.0000 19.8633
#
#
#
# Elastic Compliance Matrix: (Units=1/GPa)
#
#
# Indices 1 2 3 4 5 6 
#
# 1 0.021677 -0.003672 -0.014790 0.000000 -0.024243 0.000000
# 2 -0.003672 0.013498 -0.003236 0.000000 -0.000024 0.000000
# 3 -0.014790 -0.003236 0.021439 0.000000 0.022341 0.000000
# 4 0.000000 0.000000 0.000000 0.040143 0.000000 0.004468
# 5 -0.024243 -0.000024 0.022341 0.000000 0.089547 0.000000
# 6 0.000000 0.000000 0.000000 0.004468 0.000000 0.050841
#
#
# Mechanical properties :
#
#
# Convention : Reuss Voigt Hill
#
# Bulk Modulus (GPa) = 75.66023 78.80483 77.23253
# Shear Modulus (GPa) = 17.54700 23.04596 20.29648
#
# Velocity S-wave (km/s) = 2.97301 3.40716 3.19746
# Velocity P-wave (km/s) = 7.06376 7.42791 7.24812
#
# Compressibility (1/GPa) = 0.01321698
#
# Stress axis : x y z
#
# Youngs Moduli (GPa) = 46.13129 74.08403 46.64304
#
# Poissons Ratio (x) = 0.27207 0.68986
# Poissons Ratio (y) = 0.16941 0.15095
# Poissons Ratio (z) = 0.68230 0.23975
#
# Static dielectric constant tensor:
#      x y z
#    x 3.526970 0.000000 -0.143300 
#    y 0.000000 3.639550 0.000000 
#    z -0.143300 0.000000 3.871720 
# 
# 
# High freq. dielectric constant tensor:
#      x y z
#    x 1.769850 0.000000 -0.006580 
#    y 0.000000 1.776970 0.000000 
#    z -0.006580 0.000000 1.785640 
# 
# From -- ./inp_files/5043.got.cif
#   From: 2010.03.12/outbox.cif.g09.slc.cpg/sg6_3_cif.got.tgz:5043.got - 2010.03.30 10:24:59.
