data_PCOD8052379
_publ_section_title
;
Structure prediction by ZEFSAII (Michael W. Deem and Ramdas Pophale) SiO2 
 PCOD8052379
Probable space group: P M
;
_chemical_formula_sum "Si O2"
_cell_formula_units_Z 16
_cell_length_a 12.531064
_cell_length_b 8.858519
_cell_length_c 12.348783
_cell_angle_alpha 90.000000
_cell_angle_beta 35.678764
_cell_angle_gamma 90.000000
_cell_volume 799.504044
_symmetry_space_group_name_H-M "P M"
_symmetry_group_IT_number 6
_symmetry_cell_setting 'monoclinic'
loop_
_space_group_symop_operation_xyz
x,y,z
x,-y,z
loop_
_atom_site_type_symbol
_atom_site_label
_atom_site_fract_x
_atom_site_fract_y
_atom_site_fract_z
Si Si1 0.648200 0.678158 0.461350
Si Si2 0.284993 0.820477 0.794062
Si Si3 0.378711 0.820815 0.182397
Si Si4 0.858844 0.827501 0.471740
Si Si5 0.013607 0.324334 0.549725
Si Si6 0.257745 0.828937 0.055046
Si Si7 0.741596 0.326888 0.963481
Si Si8 0.912227 0.324078 0.050754
O O1 0.629250 0.500000 0.482409
O O2 0.453593 0.750217 0.588531
O O3 0.702220 0.742162 0.534382
O O4 0.794410 0.728413 0.250949
O O5 0.293843 0.000000 0.785077
O O6 0.297519 0.751750 0.906572
O O7 0.098151 0.769887 0.891834
O O8 0.214357 0.750157 0.388421
O O9 0.364259 0.756809 0.070263
O O10 0.349424 0.000000 0.207016
O O11 0.573166 0.779068 0.070885
O O12 0.882848 0.749973 0.567843
O O13 0.042520 0.816263 0.251538
O O14 0.797859 0.000000 0.540481
O O15 0.035908 0.500000 0.504793
O O16 0.917716 0.295465 0.743757
O O17 0.322881 0.000000 0.992007
O O18 0.677646 0.500000 0.005001
O O19 0.795131 0.286417 0.041222
O O20 0.961873 0.500000 0.015975
#
# Coordination Sequence:
#
# PCOD8052379 Si02
#       8
#     2   2   2   2   2   2   2   2
#     4  11  23  38  59  89 120 156 200 243 296 357
#     4  11  22  38  61  89 120 156 199 245 298 353
#     4  10  21  38  60  89 122 157 198 243 296 352
#     4  10  19  36  60  87 123 157 192 242 300 354
#     4  10  21  38  60  89 121 155 198 244 296 355
#     4   8  17  34  56  84 118 153 187 234 293 347
#     4  10  23  42  63  86 117 161 204 245 294 350
#     4  10  23  44  63  83 119 161 202 248 295 348
#
# _framework density 20.012407
#
# number of rings (size 3 to 8) (size 9 to 14) (size 15 to 20)
#    0.000    2.000    1.250    2.625    1.750    3.000 
#    0.000    6.250    0.000    0.000    0.000    0.000 
#    0.000    0.000    0.000    0.000    0.000    0.000 
#
# Total GULP energy -198421.443751 kJ/mol
# GULP energy per Si atom -12401.340234 kJ/mol
# Density = 1.996686 g / cm^3
# Si number density = 20.012407 Si / 1000 Ang^3
#
#
#
# Elastic Constant Matrix: (Units=GPa)
#
#
# Indices 1 2 3 4 5 6 
#
# 1 93.0727 40.1511 34.6271 0.0000 -9.9626 0.0000
# 2 40.1511 87.0140 38.4222 0.0000 -7.1976 0.0000
# 3 34.6271 38.4222 63.2321 0.0000 -14.3875 0.0000
# 4 0.0000 0.0000 0.0000 28.2426 0.0000 -8.4838
# 5 -9.9626 -7.1976 -14.3875 0.0000 32.5041 0.0000
# 6 0.0000 0.0000 0.0000 -8.4838 0.0000 32.6966
#
#
#
# Elastic Compliance Matrix: (Units=1/GPa)
#
#
# Indices 1 2 3 4 5 6 
#
# 1 0.014673 -0.004435 -0.005049 0.000000 0.001280 0.000000
# 2 -0.004435 0.017068 -0.008219 0.000000 -0.001218 0.000000
# 3 -0.005049 -0.008219 0.025362 0.000000 0.007859 0.000000
# 4 0.000000 0.000000 0.000000 0.038401 0.000000 0.009964
# 5 0.001280 -0.001218 0.007859 0.000000 0.034367 0.000000
# 6 0.000000 0.000000 0.000000 0.009964 0.000000 0.033170
#
#
# Mechanical properties :
#
#
# Convention : Reuss Voigt Hill
#
# Bulk Modulus (GPa) = 46.09169 52.19107 49.14138
# Shear Modulus (GPa) = 24.30985 27.36322 25.83653
#
# Velocity S-wave (km/s) = 3.48909 3.70173 3.59698
# Velocity P-wave (km/s) = 6.27003 6.66381 6.46992
#
# Compressibility (1/GPa) = 0.02169588
#
# Stress axis : x y z
#
# Youngs Moduli (GPa) = 68.15183 58.59074 39.42912
#
# Poissons Ratio (x) = 0.25987 0.19907
# Poissons Ratio (y) = 0.30228 0.32407
# Poissons Ratio (z) = 0.34409 0.48157
#
# Static dielectric constant tensor:
#      x y z
#    x 3.596770 0.000000 0.090630 
#    y 0.000000 3.544710 0.000000 
#    z 0.090630 0.000000 3.677860 
# 
# 
# High freq. dielectric constant tensor:
#      x y z
#    x 1.779730 0.000000 -0.004260 
#    y 0.000000 1.773100 0.000000 
#    z -0.004260 0.000000 1.784780 
# 
# From -- ./inp_files/5029.got.cif
#   From: 2010.03.12/outbox.cif.g09.slc.cpg/sg6_3_cif.got.tgz:5029.got - 2010.03.30 10:24:59.
