data_PCOD8052601
_publ_section_title
;
Structure prediction by ZEFSAII (Michael W. Deem and Ramdas Pophale) SiO2 
 PCOD8052601
Probable space group: P C
;
_chemical_formula_sum "Si O2"
_cell_formula_units_Z 16
_cell_length_a 17.963012
_cell_length_b 8.243190
_cell_length_c 5.206783
_cell_angle_alpha 90.000000
_cell_angle_beta 98.277224
_cell_angle_gamma 90.000000
_cell_volume 762.950244
_symmetry_space_group_name_H-M "P C"
_symmetry_group_IT_number 7
_symmetry_cell_setting 'monoclinic'
loop_
_space_group_symop_operation_xyz
x,y,z
x,-y,1/2+z
loop_
_atom_site_type_symbol
_atom_site_label
_atom_site_fract_x
_atom_site_fract_y
_atom_site_fract_z
Si Si1 0.494460 0.889831 0.160030
Si Si2 0.922726 0.402320 0.906845
Si Si3 0.657784 0.901493 0.319530
Si Si4 0.273256 0.910964 0.080336
Si Si5 0.370722 0.387617 0.614852
Si Si6 0.111114 0.950659 0.497387
Si Si7 0.817483 0.894865 0.296274
Si Si8 0.100161 0.405809 0.991376
O O1 0.578957 0.811668 0.219079
O O2 0.439720 0.737479 0.155054
O O3 0.482027 0.017695 0.384688
O O4 0.897439 0.511389 0.655304
O O5 0.884357 0.229452 0.872817
O O6 0.011642 0.371353 0.946364
O O7 0.735553 0.805660 0.292415
O O8 0.659388 0.945313 0.622510
O O9 0.294625 0.720827 0.083648
O O10 0.308119 0.996607 0.350583
O O11 0.182801 0.927701 0.036172
O O12 0.372976 0.495003 0.360352
O O13 0.140807 0.767607 0.510655
O O14 0.062122 0.998792 0.723684
O O15 0.824765 0.036069 0.512394
O O16 0.127321 0.500461 0.755290
#
# Coordination Sequence:
#
# PCOD8052601 Si02
#       8
#     2   2   2   2   2   2   2   2
#     4  10  19  36  60  80 106 148 187 221 268 323
#     4  10  21  36  53  78 113 148 179 218 278 331
#     4   8  16  30  51  78 106 139 182 227 266 309
#     4  10  21  41  60  80 108 143 180 217 264 327
#     4  12  24  38  57  85 115 141 177 227 275 319
#     4  10  21  38  59  83 109 138 178 222 266 325
#     4  10  19  33  54  81 109 142 189 231 262 311
#     4  10  21  38  58  81 110 143 180 225 273 321
#
# _framework density 20.971223999999999
#
# number of rings (size 3 to 8) (size 9 to 14) (size 15 to 20)
#    0.000    2.000    0.000    3.750    0.000    1.000 
#    0.000   16.250    0.000    0.000    0.000    0.000 
#    0.000    0.000    0.000    0.000    0.000    0.000 
#
# Total GULP energy -198266.279546 kJ/mol
# GULP energy per Si atom -12391.642472 kJ/mol
# Density = 2.092349 g / cm^3
# Si number density = 20.971224 Si / 1000 Ang^3
#
#
#
# Elastic Constant Matrix: (Units=GPa)
#
#
# Indices 1 2 3 4 5 6 
#
# 1 35.5712 8.7639 4.0019 0.0000 3.1445 0.0000
# 2 8.7639 94.5010 43.8427 0.0000 -2.3708 0.0000
# 3 4.0019 43.8427 168.4161 0.0000 -14.7514 0.0000
# 4 0.0000 0.0000 0.0000 40.8695 0.0000 -2.6464
# 5 3.1445 -2.3708 -14.7514 0.0000 9.9398 0.0000
# 6 0.0000 0.0000 0.0000 -2.6464 0.0000 20.5589
#
#
#
# Elastic Compliance Matrix: (Units=1/GPa)
#
#
# Indices 1 2 3 4 5 6 
#
# 1 0.029895 -0.002573 -0.001061 0.000000 -0.011645 0.000000
# 2 -0.002573 0.012293 -0.003231 0.000000 -0.001049 0.000000
# 3 -0.001061 -0.003231 0.007777 0.000000 0.011106 0.000000
# 4 0.000000 0.000000 0.000000 0.024674 0.000000 0.003176
# 5 -0.011645 -0.001049 0.011106 0.000000 0.120522 0.000000
# 6 0.000000 0.000000 0.000000 0.003176 0.000000 0.049050
#
#
# Mechanical properties :
#
#
# Convention : Reuss Voigt Hill
#
# Bulk Modulus (GPa) = 27.59626 45.74503 36.67065
# Shear Modulus (GPa) = 18.51729 30.39895 24.45812
#
# Velocity S-wave (km/s) = 2.97473 3.81143 3.41878
# Velocity P-wave (km/s) = 4.99864 6.42106 5.75397
#
# Compressibility (1/GPa) = 0.03623679
#
# Stress axis : x y z
#
# Youngs Moduli (GPa) = 33.45019 81.34636 128.58837
#
# Poissons Ratio (x) = 0.20926 0.13639
# Poissons Ratio (y) = 0.08605 0.41546
# Poissons Ratio (z) = 0.03548 0.26283
#
# Static dielectric constant tensor:
#      x y z
#    x 4.017070 0.000000 -0.379410 
#    y 0.000000 3.505630 0.000000 
#    z -0.379410 0.000000 5.366640 
# 
# 
# High freq. dielectric constant tensor:
#      x y z
#    x 1.815510 0.000000 -0.006350 
#    y 0.000000 1.788670 0.000000 
#    z -0.006350 0.000000 1.857830 
# 
# From -- ./inp_files/1438.got.cif
#   From: 2010.03.12/outbox.cif.g09.slc.cpg/sg7_cif.got.tgz:1438.got - 2010.03.30 08:40:41.
