data_PCOD8052427
_publ_section_title
;
Structure prediction by ZEFSAII (Michael W. Deem and Ramdas Pophale) SiO2 
 PCOD8052427
Probable space group: P M
;
_chemical_formula_sum "Si O2"
_cell_formula_units_Z 16
_cell_length_a 11.180896
_cell_length_b 8.901502
_cell_length_c 9.288132
_cell_angle_alpha 90.000000
_cell_angle_beta 65.449414
_cell_angle_gamma 90.000000
_cell_volume 840.845575
_symmetry_space_group_name_H-M "P M"
_symmetry_group_IT_number 6
_symmetry_cell_setting 'monoclinic'
loop_
_space_group_symop_operation_xyz
x,y,z
x,-y,z
loop_
_atom_site_type_symbol
_atom_site_label
_atom_site_fract_x
_atom_site_fract_y
_atom_site_fract_z
Si Si1 0.043480 0.676869 0.261530
Si Si2 0.804235 0.177983 0.884889
Si Si3 0.550027 0.175004 0.509315
Si Si4 0.563879 0.823188 0.825421
Si Si5 0.808818 0.823658 0.209292
Si Si6 0.033428 0.327126 0.597391
Si Si7 0.282561 0.326197 0.661265
Si Si8 0.269634 0.178280 0.968460
O O1 0.058776 0.500000 0.234655
O O2 0.033219 0.724704 0.432474
O O3 0.913502 0.731073 0.246854
O O4 0.171604 0.755148 0.133685
O O5 0.672930 0.248542 0.876823
O O6 0.931448 0.226925 0.734682
O O7 0.796373 0.000000 0.886616
O O8 0.813944 0.235182 0.043417
O O9 0.597368 0.224059 0.644928
O O10 0.664068 0.213089 0.340194
O O11 0.420695 0.266909 0.530063
O O12 0.512249 0.000000 0.526877
O O13 0.416841 0.768840 0.938987
O O14 0.570721 0.000000 0.837959
O O15 0.841308 0.000000 0.206534
O O16 0.991114 0.500000 0.634045
O O17 0.177839 0.299004 0.588031
O O18 0.295284 0.500000 0.696393
O O19 0.235695 0.237374 0.826303
O O20 0.256051 0.000000 0.972188
#
# Coordination Sequence:
#
# PCOD8052427 Si02
#       8
#     2   2   2   2   2   2   2   2
#     4  11  23  38  55  77 108 144 183 225 269 319
#     4  10  20  35  57  82 107 138 178 222 268 319
#     4   9  18  34  55  79 110 144 180 221 264 315
#     4   8  16  32  53  77 106 139 172 212 261 312
#     4  10  21  36  56  83 111 140 178 224 271 320
#     4  10  23  39  53  75 108 144 181 222 267 318
#     4  10  20  36  57  80 110 145 180 219 266 319
#     4  10  20  36  58  83 110 140 178 221 268 322
#
# _framework density 19.028464
#
# number of rings (size 3 to 8) (size 9 to 14) (size 15 to 20)
#    0.000    2.250    0.000    3.375    0.000    7.000 
#    0.000    5.625    0.000    0.000    0.000    0.000 
#    0.000    0.000    0.000    0.000    0.000    0.000 
#
# Total GULP energy -198427.591413 kJ/mol
# GULP energy per Si atom -12401.724463 kJ/mol
# Density = 1.898515 g / cm^3
# Si number density = 19.028464 Si / 1000 Ang^3
#
#
#
# Elastic Constant Matrix: (Units=GPa)
#
#
# Indices 1 2 3 4 5 6 
#
# 1 135.6440 44.1046 76.3430 0.0000 12.4439 0.0000
# 2 44.1046 59.3167 48.4787 0.0000 0.5495 0.0000
# 3 76.3430 48.4787 154.4211 0.0000 0.7098 0.0000
# 4 0.0000 0.0000 0.0000 21.1377 0.0000 4.1995
# 5 12.4439 0.5495 0.7098 0.0000 31.7480 0.0000
# 6 0.0000 0.0000 0.0000 4.1995 0.0000 23.3225
#
#
#
# Elastic Compliance Matrix: (Units=1/GPa)
#
#
# Indices 1 2 3 4 5 6 
#
# 1 0.011875 -0.005390 -0.004158 0.000000 -0.004468 0.000000
# 2 -0.005390 0.025125 -0.005231 0.000000 0.001795 0.000000
# 3 -0.004158 -0.005231 0.010167 0.000000 0.001493 0.000000
# 4 0.000000 0.000000 0.000000 0.049064 0.000000 -0.008835
# 5 -0.004468 0.001795 0.001493 0.000000 0.033185 0.000000
# 6 0.000000 0.000000 0.000000 -0.008835 0.000000 0.044468
#
#
# Mechanical properties :
#
#
# Convention : Reuss Voigt Hill
#
# Bulk Modulus (GPa) = 56.79098 76.35935 66.57516
# Shear Modulus (GPa) = 23.88780 27.27199 25.57990
#
# Velocity S-wave (km/s) = 3.54697 3.78990 3.67044
# Velocity P-wave (km/s) = 6.83262 7.70501 7.28189
#
# Compressibility (1/GPa) = 0.01760843
#
# Stress axis : x y z
#
# Youngs Moduli (GPa) = 84.21105 39.80083 98.35755
#
# Poissons Ratio (x) = 0.21452 0.40899
# Poissons Ratio (y) = 0.45388 0.51455
# Poissons Ratio (z) = 0.35016 0.20821
#
# Static dielectric constant tensor:
#      x y z
#    x 3.725250 0.000000 0.059570 
#    y 0.000000 3.367750 0.000000 
#    z 0.059570 0.000000 3.578750 
# 
# 
# High freq. dielectric constant tensor:
#      x y z
#    x 1.752030 0.000000 -0.003150 
#    y 0.000000 1.725870 0.000000 
#    z -0.003150 0.000000 1.744360 
# 
# From -- ./inp_files/3520.got.cif
#   From: 2010.03.12/outbox.cif.g09.slc.cpg/sg6_2_cif.got.tgz:3520.got - 2010.03.30 10:24:59.
