data_PCOD8052486
_publ_section_title
;
Structure prediction by ZEFSAII (Michael W. Deem and Ramdas Pophale) SiO2 
 PCOD8052486
Probable space group: P M
;
_chemical_formula_sum "Si O2"
_cell_formula_units_Z 16
_cell_length_a 9.984885
_cell_length_b 8.961126
_cell_length_c 12.128734
_cell_angle_alpha 90.000000
_cell_angle_beta 125.460262
_cell_angle_gamma 90.000000
_cell_volume 883.938090
_symmetry_space_group_name_H-M "P M"
_symmetry_group_IT_number 6
_symmetry_cell_setting 'monoclinic'
loop_
_space_group_symop_operation_xyz
x,y,z
x,-y,z
loop_
_atom_site_type_symbol
_atom_site_label
_atom_site_fract_x
_atom_site_fract_y
_atom_site_fract_z
Si Si1 0.954030 0.175575 0.352050
Si Si2 0.059099 0.329140 0.191125
Si Si3 0.298659 0.325823 0.115082
Si Si4 0.015075 0.675858 0.825150
Si Si5 0.581295 0.824303 0.137828
Si Si6 0.120513 0.323261 0.638166
Si Si7 0.766588 0.326647 0.882518
Si Si8 0.466630 0.176599 0.843269
O O1 0.767791 0.228647 0.242758
O O2 0.061536 0.221301 0.297476
O O3 0.017576 0.261503 0.488316
O O4 0.969760 0.000000 0.378883
O O5 0.058687 0.500000 0.231350
O O6 0.224230 0.295028 0.200556
O O7 0.899575 0.296898 0.041194
O O8 0.327921 0.500000 0.110252
O O9 0.472904 0.244188 0.184667
O O10 0.174065 0.257640 0.964011
O O11 0.026765 0.500000 0.847750
O O12 0.846104 0.727079 0.803804
O O13 0.019868 0.723784 0.700118
O O14 0.569171 0.000000 0.138555
O O15 0.515591 0.766174 0.988477
O O16 0.139054 0.500000 0.638261
O O17 0.299878 0.252562 0.724934
O O18 0.714799 0.500000 0.854822
O O19 0.607749 0.225559 0.825676
O O20 0.445873 0.000000 0.828998
#
# Coordination Sequence:
#
# PCOD8052486 Si02
#       8
#     2   2   2   2   2   2   2   2
#     4  11  23  39  55  78 115 152 184 223 273 331
#     4   9  18  33  55  83 111 142 184 229 274 323
#     4   9  17  32  56  84 110 137 180 232 274 318
#     4   8  16  32  54  81 110 138 176 227 277 320
#     4  10  21  35  53  80 113 146 184 225 270 326
#     4  11  22  38  59  82 109 146 187 227 276 329
#     4   9  17  32  56  83 109 140 181 231 276 319
#     4  11  21  35  54  83 115 145 184 226 272 328
#
# _framework density 18.100815000000001
#
# number of rings (size 3 to 8) (size 9 to 14) (size 15 to 20)
#    0.000    2.250    2.500    2.625    0.000    2.000 
#    0.000    4.375    0.000    4.500    0.000    0.000 
#    0.000    0.000    0.000    0.000    0.000    0.000 
#
# Total GULP energy -198398.823148 kJ/mol
# GULP energy per Si atom -12399.926447 kJ/mol
# Density = 1.805962 g / cm^3
# Si number density = 18.100815 Si / 1000 Ang^3
#
#
#
# Elastic Constant Matrix: (Units=GPa)
#
#
# Indices 1 2 3 4 5 6 
#
# 1 140.8566 42.6648 51.8278 0.0000 -9.1046 0.0000
# 2 42.6648 51.0311 33.6677 0.0000 -1.9922 0.0000
# 3 51.8278 33.6677 84.2296 0.0000 -7.7031 0.0000
# 4 0.0000 0.0000 0.0000 22.5766 0.0000 2.3577
# 5 -9.1046 -1.9922 -7.7031 0.0000 23.3873 0.0000
# 6 0.0000 0.0000 0.0000 2.3577 0.0000 25.6901
#
#
#
# Elastic Compliance Matrix: (Units=1/GPa)
#
#
# Indices 1 2 3 4 5 6 
#
# 1 0.010522 -0.006213 -0.003778 0.000000 0.002322 0.000000
# 2 -0.006213 0.030320 -0.008538 0.000000 -0.002648 0.000000
# 3 -0.003778 -0.008538 0.017950 0.000000 0.003714 0.000000
# 4 0.000000 0.000000 0.000000 0.044722 0.000000 -0.004104
# 5 0.002322 -0.002648 0.003714 0.000000 0.044660 0.000000
# 6 0.000000 0.000000 0.000000 -0.004104 0.000000 0.039302
#
#
# Mechanical properties :
#
#
# Convention : Reuss Voigt Hill
#
# Bulk Modulus (GPa) = 46.01575 59.15977 52.58776
# Shear Modulus (GPa) = 21.57212 24.19458 22.88335
#
# Velocity S-wave (km/s) = 3.45596 3.66000 3.55944
# Velocity P-wave (km/s) = 6.43444 7.11444 6.78296
#
# Compressibility (1/GPa) = 0.02173169
#
# Stress axis : x y z
#
# Youngs Moduli (GPa) = 95.04139 32.98103 55.71119
#
# Poissons Ratio (x) = 0.20492 0.21049
# Poissons Ratio (y) = 0.59053 0.47569
# Poissons Ratio (z) = 0.35909 0.28161
#
# Static dielectric constant tensor:
#      x y z
#    x 3.555250 0.000000 -0.104160 
#    y 0.000000 3.152070 0.000000 
#    z -0.104160 0.000000 3.167020 
# 
# 
# High freq. dielectric constant tensor:
#      x y z
#    x 1.716250 0.000000 -0.006990 
#    y 0.000000 1.689670 0.000000 
#    z -0.006990 0.000000 1.675520 
# 
# From -- ./inp_files/3455.got.cif
#   From: 2010.03.12/outbox.cif.g09.slc.cpg/sg6_2_cif.got.tgz:3455.got - 2010.03.30 10:24:59.
