data_PCOD8052530
_publ_section_title
;
Structure prediction by ZEFSAII (Michael W. Deem and Ramdas Pophale) SiO2 
 PCOD8052530
Probable space group: P M
;
_chemical_formula_sum "Si O2"
_cell_formula_units_Z 14
_cell_length_a 15.822451
_cell_length_b 9.971291
_cell_length_c 7.852897
_cell_angle_alpha 90.000000
_cell_angle_beta 147.652693
_cell_angle_gamma 90.000000
_cell_volume 662.902223
_symmetry_space_group_name_H-M "P M"
_symmetry_group_IT_number 6
_symmetry_cell_setting 'monoclinic'
loop_
_space_group_symop_operation_xyz
x,y,z
x,-y,z
loop_
_atom_site_type_symbol
_atom_site_label
_atom_site_fract_x
_atom_site_fract_y
_atom_site_fract_z
Si Si1 0.492790 0.347861 0.797670
Si Si2 0.281142 0.653812 0.743185
Si Si3 0.082751 0.148061 0.864840
Si Si4 0.401491 0.229214 0.279548
Si Si5 0.739576 0.852776 0.835762
Si Si6 0.051017 0.150546 0.195953
Si Si7 0.832308 0.655999 0.283193
O O1 0.441414 0.500000 0.695072
O O2 0.404733 0.288205 0.813098
O O3 0.441494 0.285717 0.532395
O O4 0.680963 0.333169 0.150437
O O5 0.233603 0.500000 0.629070
O O6 0.125974 0.746845 0.460829
O O7 0.355251 0.661613 0.058039
O O8 0.980151 0.266363 0.610987
O O9 0.002164 0.000000 0.715227
O O10 0.249601 0.135397 0.051280
O O11 0.107251 0.189002 0.102940
O O12 0.555402 0.152399 0.467892
O O13 0.767055 0.000000 0.969932
O O14 0.781191 0.726948 0.023010
O O15 0.859367 0.840722 0.879701
O O16 0.107950 0.000000 0.339328
O O17 0.877833 0.500000 0.327369
#
# Coordination Sequence:
#
# PCOD8052530 Si02
#       7
#     2   2   2   2   2   2   2
#     4   9  20  40  59  90 130 160 199 257 306 363
#     4  11  23  40  65  94 124 165 207 253 312 367
#     4  11  23  40  62  90 126 165 207 254 309 366
#     4  11  22  38  66  93 124 160 210 248 311 364
#     4  10  22  41  64  90 123 160 205 255 306 365
#     4  10  23  42  61  89 126 164 207 257 307 365
#     4  10  22  39  63  90 123 162 205 252 311 368
#
# _framework density 21.119253
#
# number of rings (size 3 to 8) (size 9 to 14) (size 15 to 20)
#    0.000    1.714    1.429    2.143    2.000    6.286 
#    0.000    0.714    0.000    0.000    0.000    0.000 
#    0.000    0.000    0.000    0.000    0.000    0.000 
#
# Total GULP energy -173478.526016 kJ/mol
# GULP energy per Si atom -12391.323287 kJ/mol
# Density = 2.107118 g / cm^3
# Si number density = 21.119253 Si / 1000 Ang^3
#
#
#
# Elastic Constant Matrix: (Units=GPa)
#
#
# Indices 1 2 3 4 5 6 
#
# 1 103.7891 32.9054 42.0243 0.0000 14.5268 0.0000
# 2 32.9054 127.2833 58.2363 0.0000 5.5067 0.0000
# 3 42.0243 58.2363 104.3926 0.0000 11.7113 0.0000
# 4 0.0000 0.0000 0.0000 29.4408 0.0000 -1.4884
# 5 14.5268 5.5067 11.7113 0.0000 34.8907 0.0000
# 6 0.0000 0.0000 0.0000 -1.4884 0.0000 26.0225
#
#
#
# Elastic Compliance Matrix: (Units=1/GPa)
#
#
# Indices 1 2 3 4 5 6 
#
# 1 0.012048 -0.001241 -0.003759 0.000000 -0.003559 0.000000
# 2 -0.001241 0.010680 -0.005536 0.000000 0.000689 0.000000
# 3 -0.003759 -0.005536 0.014451 0.000000 -0.002412 0.000000
# 4 0.000000 0.000000 0.000000 0.034065 0.000000 0.001948
# 5 -0.003559 0.000689 -0.002412 0.000000 0.030843 0.000000
# 6 0.000000 0.000000 0.000000 0.001948 0.000000 0.038540
#
#
# Mechanical properties :
#
#
# Convention : Reuss Voigt Hill
#
# Bulk Modulus (GPa) = 62.07796 66.86631 64.47214
# Shear Modulus (GPa) = 29.92783 31.55741 30.74262
#
# Velocity S-wave (km/s) = 3.76851 3.86974 3.81946
# Velocity P-wave (km/s) = 6.95653 7.19004 7.07425
#
# Compressibility (1/GPa) = 0.01610878
#
# Stress axis : x y z
#
# Youngs Moduli (GPa) = 82.99877 93.62995 69.19905
#
# Poissons Ratio (x) = 0.11621 0.26009
# Poissons Ratio (y) = 0.10301 0.38307
# Poissons Ratio (z) = 0.31196 0.51832
#
# Static dielectric constant tensor:
#      x y z
#    x 4.138910 0.000000 0.353540 
#    y 0.000000 3.714330 0.000000 
#    z 0.353540 0.000000 3.802950 
# 
# 
# High freq. dielectric constant tensor:
#      x y z
#    x 1.839150 0.000000 0.020770 
#    y 0.000000 1.825030 0.000000 
#    z 0.020770 0.000000 1.813780 
# 
# From -- ./inp_files/4206.got.cif
#   From: 2010.03.12/outbox.cif.g09.slc.cpg/sg6_3_cif.got.tgz:4206.got - 2010.03.30 10:24:59.
