data_PCOD8052355
_publ_section_title
;
Structure prediction by ZEFSAII (Michael W. Deem and Ramdas Pophale) SiO2 
 PCOD8052355
Probable space group: P M
;
_chemical_formula_sum "Si O2"
_cell_formula_units_Z 16
_cell_length_a 19.436344
_cell_length_b 9.233619
_cell_length_c 14.166373
_cell_angle_alpha 90.000000
_cell_angle_beta 160.596176
_cell_angle_gamma 90.000000
_cell_volume 844.649077
_symmetry_space_group_name_H-M "P M"
_symmetry_group_IT_number 6
_symmetry_cell_setting 'monoclinic'
loop_
_space_group_symop_operation_xyz
x,y,z
x,-y,z
loop_
_atom_site_type_symbol
_atom_site_label
_atom_site_fract_x
_atom_site_fract_y
_atom_site_fract_z
Si Si1 0.023630 0.671893 0.825820
Si Si2 0.943922 0.832838 0.364833
Si Si3 0.194709 0.831471 0.367758
Si Si4 0.769024 0.327242 0.317211
Si Si5 0.485330 0.333448 0.442964
Si Si6 0.872851 0.666611 0.830662
Si Si7 0.593493 0.168428 0.766304
Si Si8 0.339738 0.167266 0.760831
O O1 0.019098 0.500000 0.816931
O O2 0.897149 0.731305 0.572972
O O3 0.918542 0.730944 0.786014
O O4 0.259154 0.731011 0.126373
O O5 0.885896 0.731449 0.376678
O O6 0.182372 0.806155 0.643985
O O7 0.905196 0.000000 0.343209
O O8 0.800944 0.791752 0.091019
O O9 0.399421 0.781752 0.577659
O O10 0.221948 0.791339 0.512290
O O11 0.150518 0.000000 0.297184
O O12 0.998903 0.747726 0.074475
O O13 0.760890 0.500000 0.301120
O O14 0.537695 0.268257 0.029129
O O15 0.464050 0.500000 0.445516
O O16 0.628841 0.314970 0.536231
O O17 0.594448 0.252415 0.669870
O O18 0.941622 0.500000 0.923290
O O19 0.584231 0.000000 0.730217
O O20 0.412168 0.000000 0.850067
#
# Coordination Sequence:
#
# PCOD8052355 Si02
#       8
#     2   2   2   2   2   2   2   2
#     4   9  20  38  55  76 108 147 186 225 274 323
#     4  10  21  39  61  83 113 152 188 226 278 339
#     4  10  19  34  58  84 111 144 179 220 273 331
#     4  11  23  38  59  84 112 147 190 241 282 323
#     4  10  20  35  57  82 109 143 181 222 271 328
#     4  10  20  35  57  82 109 143 181 222 271 328
#     4  10  19  34  58  84 111 144 179 220 273 331
#     4  10  21  39  61  83 113 152 188 226 278 339
#
# _framework density 18.942778000000001
#
# number of rings (size 3 to 8) (size 9 to 14) (size 15 to 20)
#    0.000    2.000    2.500    1.125    0.000    4.000 
#    0.000    5.000    0.000    0.000    0.000    0.000 
#    0.000    0.000    0.000    0.000    0.000    0.000 
#
# Total GULP energy -198430.538163 kJ/mol
# GULP energy per Si atom -12401.908635 kJ/mol
# Density = 1.889966 g / cm^3
# Si number density = 18.942778 Si / 1000 Ang^3
#
#
#
# Elastic Constant Matrix: (Units=GPa)
#
#
# Indices 1 2 3 4 5 6 
#
# 1 110.2363 45.8768 91.1342 0.0000 9.7896 0.0000
# 2 45.8768 54.5787 49.2555 0.0000 -4.0416 0.0000
# 3 91.1342 49.2555 111.7843 0.0000 -7.5777 0.0000
# 4 0.0000 0.0000 0.0000 -221.7178 0.0000 177.7083
# 5 9.7896 -4.0416 -7.5777 0.0000 33.0037 0.0000
# 6 0.0000 0.0000 0.0000 177.7083 0.0000 -107.4948
#
#
#
# Elastic Compliance Matrix: (Units=1/GPa)
#
#
# Indices 1 2 3 4 5 6 
#
# 1 0.037077 -0.006844 -0.028458 0.000000 -0.018370 0.000000
# 2 -0.006844 0.031695 -0.008112 0.000000 0.004049 0.000000
# 3 -0.028458 -0.008112 0.036798 0.000000 0.015897 0.000000
# 4 0.000000 0.000000 0.000000 0.013876 0.000000 0.022940
# 5 -0.018370 0.004049 0.015897 0.000000 0.039894 0.000000
# 6 0.000000 0.000000 0.000000 0.022940 0.000000 0.028621
#
#
# Mechanical properties :
#
#
# Convention : Reuss Voigt Hill
#
# Bulk Modulus (GPa) = 53.34952 72.12579 62.73766
# Shear Modulus (GPa) = 17.79125 -53.21959 -17.71417
#
# Velocity S-wave (km/s) = 3.06798 -5.30621 -3.06133
# Velocity P-wave (km/s) = 6.38550 0.78553 4.54927
#
# Compressibility (1/GPa) = 0.01874431
#
# Stress axis : x y z
#
# Youngs Moduli (GPa) = 26.97063 31.55024 27.17525
#
# Poissons Ratio (x) = 0.21593 0.77334
# Poissons Ratio (y) = 0.18459 0.22044
# Poissons Ratio (z) = 0.76752 0.25593
#
# Static dielectric constant tensor:
#      x y z
#    x 3.601190 0.000000 0.081370 
#    y 0.000000 3.369200 0.000000 
#    z 0.081370 0.000000 3.547800 
# 
# 
# High freq. dielectric constant tensor:
#      x y z
#    x 1.746520 0.000000 0.011870 
#    y 0.000000 1.715430 0.000000 
#    z 0.011870 0.000000 1.738700 
# 
# From -- ./inp_files/4573.got.cif
#   From: 2010.03.12/outbox.cif.g09.slc.cpg/sg6_3_cif.got.tgz:4573.got - 2010.03.30 10:24:59.
