data_PCOD8052167
_publ_section_title
;
Structure prediction by ZEFSAII (Michael W. Deem and Ramdas Pophale) SiO2 
 PCOD8052167
Probable space group: C 2
;
_chemical_formula_sum "Si O2"
_cell_formula_units_Z 28
_cell_length_a 21.407770
_cell_length_b 5.667059
_cell_length_c 11.075870
_cell_angle_alpha 90.000000
_cell_angle_beta 62.802757
_cell_angle_gamma 90.000000
_cell_volume 1195.151259
_symmetry_space_group_name_H-M "C 2"
_symmetry_group_IT_number 5
_symmetry_cell_setting 'monoclinic'
loop_
_space_group_symop_operation_xyz
x,y,z
-x,y,-z
1/2+x,1/2+y,z
1/2-x,1/2+y,-z
loop_
_atom_site_type_symbol
_atom_site_label
_atom_site_fract_x
_atom_site_fract_y
_atom_site_fract_z
Si Si1 0.127178 0.834710 0.855571
Si Si2 0.755622 0.945321 0.423763
Si Si3 0.537603 0.997760 0.776872
Si Si4 0.427558 0.251226 0.728292
Si Si5 0.890878 0.436665 0.537971
Si Si6 0.500000 0.565808 0.500000
Si Si7 0.210532 0.790634 0.014680
Si Si8 0.000000 0.134970 0.000000
O O1 0.170492 0.964736 0.710955
O O2 0.079374 0.629619 0.844432
O O3 0.182501 0.740446 0.904877
O O4 0.071126 0.999104 0.972315
O O5 0.754204 0.698229 0.500539
O O6 0.693095 0.919011 0.381596
O O7 0.588159 0.989450 0.617839
O O8 0.461859 0.101097 0.805565
O O9 0.516892 0.755822 0.858006
O O10 0.486168 0.442732 0.641140
O O11 0.418992 0.127699 0.606037
O O12 0.352509 0.344587 0.837035
O O13 0.926755 0.195936 0.544604
O O14 0.245978 0.538849 0.021770
#
# Coordination Sequence:
#
# PCOD8052167 Si02
#       8
#     4   4   4   4   4   2   4   2
#     4  12  29  51  77 116 153 210 262 330 396 475
#     4  12  29  50  80 114 159 206 262 325 393 470
#     4  12  25  50  74 116 155 197 268 327 397 462
#     4  12  27  49  78 115 155 205 263 326 396 466
#     4  12  26  47  77 114 156 205 257 330 388 474
#     4  12  26  44  82 112 152 206 266 320 402 456
#     4  12  32  54  80 112 161 212 264 323 397 484
#     4  12  28  46  82 106 158 206 264 328 398 466
#
# _framework density 23.427997999999999
#
# number of rings (size 3 to 8) (size 9 to 14) (size 15 to 20)
#    0.000    0.000    4.286    3.857   16.000    0.000 
#    0.000    0.000    0.000    0.000    0.000    0.000 
#    0.000    0.000    0.000    0.000    0.000    0.000 
#
# Total GULP energy -173460.724541 kJ/mol
# GULP energy per Si atom -12390.051753 kJ/mol
# Density = 2.337467 g / cm^3
# Si number density = 23.427998 Si / 1000 Ang^3
#
#
#
# Elastic Constant Matrix: (Units=GPa)
#
#
# Indices 1 2 3 4 5 6 
#
# 1 137.3951 31.6720 27.6020 0.0000 5.1171 0.0000
# 2 31.6720 93.8410 30.2038 -0.0001 2.8744 0.0000
# 3 27.6020 30.2038 123.7586 0.0000 -8.0485 0.0000
# 4 0.0000 -0.0001 0.0000 18.3635 0.0000 -2.8904
# 5 5.1171 2.8744 -8.0485 0.0000 52.2998 0.0000
# 6 0.0000 0.0000 0.0000 -2.8904 0.0000 33.7022
#
#
#
# Elastic Compliance Matrix: (Units=1/GPa)
#
#
# Indices 1 2 3 4 5 6 
#
# 1 0.008100 -0.002287 -0.001305 0.000000 -0.000868 0.000000
# 2 -0.002287 0.012271 -0.002539 0.000000 -0.000841 0.000000
# 3 -0.001305 -0.002539 0.009099 0.000000 0.001668 0.000000
# 4 0.000000 0.000000 0.000000 0.055201 0.000000 0.004734
# 5 -0.000868 -0.000841 0.001668 0.000000 0.019508 0.000000
# 6 0.000000 0.000000 0.000000 0.004734 0.000000 0.030078
#
#
# Mechanical properties :
#
#
# Convention : Reuss Voigt Hill
#
# Bulk Modulus (GPa) = 58.11301 59.32782 58.72041
# Shear Modulus (GPa) = 32.83923 38.57422 35.70673
#
# Velocity S-wave (km/s) = 3.74800 4.06211 3.90821
# Velocity P-wave (km/s) = 6.60218 6.88327 6.74419
#
# Compressibility (1/GPa) = 0.01720785
#
# Stress axis : x y z
#
# Youngs Moduli (GPa) = 123.45729 81.49010 109.89651
#
# Poissons Ratio (x) = 0.18639 0.14339
# Poissons Ratio (y) = 0.28238 0.27908
# Poissons Ratio (z) = 0.16108 0.20694
#
# Static dielectric constant tensor:
#      x y z
#    x 4.528540 0.000000 -0.166990 
#    y 0.000000 4.338210 0.000000 
#    z -0.166990 0.000000 4.643910 
# 
# 
# High freq. dielectric constant tensor:
#      x y z
#    x 1.945320 0.000000 -0.005480 
#    y 0.000000 1.922680 0.000000 
#    z -0.005480 0.000000 1.947580 
# 
# From -- ./inp_files/45596.got.cif
#   From: 2010.03.12/outbox.cif.g09.slc.cpg/sg5_23_cif.got.tgz:45596.got - 2010.03.31 09:47:26.
