data_PCOD8052749
_publ_section_title
;
Structure prediction by ZEFSAII (Michael W. Deem and Ramdas Pophale) SiO2 
 PCOD8052749
Probable space group: C M
;
_chemical_formula_sum "Si O2"
_cell_formula_units_Z 32
_cell_length_a 11.703553
_cell_length_b 19.987710
_cell_length_c 8.192952
_cell_angle_alpha 90.000000
_cell_angle_beta 55.356530
_cell_angle_gamma 90.000000
_cell_volume 1576.759577
_symmetry_space_group_name_H-M "C M"
_symmetry_group_IT_number 8
_symmetry_cell_setting 'monoclinic'
loop_
_space_group_symop_operation_xyz
x,y,z
x,-y,z
1/2+x,1/2+y,z
1/2+x,1/2-y,z
loop_
_atom_site_type_symbol
_atom_site_label
_atom_site_fract_x
_atom_site_fract_y
_atom_site_fract_z
Si Si1 0.500000 0.337708 0.262090
Si Si2 0.929635 0.322002 0.674139
Si Si3 0.389148 0.322329 0.712968
Si Si4 0.824419 0.671488 0.395953
Si Si5 0.212707 0.075248 0.943714
Si Si6 0.597391 0.423773 0.676242
Si Si7 0.226383 0.310774 0.338052
Si Si8 0.616013 0.802720 0.076754
O O1 0.459659 0.321222 0.478899
O O2 0.358507 0.355115 0.281113
O O3 0.575374 0.275680 0.109980
O O4 0.604065 0.400398 0.169755
O O5 0.920331 0.249890 0.772175
O O6 0.860300 0.310360 0.553183
O O7 0.850508 0.379392 0.838160
O O8 0.090387 0.342606 0.533071
O O9 0.455834 0.382398 0.763045
O O10 0.219055 0.326277 0.846161
O O11 0.724022 0.607422 0.467366
O O12 0.745710 0.733586 0.377024
O O13 0.971322 0.655631 0.185768
O O14 0.135003 0.080362 0.834843
O O15 0.258675 0.000000 0.946186
O O16 0.575113 0.500000 0.637109
O O17 0.208369 0.317334 0.160345
#
# Coordination Sequence:
#
# PCOD8052749 Si02
#       8
#     4   4   4   4   4   4   4   4
#     4  11  21  35  56  85 116 153 189 240 295 337
#     4  10  18  33  58  86 115 146 194 247 284 334
#     4  12  20  35  56  88 118 145 198 244 292 337
#     4   9  17  34  54  81 117 144 191 236 289 341
#     4  10  22  40  59  84 118 160 198 231 287 355
#     4  10  21  37  60  84 115 157 194 237 291 350
#     4  10  17  34  53  84 113 143 188 242 293 337
#     4  10  20  32  52  84 114 142 188 247 291 335
#
# _framework density 20.294788
#
# number of rings (size 3 to 8) (size 9 to 14) (size 15 to 20)
#    0.000    1.750    6.250    0.750    0.000    0.500 
#    4.500    1.250    0.000    4.500    0.000    0.000 
#    0.000    0.000    0.000    0.000    0.000    0.000 
#
# Total GULP energy -198313.542936 kJ/mol
# GULP energy per Si atom -12394.596434 kJ/mol
# Density = 2.024860 g / cm^3
# Si number density = 20.294788 Si / 1000 Ang^3
#
#
#
# Elastic Constant Matrix: (Units=GPa)
#
#
# Indices 1 2 3 4 5 6 
#
# 1 70.7400 30.2959 31.1757 0.0000 -28.6681 0.0000
# 2 30.2959 126.3165 61.5205 0.0000 -23.8188 0.0000
# 3 31.1757 61.5205 122.3746 0.0000 -43.0365 0.0000
# 4 0.0000 0.0000 0.0000 26.9154 0.0000 -7.0266
# 5 -28.6681 -23.8188 -43.0365 0.0000 33.7566 0.0000
# 6 0.0000 0.0000 0.0000 -7.0266 0.0000 27.6519
#
#
#
# Elastic Compliance Matrix: (Units=1/GPa)
#
#
# Indices 1 2 3 4 5 6 
#
# 1 0.022568 -0.002977 0.003170 0.000000 0.021107 0.000000
# 2 -0.002977 0.010904 -0.005269 0.000000 -0.001551 0.000000
# 3 0.003170 -0.005269 0.017497 0.000000 0.021281 0.000000
# 4 0.000000 0.000000 0.000000 0.039793 0.000000 0.010112
# 5 0.021107 -0.001551 0.021281 0.000000 0.073587 0.000000
# 6 0.000000 0.000000 0.000000 0.010112 0.000000 0.038733
#
#
# Mechanical properties :
#
#
# Convention : Reuss Voigt Hill
#
# Bulk Modulus (GPa) = 24.49896 62.82392 43.66144
# Shear Modulus (GPa) = 22.04198 30.76071 26.40135
#
# Velocity S-wave (km/s) = 3.29916 3.89742 3.61070
# Velocity P-wave (km/s) = 5.15853 7.16073 6.24045
#
# Compressibility (1/GPa) = 0.04081805
#
# Stress axis : x y z
#
# Youngs Moduli (GPa) = 44.31068 91.70763 57.15207
#
# Poissons Ratio (x) = 0.27297 -0.18117
# Poissons Ratio (y) = 0.13189 0.30114
# Poissons Ratio (z) = -0.14047 0.48322
#
# Static dielectric constant tensor:
#      x y z
#    x 3.735490 0.000000 -0.295830 
#    y 0.000000 3.510690 0.000000 
#    z -0.295830 0.000000 3.834550 
# 
# 
# High freq. dielectric constant tensor:
#      x y z
#    x 1.789430 0.000000 -0.020920 
#    y 0.000000 1.751230 0.000000 
#    z -0.020920 0.000000 1.799150 
# 
# From -- ./inp_files/11450.got.cif
#   From: 2010.03.12/outbox.cif.g09.slc.cpg/sg8_6_cif.got.tgz:11450.got - 2010.03.31 10:45:26.
