data_PCOD8052105
_publ_section_title
;
Structure prediction by ZEFSAII (Michael W. Deem and Ramdas Pophale) SiO2 
 PCOD8052105
Probable space group: C 2
;
_chemical_formula_sum "Si O2"
_cell_formula_units_Z 24
_cell_length_a 25.036015
_cell_length_b 4.979817
_cell_length_c 15.226278
_cell_angle_alpha 90.000000
_cell_angle_beta 144.857048
_cell_angle_gamma 90.000000
_cell_volume 1092.715300
_symmetry_space_group_name_H-M "C 2"
_symmetry_group_IT_number 5
_symmetry_cell_setting 'monoclinic'
loop_
_space_group_symop_operation_xyz
x,y,z
-x,y,-z
1/2+x,1/2+y,z
1/2-x,1/2+y,-z
loop_
_atom_site_type_symbol
_atom_site_label
_atom_site_fract_x
_atom_site_fract_y
_atom_site_fract_z
Si Si1 0.394981 0.309410 0.872773
Si Si2 0.495943 0.754179 0.595762
Si Si3 0.187529 0.299436 0.148734
Si Si4 0.806052 0.231158 0.047538
Si Si5 0.885796 0.755423 0.498013
Si Si6 0.192426 0.714040 0.423642
O O1 0.387314 0.586699 0.915768
O O2 0.355099 0.356662 0.722426
O O3 0.337326 0.090709 0.848687
O O4 0.500000 0.217748 0.000000
O O5 0.500000 0.671864 0.500000
O O6 0.595120 0.715721 0.773027
O O7 0.420787 0.560650 0.540301
O O8 0.462738 0.060422 0.560072
O O9 0.290130 0.214784 0.317218
O O10 0.181873 0.315661 0.036673
O O11 0.741532 0.441229 0.011882
O O12 0.876537 0.676775 0.587637
O O13 0.226930 0.421318 0.438926
#
# Coordination Sequence:
#
# PCOD8052105 Si02
#       6
#     4   4   4   4   4   4
#     4  12  26  43  66  99 139 176 220 271 323 397
#     4  12  26  44  70 100 127 169 222 276 327 391
#     4  12  25  45  67  98 134 180 215 272 338 383
#     4  12  26  47  70  97 135 172 218 274 334 397
#     4  12  24  43  70  96 132 170 222 269 327 390
#     4  12  23  44  67  99 133 178 221 263 326 387
#
# _framework density 21.963636000000001
#
# number of rings (size 3 to 8) (size 9 to 14) (size 15 to 20)
#    0.000    0.000    3.333    7.000    4.667    0.000 
#    0.000    0.000    0.000    0.000    0.000    0.000 
#    0.000    0.000    0.000    0.000    0.000    0.000 
#
# Total GULP energy -148920.795253 kJ/mol
# GULP energy per Si atom -12410.066271 kJ/mol
# Density = 2.191365 g / cm^3
# Si number density = 21.963636 Si / 1000 Ang^3
#
#
#
# Elastic Constant Matrix: (Units=GPa)
#
#
# Indices 1 2 3 4 5 6 
#
# 1 106.3710 15.1165 57.4732 -0.0001 -14.2731 0.0000
# 2 15.1165 93.3087 17.2877 -0.0006 3.3425 0.0049
# 3 57.4732 17.2877 98.9593 0.0004 -8.0600 -0.0017
# 4 -0.0001 -0.0006 0.0004 31.8054 0.0000 6.5859
# 5 -14.2731 3.3425 -8.0600 0.0000 40.3159 -0.0001
# 6 0.0000 0.0049 -0.0017 6.5859 -0.0001 -54.9362
#
#
#
# Elastic Compliance Matrix: (Units=1/GPa)
#
#
# Indices 1 2 3 4 5 6 
#
# 1 0.014237 -0.000988 -0.007806 0.000000 0.003562 0.000000
# 2 -0.000988 0.011214 -0.001514 0.000000 -0.001582 0.000001
# 3 -0.007806 -0.001514 0.014931 0.000000 0.000347 -0.000001
# 4 0.000000 0.000000 0.000000 0.030680 0.000000 0.003678
# 5 0.003562 -0.001582 0.000347 0.000000 0.026266 0.000000
# 6 0.000000 0.000001 -0.000001 0.003678 0.000000 -0.017762
#
#
# Mechanical properties :
#
#
# Convention : Reuss Voigt Hill
#
# Bulk Modulus (GPa) = 50.58962 53.15489 51.87225
# Shear Modulus (GPa) = 46.82935 17.35445 32.09190
#
# Velocity S-wave (km/s) = 4.62251 2.81400 3.82663
# Velocity P-wave (km/s) = 7.18147 5.90017 6.57212
#
# Compressibility (1/GPa) = 0.01976690
#
# Stress axis : x y z
#
# Youngs Moduli (GPa) = 70.24005 89.17128 66.97299
#
# Poissons Ratio (x) = 0.08809 0.52278
# Poissons Ratio (y) = 0.06938 0.10141
# Poissons Ratio (z) = 0.54828 0.13503
#
# Static dielectric constant tensor:
#      x y z
#    x 4.082180 0.000000 0.097660 
#    y 0.000000 3.945550 0.000000 
#    z 0.097660 0.000000 4.340410 
# 
# 
# High freq. dielectric constant tensor:
#      x y z
#    x 1.880010 0.000000 -0.006630 
#    y 0.000000 1.878530 0.000000 
#    z -0.006630 0.000000 1.865050 
# 
# From -- ./inp_files/56601.got.cif
#   From: 2010.03.12/outbox.cif.g09.slc.cpg/sg5_29_cif.got.tgz:56601.got - 2010.03.31 09:47:26.
