data_PCOD8052236
_publ_section_title
;
Structure prediction by ZEFSAII (Michael W. Deem and Ramdas Pophale) SiO2 
 PCOD8052236
Probable space group: P M
;
_chemical_formula_sum "Si O2"
_cell_formula_units_Z 16
_cell_length_a 10.053814
_cell_length_b 9.037431
_cell_length_c 12.179803
_cell_angle_alpha 90.000000
_cell_angle_beta 125.342625
_cell_angle_gamma 90.000000
_cell_volume 902.714760
_symmetry_space_group_name_H-M "P M"
_symmetry_group_IT_number 6
_symmetry_cell_setting 'monoclinic'
loop_
_space_group_symop_operation_xyz
x,y,z
x,-y,z
loop_
_atom_site_type_symbol
_atom_site_label
_atom_site_fract_x
_atom_site_fract_y
_atom_site_fract_z
Si Si1 0.136020 0.175565 0.626530
Si Si2 0.978861 0.830178 0.152370
Si Si3 0.672901 0.824497 0.137512
Si Si4 0.196541 0.326434 0.091271
Si Si5 0.265681 0.830036 0.458987
Si Si6 0.770197 0.823806 0.423497
Si Si7 0.479839 0.673490 0.394468
Si Si8 0.307244 0.824044 0.929003
O O1 0.233208 0.231750 0.565773
O O2 0.227819 0.233332 0.778357
O O3 0.950912 0.234230 0.537746
O O4 0.131548 0.000000 0.620223
O O5 0.802231 0.770703 0.107586
O O6 0.036256 0.731110 0.077748
O O7 0.098141 0.813623 0.312655
O O8 0.971125 0.000000 0.109157
O O9 0.720727 0.762515 0.279922
O O10 0.679755 0.000000 0.145975
O O11 0.493715 0.767278 0.019673
O O12 0.180307 0.500000 0.065569
O O13 0.356280 0.283844 0.237502
O O14 0.205623 0.246614 0.979096
O O15 0.408092 0.731326 0.475017
O O16 0.324196 0.000000 0.487701
O O17 0.650682 0.753660 0.456132
O O18 0.756331 0.000000 0.423250
O O19 0.507836 0.500000 0.416201
O O20 0.298106 0.000000 0.936176
#
# Coordination Sequence:
#
# PCOD8052236 Si02
#       8
#     2   2   2   2   2   2   2   2
#     4   9  18  32  53  79 104 128 164 210 251 297
#     4   9  16  29  51  75  97 127 168 211 252 296
#     4   9  16  28  51  78  99 123 165 210 247 292
#     4  10  20  33  48  72 105 137 169 206 248 295
#     4   9  16  30  51  73  98 131 166 205 255 301
#     4  10  17  31  53  77 101 129 166 208 252 295
#     4  10  20  32  48  75 105 132 168 212 248 290
#     4  10  19  33  53  77 103 133 166 204 251 300
#
# _framework density 17.724312999999999
#
# number of rings (size 3 to 8) (size 9 to 14) (size 15 to 20)
#    0.000    2.500    2.500    0.750    0.000    1.000 
#    0.000    4.375    0.000    4.500    0.000    0.000 
#    0.000    0.000    0.000    0.000    0.000    0.000 
#
# Total GULP energy -198411.610122 kJ/mol
# GULP energy per Si atom -12400.725633 kJ/mol
# Density = 1.768397 g / cm^3
# Si number density = 17.724313 Si / 1000 Ang^3
#
#
#
# Elastic Constant Matrix: (Units=GPa)
#
#
# Indices 1 2 3 4 5 6 
#
# 1 160.6965 35.9724 77.1120 0.0000 -9.6913 0.0000
# 2 35.9724 39.4799 29.2309 0.0000 -5.4107 0.0000
# 3 77.1120 29.2309 116.3162 0.0000 -6.4944 0.0000
# 4 0.0000 0.0000 0.0000 11.2068 0.0000 1.2184
# 5 -9.6913 -5.4107 -6.4944 0.0000 29.3126 0.0000
# 6 0.0000 0.0000 0.0000 1.2184 0.0000 4.0575
#
#
#
# Elastic Compliance Matrix: (Units=1/GPa)
#
#
# Indices 1 2 3 4 5 6 
#
# 1 0.009941 -0.004993 -0.005269 0.000000 0.001198 0.000000
# 2 -0.004993 0.034112 -0.005066 0.000000 0.003524 0.000000
# 3 -0.005269 -0.005066 0.013379 0.000000 0.000287 0.000000
# 4 0.000000 0.000000 0.000000 0.092243 0.000000 -0.027699
# 5 0.001198 0.003524 0.000287 0.000000 0.035225 0.000000
# 6 0.000000 0.000000 0.000000 -0.027699 0.000000 0.254776
#
#
# Mechanical properties :
#
#
# Convention : Reuss Voigt Hill
#
# Bulk Modulus (GPa) = 37.34456 66.79148 52.06802
# Shear Modulus (GPa) = 10.43280 20.52720 15.48000
#
# Velocity S-wave (km/s) = 2.42877 3.40683 2.95850
# Velocity P-wave (km/s) = 5.38337 7.29662 6.41176
#
# Compressibility (1/GPa) = 0.02677766
#
# Stress axis : x y z
#
# Youngs Moduli (GPa) = 100.59229 29.31506 74.74167
#
# Poissons Ratio (x) = 0.14636 0.39381
# Poissons Ratio (y) = 0.50222 0.37864
# Poissons Ratio (z) = 0.53001 0.14851
#
# Static dielectric constant tensor:
#      x y z
#    x 3.442410 0.000000 -0.009330 
#    y 0.000000 2.940300 0.000000 
#    z -0.009330 0.000000 3.216200 
# 
# 
# High freq. dielectric constant tensor:
#      x y z
#    x 1.701630 0.000000 -0.006580 
#    y 0.000000 1.653880 0.000000 
#    z -0.006580 0.000000 1.660600 
# 
# From -- ./inp_files/3484.got.cif
#   From: 2010.03.12/outbox.cif.g09.slc.cpg/sg6_2_cif.got.tgz:3484.got - 2010.03.30 10:24:59.
