data_PCOD8052743
_publ_section_title
;
Structure prediction by ZEFSAII (Michael W. Deem and Ramdas Pophale) SiO2 
 PCOD8052743
Probable space group: C M
;
_chemical_formula_sum "Si O2"
_cell_formula_units_Z 32
_cell_length_a 23.983722
_cell_length_b 8.748991
_cell_length_c 25.381708
_cell_angle_alpha 90.000000
_cell_angle_beta 162.142989
_cell_angle_gamma 90.000000
_cell_volume 1633.156536
_symmetry_space_group_name_H-M "C M"
_symmetry_group_IT_number 8
_symmetry_cell_setting 'monoclinic'
loop_
_space_group_symop_operation_xyz
x,y,z
x,-y,z
1/2+x,1/2+y,z
1/2+x,1/2-y,z
loop_
_atom_site_type_symbol
_atom_site_label
_atom_site_fract_x
_atom_site_fract_y
_atom_site_fract_z
Si Si1 0.858610 0.680414 0.671550
Si Si2 0.516486 0.181142 0.320530
Si Si3 0.856760 0.818046 0.973309
Si Si4 0.254075 0.181245 0.175469
Si Si5 0.245681 0.182186 0.285967
Si Si6 0.762250 0.818794 0.004904
Si Si7 0.862768 0.181310 0.785844
Si Si8 0.121137 0.318541 0.665572
O O1 0.846031 0.500000 0.656712
O O2 0.719748 0.750984 0.503986
O O3 0.798851 0.738850 0.674995
O O4 0.061904 0.737423 0.841251
O O5 0.413392 0.240110 0.280513
O O6 0.524531 0.000000 0.325551
O O7 0.413294 0.240582 0.176533
O O8 0.057520 0.753463 0.140344
O O9 0.859493 0.000000 0.973209
O O10 0.796817 0.761193 0.976652
O O11 0.712653 0.752486 0.800989
O O12 0.278047 0.246882 0.256001
O O13 0.253551 0.000000 0.177319
O O14 0.064171 0.238674 0.980844
O O15 0.412241 0.237522 0.472819
O O16 0.238635 0.000000 0.277289
O O17 0.781852 0.000000 0.027599
O O18 0.730904 0.239032 0.713389
O O19 0.851206 0.000000 0.767471
O O20 0.130981 0.500000 0.675957
#
# Coordination Sequence:
#
# PCOD8052743 Si02
#       8
#     4   4   4   4   4   4   4   4
#     4  11  23  37  54  80 115 149 181 218 271 330
#     4  11  22  37  59  83 108 141 185 229 272 321
#     4   9  17  30  47  72 105 139 175 217 265 316
#     4   9  16  28  50  81 110 134 168 222 276 317
#     4   9  15  25  44  74 107 134 164 212 271 318
#     4  10  22  38  55  78 112 148 183 225 272 322
#     4  10  17  31  55  81 110 140 177 222 269 321
#     4   9  16  26  47  77 107 135 169 219 270 315
#
# _framework density 19.593958000000001
#
# number of rings (size 3 to 8) (size 9 to 14) (size 15 to 20)
#    0.000    2.250    2.500    1.500    0.000    3.500 
#    0.000    3.750    0.000    0.750    0.000    2.625 
#    0.000    0.000    0.000    0.000    0.000    0.000 
#
# Total GULP energy -198388.860558 kJ/mol
# GULP energy per Si atom -12399.303785 kJ/mol
# Density = 1.954936 g / cm^3
# Si number density = 19.593958 Si / 1000 Ang^3
#
#
#
# Elastic Constant Matrix: (Units=GPa)
#
#
# Indices 1 2 3 4 5 6 
#
# 1 132.6848 19.8939 67.8578 -0.0059 -22.2197 -0.0029
# 2 19.8939 25.3021 24.4870 -0.0165 -5.7689 -0.0083
# 3 67.8578 24.4870 178.6372 -0.0244 -18.6807 -0.0136
# 4 -0.0059 -0.0165 -0.0244 22.1310 -0.0061 -3.7961
# 5 -22.2197 -5.7689 -18.6807 -0.0061 22.6147 -0.0023
# 6 -0.0029 -0.0083 -0.0136 -3.7961 -0.0023 18.1276
#
#
#
# Elastic Compliance Matrix: (Units=1/GPa)
#
#
# Indices 1 2 3 4 5 6 
#
# 1 0.010791 -0.004148 -0.002772 -0.000002 0.007255 -0.000002
# 2 -0.004148 0.048220 -0.004569 0.000035 0.004451 0.000026
# 3 -0.002772 -0.004569 0.007520 0.000006 0.002323 0.000005
# 4 -0.000002 0.000035 0.000006 0.046869 0.000026 0.009815
# 5 0.007255 0.004451 0.002323 0.000026 0.054402 0.000017
# 6 -0.000002 0.000026 0.000005 0.009815 0.000017 0.057220
#
#
# Mechanical properties :
#
#
# Convention : Reuss Voigt Hill
#
# Bulk Modulus (GPa) = 22.95977 62.34461 42.65219
# Shear Modulus (GPa) = 19.04637 27.53366 23.29002
#
# Velocity S-wave (km/s) = 3.12116 3.75268 3.45140
# Velocity P-wave (km/s) = 4.97313 7.11788 6.13988
#
# Compressibility (1/GPa) = 0.04355444
#
# Stress axis : x y z
#
# Youngs Moduli (GPa) = 92.66916 20.73818 132.97727
#
# Poissons Ratio (x) = 0.08602 0.36860
# Poissons Ratio (y) = 0.38437 0.60754
# Poissons Ratio (z) = 0.25687 0.09475
#
# Static dielectric constant tensor:
#      x y z
#    x 3.707240 0.000000 0.025070 
#    y 0.000000 2.962000 0.000000 
#    z 0.025070 0.000000 3.864940 
# 
# 
# High freq. dielectric constant tensor:
#      x y z
#    x 1.762710 0.000000 -0.001540 
#    y 0.000000 1.701800 0.000000 
#    z -0.001540 0.000000 1.784430 
# 
# From -- ./inp_files/32395.got.cif
#   From: 2010.03.12/outbox.cif.g09.slc.cpg/sg8_17_cif.got.tgz:32395.got - 2010.03.31 10:45:26.
