data_PCOD8052292
_publ_section_title
;
Structure prediction by ZEFSAII (Michael W. Deem and Ramdas Pophale) SiO2 
 PCOD8052292
Probable space group: P M
;
_chemical_formula_sum "Si O2"
_cell_formula_units_Z 16
_cell_length_a 14.031498
_cell_length_b 9.021404
_cell_length_c 19.333232
_cell_angle_alpha 90.000000
_cell_angle_beta 160.511614
_cell_angle_gamma 90.000000
_cell_volume 816.449285
_symmetry_space_group_name_H-M "P M"
_symmetry_group_IT_number 6
_symmetry_cell_setting 'monoclinic'
loop_
_space_group_symop_operation_xyz
x,y,z
x,-y,z
loop_
_atom_site_type_symbol
_atom_site_label
_atom_site_fract_x
_atom_site_fract_y
_atom_site_fract_z
Si Si1 0.564290 0.330650 0.266380
Si Si2 0.216822 0.675960 0.407879
Si Si3 0.561359 0.675671 0.511646
Si Si4 0.120822 0.828489 0.697168
Si Si5 0.662072 0.171816 0.974651
Si Si6 0.152918 0.328621 0.110690
Si Si7 0.161817 0.325899 0.869565
Si Si8 0.597033 0.174535 0.771519
O O1 0.672061 0.500000 0.343723
O O2 0.306282 0.306658 0.142835
O O3 0.825345 0.225301 0.462358
O O4 0.440964 0.290726 0.106395
O O5 0.216561 0.500000 0.414640
O O6 0.436129 0.732835 0.498583
O O7 0.314894 0.748383 0.547134
O O8 0.899619 0.728734 0.173584
O O9 0.567735 0.500000 0.516213
O O10 0.357110 0.732573 0.310715
O O11 0.879061 0.737719 0.714637
O O12 0.364007 0.796461 0.807818
O O13 0.203413 0.747097 0.823999
O O14 0.090031 0.000000 0.693416
O O15 0.627048 0.222656 0.871595
O O16 0.751472 0.000000 0.040875
O O17 0.068700 0.500000 0.065064
O O18 0.868744 0.231555 0.914627
O O19 0.122906 0.500000 0.831296
O O20 0.564902 0.000000 0.741417
#
# Coordination Sequence:
#
# PCOD8052292 Si02
#       8
#     2   2   2   2   2   2   2   2
#     4  10  21  38  63  89 118 153 191 239 291 345
#     4  11  22  38  63  92 118 149 192 241 289 345
#     4   9  17  33  60  89 118 149 184 233 291 343
#     4  11  24  41  60  82 115 157 198 242 290 344
#     4  10  24  44  60  79 114 159 200 240 290 342
#     4  10  18  35  62  89 118 153 191 235 287 344
#     4  10  20  38  62  89 118 151 191 237 291 345
#     4  11  23  39  60  87 121 157 191 235 289 350
#
# _framework density 19.597052999999999
#
# number of rings (size 3 to 8) (size 9 to 14) (size 15 to 20)
#    0.000    1.750    2.500    1.875    0.000    5.500 
#    0.000    6.250    0.000    0.000    0.000    0.000 
#    0.000    0.000    0.000    0.000    0.000    0.000 
#
# Total GULP energy -198456.492434 kJ/mol
# GULP energy per Si atom -12403.530777 kJ/mol
# Density = 1.955245 g / cm^3
# Si number density = 19.597053 Si / 1000 Ang^3
#
#
#
# Elastic Constant Matrix: (Units=GPa)
#
#
# Indices 1 2 3 4 5 6 
#
# 1 74.9367 38.7806 61.5436 0.0000 -5.1655 0.0000
# 2 38.7806 68.7266 53.1857 0.0000 -8.5445 0.0000
# 3 61.5436 53.1857 104.5827 0.0000 -29.7546 0.0000
# 4 0.0000 0.0000 0.0000 33.1159 0.0000 2.2661
# 5 -5.1655 -8.5445 -29.7546 0.0000 26.4911 0.0000
# 6 0.0000 0.0000 0.0000 2.2661 0.0000 24.6653
#
#
#
# Elastic Compliance Matrix: (Units=1/GPa)
#
#
# Indices 1 2 3 4 5 6 
#
# 1 0.033287 -0.002519 -0.024531 0.000000 -0.021875 0.000000
# 2 -0.002519 0.025654 -0.013741 0.000000 -0.007650 0.000000
# 3 -0.024531 -0.013741 0.041684 0.000000 0.037604 0.000000
# 4 0.000000 0.000000 0.000000 0.030388 0.000000 -0.002792
# 5 -0.021875 -0.007650 0.037604 0.000000 0.073252 0.000000
# 6 0.000000 0.000000 0.000000 -0.002792 0.000000 0.040799
#
#
# Mechanical properties :
#
#
# Convention : Reuss Voigt Hill
#
# Bulk Modulus (GPa) = 52.50952 61.69619 57.10285
# Shear Modulus (GPa) = 15.01534 23.17019 19.09277
#
# Velocity S-wave (km/s) = 2.77104 3.44223 3.12471
# Velocity P-wave (km/s) = 6.09024 6.88109 6.49771
#
# Compressibility (1/GPa) = 0.01904417
#
# Stress axis : x y z
#
# Youngs Moduli (GPa) = 30.04198 38.98002 23.99010
#
# Poissons Ratio (x) = 0.09818 0.58850
# Poissons Ratio (y) = 0.07567 0.32964
# Poissons Ratio (z) = 0.73695 0.53562
#
# Static dielectric constant tensor:
#      x y z
#    x 3.660780 0.000000 -0.091880 
#    y 0.000000 3.398460 0.000000 
#    z -0.091880 0.000000 3.615150 
# 
# 
# High freq. dielectric constant tensor:
#      x y z
#    x 1.766960 0.000000 -0.010160 
#    y 0.000000 1.746210 0.000000 
#    z -0.010160 0.000000 1.773840 
# 
# From -- ./inp_files/5947.got.cif
#   From: 2010.03.12/outbox.cif.g09.slc.cpg/sg6_3_cif.got.tgz:5947.got - 2010.03.30 10:24:59.
