data_PCOD8052979
_publ_section_title
;
Structure prediction by ZEFSAII (Michael W. Deem and Ramdas Pophale) SiO2 
 PCOD8052979
Probable space group: C M
;
_chemical_formula_sum "Si O2"
_cell_formula_units_Z 32
_cell_length_a 24.432150
_cell_length_b 8.729515
_cell_length_c 20.305692
_cell_angle_alpha 90.000000
_cell_angle_beta 156.249017
_cell_angle_gamma 90.000000
_cell_volume 1744.289269
_symmetry_space_group_name_H-M "C M"
_symmetry_group_IT_number 8
_symmetry_cell_setting 'monoclinic'
loop_
_space_group_symop_operation_xyz
x,y,z
x,-y,z
1/2+x,1/2+y,z
1/2+x,1/2-y,z
loop_
_atom_site_type_symbol
_atom_site_label
_atom_site_fract_x
_atom_site_fract_y
_atom_site_fract_z
Si Si1 0.332270 0.679611 0.871880
Si Si2 0.306472 0.821482 0.986360
Si Si3 0.085881 0.818111 0.522464
Si Si4 0.544280 0.322733 0.329183
Si Si5 0.751770 0.676266 0.446638
Si Si6 0.886230 0.819620 0.410636
Si Si7 0.113644 0.320206 0.170724
Si Si8 0.505223 0.320886 0.678219
O O1 0.313634 0.500000 0.847365
O O2 0.223583 0.757446 0.705234
O O3 0.318423 0.730009 0.931945
O O4 0.479432 0.725902 0.006025
O O5 0.424082 0.775434 0.165608
O O6 0.315992 0.000000 0.979097
O O7 0.163349 0.784098 0.864673
O O8 0.069718 0.758566 0.430357
O O9 0.956898 0.754226 0.422530
O O10 0.092922 0.000000 0.531455
O O11 0.499268 0.500000 0.279946
O O12 0.684219 0.300306 0.443495
O O13 0.743161 0.500000 0.414737
O O14 0.669268 0.779480 0.304213
O O15 0.909148 0.730574 0.624139
O O16 0.727373 0.774017 0.241335
O O17 0.967765 0.758886 0.564085
O O18 0.901068 0.000000 0.426357
O O19 0.080930 0.500000 0.133358
O O20 0.473184 0.500000 0.650148
#
# Coordination Sequence:
#
# PCOD8052979 Si02
#       8
#     4   4   4   4   4   4   4   4
#     4  12  23  35  54  85 115 141 184 235 279 326
#     4  11  21  36  59  82 109 146 189 230 275 329
#     4  10  20  39  60  79 110 151 184 224 279 334
#     4  10  22  37  56  83 115 146 183 228 277 331
#     4  10  19  32  51  82 115 144 179 226 277 323
#     4   8  15  31  55  80 104 135 185 226 265 324
#     4  10  19  33  55  82 108 144 185 227 275 328
#     4   9  18  33  54  81 106 139 187 228 269 329
#
# _framework density 18.345582
#
# number of rings (size 3 to 8) (size 9 to 14) (size 15 to 20)
#    0.000    2.000    2.500    3.000    0.000    2.000 
#    0.000    1.875    0.000    6.000    0.000    0.000 
#    0.000    0.000    0.000    0.000    0.000    0.000 
#
# Total GULP energy -198382.693274 kJ/mol
# GULP energy per Si atom -12398.918330 kJ/mol
# Density = 1.830383 g / cm^3
# Si number density = 18.345582 Si / 1000 Ang^3
#
#
#
# Elastic Constant Matrix: (Units=GPa)
#
#
# Indices 1 2 3 4 5 6 
#
# 1 127.1495 22.4426 61.7623 0.0000 11.6638 0.0000
# 2 22.4426 20.9737 11.1885 0.0000 2.1933 0.0000
# 3 61.7623 11.1885 100.4572 0.0000 9.9045 0.0000
# 4 0.0000 0.0000 0.0000 24.5182 0.0000 2.3957
# 5 11.6638 2.1933 9.9045 0.0000 32.3395 0.0000
# 6 0.0000 0.0000 0.0000 2.3957 0.0000 21.8795
#
#
#
# Elastic Compliance Matrix: (Units=1/GPa)
#
#
# Indices 1 2 3 4 5 6 
#
# 1 0.013125 -0.010246 -0.006734 0.000000 -0.001977 0.000000
# 2 -0.010246 0.058786 -0.000226 0.000000 -0.000222 0.000000
# 3 -0.006734 -0.000226 0.014311 0.000000 -0.001939 0.000000
# 4 0.000000 0.000000 0.000000 0.041227 0.000000 -0.004514
# 5 -0.001977 -0.000222 -0.001939 0.000000 0.032244 0.000000
# 6 0.000000 0.000000 0.000000 -0.004514 0.000000 0.046199
#
#
# Mechanical properties :
#
#
# Convention : Reuss Voigt Hill
#
# Bulk Modulus (GPa) = 19.30089 48.81860 34.05975
# Shear Modulus (GPa) = 19.41190 25.95990 22.68590
#
# Velocity S-wave (km/s) = 3.25641 3.76580 3.52033
# Velocity P-wave (km/s) = 4.96815 6.75104 5.92702
#
# Compressibility (1/GPa) = 0.05181107
#
# Stress axis : x y z
#
# Youngs Moduli (GPa) = 76.18844 17.01078 69.87762
#
# Poissons Ratio (x) = 0.17429 0.47053
# Poissons Ratio (y) = 0.78062 0.01580
# Poissons Ratio (z) = 0.51302 0.00385
#
# Static dielectric constant tensor:
#      x y z
#    x 3.689630 0.000000 0.292000 
#    y 0.000000 3.285890 0.000000 
#    z 0.292000 0.000000 3.407640 
# 
# 
# High freq. dielectric constant tensor:
#      x y z
#    x 1.707590 0.000000 0.028190 
#    y 0.000000 1.703250 0.000000 
#    z 0.028190 0.000000 1.701380 
# 
# From -- ./inp_files/31334.got.cif
#   From: 2010.03.12/outbox.cif.g09.slc.cpg/sg8_16_cif.got.tgz:31334.got - 2010.03.31 10:45:26.
