data_PCOD8052036
_publ_section_title
;
Structure prediction by ZEFSAII (Michael W. Deem and Ramdas Pophale) SiO2 
 PCOD8052036
Probable space group: C 2
;
_chemical_formula_sum "Si O2"
_cell_formula_units_Z 14
_cell_length_a 11.927325
_cell_length_b 7.412471
_cell_length_c 14.976269
_cell_angle_alpha 90.000000
_cell_angle_beta 153.711027
_cell_angle_gamma 90.000000
_cell_volume 586.427120
_symmetry_space_group_name_H-M "C 2"
_symmetry_group_IT_number 5
_symmetry_cell_setting 'monoclinic'
loop_
_space_group_symop_operation_xyz
x,y,z
-x,y,-z
1/2+x,1/2+y,z
1/2-x,1/2+y,-z
loop_
_atom_site_type_symbol
_atom_site_label
_atom_site_fract_x
_atom_site_fract_y
_atom_site_fract_z
Si Si1 0.880729 0.190040 0.236799
Si Si2 0.000000 0.790530 0.500000
Si Si3 0.378910 0.101218 0.777747
Si Si4 0.588454 0.078760 0.389603
O O1 0.825068 0.197456 0.303586
O O2 0.111173 0.054710 0.377482
O O3 0.945662 0.395759 0.259860
O O4 0.649209 0.102942 0.018618
O O5 0.956550 0.672180 0.379635
O O6 0.261924 0.901099 0.677344
O O7 0.414765 0.195902 0.705992
#
# Coordination Sequence:
#
# PCOD8052036 Si02
#       4
#     4   2   4   4
#     4  11  25  47  78 104 146 184 246 287 367 408
#     4  12  26  48  76 104 148 186 244 284 368 412
#     4  11  25  50  70 108 145 189 233 306 341 436
#     4  12  25  49  74 108 142 193 233 303 344 436
#
# _framework density 23.873383
#
# number of rings (size 3 to 8) (size 9 to 14) (size 15 to 20)
#    0.000    0.571    5.714    0.000    4.000    6.857 
#    5.143    0.000    0.000    0.000    0.000    0.000 
#    0.000    0.000    0.000    0.000    0.000    0.000 
#
# Total GULP energy -86716.982486 kJ/mol
# GULP energy per Si atom -12388.140355 kJ/mol
# Density = 2.381905 g / cm^3
# Si number density = 23.873383 Si / 1000 Ang^3
#
#
#
# Elastic Constant Matrix: (Units=GPa)
#
#
# Indices 1 2 3 4 5 6 
#
# 1 181.8697 33.8380 32.3849 0.0001 -28.1595 -0.0001
# 2 33.8380 81.4463 56.8696 -0.0021 -0.7890 -0.0002
# 3 32.3849 56.8696 96.0328 -0.0032 -0.3359 -0.0002
# 4 0.0001 -0.0021 -0.0032 26.6534 -0.0002 -1.0924
# 5 -28.1595 -0.7890 -0.3359 -0.0002 36.6130 0.0000
# 6 -0.0001 -0.0002 -0.0002 -1.0924 0.0000 34.4376
#
#
#
# Elastic Compliance Matrix: (Units=1/GPa)
#
#
# Indices 1 2 3 4 5 6 
#
# 1 0.006885 -0.002048 -0.001091 0.000000 0.005241 0.000000
# 2 -0.002048 0.021548 -0.012074 0.000000 -0.001222 0.000000
# 3 -0.001091 -0.012074 0.017928 0.000001 -0.000934 0.000000
# 4 0.000000 0.000000 0.000001 0.037567 0.000000 0.001192
# 5 0.005241 -0.001222 -0.000934 0.000000 0.031309 0.000000
# 6 0.000000 0.000000 0.000000 0.001192 0.000000 0.029076
#
#
# Mechanical properties :
#
#
# Convention : Reuss Voigt Hill
#
# Bulk Modulus (GPa) = 62.75446 67.28153 65.01799
# Shear Modulus (GPa) = 27.77004 35.29123 31.53064
#
# Velocity S-wave (km/s) = 3.41430 3.84899 3.63815
# Velocity P-wave (km/s) = 6.47200 6.92798 6.70386
#
# Compressibility (1/GPa) = 0.01593512
#
# Stress axis : x y z
#
# Youngs Moduli (GPa) = 145.23721 46.40866 55.77994
#
# Poissons Ratio (x) = 0.09506 0.06083
# Poissons Ratio (y) = 0.29749 0.67348
# Poissons Ratio (z) = 0.15839 0.56033
#
# Static dielectric constant tensor:
#      x y z
#    x 4.895920 0.000000 -0.093220 
#    y 0.000000 3.875420 0.000000 
#    z -0.093220 0.000000 4.256940 
# 
# 
# High freq. dielectric constant tensor:
#      x y z
#    x 1.988260 0.000000 -0.004770 
#    y 0.000000 1.907760 0.000000 
#    z -0.004770 0.000000 1.945210 
# 
# From -- ./inp_files/37840.got.cif
#   From: 2010.03.12/outbox.cif.g09.slc.cpg/sg5_19_cif.got.tgz:37840.got - 2010.03.31 09:47:26.
