data_PCOD8052836
_publ_section_title
;
Structure prediction by ZEFSAII (Michael W. Deem and Ramdas Pophale) SiO2 
 PCOD8052836
Probable space group: C M
;
_chemical_formula_sum "Si O2"
_cell_formula_units_Z 32
_cell_length_a 11.353984
_cell_length_b 23.777924
_cell_length_c 11.230023
_cell_angle_alpha 90.000000
_cell_angle_beta 145.331198
_cell_angle_gamma 90.000000
_cell_volume 1724.593348
_symmetry_space_group_name_H-M "C M"
_symmetry_group_IT_number 8
_symmetry_cell_setting 'monoclinic'
loop_
_space_group_symop_operation_xyz
x,y,z
x,-y,z
1/2+x,1/2+y,z
1/2+x,1/2-y,z
loop_
_atom_site_type_symbol
_atom_site_label
_atom_site_fract_x
_atom_site_fract_y
_atom_site_fract_z
Si Si1 0.858420 0.186865 0.167380
Si Si2 0.269771 0.775573 0.401544
Si Si3 0.840213 0.147135 0.404834
Si Si4 0.101273 0.206972 0.015663
Si Si5 0.693056 0.834029 0.784297
Si Si6 0.012650 0.562629 0.220845
Si Si7 0.684880 0.063852 0.611036
Si Si8 0.589895 0.390937 0.827524
O O1 0.889894 0.145512 0.305612
O O2 0.672458 0.231338 0.033790
O O3 0.082015 0.215846 0.337344
O O4 0.795033 0.152246 0.997060
O O5 0.281450 0.709235 0.396215
O O6 0.225712 0.807336 0.240135
O O7 0.484986 0.798554 0.631399
O O8 0.645280 0.107266 0.259432
O O9 0.031554 0.125972 0.644049
O O10 0.159296 0.163900 0.959666
O O11 0.853647 0.202789 0.837102
O O12 0.638758 0.893818 0.680347
O O13 0.098000 0.500000 0.265775
O O14 0.017604 0.573847 0.367327
O O15 0.780272 0.566667 0.979927
O O16 0.908343 0.075850 0.741396
O O17 0.675889 0.000000 0.652415
#
# Coordination Sequence:
#
# PCOD8052836 Si02
#       8
#     4   4   4   4   4   4   4   4
#     4  10  21  35  51  76 110 144 176 210 257 316
#     4  10  20  34  53  78 107 141 176 216 260 311
#     4  10  22  34  51  78 108 138 173 214 257 310
#     4   9  19  33  51  78 108 134 173 218 263 313
#     4  10  20  34  55  79 107 141 176 216 262 311
#     4  10  20  35  55  77 102 133 172 220 267 310
#     4   9  19  35  55  80 105 131 172 222 266 309
#     4  10  18  32  55  80 103 134 171 214 266 314
#
# _framework density 18.555098999999998
#
# number of rings (size 3 to 8) (size 9 to 14) (size 15 to 20)
#    0.000    2.250    0.000    2.625    0.000   10.500 
#    0.000    0.625    0.000    0.750    0.000    0.000 
#    0.000    0.000    0.000    0.000    0.000    0.000 
#
# Total GULP energy -198375.594524 kJ/mol
# GULP energy per Si atom -12398.474658 kJ/mol
# Density = 1.851287 g / cm^3
# Si number density = 18.555099 Si / 1000 Ang^3
#
#
#
# Elastic Constant Matrix: (Units=GPa)
#
#
# Indices 1 2 3 4 5 6 
#
# 1 87.0983 47.0644 42.7842 0.0000 -10.9829 0.0000
# 2 47.0644 90.9723 41.0726 0.0000 -1.0812 0.0000
# 3 42.7842 41.0726 108.8389 0.0000 1.7404 0.0000
# 4 0.0000 0.0000 0.0000 23.5063 0.0000 -1.1668
# 5 -10.9829 -1.0812 1.7404 0.0000 27.6265 0.0000
# 6 0.0000 0.0000 0.0000 -1.1668 0.0000 25.4361
#
#
#
# Elastic Compliance Matrix: (Units=1/GPa)
#
#
# Indices 1 2 3 4 5 6 
#
# 1 0.018776 -0.007520 -0.004662 0.000000 0.007464 0.000000
# 2 -0.007520 0.016281 -0.003153 0.000000 -0.002154 0.000000
# 3 -0.004662 -0.003153 0.012255 0.000000 -0.002749 0.000000
# 4 0.000000 0.000000 0.000000 0.042639 0.000000 0.001956
# 5 0.007464 -0.002154 -0.002749 0.000000 0.039253 0.000000
# 6 0.000000 0.000000 0.000000 0.001956 0.000000 0.039404
#
#
# Mechanical properties :
#
#
# Convention : Reuss Voigt Hill
#
# Bulk Modulus (GPa) = 60.09591 60.97244 60.53417
# Shear Modulus (GPa) = 24.41090 25.71301 25.06195
#
# Velocity S-wave (km/s) = 3.63104 3.72662 3.67914
# Velocity P-wave (km/s) = 7.07371 7.17276 7.12341
#
# Compressibility (1/GPa) = 0.01664007
#
# Stress axis : x y z
#
# Youngs Moduli (GPa) = 53.25865 61.42117 81.60203
#
# Poissons Ratio (x) = 0.46190 0.38046
# Poissons Ratio (y) = 0.40052 0.25732
# Poissons Ratio (z) = 0.24831 0.19368
#
# Static dielectric constant tensor:
#      x y z
#    x 3.361280 0.000000 -0.141110 
#    y 0.000000 3.267450 0.000000 
#    z -0.141110 0.000000 3.607540 
# 
# 
# High freq. dielectric constant tensor:
#      x y z
#    x 1.703920 0.000000 -0.004310 
#    y 0.000000 1.703020 0.000000 
#    z -0.004310 0.000000 1.734960 
# 
# From -- ./inp_files/3122.got.cif
#   From: 2010.03.12/outbox.cif.g09.slc.cpg/sg8_2_cif.got.tgz:3122.got - 2010.03.31 10:45:26.
