data_PCOD8052829
_publ_section_title
;
Structure prediction by ZEFSAII (Michael W. Deem and Ramdas Pophale) SiO2 
 PCOD8052829
Probable space group: C M
;
_chemical_formula_sum "Si O2"
_cell_formula_units_Z 24
_cell_length_a 12.047930
_cell_length_b 13.217951
_cell_length_c 7.471892
_cell_angle_alpha 90.000000
_cell_angle_beta 77.181108
_cell_angle_gamma 90.000000
_cell_volume 1160.234400
_symmetry_space_group_name_H-M "C M"
_symmetry_group_IT_number 8
_symmetry_cell_setting 'monoclinic'
loop_
_space_group_symop_operation_xyz
x,y,z
x,-y,z
1/2+x,1/2+y,z
1/2+x,1/2-y,z
loop_
_atom_site_type_symbol
_atom_site_label
_atom_site_fract_x
_atom_site_fract_y
_atom_site_fract_z
Si Si1 0.589000 0.115989 0.510510
Si Si2 0.255849 0.112144 0.020788
Si Si3 0.840912 0.114962 0.566924
Si Si4 0.434767 0.238917 0.821144
Si Si5 0.616799 0.613541 0.735062
Si Si6 0.072057 0.183863 0.358739
O O1 0.720236 0.130263 0.517472
O O2 0.502679 0.147741 0.699450
O O3 0.566559 0.193114 0.352722
O O4 0.563952 0.000000 0.462798
O O5 0.360669 0.189603 0.008162
O O6 0.229781 0.115341 0.815971
O O7 0.293277 0.000000 0.065809
O O8 0.145889 0.142045 0.171615
O O9 0.852160 0.196545 0.720935
O O10 0.946008 0.135548 0.391785
O O11 0.850206 0.000000 0.636246
O O12 0.524077 0.317874 0.873262
O O13 0.569673 0.500000 0.736144
O O14 0.632524 0.656903 0.528749
#
# Coordination Sequence:
#
# PCOD8052829 Si02
#       6
#     4   4   4   4   4   4
#     4   9  18  33  54  78 105 139 175 213 261 311
#     4  11  22  35  54  80 108 138 173 215 263 312
#     4   9  17  33  57  79 102 138 179 216 255 303
#     4  10  18  32  53  79 110 138 169 214 263 311
#     4   9  19  36  56  77 103 139 180 215 252 305
#     4  10  20  35  56  79 106 136 176 219 258 304
#
# _framework density 20.685473999999999
#
# number of rings (size 3 to 8) (size 9 to 14) (size 15 to 20)
#    0.000    2.667    0.000    5.500    0.000    1.333 
#    0.000    3.333    0.000   16.000    0.000    0.000 
#    0.000    0.000    0.000    0.000    0.000    0.000 
#
# Total GULP energy -148665.028466 kJ/mol
# GULP energy per Si atom -12388.752372 kJ/mol
# Density = 2.063839 g / cm^3
# Si number density = 20.685474 Si / 1000 Ang^3
#
#
#
# Elastic Constant Matrix: (Units=GPa)
#
#
# Indices 1 2 3 4 5 6 
#
# 1 54.3655 30.2732 21.4595 0.0000 -17.9363 0.0000
# 2 30.2732 177.6358 28.5286 0.0000 -20.4384 0.0000
# 3 21.4595 28.5286 60.2202 0.0000 -23.9968 0.0000
# 4 0.0000 0.0000 0.0000 17.7942 0.0000 -4.9031
# 5 -17.9363 -20.4384 -23.9968 0.0000 32.1798 0.0000
# 6 0.0000 0.0000 0.0000 -4.9031 0.0000 31.2637
#
#
#
# Elastic Compliance Matrix: (Units=1/GPa)
#
#
# Indices 1 2 3 4 5 6 
#
# 1 0.024296 -0.002474 -0.003864 0.000000 0.009089 0.000000
# 2 -0.002474 0.006483 -0.001563 0.000000 0.001573 0.000000
# 3 -0.003864 -0.001563 0.024855 0.000000 0.015389 0.000000
# 4 0.000000 0.000000 0.000000 0.058736 0.000000 0.009212
# 5 0.009089 0.001573 0.015389 0.000000 0.048616 0.000000
# 6 0.000000 0.000000 0.000000 0.009212 0.000000 0.033431
#
#
# Mechanical properties :
#
#
# Convention : Reuss Voigt Hill
#
# Bulk Modulus (GPa) = 25.10522 50.30490 37.70506
# Shear Modulus (GPa) = 22.17338 30.37821 26.27580
#
# Velocity S-wave (km/s) = 3.27759 3.83636 3.56793
# Velocity P-wave (km/s) = 5.14650 6.63289 5.93640
#
# Compressibility (1/GPa) = 0.03983236
#
# Stress axis : x y z
#
# Youngs Moduli (GPa) = 41.15976 154.24601 40.23335
#
# Poissons Ratio (x) = 0.38164 0.15545
# Poissons Ratio (y) = 0.10184 0.06287
# Poissons Ratio (z) = 0.15903 0.24104
#
# Static dielectric constant tensor:
#      x y z
#    x 3.668140 0.000000 -0.165750 
#    y 0.000000 4.176500 0.000000 
#    z -0.165750 0.000000 3.262890 
# 
# 
# High freq. dielectric constant tensor:
#      x y z
#    x 1.805360 0.000000 -0.019550 
#    y 0.000000 1.837510 0.000000 
#    z -0.019550 0.000000 1.760860 
# 
# From -- ./inp_files/12405.got.cif
#   From: 2010.03.12/outbox.cif.g09.slc.cpg/sg8_7_cif.got.tgz:12405.got - 2010.03.31 10:45:26.
