data_PCOD8052118
_publ_section_title
;
Structure prediction by ZEFSAII (Michael W. Deem and Ramdas Pophale) SiO2 
 PCOD8052118
Probable space group: C 2
;
_chemical_formula_sum "Si O2"
_cell_formula_units_Z 20
_cell_length_a 8.723563
_cell_length_b 4.989197
_cell_length_c 20.770242
_cell_angle_alpha 90.000000
_cell_angle_beta 96.900106
_cell_angle_gamma 90.000000
_cell_volume 897.447643
_symmetry_space_group_name_H-M "C 2"
_symmetry_group_IT_number 5
_symmetry_cell_setting 'monoclinic'
loop_
_space_group_symop_operation_xyz
x,y,z
-x,y,-z
1/2+x,1/2+y,z
1/2-x,1/2+y,-z
loop_
_atom_site_type_symbol
_atom_site_label
_atom_site_fract_x
_atom_site_fract_y
_atom_site_fract_z
Si Si1 0.352278 0.073870 0.626175
Si Si2 0.924713 0.614779 0.775946
Si Si3 0.341325 0.618715 0.024922
Si Si4 0.392444 0.615649 0.174131
Si Si5 0.997007 0.072566 0.424517
O O1 0.404091 0.026116 0.701613
O O2 0.171547 0.015931 0.611931
O O3 0.383685 0.375634 0.604850
O O4 0.449196 0.874684 0.585951
O O5 0.764877 0.707291 0.799694
O O6 0.990176 0.363610 0.818787
O O7 0.041247 0.862991 0.784093
O O8 0.365280 0.529413 0.099439
O O9 0.500000 0.709686 0.000000
O O10 0.275028 0.367824 0.982294
O O11 0.000000 0.015323 0.500000
#
# Coordination Sequence:
#
# PCOD8052118 Si02
#       5
#     4   4   4   4   4
#     4  12  24  42  66  94 128 169 213 264 319 379
#     4  12  24  42  64  94 129 169 214 264 318 379
#     4  12  24  43  67  96 130 170 214 264 318 378
#     4  12  25  43  66  96 130 170 214 264 318 378
#     4  12  25  44  67  96 129 168 213 264 319 380
#
# _framework density 22.285423000000002
#
# number of rings (size 3 to 8) (size 9 to 14) (size 15 to 20)
#    0.000    0.000    0.000   12.000    0.000    0.000 
#    0.000    0.000    0.000    0.000    0.000    0.000 
#    0.000    0.000    0.000    0.000    0.000    0.000 
#
# Total GULP energy -124137.706349 kJ/mol
# GULP energy per Si atom -12413.770635 kJ/mol
# Density = 2.223470 g / cm^3
# Si number density = 22.285423 Si / 1000 Ang^3
#
#
#
# Elastic Constant Matrix: (Units=GPa)
#
#
# Indices 1 2 3 4 5 6 
#
# 1 83.2049 29.4239 22.8479 0.0000 1.9615 0.0000
# 2 29.4239 96.9030 25.0050 0.0000 13.0977 0.0000
# 3 22.8479 25.0050 72.9527 0.0000 -2.8149 0.0000
# 4 0.0000 0.0000 0.0000 34.2300 0.0000 -3.3784
# 5 1.9615 13.0977 -2.8149 0.0000 34.7472 0.0000
# 6 0.0000 0.0000 0.0000 -3.3784 0.0000 49.2973
#
#
#
# Elastic Compliance Matrix: (Units=1/GPa)
#
#
# Indices 1 2 3 4 5 6 
#
# 1 0.014132 -0.003496 -0.003218 0.000000 0.000259 0.000000
# 2 -0.003496 0.012968 -0.003542 0.000000 -0.004978 0.000000
# 3 -0.003218 -0.003542 0.016038 0.000000 0.002816 0.000000
# 4 0.000000 0.000000 0.000000 0.029413 0.000000 0.002016
# 5 0.000259 -0.004978 0.002816 0.000000 0.030869 0.000000
# 6 0.000000 0.000000 0.000000 0.002016 0.000000 0.020423
#
#
# Mechanical properties :
#
#
# Convention : Reuss Voigt Hill
#
# Bulk Modulus (GPa) = 44.19556 45.29049 44.74303
# Shear Modulus (GPa) = 32.91697 35.37380 34.14539
#
# Velocity S-wave (km/s) = 3.84743 3.98842 3.91856
# Velocity P-wave (km/s) = 6.29377 6.44803 6.37137
#
# Compressibility (1/GPa) = 0.02262671
#
# Stress axis : x y z
#
# Youngs Moduli (GPa) = 70.76002 77.11353 62.35188
#
# Poissons Ratio (x) = 0.26958 0.20064
# Poissons Ratio (y) = 0.24737 0.22085
# Poissons Ratio (z) = 0.22769 0.27314
#
# Static dielectric constant tensor:
#      x y z
#    x 4.107730 0.000000 0.122230 
#    y 0.000000 3.981120 0.000000 
#    z 0.122230 0.000000 4.039010 
# 
# 
# High freq. dielectric constant tensor:
#      x y z
#    x 1.891970 0.000000 0.005380 
#    y 0.000000 1.886780 0.000000 
#    z 0.005380 0.000000 1.892280 
# 
# From -- ./inp_files/59136.got.cif
#   From: 2010.03.12/outbox.cif.g09.slc.cpg/sg5_30_cif.got.tgz:59136.got - 2010.03.31 09:47:26.
