data_PCOD8052450
_publ_section_title
;
Structure prediction by ZEFSAII (Michael W. Deem and Ramdas Pophale) SiO2 
 PCOD8052450
Probable space group: P M
;
_chemical_formula_sum "Si O2"
_cell_formula_units_Z 16
_cell_length_a 11.138762
_cell_length_b 8.947318
_cell_length_c 9.227158
_cell_angle_alpha 90.000000
_cell_angle_beta 115.022232
_cell_angle_gamma 90.000000
_cell_volume 833.287460
_symmetry_space_group_name_H-M "P M"
_symmetry_group_IT_number 6
_symmetry_cell_setting 'monoclinic'
loop_
_space_group_symop_operation_xyz
x,y,z
x,-y,z
loop_
_atom_site_type_symbol
_atom_site_label
_atom_site_fract_x
_atom_site_fract_y
_atom_site_fract_z
Si Si1 0.248070 0.172176 0.928150
Si Si2 0.754778 0.822679 0.999092
Si Si3 0.989827 0.326079 0.292047
Si Si4 0.998136 0.172860 0.601114
Si Si5 0.756366 0.823629 0.672799
Si Si6 0.521614 0.325865 0.047469
Si Si7 0.530028 0.671292 0.385229
Si Si8 0.230191 0.672784 0.210283
O O1 0.136876 0.194380 0.751236
O O2 0.290154 0.000000 0.964834
O O3 0.373278 0.269457 0.943685
O O4 0.190140 0.227593 0.052075
O O5 0.768776 0.761885 0.842383
O O6 0.754712 0.000000 0.006198
O O7 0.876133 0.763224 0.153525
O O8 0.617278 0.764156 0.991674
O O9 0.953494 0.500000 0.268579
O O10 0.999836 0.274081 0.461090
O O11 0.130125 0.292054 0.288715
O O12 0.880962 0.234502 0.643874
O O13 0.974220 0.000000 0.547116
O O14 0.619377 0.772362 0.532621
O O15 0.756464 0.000000 0.677004
O O16 0.528096 0.500000 0.012580
O O17 0.563929 0.296167 0.234899
O O18 0.558675 0.500000 0.438474
O O19 0.377586 0.713748 0.339560
O O20 0.226036 0.500000 0.159174
#
# Coordination Sequence:
#
# PCOD8052450 Si02
#       8
#     2   2   2   2   2   2   2   2
#     4  10  20  36  60  87 113 147 190 232 279 333
#     4  11  23  39  58  82 113 147 187 235 284 335
#     4  11  23  38  58  84 112 147 191 235 283 336
#     4  10  22  39  57  80 113 149 186 232 284 337
#     4  10  22  38  56  80 110 145 185 230 279 332
#     4  10  21  38  59  85 116 149 186 228 279 337
#     4   9  19  36  57  81 110 144 182 225 273 330
#     4   9  20  38  57  81 115 150 185 229 281 336
#
# _framework density 19.201056999999999
#
# number of rings (size 3 to 8) (size 9 to 14) (size 15 to 20)
#    0.000    2.000    0.000    3.750    0.000   10.000 
#    0.000    2.500    0.000    0.000    0.000    0.000 
#    0.000    0.000    0.000    0.000    0.000    0.000 
#
# Total GULP energy -198470.840785 kJ/mol
# GULP energy per Si atom -12404.427549 kJ/mol
# Density = 1.915735 g / cm^3
# Si number density = 19.201057 Si / 1000 Ang^3
#
#
#
# Elastic Constant Matrix: (Units=GPa)
#
#
# Indices 1 2 3 4 5 6 
#
# 1 129.4361 45.9863 60.1689 0.0000 -18.1122 0.0000
# 2 45.9863 65.6533 45.3059 0.0000 -6.5248 0.0000
# 3 60.1689 45.3059 112.7683 0.0000 -7.4922 0.0000
# 4 0.0000 0.0000 0.0000 4.2435 0.0000 0.1168
# 5 -18.1122 -6.5248 -7.4922 0.0000 29.5161 0.0000
# 6 0.0000 0.0000 0.0000 0.1168 0.0000 34.3523
#
#
#
# Elastic Compliance Matrix: (Units=1/GPa)
#
#
# Indices 1 2 3 4 5 6 
#
# 1 0.012214 -0.005221 -0.004066 0.000000 0.005309 0.000000
# 2 -0.005221 0.023497 -0.006634 0.000000 0.000306 0.000000
# 3 -0.004066 -0.006634 0.013670 0.000000 -0.000492 0.000000
# 4 0.000000 0.000000 0.000000 0.235676 0.000000 -0.000801
# 5 0.005309 0.000306 -0.000492 0.000000 0.037080 0.000000
# 6 0.000000 0.000000 0.000000 -0.000801 0.000000 0.029113
#
#
# Mechanical properties :
#
#
# Convention : Reuss Voigt Hill
#
# Bulk Modulus (GPa) = 57.02052 67.86440 62.44246
# Shear Modulus (GPa) = 12.85544 24.04882 18.45213
#
# Velocity S-wave (km/s) = 2.59031 3.54287 3.10336
# Velocity P-wave (km/s) = 6.22152 7.22196 6.74033
#
# Compressibility (1/GPa) = 0.01753755
#
# Stress axis : x y z
#
# Youngs Moduli (GPa) = 81.87280 42.55822 73.15272
#
# Poissons Ratio (x) = 0.22222 0.29747
# Poissons Ratio (y) = 0.42750 0.48529
# Poissons Ratio (z) = 0.33293 0.28233
#
# Static dielectric constant tensor:
#      x y z
#    x 3.752910 0.000000 -0.087260 
#    y 0.000000 3.529210 0.000000 
#    z -0.087260 0.000000 3.477380 
# 
# 
# High freq. dielectric constant tensor:
#      x y z
#    x 1.760680 0.000000 0.001970 
#    y 0.000000 1.749660 0.000000 
#    z 0.001970 0.000000 1.747510 
# 
# From -- ./inp_files/3772.got.cif
#   From: 2010.03.12/outbox.cif.g09.slc.cpg/sg6_2_cif.got.tgz:3772.got - 2010.03.30 10:24:59.
