data_PCOD8052447
_publ_section_title
;
Structure prediction by ZEFSAII (Michael W. Deem and Ramdas Pophale) SiO2 
 PCOD8052447
Probable space group: P M
;
_chemical_formula_sum "Si O2"
_cell_formula_units_Z 16
_cell_length_a 16.511023
_cell_length_b 9.215972
_cell_length_c 5.255409
_cell_angle_alpha 90.000000
_cell_angle_beta 120.762194
_cell_angle_gamma 90.000000
_cell_volume 687.171653
_symmetry_space_group_name_H-M "P M"
_symmetry_group_IT_number 6
_symmetry_cell_setting 'monoclinic'
loop_
_space_group_symop_operation_xyz
x,y,z
x,-y,z
loop_
_atom_site_type_symbol
_atom_site_label
_atom_site_fract_x
_atom_site_fract_y
_atom_site_fract_z
Si Si1 0.872890 0.833664 0.926270
Si Si2 0.626691 0.844602 0.136643
Si Si3 0.529178 0.654815 0.384274
Si Si4 0.185086 0.675944 0.979876
Si Si5 0.991620 0.168480 0.623348
Si Si6 0.437656 0.153832 0.577883
Si Si7 0.265146 0.828648 0.613351
Si Si8 0.724556 0.343457 0.948521
O O1 0.926553 0.787951 0.757310
O O2 0.778347 0.737187 0.804497
O O3 0.841391 0.000000 0.865307
O O4 0.937022 0.803048 0.274514
O O5 0.549611 0.869694 0.792880
O O6 0.720300 0.757920 0.194251
O O7 0.664438 0.000000 0.296891
O O8 0.563043 0.766902 0.235932
O O9 0.501212 0.500000 0.215520
O O10 0.433866 0.714352 0.370094
O O11 0.615881 0.628063 0.713302
O O12 0.194966 0.500000 0.002484
O O13 0.245270 0.746218 0.845519
O O14 0.077728 0.720735 0.757390
O O15 0.213636 0.748734 0.294068
O O16 0.024334 0.000000 0.697175
O O17 0.377254 0.188458 0.734855
O O18 0.397968 0.000000 0.400684
O O19 0.234883 0.000000 0.581216
O O20 0.772616 0.500000 0.083724
#
# Coordination Sequence:
#
# PCOD8052447 Si02
#       8
#     2   2   2   2   2   2   2   2
#     4  10  22  39  63  94 123 160 212 262 308 372
#     4  10  20  36  59  84 116 158 208 260 304 362
#     4  10  21  36  56  84 121 162 200 251 316 372
#     4  12  26  44  68 102 136 169 214 271 335 394
#     4  10  22  42  66  92 125 166 210 257 319 388
#     4   9  21  39  59  86 116 159 214 259 306 368
#     4  11  24  44  70  97 132 177 222 269 324 394
#     4  10  22  38  55  83 121 161 204 251 312 372
#
# _framework density 23.283847000000002
#
# number of rings (size 3 to 8) (size 9 to 14) (size 15 to 20)
#    0.000    1.750    0.000    3.375    3.500    5.000 
#    0.000    0.000    0.000    0.000    0.000    0.000 
#    0.000    0.000    0.000    0.000    0.000    0.000 
#
# Total GULP energy -198210.971353 kJ/mol
# GULP energy per Si atom -12388.185710 kJ/mol
# Density = 2.323085 g / cm^3
# Si number density = 23.283847 Si / 1000 Ang^3
#
#
#
# Elastic Constant Matrix: (Units=GPa)
#
#
# Indices 1 2 3 4 5 6 
#
# 1 117.5460 58.3651 3.6563 0.0000 -16.5678 0.0000
# 2 58.3651 185.2231 9.2071 0.0000 -22.5969 0.0000
# 3 3.6563 9.2071 48.1323 0.0000 -15.3127 0.0000
# 4 0.0000 0.0000 0.0000 21.8712 0.0000 -3.1539
# 5 -16.5678 -22.5969 -15.3127 0.0000 32.8476 0.0000
# 6 0.0000 0.0000 0.0000 -3.1539 0.0000 53.8090
#
#
#
# Elastic Compliance Matrix: (Units=1/GPa)
#
#
# Indices 1 2 3 4 5 6 
#
# 1 0.010432 -0.002880 0.000942 0.000000 0.003720 0.000000
# 2 -0.002880 0.006690 -0.000069 0.000000 0.003117 0.000000
# 3 0.000942 -0.000069 0.024485 0.000000 0.011842 0.000000
# 4 0.000000 0.000000 0.000000 0.046112 0.000000 0.002703
# 5 0.003720 0.003117 0.011842 0.000000 0.039985 0.000000
# 6 0.000000 0.000000 0.000000 0.002703 0.000000 0.018743
#
#
# Mechanical properties :
#
#
# Convention : Reuss Voigt Hill
#
# Bulk Modulus (GPa) = 26.60122 54.81760 40.70941
# Shear Modulus (GPa) = 30.67608 40.35041 35.51325
#
# Velocity S-wave (km/s) = 3.63365 4.16742 3.90966
# Velocity P-wave (km/s) = 5.39019 6.83746 6.15650
#
# Compressibility (1/GPa) = 0.03759225
#
# Stress axis : x y z
#
# Youngs Moduli (GPa) = 95.85456 149.47061 40.84119
#
# Poissons Ratio (x) = 0.43053 -0.03846
# Poissons Ratio (y) = 0.27610 0.00283
# Poissons Ratio (z) = -0.09028 0.01034
#
# Static dielectric constant tensor:
#      x y z
#    x 4.240580 0.000000 0.008060 
#    y 0.000000 5.007180 0.000000 
#    z 0.008060 0.000000 4.193560 
# 
# 
# High freq. dielectric constant tensor:
#      x y z
#    x 1.925070 0.000000 -0.012060 
#    y 0.000000 1.932850 0.000000 
#    z -0.012060 0.000000 1.904330 
# 
# From -- ./inp_files/1886.got.cif
#   From: 2010.03.12/outbox.cif.g09.slc.cpg/sg6_1_cif.got.tgz:1886.got - 2010.03.30 10:24:59.
