data_PCOD8052805
_publ_section_title
;
Structure prediction by ZEFSAII (Michael W. Deem and Ramdas Pophale) SiO2 
 PCOD8052805
Probable space group: C M
;
_chemical_formula_sum "Si O2"
_cell_formula_units_Z 28
_cell_length_a 13.747735
_cell_length_b 13.246300
_cell_length_c 13.388790
_cell_angle_alpha 90.000000
_cell_angle_beta 44.106108
_cell_angle_gamma 90.000000
_cell_volume 1696.952405
_symmetry_space_group_name_H-M "C M"
_symmetry_group_IT_number 8
_symmetry_cell_setting 'monoclinic'
loop_
_space_group_symop_operation_xyz
x,y,z
x,-y,z
1/2+x,1/2+y,z
1/2+x,1/2-y,z
loop_
_atom_site_type_symbol
_atom_site_label
_atom_site_fract_x
_atom_site_fract_y
_atom_site_fract_z
Si Si1 0.741470 0.616238 0.511540
Si Si2 0.293254 0.228138 0.823093
Si Si3 0.280329 0.382794 0.001721
Si Si4 0.576781 0.774398 0.521240
Si Si5 0.021276 0.614582 0.748072
Si Si6 0.078996 0.194240 0.819361
Si Si7 0.053798 0.617441 0.334606
O O1 0.735429 0.500000 0.483594
O O2 0.680029 0.680441 0.464569
O O3 0.650917 0.631697 0.677893
O O4 0.899478 0.650762 0.415714
O O5 0.414996 0.261841 0.654841
O O6 0.357220 0.140397 0.847725
O O7 0.161503 0.181850 0.862078
O O8 0.250066 0.323884 0.921377
O O9 0.284499 0.500000 0.971458
O O10 0.156681 0.357368 0.168771
O O11 0.424522 0.349528 0.947629
O O12 0.607412 0.861081 0.582515
O O13 0.603730 0.817294 0.392032
O O14 0.041262 0.500000 0.767302
O O15 0.076756 0.686600 0.795250
O O16 0.056725 0.500000 0.362837
#
# Coordination Sequence:
#
# PCOD8052805 Si02
#       7
#     4   4   4   4   4   4   4
#     4  10  18  32  54  77  99 132 174 209 248 302
#     4   9  19  31  50  75 100 131 170 206 252 290
#     4  10  21  35  50  77 109 131 167 215 255 297
#     4   9  18  30  53  76  99 126 173 211 245 291
#     4   8  16  29  46  72  99 123 163 207 245 293
#     4  10  18  31  51  75 101 132 168 209 251 295
#     4  10  20  34  54  76 103 137 167 209 258 300
#
# _framework density 16.500169
#
# number of rings (size 3 to 8) (size 9 to 14) (size 15 to 20)
#    0.857    1.714    2.857    0.857    0.000    2.857 
#    0.000    0.000    0.000    3.429    0.000    0.000 
#    0.000    0.000    0.000    0.000    0.000    0.000 
#
# Total GULP energy -173520.320061 kJ/mol
# GULP energy per Si atom -12394.308576 kJ/mol
# Density = 1.646261 g / cm^3
# Si number density = 16.500169 Si / 1000 Ang^3
#
#
#
# Elastic Constant Matrix: (Units=GPa)
#
#
# Indices 1 2 3 4 5 6 
#
# 1 67.4052 10.9156 15.1781 0.0000 -7.0039 0.0000
# 2 10.9156 74.8926 25.5433 0.0000 4.0364 0.0000
# 3 15.1781 25.5433 62.8772 0.0000 -4.8951 0.0000
# 4 0.0000 0.0000 0.0000 19.6240 0.0000 0.3955
# 5 -7.0039 4.0364 -4.8951 0.0000 24.6669 0.0000
# 6 0.0000 0.0000 0.0000 0.3955 0.0000 21.9011
#
#
#
# Elastic Compliance Matrix: (Units=1/GPa)
#
#
# Indices 1 2 3 4 5 6 
#
# 1 0.016198 -0.001592 -0.002930 0.000000 0.004278 0.000000
# 2 -0.001592 0.016024 -0.006465 0.000000 -0.004357 0.000000
# 3 -0.002930 -0.006465 0.019557 0.000000 0.004107 0.000000
# 4 0.000000 0.000000 0.000000 0.050976 0.000000 -0.000921
# 5 0.004278 -0.004357 0.004107 0.000000 0.043283 0.000000
# 6 0.000000 0.000000 0.000000 -0.000921 0.000000 0.045676
#
#
# Mechanical properties :
#
#
# Convention : Reuss Voigt Hill
#
# Bulk Modulus (GPa) = 33.55072 34.27209 33.91141
# Shear Modulus (GPa) = 22.35898 23.47427 22.91663
#
# Velocity S-wave (km/s) = 3.68513 3.77592 3.73080
# Velocity P-wave (km/s) = 6.20360 6.31078 6.25742
#
# Compressibility (1/GPa) = 0.02980562
#
# Stress axis : x y z
#
# Youngs Moduli (GPa) = 61.73666 62.40580 51.13194
#
# Poissons Ratio (x) = 0.09935 0.14983
# Poissons Ratio (y) = 0.09828 0.33055
# Poissons Ratio (z) = 0.18090 0.40343
#
# Static dielectric constant tensor:
#      x y z
#    x 2.984760 0.000000 -0.124850 
#    y 0.000000 2.947710 0.000000 
#    z -0.124850 0.000000 2.929460 
# 
# 
# High freq. dielectric constant tensor:
#      x y z
#    x 1.630890 0.000000 -0.008390 
#    y 0.000000 1.626620 0.000000 
#    z -0.008390 0.000000 1.615960 
# 
# From -- ./inp_files/26722.got.cif
#   From: 2010.03.12/outbox.cif.g09.slc.cpg/sg8_14_cif.got.tgz:26722.got - 2010.03.31 10:45:26.
