data_PCOD8052424
_publ_section_title
;
Structure prediction by ZEFSAII (Michael W. Deem and Ramdas Pophale) SiO2 
 PCOD8052424
Probable space group: P M
;
_chemical_formula_sum "Si O2"
_cell_formula_units_Z 16
_cell_length_a 14.458848
_cell_length_b 8.823946
_cell_length_c 19.529604
_cell_angle_alpha 90.000000
_cell_angle_beta 19.298326
_cell_angle_gamma 90.000000
_cell_volume 823.463042
_symmetry_space_group_name_H-M "P M"
_symmetry_group_IT_number 6
_symmetry_cell_setting 'monoclinic'
loop_
_space_group_symop_operation_xyz
x,y,z
x,-y,z
loop_
_atom_site_type_symbol
_atom_site_label
_atom_site_fract_x
_atom_site_fract_y
_atom_site_fract_z
Si Si1 0.637450 0.673902 0.170230
Si Si2 0.772440 0.826039 0.799560
Si Si3 0.239695 0.677812 0.706170
Si Si4 0.739498 0.322164 0.457553
Si Si5 0.687861 0.326143 0.646677
Si Si6 0.123287 0.669848 0.447945
Si Si7 0.315050 0.819630 0.022298
Si Si8 0.256692 0.819663 0.549922
O O1 0.662241 0.500000 0.176301
O O2 0.457045 0.689136 0.225350
O O3 0.496977 0.763093 0.330742
O O4 0.943458 0.740966 0.940740
O O5 0.981213 0.802840 0.590257
O O6 0.944332 0.757545 0.744602
O O7 0.722092 0.000000 0.849986
O O8 0.475617 0.757495 0.979750
O O9 0.221913 0.500000 0.703589
O O10 0.469030 0.718451 0.602355
O O11 0.326008 0.760450 0.576386
O O12 0.803139 0.500000 0.414469
O O13 0.685793 0.259421 0.571566
O O14 0.001373 0.239485 0.240542
O O15 0.588764 0.500000 0.715115
O O16 0.009686 0.311308 0.449799
O O17 0.469222 0.236369 0.846181
O O18 0.036952 0.500000 0.534725
O O19 0.318977 0.000000 0.018620
O O20 0.260073 0.000000 0.546353
#
# Coordination Sequence:
#
# PCOD8052424 Si02
#       8
#     2   2   2   2   2   2   2   2
#     4   9  18  34  55  78 105 138 175 217 265 314
#     4   8  16  31  50  76 109 139 167 203 257 321
#     4  10  22  38  54  75 105 142 183 222 260 307
#     4  10  22  38  54  75 105 142 183 222 260 307
#     4   9  18  34  55  78 105 138 175 217 265 314
#     4   8  14  27  50  78 103 129 169 217 261 309
#     4  10  20  35  56  81 109 140 173 214 264 315
#     4  10  20  35  56  81 109 140 173 214 264 315
#
# _framework density 19.430136000000001
#
# number of rings (size 3 to 8) (size 9 to 14) (size 15 to 20)
#    0.000    2.750    0.000    0.750    0.000    4.500 
#    0.000    3.750    0.000    4.500    0.000    0.000 
#    0.000    0.000    0.000    0.000    0.000    0.000 
#
# Total GULP energy -198209.254137 kJ/mol
# GULP energy per Si atom -12388.078384 kJ/mol
# Density = 1.938591 g / cm^3
# Si number density = 19.430136 Si / 1000 Ang^3
#
#
#
# Elastic Constant Matrix: (Units=GPa)
#
#
# Indices 1 2 3 4 5 6 
#
# 1 152.3231 36.2580 73.5429 0.0000 -5.9883 0.0000
# 2 36.2580 36.7858 35.1176 0.0000 -1.5221 0.0000
# 3 73.5429 35.1176 136.8643 0.0000 -13.5173 0.0000
# 4 0.0000 0.0000 0.0000 8.9195 0.0000 -3.9692
# 5 -5.9883 -1.5221 -13.5173 0.0000 27.3962 0.0000
# 6 0.0000 0.0000 0.0000 -3.9692 0.0000 12.1267
#
#
#
# Elastic Compliance Matrix: (Units=1/GPa)
#
#
# Indices 1 2 3 4 5 6 
#
# 1 0.009812 -0.006141 -0.003699 0.000000 -0.000021 0.000000
# 2 -0.006141 0.040036 -0.007239 0.000000 -0.002690 0.000000
# 3 -0.003699 -0.007239 0.011597 0.000000 0.004511 0.000000
# 4 0.000000 0.000000 0.000000 0.131228 0.000000 0.042953
# 5 -0.000021 -0.002690 0.004511 0.000000 0.038573 0.000000
# 6 0.000000 0.000000 0.000000 0.042953 0.000000 0.096522
#
#
# Mechanical properties :
#
#
# Convention : Reuss Voigt Hill
#
# Bulk Modulus (GPa) = 36.64561 68.42334 52.53447
# Shear Modulus (GPa) = 13.47638 21.75881 17.61759
#
# Velocity S-wave (km/s) = 2.63645 3.35004 3.01444
# Velocity P-wave (km/s) = 5.30744 7.08909 6.26196
#
# Compressibility (1/GPa) = 0.02728840
#
# Stress axis : x y z
#
# Youngs Moduli (GPa) = 101.92020 24.97739 86.23027
#
# Poissons Ratio (x) = 0.15338 0.31894
# Poissons Ratio (y) = 0.62587 0.62420
# Poissons Ratio (z) = 0.37697 0.18080
#
# Static dielectric constant tensor:
#      x y z
#    x 3.728230 0.000000 -0.332110 
#    y 0.000000 3.388860 0.000000 
#    z -0.332110 0.000000 3.461960 
# 
# 
# High freq. dielectric constant tensor:
#      x y z
#    x 1.759010 0.000000 -0.020640 
#    y 0.000000 1.742230 0.000000 
#    z -0.020640 0.000000 1.742530 
# 
# From -- ./inp_files/5667.got.cif
#   From: 2010.03.12/outbox.cif.g09.slc.cpg/sg6_3_cif.got.tgz:5667.got - 2010.03.30 10:24:59.
