data_PCOD8052902
_publ_section_title
;
Structure prediction by ZEFSAII (Michael W. Deem and Ramdas Pophale) SiO2 
 PCOD8052902
Probable space group: C M
;
_chemical_formula_sum "Si O2"
_cell_formula_units_Z 32
_cell_length_a 24.403528
_cell_length_b 8.977023
_cell_length_c 19.824113
_cell_angle_alpha 90.000000
_cell_angle_beta 24.155174
_cell_angle_gamma 90.000000
_cell_volume 1777.150529
_symmetry_space_group_name_H-M "C M"
_symmetry_group_IT_number 8
_symmetry_cell_setting 'monoclinic'
loop_
_space_group_symop_operation_xyz
x,y,z
x,-y,z
1/2+x,1/2+y,z
1/2+x,1/2-y,z
loop_
_atom_site_type_symbol
_atom_site_label
_atom_site_fract_x
_atom_site_fract_y
_atom_site_fract_z
Si Si1 0.417520 0.674989 0.449740
Si Si2 0.624768 0.827918 0.584647
Si Si3 0.642268 0.676933 0.798286
Si Si4 0.160185 0.176330 0.267776
Si Si5 0.200537 0.175042 0.371212
Si Si6 0.421646 0.671224 0.292117
Si Si7 0.453395 0.175829 0.902082
Si Si8 0.999467 0.675045 0.076261
O O1 0.387112 0.500000 0.494733
O O2 0.286739 0.768385 0.612882
O O3 0.535482 0.737131 0.365067
O O4 0.465430 0.704264 0.319388
O O5 0.605957 0.741825 0.535487
O O6 0.765181 0.787444 0.462004
O O7 0.508451 0.779539 0.766746
O O8 0.615106 0.000000 0.577782
O O9 0.639456 0.500000 0.803001
O O10 0.530579 0.736152 0.872953
O O11 0.612082 0.740637 0.906636
O O12 0.153630 0.238892 0.351556
O O13 0.154015 0.000000 0.276627
O O14 0.298861 0.225255 0.077123
O O15 0.354494 0.221223 0.209954
O O16 0.184739 0.000000 0.391854
O O17 0.446378 0.500000 0.244716
O O18 0.509042 0.772346 0.143322
O O19 0.473087 0.000000 0.894322
O O20 0.025696 0.500000 0.042526
#
# Coordination Sequence:
#
# PCOD8052902 Si02
#       8
#     4   4   4   4   4   4   4   4
#     4  10  20  37  58  79 109 149 181 217 270 325
#     4   9  17  29  50  77 106 139 174 218 264 311
#     4  12  23  34  53  82 111 141 182 230 269 314
#     4   9  18  34  58  81 104 141 185 218 260 324
#     4   9  17  31  52  78 107 138 174 217 262 316
#     4   9  17  31  51  78 109 141 178 220 267 319
#     4  10  18  35  57  80 107 139 182 224 265 320
#     4  10  19  33  55  79 107 142 178 224 273 317
#
# _framework density 18.006353000000001
#
# number of rings (size 3 to 8) (size 9 to 14) (size 15 to 20)
#    0.000    2.250    2.500    1.500    0.000    1.500 
#    0.000    2.500    0.000    1.500    0.000    0.000 
#    0.000    0.000    0.000    0.000    0.000    0.000 
#
# Total GULP energy -198407.500657 kJ/mol
# GULP energy per Si atom -12400.468791 kJ/mol
# Density = 1.796537 g / cm^3
# Si number density = 18.006353 Si / 1000 Ang^3
#
#
#
# Elastic Constant Matrix: (Units=GPa)
#
#
# Indices 1 2 3 4 5 6 
#
# 1 103.9975 28.3586 37.7221 -0.0003 15.7490 0.0002
# 2 28.3586 60.2812 35.7628 -0.0046 9.2238 0.0014
# 3 37.7221 35.7628 79.9865 -0.0026 17.7608 0.0013
# 4 -0.0003 -0.0046 -0.0026 19.5717 0.0006 12.4172
# 5 15.7490 9.2238 17.7608 0.0006 33.1424 -0.0001
# 6 0.0002 0.0014 0.0013 12.4172 -0.0001 22.4040
#
#
#
# Elastic Compliance Matrix: (Units=1/GPa)
#
#
# Indices 1 2 3 4 5 6 
#
# 1 0.012266 -0.003097 -0.003742 -0.000002 -0.002961 0.000001
# 2 -0.003097 0.023389 -0.008942 0.000008 -0.000245 -0.000005
# 3 -0.003742 -0.008942 0.019657 0.000002 -0.006267 -0.000001
# 4 -0.000002 0.000008 0.000002 0.078805 -0.000004 -0.043677
# 5 -0.002961 -0.000245 -0.006267 -0.000004 0.035007 0.000003
# 6 0.000001 -0.000005 -0.000001 -0.043677 0.000003 0.068842
#
#
# Mechanical properties :
#
#
# Convention : Reuss Voigt Hill
#
# Bulk Modulus (GPa) = 42.10888 49.77246 45.94067
# Shear Modulus (GPa) = 18.02166 24.51840 21.27003
#
# Velocity S-wave (km/s) = 3.16705 3.69406 3.44066
# Velocity P-wave (km/s) = 6.06712 6.77469 6.43064
#
# Compressibility (1/GPa) = 0.02374796
#
# Stress axis : x y z
#
# Youngs Moduli (GPa) = 81.52585 42.75599 50.87309
#
# Poissons Ratio (x) = 0.13242 0.19039
# Poissons Ratio (y) = 0.25249 0.45492
# Poissons Ratio (z) = 0.30511 0.38233
#
# Static dielectric constant tensor:
#      x y z
#    x 3.495020 0.000000 0.187470 
#    y 0.000000 3.150410 0.000000 
#    z 0.187470 0.000000 3.390080 
# 
# 
# High freq. dielectric constant tensor:
#      x y z
#    x 1.690660 0.000000 0.024630 
#    y 0.000000 1.678700 0.000000 
#    z 0.024630 0.000000 1.691920 
# 
# From -- ./inp_files/15822.got.cif
#   From: 2010.03.12/outbox.cif.g09.slc.cpg/sg8_8_cif.got.tgz:15822.got - 2010.03.31 10:45:26.
