data_PCOD8052045
_publ_section_title
;
Structure prediction by ZEFSAII (Michael W. Deem and Ramdas Pophale) SiO2 
 PCOD8052045
Probable space group: C 2
;
_chemical_formula_sum "Si O2"
_cell_formula_units_Z 30
_cell_length_a 27.250277
_cell_length_b 10.271080
_cell_length_c 15.123618
_cell_angle_alpha 90.000000
_cell_angle_beta 17.646687
_cell_angle_gamma 90.000000
_cell_volume 1283.202734
_symmetry_space_group_name_H-M "C 2"
_symmetry_group_IT_number 5
_symmetry_cell_setting 'monoclinic'
loop_
_space_group_symop_operation_xyz
x,y,z
-x,y,-z
1/2+x,1/2+y,z
1/2-x,1/2+y,-z
loop_
_atom_site_type_symbol
_atom_site_label
_atom_site_fract_x
_atom_site_fract_y
_atom_site_fract_z
Si Si1 0.787451 0.139990 0.144609
Si Si2 0.573192 0.458845 0.220657
Si Si3 0.153241 0.877247 0.673443
Si Si4 0.414016 0.670599 0.240076
Si Si5 0.209460 0.371412 0.995815
Si Si6 0.038959 0.734904 0.698526
Si Si7 0.779598 0.114268 0.778410
Si Si8 0.500000 0.784084 0.500000
O O1 0.752274 0.244443 0.127581
O O2 0.652999 0.128379 0.453389
O O3 0.958988 0.161312 0.898374
O O4 0.791906 0.002628 0.083078
O O5 0.640718 0.416383 0.199555
O O6 0.472130 0.338694 0.360176
O O7 0.447621 0.581264 0.440877
O O8 0.303022 0.795929 0.457567
O O9 0.126909 0.797848 0.629281
O O10 0.184897 0.031512 0.598963
O O11 0.000000 0.866739 0.000000
O O12 0.500000 0.702658 0.000000
O O13 0.182853 0.487294 0.973689
O O14 0.044616 0.365409 0.336249
O O15 0.860729 0.686843 0.036310
O O16 0.833863 0.203169 0.768669
#
# Coordination Sequence:
#
# PCOD8052045 Si02
#       8
#     4   4   4   4   4   4   4   2
#     4  12  26  47  78 105 146 204 248 310 377 445
#     4  12  25  47  67 100 152 186 248 305 359 441
#     4  11  27  48  78 111 150 195 247 319 389 464
#     4  11  25  51  77 111 154 194 252 319 386 460
#     4  12  25  43  71 101 144 197 245 303 364 435
#     4  12  27  45  73 108 139 194 245 301 377 450
#     4  12  25  43  67  97 143 183 247 298 361 434
#     4  12  24  42  62 100 136 196 238 308 362 428
#
# _framework density 23.379003000000001
#
# number of rings (size 3 to 8) (size 9 to 14) (size 15 to 20)
#    0.000    0.267    8.000    0.000    3.733    1.600 
#    0.000    0.000    0.000    0.000    0.000    0.000 
#    0.000    0.000    0.000    0.000    0.000    0.000 
#
# Total GULP energy -185858.372382 kJ/mol
# GULP energy per Si atom -12390.558159 kJ/mol
# Density = 2.332579 g / cm^3
# Si number density = 23.379003 Si / 1000 Ang^3
#
#
#
# Elastic Constant Matrix: (Units=GPa)
#
#
# Indices 1 2 3 4 5 6 
#
# 1 66.2633 16.0718 13.3501 -0.0001 -10.0276 0.0000
# 2 16.0718 61.1685 33.9419 0.0000 0.9136 0.0001
# 3 13.3501 33.9419 102.2164 0.0000 3.3858 0.0001
# 4 -0.0001 0.0000 0.0000 28.2880 0.0000 -11.2205
# 5 -10.0276 0.9136 3.3858 0.0000 42.6861 -0.0001
# 6 0.0000 0.0001 0.0001 -11.2205 -0.0001 17.4736
#
#
#
# Elastic Compliance Matrix: (Units=1/GPa)
#
#
# Indices 1 2 3 4 5 6 
#
# 1 0.016876 -0.003919 -0.001040 0.000000 0.004131 0.000000
# 2 -0.003919 0.020951 -0.006417 0.000000 -0.000860 0.000000
# 3 -0.001040 -0.006417 0.012085 0.000000 -0.001065 0.000000
# 4 0.000000 0.000000 0.000000 0.047432 0.000000 0.030458
# 5 0.004131 -0.000860 -0.001065 0.000000 0.024500 0.000000
# 6 0.000000 0.000000 0.000000 0.030458 0.000000 0.076787
#
#
# Mechanical properties :
#
#
# Convention : Reuss Voigt Hill
#
# Bulk Modulus (GPa) = 36.81619 39.59730 38.20674
# Shear Modulus (GPa) = 21.69788 28.77517 25.23652
#
# Velocity S-wave (km/s) = 3.04977 3.51210 3.28907
# Velocity P-wave (km/s) = 5.30878 5.78103 5.54993
#
# Compressibility (1/GPa) = 0.02716197
#
# Stress axis : x y z
#
# Youngs Moduli (GPa) = 59.25429 47.72936 82.74729
#
# Poissons Ratio (x) = 0.18705 0.08603
# Poissons Ratio (y) = 0.23222 0.53097
# Poissons Ratio (z) = 0.06160 0.30627
#
# Static dielectric constant tensor:
#      x y z
#    x 4.162820 0.000000 -0.042550 
#    y 0.000000 4.486270 0.000000 
#    z -0.042550 0.000000 4.179240 
# 
# 
# High freq. dielectric constant tensor:
#      x y z
#    x 1.922270 0.000000 0.004530 
#    y 0.000000 1.927740 0.000000 
#    z 0.004530 0.000000 1.923980 
# 
# From -- ./inp_files/58167.got.cif
#   From: 2010.03.12/outbox.cif.g09.slc.cpg/sg5_30_cif.got.tgz:58167.got - 2010.03.31 09:47:26.
