data_PCOD8052961
_publ_section_title
;
Structure prediction by ZEFSAII (Michael W. Deem and Ramdas Pophale) SiO2 
 PCOD8052961
Probable space group: C M
;
_chemical_formula_sum "Si O2"
_cell_formula_units_Z 32
_cell_length_a 19.926584
_cell_length_b 9.060788
_cell_length_c 12.108423
_cell_angle_alpha 90.000000
_cell_angle_beta 54.182935
_cell_angle_gamma 90.000000
_cell_volume 1772.752540
_symmetry_space_group_name_H-M "C M"
_symmetry_group_IT_number 8
_symmetry_cell_setting 'monoclinic'
loop_
_space_group_symop_operation_xyz
x,y,z
x,-y,z
1/2+x,1/2+y,z
1/2+x,1/2-y,z
loop_
_atom_site_type_symbol
_atom_site_label
_atom_site_fract_x
_atom_site_fract_y
_atom_site_fract_z
Si Si1 0.213370 0.170598 0.056250
Si Si2 0.089511 0.173658 0.993506
Si Si3 0.721530 0.830369 0.722993
Si Si4 0.343886 0.330719 0.788250
Si Si5 0.454274 0.827213 0.004789
Si Si6 0.512351 0.673529 0.725717
Si Si7 0.265668 0.169849 0.240791
Si Si8 0.680949 0.828974 0.518057
O O1 0.205736 0.203863 0.194012
O O2 0.230078 0.000000 0.019025
O O3 0.129631 0.218864 0.073152
O O4 0.294213 0.247033 0.930424
O O5 0.151189 0.222398 0.836448
O O6 0.003634 0.261577 0.062733
O O7 0.072986 0.000000 0.000601
O O8 0.808888 0.793637 0.699326
O O9 0.730523 0.801248 0.584263
O O10 0.695026 0.000000 0.771400
O O11 0.329743 0.500000 0.830295
O O12 0.440887 0.291363 0.704015
O O13 0.488658 0.747492 0.863616
O O14 0.471915 0.000000 0.975963
O O15 0.358516 0.792625 0.114762
O O16 0.523836 0.500000 0.734183
O O17 0.595890 0.739474 0.595774
O O18 0.240944 0.275020 0.364004
O O19 0.257670 0.000000 0.285961
O O20 0.660183 0.000000 0.521185
#
# Coordination Sequence:
#
# PCOD8052961 Si02
#       8
#     4   4   4   4   4   4   4   4
#     4   9  18  34  54  79 109 143 180 223 274 322
#     4  10  19  31  54  84 110 138 179 228 274 322
#     4   9  18  34  53  77 110 144 178 220 274 324
#     4   9  18  32  54  82 108 138 177 225 273 320
#     4  11  21  35  56  81 111 145 182 227 275 323
#     4  11  21  34  56  84 112 141 182 230 273 323
#     4  10  22  39  57  77 109 149 185 224 274 327
#     4  11  23  37  56  80 111 148 185 225 273 329
#
# _framework density 18.051024999999999
#
# number of rings (size 3 to 8) (size 9 to 14) (size 15 to 20)
#    0.000    2.000    2.500    1.500    0.000    3.000 
#    0.000    1.250    0.000    6.000    0.000    0.000 
#    0.000    0.000    0.000    0.000    0.000    0.000 
#
# Total GULP energy -198384.752246 kJ/mol
# GULP energy per Si atom -12399.047015 kJ/mol
# Density = 1.800994 g / cm^3
# Si number density = 18.051025 Si / 1000 Ang^3
#
#
#
# Elastic Constant Matrix: (Units=GPa)
#
#
# Indices 1 2 3 4 5 6 
#
# 1 125.6787 49.1408 39.3003 0.0000 7.3369 0.0000
# 2 49.1408 77.9493 33.3042 0.0000 0.0116 0.0000
# 3 39.3003 33.3042 64.1617 0.0000 6.9113 0.0000
# 4 0.0000 0.0000 0.0000 30.6657 0.0000 -1.4423
# 5 7.3369 0.0116 6.9113 0.0000 22.0001 0.0000
# 6 0.0000 0.0000 0.0000 -1.4423 0.0000 27.4957
#
#
#
# Elastic Compliance Matrix: (Units=1/GPa)
#
#
# Indices 1 2 3 4 5 6 
#
# 1 0.011508 -0.005607 -0.003856 0.000000 -0.002624 0.000000
# 2 -0.005607 0.019382 -0.007065 0.000000 0.004079 0.000000
# 3 -0.003856 -0.007065 0.022228 0.000000 -0.005693 0.000000
# 4 0.000000 0.000000 0.000000 0.032690 0.000000 0.001715
# 5 -0.002624 0.004079 -0.005693 0.000000 0.048116 0.000000
# 6 0.000000 0.000000 0.000000 0.001715 0.000000 0.036459
#
#
# Mechanical properties :
#
#
# Convention : Reuss Voigt Hill
#
# Bulk Modulus (GPa) = 49.84734 56.80894 53.32814
# Shear Modulus (GPa) = 23.79511 25.76859 24.78185
#
# Velocity S-wave (km/s) = 3.63466 3.78238 3.70926
# Velocity P-wave (km/s) = 6.72971 7.11441 6.92473
#
# Compressibility (1/GPa) = 0.02006125
#
# Stress axis : x y z
#
# Youngs Moduli (GPa) = 86.89523 51.59478 44.98810
#
# Poissons Ratio (x) = 0.28930 0.17347
# Poissons Ratio (y) = 0.48723 0.31786
# Poissons Ratio (z) = 0.33506 0.36454
#
# Static dielectric constant tensor:
#      x y z
#    x 3.983620 0.000000 0.125870 
#    y 0.000000 3.408510 0.000000 
#    z 0.125870 0.000000 2.975480 
# 
# 
# High freq. dielectric constant tensor:
#      x y z
#    x 1.720850 0.000000 0.008230 
#    y 0.000000 1.707260 0.000000 
#    z 0.008230 0.000000 1.660230 
# 
# From -- ./inp_files/22939.got.cif
#   From: 2010.03.12/outbox.cif.g09.slc.cpg/sg8_12_cif.got.tgz:22939.got - 2010.03.31 10:45:26.
