data_PCOD8052008
_publ_section_title
;
Structure prediction by ZEFSAII (Michael W. Deem and Ramdas Pophale) SiO2 
 PCOD8052008
Probable space group: C 2
;
_chemical_formula_sum "Si O2"
_cell_formula_units_Z 22
_cell_length_a 14.349878
_cell_length_b 10.837539
_cell_length_c 17.493244
_cell_angle_alpha 90.000000
_cell_angle_beta 21.683675
_cell_angle_gamma 90.000000
_cell_volume 1005.176976
_symmetry_space_group_name_H-M "C 2"
_symmetry_group_IT_number 5
_symmetry_cell_setting 'monoclinic'
loop_
_space_group_symop_operation_xyz
x,y,z
-x,y,-z
1/2+x,1/2+y,z
1/2-x,1/2+y,-z
loop_
_atom_site_type_symbol
_atom_site_label
_atom_site_fract_x
_atom_site_fract_y
_atom_site_fract_z
Si Si1 0.515593 0.772620 0.680518
Si Si2 0.029508 0.684444 0.223118
Si Si3 0.500000 0.165429 0.500000
Si Si4 0.582825 0.101349 0.020041
Si Si5 0.481562 0.833744 0.153572
Si Si6 0.702279 0.006259 0.211770
O O1 0.792997 0.747281 0.441641
O O2 0.534192 0.851094 0.743974
O O3 0.362817 0.860092 0.737520
O O4 0.379772 0.638974 0.796957
O O5 0.962845 0.673620 0.183778
O O6 0.115366 0.554986 0.194682
O O7 0.258895 0.772667 0.067891
O O8 0.523709 0.076696 0.408650
O O9 0.744067 0.252039 0.309983
O O10 0.495509 0.961195 0.096482
O O11 0.500000 0.149331 0.000000
O O12 0.000000 0.025661 0.000000
#
# Coordination Sequence:
#
# PCOD8052008 Si02
#       6
#     4   4   2   4   4   4
#     4  11  26  46  73 102 146 196 236 300 370 427
#     4  11  25  45  71 104 142 188 239 298 363 426
#     4  12  26  42  74 110 134 194 250 302 362 428
#     4  11  27  46  70 103 150 186 238 296 363 436
#     4  11  25  44  70 105 140 184 245 300 361 431
#     4  12  25  46  74 106 143 186 245 300 359 436
#
# _framework density 21.886692
#
# number of rings (size 3 to 8) (size 9 to 14) (size 15 to 20)
#    0.000    0.727    5.455    0.545    5.091    6.545 
#    0.000    0.000    0.000    0.000    0.000    0.000 
#    0.000    0.000    0.000    0.000    0.000    0.000 
#
# Total GULP energy -136298.211895 kJ/mol
# GULP energy per Si atom -12390.746536 kJ/mol
# Density = 2.183688 g / cm^3
# Si number density = 21.886692 Si / 1000 Ang^3
#
#
#
# Elastic Constant Matrix: (Units=GPa)
#
#
# Indices 1 2 3 4 5 6 
#
# 1 109.6935 27.6800 46.4101 -0.0574 -0.9959 -0.0185
# 2 27.6800 94.6365 59.6793 -0.1707 -1.4254 0.0020
# 3 46.4101 59.6793 172.6412 -0.3229 3.2260 0.0303
# 4 -0.0574 -0.1707 -0.3229 4.0846 0.0486 -11.9430
# 5 -0.9959 -1.4254 3.2260 0.0486 17.1532 -0.0423
# 6 -0.0185 0.0020 0.0303 -11.9430 -0.0423 28.6278
#
#
#
# Elastic Compliance Matrix: (Units=1/GPa)
#
#
# Indices 1 2 3 4 5 6 
#
# 1 0.010497 -0.001619 -0.002278 0.000363 0.000903 0.000162
# 2 -0.001619 0.013831 -0.004383 -0.000919 0.001881 -0.000378
# 3 -0.002278 -0.004383 0.007954 -0.001823 -0.001989 -0.000773
# 4 0.000363 -0.000919 -0.001823 -1.113021 0.002299 -0.464325
# 5 0.000903 0.001881 -0.001989 0.002299 0.058877 0.001049
# 6 0.000162 -0.000378 -0.000773 -0.464325 0.001049 -0.158774
#
#
# Mechanical properties :
#
#
# Convention : Reuss Voigt Hill
#
# Bulk Modulus (GPa) = 63.60803 71.61225 67.61014
# Shear Modulus (GPa) = -4.31468 26.18657 10.93595
#
# Velocity S-wave (km/s) = -1.40558 3.46274 2.23774
# Velocity P-wave (km/s) = 5.14697 6.98413 6.13471
#
# Compressibility (1/GPa) = 0.01572129
#
# Stress axis : x y z
#
# Youngs Moduli (GPa) = 95.26264 72.30247 125.72724
#
# Poissons Ratio (x) = 0.11708 0.28645
# Poissons Ratio (y) = 0.15426 0.55101
# Poissons Ratio (z) = 0.21704 0.31687
#
# Static dielectric constant tensor:
#      x y z
#    x 4.107130 0.000090 0.183040 
#    y 0.000090 3.933100 0.000380 
#    z 0.183040 0.000380 3.946970 
# 
# 
# High freq. dielectric constant tensor:
#      x y z
#    x 1.866620 0.000000 0.009390 
#    y 0.000000 1.862360 0.000010 
#    z 0.009390 0.000010 1.866070 
# 
# From -- ./inp_files/6597.got.cif
#   From: 2010.03.12/outbox.cif.g09.slc.cpg/sg5_4_cif.got.tgz:6597.got - 2010.03.31 09:47:26.
