data_PCOD8052090
_publ_section_title
;
Structure prediction by ZEFSAII (Michael W. Deem and Ramdas Pophale) SiO2 
 PCOD8052090
Probable space group: C 2
;
_chemical_formula_sum "Si O2"
_cell_formula_units_Z 18
_cell_length_a 19.058676
_cell_length_b 6.035757
_cell_length_c 7.055113
_cell_angle_alpha 90.000000
_cell_angle_beta 61.737169
_cell_angle_gamma 90.000000
_cell_volume 714.822509
_symmetry_space_group_name_H-M "C 2"
_symmetry_group_IT_number 5
_symmetry_cell_setting 'monoclinic'
loop_
_space_group_symop_operation_xyz
x,y,z
-x,y,-z
1/2+x,1/2+y,z
1/2-x,1/2+y,-z
loop_
_atom_site_type_symbol
_atom_site_label
_atom_site_fract_x
_atom_site_fract_y
_atom_site_fract_z
Si Si1 0.921742 0.452060 0.347248
Si Si2 0.000000 0.806155 0.000000
Si Si3 0.062135 0.109525 0.200489
Si Si4 0.150377 0.739525 0.249537
Si Si5 0.182803 0.424064 0.889544
O O1 0.878215 0.527080 0.593810
O O2 0.858113 0.407830 0.263595
O O3 0.977550 0.240942 0.331476
O O4 0.976266 0.653575 0.207184
O O5 0.934137 0.972652 0.001977
O O6 0.081104 0.928423 0.340466
O O7 0.137258 0.268453 0.095763
O O8 0.226793 0.848526 0.253015
O O9 0.174579 0.664114 0.003505
#
# Coordination Sequence:
#
# PCOD8052090 Si02
#       5
#     4   2   4   4   4
#     4  12  27  49  80 121 158 213 275 323 414 478
#     4  12  22  44  78 114 152 206 268 334 386 466
#     4  12  24  51  79 112 162 210 268 338 382 477
#     4  12  29  47  84 118 164 214 268 331 411 478
#     4  12  25  50  76 118 164 210 270 330 401 482
#
# _framework density 25.181076999999998
#
# number of rings (size 3 to 8) (size 9 to 14) (size 15 to 20)
#    0.000    0.000    8.889    0.000    0.000   10.667 
#    0.000    0.000    0.000    0.000    0.000    0.000 
#    0.000    0.000    0.000    0.000    0.000    0.000 
#
# Total GULP energy -111516.692370 kJ/mol
# GULP energy per Si atom -12390.743597 kJ/mol
# Density = 2.512376 g / cm^3
# Si number density = 25.181077 Si / 1000 Ang^3
#
#
#
# Elastic Constant Matrix: (Units=GPa)
#
#
# Indices 1 2 3 4 5 6 
#
# 1 187.3069 85.6036 58.7294 0.0000 -10.6542 0.0000
# 2 85.6036 126.5220 47.9383 0.0000 -8.2215 0.0000
# 3 58.7294 47.9383 97.0211 0.0000 0.6651 0.0000
# 4 0.0000 0.0000 0.0000 39.3993 0.0000 4.5678
# 5 -10.6542 -8.2215 0.6651 0.0000 35.2586 0.0000
# 6 0.0000 0.0000 0.0000 4.5678 0.0000 50.0101
#
#
#
# Elastic Compliance Matrix: (Units=1/GPa)
#
#
# Indices 1 2 3 4 5 6 
#
# 1 0.008372 -0.004478 -0.002865 0.000000 0.001539 0.000000
# 2 -0.004478 0.012320 -0.003387 0.000000 0.001583 0.000000
# 3 -0.002865 -0.003387 0.013728 0.000000 -0.001915 0.000000
# 4 0.000000 0.000000 0.000000 0.025653 0.000000 -0.002343
# 5 0.001539 0.001583 -0.001915 0.000000 0.029232 0.000000
# 6 0.000000 0.000000 0.000000 -0.002343 0.000000 0.020210
#
#
# Mechanical properties :
#
#
# Convention : Reuss Voigt Hill
#
# Bulk Modulus (GPa) = 77.17313 88.37694 82.77503
# Shear Modulus (GPa) = 36.95585 39.50551 38.23068
#
# Velocity S-wave (km/s) = 3.83509 3.96518 3.90067
# Velocity P-wave (km/s) = 7.09396 7.49241 7.29591
#
# Compressibility (1/GPa) = 0.01295788
#
# Stress axis : x y z
#
# Youngs Moduli (GPa) = 119.45241 81.16776 72.84233
#
# Poissons Ratio (x) = 0.36350 0.20871
# Poissons Ratio (y) = 0.53496 0.24674
# Poissons Ratio (z) = 0.34226 0.27494
#
# Static dielectric constant tensor:
#      x y z
#    x 4.682640 0.000000 0.048200 
#    y 0.000000 4.791210 0.000000 
#    z 0.048200 0.000000 4.119270 
# 
# 
# High freq. dielectric constant tensor:
#      x y z
#    x 2.025130 0.000000 0.011340 
#    y 0.000000 2.025430 0.000000 
#    z 0.011340 0.000000 1.971690 
# 
# From -- ./inp_files/28250.got.cif
#   From: 2010.03.12/outbox.cif.g09.slc.cpg/sg5_15_cif.got.tgz:28250.got - 2010.03.31 09:47:26.
