data_PCOD8052083
_publ_section_title
;
Structure prediction by ZEFSAII (Michael W. Deem and Ramdas Pophale) SiO2 
 PCOD8052083
Probable space group: C 2
;
_chemical_formula_sum "Si O2"
_cell_formula_units_Z 20
_cell_length_a 26.008206
_cell_length_b 4.855854
_cell_length_c 9.082017
_cell_angle_alpha 90.000000
_cell_angle_beta 49.959060
_cell_angle_gamma 90.000000
_cell_volume 878.115646
_symmetry_space_group_name_H-M "C 2"
_symmetry_group_IT_number 5
_symmetry_cell_setting 'monoclinic'
loop_
_space_group_symop_operation_xyz
x,y,z
-x,y,-z
1/2+x,1/2+y,z
1/2-x,1/2+y,-z
loop_
_atom_site_type_symbol
_atom_site_label
_atom_site_fract_x
_atom_site_fract_y
_atom_site_fract_z
Si Si1 0.294590 0.013910 0.416389
Si Si2 0.899120 0.386238 0.974956
Si Si3 0.017276 0.883290 0.125083
Si Si4 0.610435 0.178509 0.493149
Si Si5 0.580235 0.650609 0.372103
O O1 0.247827 0.258913 0.441747
O O2 0.336231 0.144190 0.474971
O O3 0.336192 0.896955 0.201256
O O4 0.926010 0.695445 0.903080
O O5 0.883970 0.261138 0.842385
O O6 0.956175 0.193514 0.943229
O O7 0.950380 0.874027 0.341823
O O8 0.000000 0.752162 0.000000
O O9 0.628015 0.384719 0.324976
O O10 0.586218 0.882058 0.486523
O O11 0.500000 0.583771 0.500000
#
# Coordination Sequence:
#
# PCOD8052083 Si02
#       5
#     4   4   4   4   4
#     4  12  28  50  70  98 139 199 256 287 323 402
#     4  12  25  41  70 104 145 180 225 296 354 426
#     4  12  22  37  68 110 141 170 228 295 370 416
#     4  12  24  43  70 105 146 181 224 293 358 427
#     4  12  23  41  68 113 149 173 213 285 389 441
#
# _framework density 22.776043000000001
#
# number of rings (size 3 to 8) (size 9 to 14) (size 15 to 20)
#    0.000    0.000    6.000    4.800    2.800    0.000 
#    0.000    4.000    0.000    0.000    0.000    0.000 
#    0.000    0.000    0.000    0.000    0.000    0.000 
#
# Total GULP energy -123943.856558 kJ/mol
# GULP energy per Si atom -12394.385656 kJ/mol
# Density = 2.272420 g / cm^3
# Si number density = 22.776043 Si / 1000 Ang^3
#
#
#
# Elastic Constant Matrix: (Units=GPa)
#
#
# Indices 1 2 3 4 5 6 
#
# 1 84.7786 32.2113 65.3843 0.0000 7.6748 0.0000
# 2 32.2113 116.1422 27.1682 0.0000 -7.7002 0.0000
# 3 65.3843 27.1682 91.1408 0.0000 6.6861 0.0000
# 4 0.0000 0.0000 0.0000 -37.4749 0.0000 41.8744
# 5 7.6748 -7.7002 6.6861 0.0000 33.1473 0.0000
# 6 0.0000 0.0000 0.0000 41.8744 0.0000 22.4545
#
#
#
# Elastic Compliance Matrix: (Units=1/GPa)
#
#
# Indices 1 2 3 4 5 6 
#
# 1 0.027882 -0.003599 -0.018671 0.000000 -0.003526 0.000000
# 2 -0.003599 0.009973 -0.000631 0.000000 0.003278 0.000000
# 3 -0.018671 -0.000631 0.024612 0.000000 -0.000788 0.000000
# 4 0.000000 0.000000 0.000000 -0.008653 0.000000 0.016137
# 5 -0.003526 0.003278 -0.000788 0.000000 0.031905 0.000000
# 6 0.000000 0.000000 0.000000 0.016137 0.000000 0.014442
#
#
# Mechanical properties :
#
#
# Convention : Reuss Voigt Hill
#
# Bulk Modulus (GPa) = 60.00630 60.17658 60.09144
# Shear Modulus (GPa) = 32.99935 14.77859 23.88897
#
# Velocity S-wave (km/s) = 3.81052 2.55005 3.24213
# Velocity P-wave (km/s) = 6.76487 5.92863 6.36051
#
# Compressibility (1/GPa) = 0.01666492
#
# Stress axis : x y z
#
# Youngs Moduli (GPa) = 35.86595 100.26761 40.62982
#
# Poissons Ratio (x) = 0.36087 0.75859
# Poissons Ratio (y) = 0.12908 0.02565
# Poissons Ratio (z) = 0.66964 0.06331
#
# Static dielectric constant tensor:
#      x y z
#    x 4.398930 0.000000 0.499050 
#    y 0.000000 4.311470 0.000000 
#    z 0.499050 0.000000 4.236200 
# 
# 
# High freq. dielectric constant tensor:
#      x y z
#    x 1.884660 0.000000 0.032140 
#    y 0.000000 1.928820 0.000000 
#    z 0.032140 0.000000 1.886820 
# 
# From -- ./inp_files/30229.got.cif
#   From: 2010.03.12/outbox.cif.g09.slc.cpg/sg5_16_cif.got.tgz:30229.got - 2010.03.31 09:47:26.
