data_PCOD8052411
_publ_section_title
;
Structure prediction by ZEFSAII (Michael W. Deem and Ramdas Pophale) SiO2 
 PCOD8052411
Probable space group: P M
;
_chemical_formula_sum "Si O2"
_cell_formula_units_Z 16
_cell_length_a 12.498823
_cell_length_b 9.317431
_cell_length_c 12.498809
_cell_angle_alpha 90.000000
_cell_angle_beta 35.805581
_cell_angle_gamma 90.000000
_cell_volume 851.563478
_symmetry_space_group_name_H-M "P M"
_symmetry_group_IT_number 6
_symmetry_cell_setting 'monoclinic'
loop_
_space_group_symop_operation_xyz
x,y,z
x,-y,z
loop_
_atom_site_type_symbol
_atom_site_label
_atom_site_fract_x
_atom_site_fract_y
_atom_site_fract_z
Si Si1 0.343800 0.162336 0.894080
Si Si2 0.875342 0.167767 0.619076
Si Si3 0.472838 0.832233 0.021581
Si Si4 0.750470 0.335740 0.281403
Si Si5 0.366340 0.329462 0.512577
Si Si6 0.747840 0.162337 0.490039
Si Si7 0.238659 0.328289 0.384899
Si Si8 0.135167 0.664260 0.896707
O O1 0.531840 0.178104 0.678080
O O2 0.195024 0.259870 0.957435
O O3 0.272519 0.000000 0.948144
O O4 0.370137 0.209941 0.995287
O O5 0.849048 0.209942 0.516376
O O6 0.036503 0.266032 0.532824
O O7 0.926209 0.000000 0.588105
O O8 0.689233 0.200170 0.835471
O O9 0.386587 0.733967 0.182741
O O10 0.441867 0.000000 0.072449
O O11 0.713249 0.500000 0.341768
O O12 0.569107 0.269158 0.374406
O O13 0.811195 0.259869 0.341262
O O14 0.916330 0.319873 0.062566
O O15 0.365367 0.500000 0.511607
O O16 0.302853 0.273520 0.449093
O O17 0.228171 0.269157 0.715343
O O18 0.801904 0.000000 0.418759
O O19 0.233044 0.500000 0.379284
O O20 0.195531 0.500000 0.859486
#
# Coordination Sequence:
#
# PCOD8052411 Si02
#       8
#     2   2   2   2   2   2   2   2
#     4   9  18  34  56  81 111 145 180 222 276 333
#     4   9  20  39  59  81 114 155 190 228 286 344
#     4   9  20  39  59  81 114 155 190 228 286 344
#     4  10  20  34  55  81 108 143 183 223 275 334
#     4   9  20  39  55  75 113 153 184 227 282 329
#     4   9  18  34  56  81 111 145 180 222 276 333
#     4  11  23  37  59  87 113 149 198 241 280 333
#     4  10  20  34  55  81 108 143 183 223 275 334
#
# _framework density 18.788969999999999
#
# number of rings (size 3 to 8) (size 9 to 14) (size 15 to 20)
#    0.000    2.500    1.250    1.875    1.750    3.000 
#    0.000    7.500    0.000    0.000    0.000    0.000 
#    0.000    0.000    0.000    0.000    0.000    0.000 
#
# Total GULP energy -198376.668394 kJ/mol
# GULP energy per Si atom -12398.541775 kJ/mol
# Density = 1.874621 g / cm^3
# Si number density = 18.788970 Si / 1000 Ang^3
#
#
#
# Elastic Constant Matrix: (Units=GPa)
#
#
# Indices 1 2 3 4 5 6 
#
# 1 134.5085 52.0450 77.0041 0.0000 2.8172 0.0000
# 2 52.0450 62.4214 48.4312 0.0000 1.5166 0.0000
# 3 77.0041 48.4312 127.4450 0.0000 0.1437 0.0000
# 4 0.0000 0.0000 0.0000 25.0389 0.0000 -8.6498
# 5 2.8172 1.5166 0.1437 0.0000 26.5151 0.0000
# 6 0.0000 0.0000 0.0000 -8.6498 0.0000 4.4199
#
#
#
# Elastic Compliance Matrix: (Units=1/GPa)
#
#
# Indices 1 2 3 4 5 6 
#
# 1 0.013150 -0.006774 -0.005370 0.000000 -0.000981 0.000000
# 2 -0.006774 0.026250 -0.005882 0.000000 -0.000750 0.000000
# 3 -0.005370 -0.005882 0.013326 0.000000 0.000835 0.000000
# 4 0.000000 0.000000 0.000000 0.123291 0.000000 0.241285
# 5 -0.000981 -0.000750 0.000835 0.000000 0.037857 0.000000
# 6 0.000000 0.000000 0.000000 0.241285 0.000000 0.698453
#
#
# Mechanical properties :
#
#
# Convention : Reuss Voigt Hill
#
# Bulk Modulus (GPa) = 59.97390 75.48172 67.72781
# Shear Modulus (GPa) = 5.24144 20.98774 13.11459
#
# Velocity S-wave (km/s) = 1.67203 3.34582 2.64482
# Velocity P-wave (km/s) = 5.97634 7.42877 6.74178
#
# Compressibility (1/GPa) = 0.01667392
#
# Stress axis : x y z
#
# Youngs Moduli (GPa) = 76.04275 38.09586 75.04365
#
# Poissons Ratio (x) = 0.25806 0.40302
# Poissons Ratio (y) = 0.51510 0.44137
# Poissons Ratio (z) = 0.40838 0.22406
#
# Static dielectric constant tensor:
#      x y z
#    x 3.478630 0.000000 -0.015230 
#    y 0.000000 3.235600 0.000000 
#    z -0.015230 0.000000 3.514930 
# 
# 
# High freq. dielectric constant tensor:
#      x y z
#    x 1.725940 0.000000 -0.006160 
#    y 0.000000 1.709390 0.000000 
#    z -0.006160 0.000000 1.740610 
# 
# From -- ./inp_files/5030.got.cif
#   From: 2010.03.12/outbox.cif.g09.slc.cpg/sg6_3_cif.got.tgz:5030.got - 2010.03.30 10:24:59.
