data_PCOD8052850
_publ_section_title
;
Structure prediction by ZEFSAII (Michael W. Deem and Ramdas Pophale) SiO2 
 PCOD8052850
Probable space group: C M
;
_chemical_formula_sum "Si O2"
_cell_formula_units_Z 32
_cell_length_a 14.449651
_cell_length_b 9.072255
_cell_length_c 35.351431
_cell_angle_alpha 90.000000
_cell_angle_beta 156.710408
_cell_angle_gamma 90.000000
_cell_volume 1832.284157
_symmetry_space_group_name_H-M "C M"
_symmetry_group_IT_number 8
_symmetry_cell_setting 'monoclinic'
loop_
_space_group_symop_operation_xyz
x,y,z
x,-y,z
1/2+x,1/2+y,z
1/2+x,1/2-y,z
loop_
_atom_site_type_symbol
_atom_site_label
_atom_site_fract_x
_atom_site_fract_y
_atom_site_fract_z
Si Si1 0.671150 0.674757 0.460610
Si Si2 0.155713 0.325501 0.609180
Si Si3 0.150639 0.824936 0.824504
Si Si4 0.491856 0.325416 0.313665
Si Si5 0.948716 0.835486 0.991360
Si Si6 0.068750 0.164469 0.955785
Si Si7 0.476475 0.174331 0.462006
Si Si8 0.549777 0.824540 0.102120
O O1 0.656416 0.500000 0.459926
O O2 0.519740 0.729050 0.367439
O O3 0.573700 0.748797 0.461416
O O4 0.938998 0.726823 0.553896
O O5 0.159446 0.500000 0.610454
O O6 0.397392 0.264010 0.717038
O O7 0.126882 0.272961 0.554926
O O8 0.214452 0.752235 0.889293
O O9 0.341640 0.769887 0.864763
O O10 0.158445 0.000000 0.830889
O O11 0.490747 0.500000 0.313856
O O12 0.251266 0.263535 0.205616
O O13 0.709071 0.274420 0.369050
O O14 0.125473 0.844701 0.022038
O O15 0.879463 0.000000 0.979161
O O16 0.087216 0.746632 0.075305
O O17 0.012217 0.000000 0.919024
O O18 0.296654 0.231146 0.021299
O O19 0.493227 0.000000 0.462558
O O20 0.561047 0.000000 0.103436
#
# Coordination Sequence:
#
# PCOD8052850 Si02
#       8
#     4   4   4   4   4   4   4   4
#     4   9  17  33  53  74  98 128 163 199 240 293
#     4   8  16  32  52  71  98 132 164 196 239 295
#     4   9  16  32  54  71  95 135 171 199 241 296
#     4   8  17  32  52  72  98 132 163 195 240 296
#     4   9  19  34  48  71 102 128 160 211 252 279
#     4   8  18  33  47  68 101 129 160 206 249 281
#     4   9  17  33  52  74 101 127 158 201 245 289
#     4  10  18  33  54  73  95 135 173 197 240 299
#
# _framework density 17.46454
#
# number of rings (size 3 to 8) (size 9 to 14) (size 15 to 20)
#    0.750    2.500    0.000    1.875    0.000    1.500 
#    2.250    7.500    0.000    0.000    0.000    0.000 
#    0.000    0.000    0.000    0.000    0.000    0.000 
#
# Total GULP energy -198225.036846 kJ/mol
# GULP energy per Si atom -12389.064803 kJ/mol
# Density = 1.742479 g / cm^3
# Si number density = 17.464540 Si / 1000 Ang^3
#
#
#
# Elastic Constant Matrix: (Units=GPa)
#
#
# Indices 1 2 3 4 5 6 
#
# 1 94.1757 24.9117 30.0843 -0.0005 -4.4929 0.0000
# 2 24.9117 43.6482 29.0628 -0.0009 -0.1816 -0.0008
# 3 30.0843 29.0628 104.7479 -0.0019 0.7537 0.0009
# 4 -0.0005 -0.0009 -0.0019 18.4523 0.0007 -4.0680
# 5 -4.4929 -0.1816 0.7537 0.0007 22.9690 -0.0002
# 6 0.0000 -0.0008 0.0009 -4.0680 -0.0002 29.3545
#
#
#
# Elastic Compliance Matrix: (Units=1/GPa)
#
#
# Indices 1 2 3 4 5 6 
#
# 1 0.012999 -0.006023 -0.002081 0.000000 0.002563 0.000000
# 2 -0.006023 0.030898 -0.006838 0.000001 -0.000709 0.000001
# 3 -0.002081 -0.006838 0.012048 0.000001 -0.000856 0.000000
# 4 0.000000 0.000001 0.000001 0.055902 -0.000002 0.007747
# 5 0.002563 -0.000709 -0.000856 -0.000002 0.044061 0.000000
# 6 0.000000 0.000001 0.000000 0.007747 0.000000 0.035140
#
#
# Mechanical properties :
#
#
# Convention : Reuss Voigt Hill
#
# Bulk Modulus (GPa) = 38.37075 45.63217 42.00146
# Shear Modulus (GPa) = 21.77549 24.72272 23.24910
#
# Velocity S-wave (km/s) = 3.53489 3.76652 3.65254
# Velocity P-wave (km/s) = 6.21924 6.71571 6.47224
#
# Compressibility (1/GPa) = 0.02606152
#
# Stress axis : x y z
#
# Youngs Moduli (GPa) = 76.93160 32.36470 83.00347
#
# Poissons Ratio (x) = 0.19492 0.17270
# Poissons Ratio (y) = 0.46334 0.56757
# Poissons Ratio (z) = 0.16007 0.22131
#
# Static dielectric constant tensor:
#      x y z
#    x 3.135570 0.000000 0.053040 
#    y 0.000000 2.946720 0.000000 
#    z 0.053040 0.000000 3.530620 
# 
# 
# High freq. dielectric constant tensor:
#      x y z
#    x 1.666420 0.000000 -0.000360 
#    y 0.000000 1.650660 0.000000 
#    z -0.000360 0.000000 1.671250 
# 
# From -- ./inp_files/32811.got.cif
#   From: 2010.03.12/outbox.cif.g09.slc.cpg/sg8_17_cif.got.tgz:32811.got - 2010.03.31 10:45:26.
