data_PCOD8052889
_publ_section_title
;
Structure prediction by ZEFSAII (Michael W. Deem and Ramdas Pophale) SiO2 
 PCOD8052889
Probable space group: C M
;
_chemical_formula_sum "Si O2"
_cell_formula_units_Z 18
_cell_length_a 27.662091
_cell_length_b 7.687577
_cell_length_c 9.426037
_cell_angle_alpha 90.000000
_cell_angle_beta 27.851038
_cell_angle_gamma 90.000000
_cell_volume 936.445879
_symmetry_space_group_name_H-M "C M"
_symmetry_group_IT_number 8
_symmetry_cell_setting 'monoclinic'
loop_
_space_group_symop_operation_xyz
x,y,z
x,-y,z
1/2+x,1/2+y,z
1/2+x,1/2-y,z
loop_
_atom_site_type_symbol
_atom_site_label
_atom_site_fract_x
_atom_site_fract_y
_atom_site_fract_z
Si Si1 0.659380 0.200633 0.656010
Si Si2 0.095435 0.307048 0.506963
Si Si3 0.585264 0.500000 0.047170
Si Si4 0.363615 0.194322 0.001443
Si Si5 0.912251 0.000000 0.700796
Si Si6 0.129362 0.000000 0.240568
O O1 0.607842 0.242788 0.638740
O O2 0.604598 0.323303 0.912613
O O3 0.780900 0.246833 0.334797
O O4 0.642868 0.000000 0.744302
O O5 0.140280 0.500000 0.360607
O O6 0.164010 0.175554 0.232458
O O7 0.974466 0.300707 0.787024
O O8 0.463285 0.500000 0.411166
O O9 0.659900 0.500000 0.994227
O O10 0.338960 0.000000 0.010221
O O11 0.349375 0.323307 0.901655
O O12 0.004675 0.000000 0.576578
#
# Coordination Sequence:
#
# PCOD8052889 Si02
#       6
#     4   4   2   4   2   2
#     4  11  21  34  58  87 114 143 189 230 278 328
#     4   9  19  34  57  83 106 147 193 225 265 335
#     4  10  21  35  56  85 117 144 177 235 293 320
#     4  10  18  34  59  82 104 145 191 228 263 329
#     4   8  18  34  54  77 107 144 182 220 273 325
#     4   8  17  33  56  74 108 142 181 217 282 313
#
# _framework density 19.221612
#
# number of rings (size 3 to 8) (size 9 to 14) (size 15 to 20)
#    0.667    1.778    2.222    0.667    0.000    1.778 
#    0.000    0.000    4.889    0.000    0.000    0.000 
#    0.000    0.000    0.000    0.000    0.000    0.000 
#
# Total GULP energy -111503.571192 kJ/mol
# GULP energy per Si atom -12389.285688 kJ/mol
# Density = 1.917786 g / cm^3
# Si number density = 19.221612 Si / 1000 Ang^3
#
#
#
# Elastic Constant Matrix: (Units=GPa)
#
#
# Indices 1 2 3 4 5 6 
#
# 1 74.0848 65.1580 18.7441 0.0000 26.2348 0.0000
# 2 65.1580 181.9520 46.0624 0.0000 36.9923 0.0000
# 3 18.7441 46.0624 54.7709 0.0000 31.0657 0.0000
# 4 0.0000 0.0000 0.0000 28.2703 0.0000 8.5039
# 5 26.2348 36.9923 31.0657 0.0000 32.5546 0.0000
# 6 0.0000 0.0000 0.0000 8.5039 0.0000 30.0060
#
#
#
# Elastic Compliance Matrix: (Units=1/GPa)
#
#
# Indices 1 2 3 4 5 6 
#
# 1 0.024587 -0.006912 0.009117 0.000000 -0.020659 0.000000
# 2 -0.006912 0.009334 -0.005729 0.000000 0.000431 0.000000
# 3 0.009117 -0.005729 0.044536 0.000000 -0.043336 0.000000
# 4 0.000000 0.000000 0.000000 0.038669 0.000000 -0.010959
# 5 -0.020659 0.000431 -0.043336 0.000000 0.088231 0.000000
# 6 0.000000 0.000000 0.000000 -0.010959 0.000000 0.036432
#
#
# Mechanical properties :
#
#
# Convention : Reuss Voigt Hill
#
# Bulk Modulus (GPa) = 14.00414 63.41519 38.70966
# Shear Modulus (GPa) = 18.33918 30.22241 24.28079
#
# Velocity S-wave (km/s) = 3.09219 3.96954 3.55801
# Velocity P-wave (km/s) = 4.47775 7.35343 6.08782
#
# Compressibility (1/GPa) = 0.07140747
#
# Stress axis : x y z
#
# Youngs Moduli (GPa) = 40.67257 107.13525 22.45385
#
# Poissons Ratio (x) = 0.74057 -0.20470
# Poissons Ratio (y) = 0.28115 0.12863
# Poissons Ratio (z) = -0.37080 0.61374
#
# Static dielectric constant tensor:
#      x y z
#    x 3.266830 0.000000 -0.050610 
#    y 0.000000 4.005840 0.000000 
#    z -0.050610 0.000000 3.214780 
# 
# 
# High freq. dielectric constant tensor:
#      x y z
#    x 1.723320 0.000000 -0.007840 
#    y 0.000000 1.775820 0.000000 
#    z -0.007840 0.000000 1.720770 
# 
# From -- ./inp_files/11909.got.cif
#   From: 2010.03.12/outbox.cif.g09.slc.cpg/sg8_6_cif.got.tgz:11909.got - 2010.03.31 10:45:26.
