data_PCOD8052425
_publ_section_title
;
Structure prediction by ZEFSAII (Michael W. Deem and Ramdas Pophale) SiO2 
 PCOD8052425
Probable space group: P M
;
_chemical_formula_sum "Si O2"
_cell_formula_units_Z 16
_cell_length_a 9.190374
_cell_length_b 9.216408
_cell_length_c 11.178429
_cell_angle_alpha 90.000000
_cell_angle_beta 64.973814
_cell_angle_gamma 90.000000
_cell_volume 857.943623
_symmetry_space_group_name_H-M "P M"
_symmetry_group_IT_number 6
_symmetry_cell_setting 'monoclinic'
loop_
_space_group_symop_operation_xyz
x,y,z
x,-y,z
loop_
_atom_site_type_symbol
_atom_site_label
_atom_site_fract_x
_atom_site_fract_y
_atom_site_fract_z
Si Si1 0.395940 0.332904 0.871010
Si Si2 0.684672 0.170897 0.882869
Si Si3 0.307042 0.330774 0.638297
Si Si4 0.634451 0.669209 0.395694
Si Si5 0.568651 0.331842 0.146674
Si Si6 0.224297 0.334647 0.172572
Si Si7 0.939962 0.828406 0.389163
Si Si8 0.006310 0.830317 0.635506
O O1 0.453097 0.500000 0.847390
O O2 0.551528 0.236119 0.840997
O O3 0.317593 0.285532 0.773410
O O4 0.263133 0.309680 0.019554
O O5 0.857609 0.212247 0.770904
O O6 0.657570 0.000000 0.899224
O O7 0.673797 0.237216 0.019171
O O8 0.273423 0.500000 0.634441
O O9 0.469937 0.284975 0.515948
O O10 0.162940 0.247567 0.627932
O O11 0.671375 0.500000 0.402161
O O12 0.623756 0.708171 0.259862
O O13 0.772810 0.762748 0.406041
O O14 0.597917 0.500000 0.105253
O O15 0.380153 0.296093 0.197774
O O16 0.169574 0.500000 0.215020
O O17 0.081930 0.227463 0.255359
O O18 0.971314 0.777329 0.513411
O O19 0.929553 0.000000 0.381376
O O20 0.039806 0.000000 0.626435
#
# Coordination Sequence:
#
# PCOD8052425 Si02
#       8
#     2   2   2   2   2   2   2   2
#     4   9  19  36  57  82 110 139 175 220 267 313
#     4  10  20  35  56  81 109 143 180 215 259 318
#     4  10  21  37  59  83 104 136 183 224 262 316
#     4  10  21  37  57  81 108 138 176 223 270 314
#     4   9  19  36  57  81 109 140 175 219 269 314
#     4   9  18  35  57  80 109 141 173 216 266 313
#     4  11  23  37  54  78 108 143 181 218 262 319
#     4  10  23  39  53  76 111 144 175 219 271 315
#
# _framework density 18.649243999999999
#
# number of rings (size 3 to 8) (size 9 to 14) (size 15 to 20)
#    0.000    2.250    0.000    3.000    0.000    7.500 
#    0.000    3.750    0.000    0.000    0.000    0.000 
#    0.000    0.000    0.000    0.000    0.000    0.000 
#
# Total GULP energy -198463.697157 kJ/mol
# GULP energy per Si atom -12403.981072 kJ/mol
# Density = 1.860680 g / cm^3
# Si number density = 18.649244 Si / 1000 Ang^3
#
#
#
# Elastic Constant Matrix: (Units=GPa)
#
#
# Indices 1 2 3 4 5 6 
#
# 1 151.0362 66.2072 92.7609 0.0000 5.8275 0.0000
# 2 66.2072 69.8574 64.6548 0.0000 -3.3399 0.0000
# 3 92.7609 64.6548 132.0382 0.0000 1.5263 0.0000
# 4 0.0000 0.0000 0.0000 25.3087 0.0000 4.6756
# 5 5.8275 -3.3399 1.5263 0.0000 32.5012 0.0000
# 6 0.0000 0.0000 0.0000 4.6756 0.0000 26.2929
#
#
#
# Elastic Compliance Matrix: (Units=1/GPa)
#
#
# Indices 1 2 3 4 5 6 
#
# 1 0.013691 -0.007769 -0.005780 0.000000 -0.002982 0.000000
# 2 -0.007769 0.030945 -0.009753 0.000000 0.005031 0.000000
# 3 -0.005780 -0.009753 0.016418 0.000000 -0.000737 0.000000
# 4 0.000000 0.000000 0.000000 0.040854 0.000000 -0.007265
# 5 -0.002982 0.005031 -0.000737 0.000000 0.031854 0.000000
# 6 0.000000 0.000000 0.000000 -0.007265 0.000000 0.039325
#
#
# Mechanical properties :
#
#
# Convention : Reuss Voigt Hill
#
# Bulk Modulus (GPa) = 69.19931 88.90860 79.05396
# Shear Modulus (GPa) = 22.27077 25.44115 23.85596
#
# Velocity S-wave (km/s) = 3.45946 3.69750 3.58046
# Velocity P-wave (km/s) = 7.28995 8.12443 7.71847
#
# Compressibility (1/GPa) = 0.01445101
#
# Stress axis : x y z
#
# Youngs Moduli (GPa) = 73.03877 32.31516 60.90757
#
# Poissons Ratio (x) = 0.25106 0.35204
# Poissons Ratio (y) = 0.56745 0.59403
# Poissons Ratio (z) = 0.42215 0.31517
#
# Static dielectric constant tensor:
#      x y z
#    x 3.390680 0.000000 0.129590 
#    y 0.000000 3.376030 0.000000 
#    z 0.129590 0.000000 3.614680 
# 
# 
# High freq. dielectric constant tensor:
#      x y z
#    x 1.725130 0.000000 0.004590 
#    y 0.000000 1.719850 0.000000 
#    z 0.004590 0.000000 1.738630 
# 
# From -- ./inp_files/3499.got.cif
#   From: 2010.03.12/outbox.cif.g09.slc.cpg/sg6_2_cif.got.tgz:3499.got - 2010.03.30 10:24:59.
