data_PCOD8052311
_publ_section_title
;
Structure prediction by ZEFSAII (Michael W. Deem and Ramdas Pophale) SiO2 
 PCOD8052311
Probable space group: P M
;
_chemical_formula_sum "Si O2"
_cell_formula_units_Z 16
_cell_length_a 16.925487
_cell_length_b 8.760265
_cell_length_c 7.841531
_cell_angle_alpha 90.000000
_cell_angle_beta 134.439833
_cell_angle_gamma 90.000000
_cell_volume 830.135586
_symmetry_space_group_name_H-M "P M"
_symmetry_group_IT_number 6
_symmetry_cell_setting 'monoclinic'
loop_
_space_group_symop_operation_xyz
x,y,z
x,-y,z
loop_
_atom_site_type_symbol
_atom_site_label
_atom_site_fract_x
_atom_site_fract_y
_atom_site_fract_z
Si Si1 0.675280 0.821904 0.621580
Si Si2 0.437088 0.321238 0.645536
Si Si3 0.668674 0.818636 0.993840
Si Si4 0.218188 0.180619 0.431831
Si Si5 0.818709 0.182187 0.529051
Si Si6 0.201879 0.178399 0.779953
Si Si7 0.067836 0.182270 0.894589
Si Si8 0.428336 0.177228 0.274315
O O1 0.697428 0.756032 0.846215
O O2 0.755373 0.748649 0.599350
O O3 0.548339 0.789147 0.373480
O O4 0.699923 0.000000 0.664194
O O5 0.449018 0.500000 0.687454
O O6 0.550741 0.243598 0.877967
O O7 0.336968 0.260081 0.608070
O O8 0.409646 0.280703 0.410044
O O9 0.660116 0.000000 0.976622
O O10 0.760812 0.761511 0.266832
O O11 0.163945 0.225933 0.532725
O O12 0.236418 0.000000 0.444519
O O13 0.136955 0.241654 0.161832
O O14 0.943355 0.246097 0.718926
O O15 0.816205 0.000000 0.531165
O O16 0.124170 0.252306 0.808658
O O17 0.187970 0.000000 0.783635
O O18 0.331344 0.222118 0.997078
O O19 0.066171 0.000000 0.891037
O O20 0.420718 0.000000 0.319780
#
# Coordination Sequence:
#
# PCOD8052311 Si02
#       8
#     2   2   2   2   2   2   2   2
#     4   8  15  26  43  71 100 128 164 205 247 297
#     4  11  21  33  51  76 107 136 169 215 260 305
#     4   9  18  32  51  73 100 135 170 208 254 303
#     4  10  19  32  53  76 103 139 170 207 257 305
#     4   9  17  28  48  76 105 134 166 208 253 297
#     4   9  17  28  49  78 103 134 171 207 252 306
#     4   9  17  30  47  76 109 131 166 215 254 296
#     4   9  16  31  52  74 105 137 170 207 251 309
#
# _framework density 19.273961
#
# number of rings (size 3 to 8) (size 9 to 14) (size 15 to 20)
#    0.000    2.750    1.250    1.875    1.750    1.000 
#    0.000    5.625    0.000    0.750    0.000    3.500 
#    0.000    0.000    0.000    0.000    0.000    0.000 
#
# Total GULP energy -198304.770206 kJ/mol
# GULP energy per Si atom -12394.048138 kJ/mol
# Density = 1.923009 g / cm^3
# Si number density = 19.273961 Si / 1000 Ang^3
#
#
#
# Elastic Constant Matrix: (Units=GPa)
#
#
# Indices 1 2 3 4 5 6 
#
# 1 169.4009 11.9552 95.1406 0.0000 2.7080 0.0000
# 2 11.9552 21.1752 13.8043 0.0000 -1.0945 0.0000
# 3 95.1406 13.8043 143.0757 0.0000 2.0709 0.0000
# 4 0.0000 0.0000 0.0000 4.1259 0.0000 -0.8879
# 5 2.7080 -1.0945 2.0709 0.0000 29.4486 0.0000
# 6 0.0000 0.0000 0.0000 -0.8879 0.0000 3.1929
#
#
#
# Elastic Compliance Matrix: (Units=1/GPa)
#
#
# Indices 1 2 3 4 5 6 
#
# 1 0.009463 -0.001356 -0.006155 0.000000 -0.000488 0.000000
# 2 -0.001356 0.050734 -0.004027 0.000000 0.002293 0.000000
# 3 -0.006155 -0.004027 0.011476 0.000000 -0.000391 0.000000
# 4 0.000000 0.000000 0.000000 0.257798 0.000000 0.071688
# 5 -0.000488 0.002293 -0.000391 0.000000 0.034115 0.000000
# 6 0.000000 0.000000 0.000000 0.071688 0.000000 0.333128
#
#
# Mechanical properties :
#
#
# Convention : Reuss Voigt Hill
#
# Bulk Modulus (GPa) = 20.57651 63.93912 42.25781
# Shear Modulus (GPa) = 6.79358 21.53693 14.16526
#
# Velocity S-wave (km/s) = 1.87947 3.34640 2.71392
# Velocity P-wave (km/s) = 3.92541 6.94097 5.63852
#
# Compressibility (1/GPa) = 0.04859912
#
# Stress axis : x y z
#
# Youngs Moduli (GPa) = 105.66938 19.71064 87.13554
#
# Poissons Ratio (x) = 0.02672 0.53632
# Poissons Ratio (y) = 0.14325 0.35087
# Poissons Ratio (z) = 0.65040 0.07937
#
# Static dielectric constant tensor:
#      x y z
#    x 3.854710 0.000000 -0.046690 
#    y 0.000000 2.841100 0.000000 
#    z -0.046690 0.000000 3.685180 
# 
# 
# High freq. dielectric constant tensor:
#      x y z
#    x 1.757100 0.000000 -0.003660 
#    y 0.000000 1.678060 0.000000 
#    z -0.003660 0.000000 1.752480 
# 
# From -- ./inp_files/3534.got.cif
#   From: 2010.03.12/outbox.cif.g09.slc.cpg/sg6_2_cif.got.tgz:3534.got - 2010.03.30 10:24:59.
