data_PCOD8052914
_publ_section_title
;
Structure prediction by ZEFSAII (Michael W. Deem and Ramdas Pophale) SiO2 
 PCOD8052914
Probable space group: C M
;
_chemical_formula_sum "Si O2"
_cell_formula_units_Z 32
_cell_length_a 14.129924
_cell_length_b 26.423289
_cell_length_c 9.359366
_cell_angle_alpha 90.000000
_cell_angle_beta 29.412120
_cell_angle_gamma 90.000000
_cell_volume 1716.060060
_symmetry_space_group_name_H-M "C M"
_symmetry_group_IT_number 8
_symmetry_cell_setting 'monoclinic'
loop_
_space_group_symop_operation_xyz
x,y,z
x,-y,z
1/2+x,1/2+y,z
1/2+x,1/2-y,z
loop_
_atom_site_type_symbol
_atom_site_label
_atom_site_fract_x
_atom_site_fract_y
_atom_site_fract_z
Si Si1 0.768510 0.252650 0.765570
Si Si2 0.884765 0.145202 0.537868
Si Si3 0.360556 0.441779 0.803640
Si Si4 0.970587 0.602370 0.399364
Si Si5 0.410419 0.800471 0.316652
Si Si6 0.752792 0.442136 0.435768
Si Si7 0.304196 0.150927 0.883596
Si Si8 0.958978 0.362830 0.994062
O O1 0.887305 0.199864 0.614863
O O2 0.746744 0.276738 0.633614
O O3 0.864097 0.293870 0.744529
O O4 0.553130 0.245827 0.102864
O O5 0.888742 0.097186 0.637302
O O6 0.689550 0.143499 0.700916
O O7 0.073919 0.142055 0.190121
O O8 0.368148 0.500000 0.737528
O O9 0.529185 0.431994 0.696286
O O10 0.158678 0.432947 0.150032
O O11 0.025363 0.655528 0.251751
O O12 0.795381 0.578799 0.537859
O O13 0.896622 0.608579 0.658512
O O14 0.345040 0.823265 0.249613
O O15 0.809025 0.500000 0.356442
O O16 0.892872 0.418096 0.131512
O O17 0.396727 0.146839 0.916166
#
# Coordination Sequence:
#
# PCOD8052914 Si02
#       8
#     4   4   4   4   4   4   4   4
#     4  10  18  36  57  84 122 161 194 246 290 349
#     4  11  21  39  61  87 125 158 203 250 288 361
#     4  11  21  37  65  90 114 160 204 244 303 361
#     4  10  21  38  59  86 121 155 194 252 298 351
#     4   9  18  34  56  80 118 155 194 240 293 343
#     4  10  20  37  63  89 113 154 204 244 299 363
#     4  11  23  39  60  89 127 158 196 250 302 350
#     4  10  21  38  58  89 121 155 204 242 297 358
#
# _framework density 18.647366000000002
#
# number of rings (size 3 to 8) (size 9 to 14) (size 15 to 20)
#    0.000    1.750    6.250    0.375    0.000    1.000 
#    4.500    2.500    0.000    0.000    0.000    0.000 
#    0.000    0.000    0.000    0.000    0.000    0.000 
#
# Total GULP energy -198290.104122 kJ/mol
# GULP energy per Si atom -12393.131508 kJ/mol
# Density = 1.860492 g / cm^3
# Si number density = 18.647366 Si / 1000 Ang^3
#
#
#
# Elastic Constant Matrix: (Units=GPa)
#
#
# Indices 1 2 3 4 5 6 
#
# 1 130.6348 51.9739 56.2812 0.0001 13.6974 -0.0002
# 2 51.9739 116.6856 46.2440 0.0000 10.9178 0.0001
# 3 56.2812 46.2440 99.8615 0.0001 6.6544 -0.0001
# 4 0.0001 0.0000 0.0001 26.2996 -0.0001 -2.1114
# 5 13.6974 10.9178 6.6544 -0.0001 36.1205 0.0002
# 6 -0.0002 0.0001 -0.0001 -2.1114 0.0002 17.9090
#
#
#
# Elastic Compliance Matrix: (Units=1/GPa)
#
#
# Indices 1 2 3 4 5 6 
#
# 1 0.011096 -0.002814 -0.004785 0.000000 -0.002475 0.000000
# 2 -0.002814 0.011403 -0.003580 0.000000 -0.001720 0.000000
# 3 -0.004785 -0.003580 0.014352 0.000000 0.000253 0.000000
# 4 0.000000 0.000000 0.000000 0.038387 0.000000 0.004526
# 5 -0.002475 -0.001720 0.000253 0.000000 0.029097 0.000000
# 6 0.000000 0.000000 0.000000 0.004526 0.000000 0.056371
#
#
# Mechanical properties :
#
#
# Convention : Reuss Voigt Hill
#
# Bulk Modulus (GPa) = 69.00411 72.90889 70.95650
# Shear Modulus (GPa) = 26.61049 28.91134 27.76092
#
# Velocity S-wave (km/s) = 3.78171 3.94182 3.86259
# Velocity P-wave (km/s) = 7.49357 7.73956 7.61756
#
# Compressibility (1/GPa) = 0.01449189
#
# Stress axis : x y z
#
# Youngs Moduli (GPa) = 90.12431 87.69441 69.67750
#
# Poissons Ratio (x) = 0.24678 0.33343
# Poissons Ratio (y) = 0.25362 0.24944
# Poissons Ratio (z) = 0.43128 0.31394
#
# Static dielectric constant tensor:
#      x y z
#    x 3.250190 0.000000 0.000890 
#    y 0.000000 3.628030 0.000000 
#    z 0.000890 0.000000 3.546040 
# 
# 
# High freq. dielectric constant tensor:
#      x y z
#    x 1.701870 0.000000 0.002440 
#    y 0.000000 1.734550 0.000000 
#    z 0.002440 0.000000 1.722000 
# 
# From -- ./inp_files/13864.got.cif
#   From: 2010.03.12/outbox.cif.g09.slc.cpg/sg8_7_cif.got.tgz:13864.got - 2010.03.31 10:45:26.
