data_PCOD8052918
_publ_section_title
;
Structure prediction by ZEFSAII (Michael W. Deem and Ramdas Pophale) SiO2 
 PCOD8052918
Probable space group: C M
;
_chemical_formula_sum "Si O2"
_cell_formula_units_Z 32
_cell_length_a 17.292695
_cell_length_b 15.883072
_cell_length_c 11.155495
_cell_angle_alpha 90.000000
_cell_angle_beta 30.695110
_cell_angle_gamma 90.000000
_cell_volume 1564.068814
_symmetry_space_group_name_H-M "C M"
_symmetry_group_IT_number 8
_symmetry_cell_setting 'monoclinic'
loop_
_space_group_symop_operation_xyz
x,y,z
x,-y,z
1/2+x,1/2+y,z
1/2+x,1/2-y,z
loop_
_atom_site_type_symbol
_atom_site_label
_atom_site_fract_x
_atom_site_fract_y
_atom_site_fract_z
Si Si1 0.646000 0.677708 0.690120
Si Si2 0.423863 0.195294 0.877770
Si Si3 0.988094 0.907732 0.111177
Si Si4 0.888609 0.804992 0.463299
Si Si5 0.215397 0.343830 0.356334
Si Si6 0.162380 0.301857 0.161762
Si Si7 0.659378 0.100267 0.925002
Si Si8 0.353025 0.837216 0.219658
O O1 0.491500 0.720036 0.849930
O O2 0.758516 0.752398 0.573897
O O3 0.726386 0.620675 0.476657
O O4 0.614994 0.621971 0.847561
O O5 0.548608 0.145759 0.636153
O O6 0.287642 0.227941 0.975209
O O7 0.359223 0.133994 0.071402
O O8 0.988003 0.849715 0.228490
O O9 0.824392 0.915909 0.263084
O O10 0.035318 0.000000 0.091649
O O11 0.813292 0.873991 0.651513
O O12 0.999279 0.742964 0.388314
O O13 0.193437 0.350610 0.243739
O O14 0.299461 0.259559 0.288141
O O15 0.172144 0.371351 0.045329
O O16 0.635018 0.000000 0.948892
O O17 0.518840 0.150406 0.054540
#
# Coordination Sequence:
#
# PCOD8052918 Si02
#       8
#     4   4   4   4   4   4   4   4
#     4  11  18  37  64  87 119 154 207 245 288 359
#     4  10  18  37  66  91 111 150 216 255 282 342
#     4  12  23  37  62  95 125 154 198 256 309 352
#     4  12  21  41  65  90 116 162 214 247 287 358
#     4  10  19  37  63  92 118 157 207 252 293 356
#     4  11  22  37  62  92 122 160 203 246 298 363
#     4  12  24  38  59  93 130 158 193 250 315 359
#     4  10  18  36  64  86 115 157 208 251 277 357
#
# _framework density 20.459458000000001
#
# number of rings (size 3 to 8) (size 9 to 14) (size 15 to 20)
#    0.000    1.000    7.500    1.875    0.000    1.000 
#    0.000    0.000    0.000    7.500    0.000    0.000 
#    0.000    0.000    0.000    0.000    0.000    0.000 
#
# Total GULP energy -198281.988714 kJ/mol
# GULP energy per Si atom -12392.624295 kJ/mol
# Density = 2.041289 g / cm^3
# Si number density = 20.459458 Si / 1000 Ang^3
#
#
#
# Elastic Constant Matrix: (Units=GPa)
#
#
# Indices 1 2 3 4 5 6 
#
# 1 83.7106 17.7972 17.8693 0.0000 7.5193 -0.0001
# 2 17.7972 55.8098 22.7007 -0.0001 7.1650 0.0000
# 3 17.8693 22.7007 129.8646 -0.0002 24.4007 0.0000
# 4 0.0000 -0.0001 -0.0002 17.3006 0.0004 3.5683
# 5 7.5193 7.1650 24.4007 0.0004 30.0556 -0.0001
# 6 -0.0001 0.0000 0.0000 3.5683 -0.0001 15.8752
#
#
#
# Elastic Compliance Matrix: (Units=1/GPa)
#
#
# Indices 1 2 3 4 5 6 
#
# 1 0.013045 -0.003596 -0.000843 0.000000 -0.001722 0.000000
# 2 -0.003596 0.020404 -0.002746 0.000000 -0.001735 0.000000
# 3 -0.000843 -0.002746 0.009598 0.000000 -0.006926 0.000000
# 4 0.000000 0.000000 0.000000 0.060611 -0.000001 -0.013624
# 5 -0.001722 -0.001735 -0.006926 -0.000001 0.039739 0.000000
# 6 0.000000 0.000000 0.000000 -0.013624 0.000000 0.066054
#
#
# Mechanical properties :
#
#
# Convention : Reuss Voigt Hill
#
# Bulk Modulus (GPa) = 34.87028 42.90216 38.88622
# Shear Modulus (GPa) = 21.42428 26.71415 24.06922
#
# Velocity S-wave (km/s) = 3.23949 3.61738 3.43364
# Velocity P-wave (km/s) = 5.57432 6.20179 5.89640
#
# Compressibility (1/GPa) = 0.02867771
#
# Stress axis : x y z
#
# Youngs Moduli (GPa) = 76.65744 49.00904 104.19132
#
# Poissons Ratio (x) = 0.17624 0.08781
# Poissons Ratio (y) = 0.27566 0.28610
# Poissons Ratio (z) = 0.06461 0.13457
#
# Static dielectric constant tensor:
#      x y z
#    x 3.780220 0.000000 0.301770 
#    y 0.000000 3.163300 0.000000 
#    z 0.301770 0.000000 4.355100 
# 
# 
# High freq. dielectric constant tensor:
#      x y z
#    x 1.799440 0.000000 0.015330 
#    y 0.000000 1.744130 0.000000 
#    z 0.015330 0.000000 1.828060 
# 
# From -- ./inp_files/23329.got.cif
#   From: 2010.03.12/outbox.cif.g09.slc.cpg/sg8_12_cif.got.tgz:23329.got - 2010.03.31 10:45:26.
