data_PCOD8052487
_publ_section_title
;
Structure prediction by ZEFSAII (Michael W. Deem and Ramdas Pophale) SiO2 
 PCOD8052487
Probable space group: P M
;
_chemical_formula_sum "Si O2"
_cell_formula_units_Z 16
_cell_length_a 14.429879
_cell_length_b 9.144150
_cell_length_c 19.481877
_cell_angle_alpha 90.000000
_cell_angle_beta 160.774373
_cell_angle_gamma 90.000000
_cell_volume 846.474861
_symmetry_space_group_name_H-M "P M"
_symmetry_group_IT_number 6
_symmetry_cell_setting 'monoclinic'
loop_
_space_group_symop_operation_xyz
x,y,z
x,-y,z
loop_
_atom_site_type_symbol
_atom_site_label
_atom_site_fract_x
_atom_site_fract_y
_atom_site_fract_z
Si Si1 0.322440 0.828374 0.517870
Si Si2 0.411596 0.328208 0.213013
Si Si3 0.936138 0.169937 0.125070
Si Si4 0.475713 0.170640 0.903761
Si Si5 0.955318 0.827831 0.985816
Si Si6 0.895560 0.329043 0.299120
Si Si7 0.432046 0.329425 0.074566
Si Si8 0.046644 0.671422 0.681916
O O1 0.650495 0.791757 0.740904
O O2 0.164735 0.766752 0.339306
O O3 0.197206 0.748438 0.498423
O O4 0.267433 0.000000 0.489479
O O5 0.350331 0.500000 0.170665
O O6 0.391761 0.261392 0.122011
O O7 0.717889 0.294177 0.458439
O O8 0.185679 0.249141 0.101251
O O9 0.998971 0.000000 0.162335
O O10 0.612020 0.194264 0.923489
O O11 0.973162 0.239035 0.075462
O O12 0.169771 0.244290 0.700707
O O13 0.461648 0.000000 0.912669
O O14 0.681975 0.255102 0.097967
O O15 0.011236 0.000000 0.024667
O O16 0.924024 0.500000 0.303182
O O17 0.755734 0.301612 0.276294
O O18 0.376743 0.500000 0.042078
O O19 0.201714 0.267793 0.859179
O O20 0.104394 0.500000 0.711182
#
# Coordination Sequence:
#
# PCOD8052487 Si02
#       8
#     2   2   2   2   2   2   2   2
#     4   9  18  33  52  73  99 130 160 196 245 292
#     4  10  21  36  51  69  96 130 168 206 242 284
#     4   8  16  32  51  71  99 130 156 193 246 292
#     4   9  16  29  51  77 103 129 158 194 240 294
#     4  10  21  36  51  69  96 130 168 206 242 284
#     4   9  16  29  51  77 103 129 158 194 240 294
#     4   8  16  32  51  71  99 130 156 193 246 292
#     4   9  18  33  52  73  99 130 160 196 245 292
#
# _framework density 18.901918999999999
#
# number of rings (size 3 to 8) (size 9 to 14) (size 15 to 20)
#    0.000    3.000    0.000    2.250    0.000    3.000 
#    0.000    6.250    0.000    0.000    0.000    0.000 
#    0.000    0.000    0.000    0.000    0.000    0.000 
#
# Total GULP energy -198242.832550 kJ/mol
# GULP energy per Si atom -12390.177034 kJ/mol
# Density = 1.885890 g / cm^3
# Si number density = 18.901919 Si / 1000 Ang^3
#
#
#
# Elastic Constant Matrix: (Units=GPa)
#
#
# Indices 1 2 3 4 5 6 
#
# 1 159.1273 52.0793 76.0337 0.0000 20.5764 0.0000
# 2 52.0793 198.2828 46.8099 0.0000 45.1513 0.0000
# 3 76.0337 46.8099 112.9076 0.0000 20.7059 0.0000
# 4 0.0000 0.0000 0.0000 22.5803 0.0000 12.5364
# 5 20.5764 45.1513 20.7059 0.0000 39.3813 0.0000
# 6 0.0000 0.0000 0.0000 12.5364 0.0000 29.3239
#
#
#
# Elastic Compliance Matrix: (Units=1/GPa)
#
#
# Indices 1 2 3 4 5 6 
#
# 1 0.009492 -0.000923 -0.005859 0.000000 -0.000821 0.000000
# 2 -0.000923 0.007167 -0.001031 0.000000 -0.007193 0.000000
# 3 -0.005859 -0.001031 0.013780 0.000000 -0.003003 0.000000
# 4 0.000000 0.000000 0.000000 0.058069 0.000000 -0.024825
# 5 -0.000821 -0.007193 -0.003003 0.000000 0.035647 0.000000
# 6 0.000000 0.000000 0.000000 -0.024825 0.000000 0.044715
#
#
# Mechanical properties :
#
#
# Convention : Reuss Voigt Hill
#
# Bulk Modulus (GPa) = 67.50371 91.12928 79.31650
# Shear Modulus (GPa) = 26.39451 37.95009 32.17230
#
# Velocity S-wave (km/s) = 3.74089 4.48564 4.13009
# Velocity P-wave (km/s) = 7.37897 8.66858 8.04964
#
# Compressibility (1/GPa) = 0.01481400
#
# Stress axis : x y z
#
# Youngs Moduli (GPa) = 105.35255 139.52928 72.56828
#
# Poissons Ratio (x) = 0.12879 0.42516
# Poissons Ratio (y) = 0.09725 0.07479
# Poissons Ratio (z) = 0.61724 0.14380
#
# Static dielectric constant tensor:
#      x y z
#    x 1.478450 0.000000 -2.117040 
#    y 0.000000 3.433700 0.000000 
#    z -2.117040 0.000000 1.727490 
# 
# 
# High freq. dielectric constant tensor:
#      x y z
#    x 1.735410 0.000000 0.008290 
#    y 0.000000 1.705990 0.000000 
#    z 0.008290 0.000000 1.728350 
# 
# From -- ./inp_files/3391.got.cif
#   From: 2010.03.12/outbox.cif.g09.slc.cpg/sg6_2_cif.got.tgz:3391.got - 2010.03.30 10:24:59.
