data_PCOD8052668
_publ_section_title
;
Structure prediction by ZEFSAII (Michael W. Deem and Ramdas Pophale) SiO2 
 PCOD8052668
Probable space group: P C
;
_chemical_formula_sum "Si O2"
_cell_formula_units_Z 10
_cell_length_a 7.091493
_cell_length_b 12.826198
_cell_length_c 5.145515
_cell_angle_alpha 90.000000
_cell_angle_beta 112.696002
_cell_angle_gamma 90.000000
_cell_volume 431.778933
_symmetry_space_group_name_H-M "P C"
_symmetry_group_IT_number 7
_symmetry_cell_setting 'monoclinic'
loop_
_space_group_symop_operation_xyz
x,y,z
x,-y,1/2+z
loop_
_atom_site_type_symbol
_atom_site_label
_atom_site_fract_x
_atom_site_fract_y
_atom_site_fract_z
Si Si1 0.601510 0.937071 0.818420
Si Si2 0.973472 0.311350 0.990538
Si Si3 0.362374 0.250323 0.965390
Si Si4 0.972566 0.188253 0.506740
Si Si5 0.606719 0.436266 0.877838
O O1 0.498624 0.824376 0.716922
O O2 0.533642 0.017726 0.559256
O O3 0.848156 0.920456 0.951997
O O4 0.217782 0.325226 0.070400
O O5 0.940698 0.229211 0.201384
O O6 0.872862 0.266304 0.670125
O O7 0.853669 0.417547 0.000883
O O8 0.213794 0.177317 0.706463
O O9 0.500035 0.323848 0.856449
O O10 0.540046 0.486539 0.571191
#
# Coordination Sequence:
#
# PCOD8052668 Si02
#       5
#     2   2   2   2   2
#     4  12  27  44  74 110 141 187 244 292 353 427
#     4  10  23  45  73  96 143 190 229 289 359 409
#     4  10  28  46  76  98 154 186 238 292 362 416
#     4  10  23  45  73  96 143 190 229 289 359 409
#     4  12  27  44  74 110 141 187 244 292 353 427
#
# _framework density 23.159998999999999
#
# number of rings (size 3 to 8) (size 9 to 14) (size 15 to 20)
#    1.200    0.000    2.000    2.400    5.600    3.200 
#    0.000    0.000    0.000    0.000    0.000    0.000 
#    0.000    0.000    0.000    0.000    0.000    0.000 
#
# Total GULP energy -123903.029425 kJ/mol
# GULP energy per Si atom -12390.302942 kJ/mol
# Density = 2.310729 g / cm^3
# Si number density = 23.159999 Si / 1000 Ang^3
#
#
#
# Elastic Constant Matrix: (Units=GPa)
#
#
# Indices 1 2 3 4 5 6 
#
# 1 104.1066 38.2888 44.7659 0.0000 -2.2522 0.0000
# 2 38.2888 69.4721 26.1232 0.0000 10.0115 0.0000
# 3 44.7659 26.1232 84.8746 0.0000 -8.0329 0.0000
# 4 0.0000 0.0000 0.0000 33.8689 0.0000 -1.7162
# 5 -2.2522 10.0115 -8.0329 0.0000 45.1662 0.0000
# 6 0.0000 0.0000 0.0000 -1.7162 0.0000 33.9709
#
#
#
# Elastic Compliance Matrix: (Units=1/GPa)
#
#
# Indices 1 2 3 4 5 6 
#
# 1 0.014184 -0.005866 -0.005580 0.000000 0.001015 0.000000
# 2 -0.005866 0.019690 -0.003466 0.000000 -0.005273 0.000000
# 3 -0.005580 -0.003466 0.016109 0.000000 0.003355 0.000000
# 4 0.000000 0.000000 0.000000 0.029601 0.000000 0.001495
# 5 0.001015 -0.005273 0.003355 0.000000 0.023957 0.000000
# 6 0.000000 0.000000 0.000000 0.001495 0.000000 0.029513
#
#
# Mechanical properties :
#
#
# Convention : Reuss Voigt Hill
#
# Bulk Modulus (GPa) = 49.59977 52.97878 51.28927
# Shear Modulus (GPa) = 29.48171 32.55288 31.01730
#
# Velocity S-wave (km/s) = 3.57172 3.75315 3.66356
# Velocity P-wave (km/s) = 6.20260 6.45804 6.33161
#
# Compressibility (1/GPa) = 0.02016138
#
# Stress axis : x y z
#
# Youngs Moduli (GPa) = 70.50173 50.78685 62.07593
#
# Poissons Ratio (x) = 0.29789 0.34637
# Poissons Ratio (y) = 0.41353 0.21514
# Poissons Ratio (z) = 0.39338 0.17601
#
# Static dielectric constant tensor:
#      x y z
#    x 4.340440 0.000000 0.022830 
#    y 0.000000 3.712630 0.000000 
#    z 0.022830 0.000000 4.056730 
# 
# 
# High freq. dielectric constant tensor:
#      x y z
#    x 1.923700 0.000000 -0.008820 
#    y 0.000000 1.882030 0.000000 
#    z -0.008820 0.000000 1.919400 
# 
# From -- ./inp_files/568.got.cif
#   From: 2010.03.12/outbox.cif.g09.slc.cpg/sg7_cif.got.tgz:568.got - 2010.03.30 08:40:41.
