data_PCOD8052364
_publ_section_title
;
Structure prediction by ZEFSAII (Michael W. Deem and Ramdas Pophale) SiO2 
 PCOD8052364
Probable space group: P M
;
_chemical_formula_sum "Si O2"
_cell_formula_units_Z 16
_cell_length_a 9.307986
_cell_length_b 8.942253
_cell_length_c 11.133896
_cell_angle_alpha 90.000000
_cell_angle_beta 65.415437
_cell_angle_gamma 90.000000
_cell_volume 842.713715
_symmetry_space_group_name_H-M "P M"
_symmetry_group_IT_number 6
_symmetry_cell_setting 'monoclinic'
loop_
_space_group_symop_operation_xyz
x,y,z
x,-y,z
loop_
_atom_site_type_symbol
_atom_site_label
_atom_site_fract_x
_atom_site_fract_y
_atom_site_fract_z
Si Si1 0.851620 0.322909 0.450270
Si Si2 0.768379 0.823653 0.970723
Si Si3 0.915675 0.677345 0.695942
Si Si4 0.480228 0.675005 0.200255
Si Si5 0.223973 0.173464 0.679070
Si Si6 0.150717 0.323488 0.203666
Si Si7 0.518864 0.675561 0.464499
Si Si8 0.088689 0.828936 0.981870
O O1 0.862406 0.500000 0.440506
O O2 0.856703 0.269580 0.585989
O O3 0.691059 0.266889 0.444291
O O4 0.999814 0.254095 0.325523
O O5 0.794456 0.746533 0.833288
O O6 0.910658 0.778621 0.010601
O O7 0.766173 0.000000 0.950018
O O8 0.605280 0.769022 0.081737
O O9 0.916402 0.500000 0.709157
O O10 0.093325 0.735458 0.650835
O O11 0.510092 0.500000 0.166761
O O12 0.308284 0.728212 0.217224
O O13 0.495610 0.715596 0.333965
O O14 0.395266 0.233984 0.586915
O O15 0.201473 0.197409 0.828808
O O16 0.206960 0.000000 0.650878
O O17 0.139980 0.500000 0.206943
O O18 0.155599 0.270555 0.065231
O O19 0.496209 0.500000 0.496665
O O20 0.090863 0.000000 0.022929
#
# Coordination Sequence:
#
# PCOD8052364 Si02
#       8
#     2   2   2   2   2   2   2   2
#     4   9  19  35  56  82 108 136 176 226 272 316
#     4  10  21  37  56  80 111 144 180 220 266 322
#     4  10  19  35  59  83 109 141 179 222 268 318
#     4  10  21  36  56  82 109 140 181 225 269 320
#     4  10  21  37  55  79 112 145 180 220 266 322
#     4  10  20  35  56  81 107 137 178 225 269 317
#     4  10  20  36  58  81 107 141 182 225 269 318
#     4   9  20  37  54  76 107 142 178 217 263 319
#
# _framework density 18.986281000000002
#
# number of rings (size 3 to 8) (size 9 to 14) (size 15 to 20)
#    0.000    2.250    0.000    3.375    0.000    8.000 
#    0.000    8.125    0.000    0.000    0.000    0.000 
#    0.000    0.000    0.000    0.000    0.000    0.000 
#
# Total GULP energy -198453.979711 kJ/mol
# GULP energy per Si atom -12403.373732 kJ/mol
# Density = 1.894307 g / cm^3
# Si number density = 18.986281 Si / 1000 Ang^3
#
#
#
# Elastic Constant Matrix: (Units=GPa)
#
#
# Indices 1 2 3 4 5 6 
#
# 1 154.7575 44.7750 92.8394 0.0000 4.1786 0.0000
# 2 44.7750 54.3775 47.4734 0.0000 -2.9702 0.0000
# 3 92.8394 47.4734 132.5159 0.0000 -5.9319 0.0000
# 4 0.0000 0.0000 0.0000 16.8481 0.0000 -7.7469
# 5 4.1786 -2.9702 -5.9319 0.0000 36.7111 0.0000
# 6 0.0000 0.0000 0.0000 -7.7469 0.0000 21.5185
#
#
#
# Elastic Compliance Matrix: (Units=1/GPa)
#
#
# Indices 1 2 3 4 5 6 
#
# 1 0.011885 -0.003726 -0.007117 0.000000 -0.002804 0.000000
# 2 -0.003726 0.027941 -0.007332 0.000000 0.001500 0.000000
# 3 -0.007117 -0.007332 0.015280 0.000000 0.002686 0.000000
# 4 0.000000 0.000000 0.000000 0.071128 0.000000 0.025607
# 5 -0.002804 0.001500 0.002686 0.000000 0.028114 0.000000
# 6 0.000000 0.000000 0.000000 0.025607 0.000000 0.055691
#
#
# Mechanical properties :
#
#
# Convention : Reuss Voigt Hill
#
# Bulk Modulus (GPa) = 53.31975 79.09183 66.20579
# Shear Modulus (GPa) = 19.79084 25.45308 22.62196
#
# Velocity S-wave (km/s) = 3.23209 3.66540 3.45554
# Velocity P-wave (km/s) = 6.48635 7.72407 7.13211
#
# Compressibility (1/GPa) = 0.01875478
#
# Stress axis : x y z
#
# Youngs Moduli (GPa) = 84.13848 35.78942 65.44630
#
# Poissons Ratio (x) = 0.13335 0.46581
# Poissons Ratio (y) = 0.31349 0.47988
# Poissons Ratio (z) = 0.59885 0.26242
#
# Static dielectric constant tensor:
#      x y z
#    x 3.587790 0.000000 -0.035920 
#    y 0.000000 3.292180 0.000000 
#    z -0.035920 0.000000 3.541200 
# 
# 
# High freq. dielectric constant tensor:
#      x y z
#    x 1.742620 0.000000 -0.000880 
#    y 0.000000 1.724290 0.000000 
#    z -0.000880 0.000000 1.749360 
# 
# From -- ./inp_files/3741.got.cif
#   From: 2010.03.12/outbox.cif.g09.slc.cpg/sg6_2_cif.got.tgz:3741.got - 2010.03.30 10:24:59.
