data_PCOD8052363
_publ_section_title
;
Structure prediction by ZEFSAII (Michael W. Deem and Ramdas Pophale) SiO2 
 PCOD8052363
Probable space group: P M
;
_chemical_formula_sum "Si O2"
_cell_formula_units_Z 14
_cell_length_a 8.200892
_cell_length_b 16.598842
_cell_length_c 9.329605
_cell_angle_alpha 90.000000
_cell_angle_beta 31.727657
_cell_angle_gamma 90.000000
_cell_volume 667.868067
_symmetry_space_group_name_H-M "P M"
_symmetry_group_IT_number 6
_symmetry_cell_setting 'monoclinic'
loop_
_space_group_symop_operation_xyz
x,y,z
x,-y,z
loop_
_atom_site_type_symbol
_atom_site_label
_atom_site_fract_x
_atom_site_fract_y
_atom_site_fract_z
Si Si1 0.875000 0.093422 0.363700
Si Si2 0.517528 0.823228 0.859817
Si Si3 0.320589 0.906675 0.565088
Si Si4 0.500561 0.328349 0.677907
Si Si5 0.381417 0.500000 0.790695
Si Si6 0.686028 0.500000 0.273733
Si Si7 0.677418 0.823669 0.069561
Si Si8 0.796751 0.328181 0.155866
O O1 0.762659 0.114058 0.608210
O O2 0.597431 0.117615 0.464860
O O3 0.963945 0.000000 0.286261
O O4 0.170925 0.144762 0.095067
O O5 0.564764 0.737275 0.750617
O O6 0.596377 0.813605 0.965705
O O7 0.023606 0.855931 0.834107
O O8 0.232445 0.000000 0.642246
O O9 0.431577 0.886198 0.321358
O O10 0.543333 0.416664 0.722049
O O11 0.162985 0.322310 0.858757
O O12 0.738038 0.315754 0.369540
O O13 0.409621 0.500000 0.595651
O O14 0.020865 0.500000 0.105229
O O15 0.669533 0.416104 0.197065
O O16 0.629542 0.738560 0.184405
#
# Coordination Sequence:
#
# PCOD8052363 Si02
#       8
#     2   2   2   2   1   1   2   2
#     4  11  24  42  62  82 108 148 195 236 277 331
#     4  12  24  37  57  87 119 149 183 229 287 338
#     4  11  24  42  62  82 108 148 195 236 277 331
#     4  10  19  35  58  81 110 147 189 229 271 327
#     4   8  16  30  53  82 105 138 187 232 267 314
#     4   8  16  30  53  82 105 138 187 232 267 314
#     4  12  24  37  57  87 119 149 183 229 287 338
#     4  10  19  35  58  81 110 147 189 229 271 327
#
# _framework density 20.962223000000002
#
# number of rings (size 3 to 8) (size 9 to 14) (size 15 to 20)
#    0.000    1.429    0.000    6.857    0.000    5.714 
#    0.000    0.714    0.000    0.000    0.000   16.000 
#    0.000    0.000    0.000    0.000    0.000    0.000 
#
# Total GULP energy -173605.828138 kJ/mol
# GULP energy per Si atom -12400.416296 kJ/mol
# Density = 2.091451 g / cm^3
# Si number density = 20.962223 Si / 1000 Ang^3
#
#
#
# Elastic Constant Matrix: (Units=GPa)
#
#
# Indices 1 2 3 4 5 6 
#
# 1 59.1035 53.5879 11.1452 0.0000 13.0479 0.0000
# 2 53.5879 148.2562 38.8360 0.0000 4.2489 0.0000
# 3 11.1452 38.8360 104.8624 0.0000 1.3768 0.0000
# 4 0.0000 0.0000 0.0000 32.8169 0.0000 -0.1712
# 5 13.0479 4.2489 1.3768 0.0000 31.6889 0.0000
# 6 0.0000 0.0000 0.0000 -0.1712 0.0000 6.6688
#
#
#
# Elastic Compliance Matrix: (Units=1/GPa)
#
#
# Indices 1 2 3 4 5 6 
#
# 1 0.028216 -0.010137 0.000891 0.000000 -0.010297 0.000000
# 2 -0.010137 0.011136 -0.003084 0.000000 0.002815 0.000000
# 3 0.000891 -0.003084 0.010589 0.000000 -0.000413 0.000000
# 4 0.000000 0.000000 0.000000 0.030476 0.000000 0.000782
# 5 -0.010297 0.002815 -0.000413 0.000000 0.035437 0.000000
# 6 0.000000 0.000000 0.000000 0.000782 0.000000 0.149971
#
#
# Mechanical properties :
#
#
# Convention : Reuss Voigt Hill
#
# Bulk Modulus (GPa) = 39.55589 57.70669 48.63129
# Shear Modulus (GPa) = 16.72726 28.14512 22.43619
#
# Velocity S-wave (km/s) = 2.82790 3.66821 3.27512
# Velocity P-wave (km/s) = 5.43818 6.74757 6.12794
#
# Compressibility (1/GPa) = 0.02528069
#
# Stress axis : x y z
#
# Youngs Moduli (GPa) = 35.44129 89.79676 94.43571
#
# Poissons Ratio (x) = 0.91026 -0.08410
# Poissons Ratio (y) = 0.35926 0.29123
# Poissons Ratio (z) = -0.03156 0.27692
#
# Static dielectric constant tensor:
#      x y z
#    x 3.251180 0.000000 -0.022230 
#    y 0.000000 4.239930 0.000000 
#    z -0.022230 0.000000 4.021190 
# 
# 
# High freq. dielectric constant tensor:
#      x y z
#    x 1.762340 0.000000 -0.003290 
#    y 0.000000 1.847210 0.000000 
#    z -0.003290 0.000000 1.846870 
# 
# From -- ./inp_files/3208.got.cif
#   From: 2010.03.12/outbox.cif.g09.slc.cpg/sg6_2_cif.got.tgz:3208.got - 2010.03.30 10:24:59.
