data_PCOD8052440
_publ_section_title
;
Structure prediction by ZEFSAII (Michael W. Deem and Ramdas Pophale) SiO2 
 PCOD8052440
Probable space group: P M
;
_chemical_formula_sum "Si O2"
_cell_formula_units_Z 16
_cell_length_a 10.096909
_cell_length_b 8.495486
_cell_length_c 14.118204
_cell_angle_alpha 90.000000
_cell_angle_beta 44.356250
_cell_angle_gamma 90.000000
_cell_volume 846.654743
_symmetry_space_group_name_H-M "P M"
_symmetry_group_IT_number 6
_symmetry_cell_setting 'monoclinic'
loop_
_space_group_symop_operation_xyz
x,y,z
x,-y,z
loop_
_atom_site_type_symbol
_atom_site_label
_atom_site_fract_x
_atom_site_fract_y
_atom_site_fract_z
Si Si1 0.199640 0.814557 0.854050
Si Si2 0.613479 0.684710 0.655568
Si Si3 0.190322 0.314438 0.359914
Si Si4 0.902514 0.814329 0.364459
Si Si5 0.931097 0.314235 0.841411
Si Si6 0.902627 0.816757 0.648871
Si Si7 0.875282 0.815795 0.164472
Si Si8 0.615687 0.685213 0.147034
O O1 0.403172 0.747709 0.776087
O O2 0.123327 0.731143 0.798054
O O3 0.208685 0.000000 0.831869
O O4 0.065516 0.770067 0.010944
O O5 0.613592 0.500000 0.636105
O O6 0.709490 0.771755 0.517486
O O7 0.728350 0.720388 0.692948
O O8 0.183640 0.500000 0.382150
O O9 0.404001 0.250041 0.240289
O O10 0.080104 0.274044 0.320195
O O11 0.096880 0.227464 0.496862
O O12 0.890028 0.752224 0.263642
O O13 0.937713 0.000000 0.351559
O O14 0.925209 0.500000 0.826445
O O15 0.924795 0.223157 0.746721
O O16 0.752270 0.251332 0.993935
O O17 0.860478 0.000000 0.656673
O O18 0.692406 0.737943 0.209828
O O19 0.840500 0.000000 0.181760
O O20 0.615555 0.500000 0.143157
#
# Coordination Sequence:
#
# PCOD8052440 Si02
#       8
#     2   2   2   2   2   2   2   2
#     4  10  20  37  57  81 110 142 179 222 267 318
#     4  11  22  37  56  80 108 143 181 223 269 318
#     4  10  20  36  55  79 108 140 177 221 266 317
#     4  10  20  36  55  79 108 140 177 221 266 317
#     4  10  20  37  57  81 110 142 179 222 267 318
#     4  11  22  37  56  80 108 143 181 223 269 318
#     4   9  20  36  56  80 108 139 176 218 264 315
#     4   9  20  36  56  80 108 139 176 218 264 315
#
# _framework density 18.897901999999998
#
# number of rings (size 3 to 8) (size 9 to 14) (size 15 to 20)
#    0.000    2.000    0.000    5.250    0.000    5.000 
#    0.000    5.000    0.000    0.000    0.000    0.000 
#    0.000    0.000    0.000    0.000    0.000    0.000 
#
# Total GULP energy -198454.827054 kJ/mol
# GULP energy per Si atom -12403.426691 kJ/mol
# Density = 1.885489 g / cm^3
# Si number density = 18.897902 Si / 1000 Ang^3
#
#
#
# Elastic Constant Matrix: (Units=GPa)
#
#
# Indices 1 2 3 4 5 6 
#
# 1 73.8733 8.5176 45.1110 0.0000 8.1359 0.0000
# 2 8.5176 46.8519 15.7587 0.0000 -2.2813 0.0000
# 3 45.1110 15.7587 57.7781 0.0000 5.8186 0.0000
# 4 0.0000 0.0000 0.0000 21.5085 0.0000 -2.0680
# 5 8.1359 -2.2813 5.8186 0.0000 42.9129 0.0000
# 6 0.0000 0.0000 0.0000 -2.0680 0.0000 39.1943
#
#
#
# Elastic Compliance Matrix: (Units=1/GPa)
#
#
# Indices 1 2 3 4 5 6 
#
# 1 0.026272 0.002153 -0.020894 0.000000 -0.002033 0.000000
# 2 0.002153 0.023873 -0.008393 0.000000 0.001999 0.000000
# 3 -0.020894 -0.008393 0.036049 0.000000 -0.001373 0.000000
# 4 0.000000 0.000000 0.000000 0.046730 0.000000 0.002466
# 5 -0.002033 0.001999 -0.001373 0.000000 0.023981 0.000000
# 6 0.000000 0.000000 0.000000 0.002466 0.000000 0.025644
#
#
# Mechanical properties :
#
#
# Convention : Reuss Voigt Hill
#
# Bulk Modulus (GPa) = 31.32504 35.25310 33.28907
# Shear Modulus (GPa) = 20.20536 27.99753 24.10145
#
# Velocity S-wave (km/s) = 3.27339 3.85322 3.57508
# Velocity P-wave (km/s) = 5.55866 6.20415 5.89025
#
# Compressibility (1/GPa) = 0.03192334
#
# Stress axis : x y z
#
# Youngs Moduli (GPa) = 38.06394 41.88840 27.74036
#
# Poissons Ratio (x) = -0.09017 0.57961
# Poissons Ratio (y) = -0.08194 0.23283
# Poissons Ratio (z) = 0.79532 0.35158
#
# Static dielectric constant tensor:
#      x y z
#    x 3.567210 0.000000 -0.069580 
#    y 0.000000 3.395820 0.000000 
#    z -0.069580 0.000000 3.664130 
# 
# 
# High freq. dielectric constant tensor:
#      x y z
#    x 1.739230 0.000000 -0.000770 
#    y 0.000000 1.742410 0.000000 
#    z -0.000770 0.000000 1.733420 
# 
# From -- ./inp_files/5478.got.cif
#   From: 2010.03.12/outbox.cif.g09.slc.cpg/sg6_3_cif.got.tgz:5478.got - 2010.03.30 10:24:59.
