data_PCOD8052041
_publ_section_title
;
Structure prediction by ZEFSAII (Michael W. Deem and Ramdas Pophale) SiO2 
 PCOD8052041
Probable space group: C 2
;
_chemical_formula_sum "Si O2"
_cell_formula_units_Z 20
_cell_length_a 16.932259
_cell_length_b 5.238683
_cell_length_c 8.454562
_cell_angle_alpha 90.000000
_cell_angle_beta 93.004731
_cell_angle_gamma 90.000000
_cell_volume 748.911779
_symmetry_space_group_name_H-M "C 2"
_symmetry_group_IT_number 5
_symmetry_cell_setting 'monoclinic'
loop_
_space_group_symop_operation_xyz
x,y,z
-x,y,-z
1/2+x,1/2+y,z
1/2-x,1/2+y,-z
loop_
_atom_site_type_symbol
_atom_site_label
_atom_site_fract_x
_atom_site_fract_y
_atom_site_fract_z
Si Si1 0.903762 0.462730 0.399523
Si Si2 0.957840 0.963696 0.227834
Si Si3 0.636371 0.729624 0.036117
Si Si4 0.097247 0.633958 0.255931
Si Si5 0.250937 0.900452 0.230910
O O1 0.924269 0.695867 0.286621
O O2 0.933454 0.516678 0.580783
O O3 0.807617 0.446333 0.387828
O O4 0.942213 0.196793 0.345584
O O5 0.052410 0.906486 0.221033
O O6 0.917732 0.014241 0.053303
O O7 0.694302 0.633951 0.180681
O O8 0.577577 0.935866 0.112095
O O9 0.691309 0.851841 0.909034
O O10 0.192074 0.668313 0.266907
#
# Coordination Sequence:
#
# PCOD8052041 Si02
#       5
#     4   4   4   4   4
#     4  11  29  53  84 117 169 220 277 342 418 497
#     4  11  29  56  79 117 171 220 275 344 413 494
#     4  11  25  51  81 122 166 217 275 347 411 497
#     4  12  29  50  85 123 165 221 282 339 418 500
#     4  11  25  48  81 116 166 209 274 344 417 487
#
# _framework density 26.705416
#
# number of rings (size 3 to 8) (size 9 to 14) (size 15 to 20)
#    0.000    0.800    2.000    1.800   14.000    2.400 
#    3.600    0.000    0.000    0.000    0.000    0.000 
#    0.000    0.000    0.000    0.000    0.000    0.000 
#
# Total GULP energy -123996.796004 kJ/mol
# GULP energy per Si atom -12399.679600 kJ/mol
# Density = 2.664463 g / cm^3
# Si number density = 26.705416 Si / 1000 Ang^3
#
#
#
# Elastic Constant Matrix: (Units=GPa)
#
#
# Indices 1 2 3 4 5 6 
#
# 1 146.9684 57.6171 57.7930 0.0000 13.6101 0.0000
# 2 57.6171 165.9619 62.4013 0.0000 8.6271 0.0000
# 3 57.7930 62.4013 111.7492 0.0000 -1.3241 0.0000
# 4 0.0000 0.0000 0.0000 47.3878 0.0000 0.5104
# 5 13.6101 8.6271 -1.3241 0.0000 49.4846 0.0000
# 6 0.0000 0.0000 0.0000 0.5104 0.0000 48.2832
#
#
#
# Elastic Compliance Matrix: (Units=1/GPa)
#
#
# Indices 1 2 3 4 5 6 
#
# 1 0.009175 -0.001606 -0.003876 0.000000 -0.002347 0.000000
# 2 -0.001606 0.008012 -0.003656 0.000000 -0.001053 0.000000
# 3 -0.003876 -0.003656 0.013019 0.000000 0.002052 0.000000
# 4 0.000000 0.000000 0.000000 0.021105 0.000000 -0.000223
# 5 -0.002347 -0.001053 0.002052 0.000000 0.021092 0.000000
# 6 0.000000 0.000000 0.000000 -0.000223 0.000000 0.020713
#
#
# Mechanical properties :
#
#
# Convention : Reuss Voigt Hill
#
# Bulk Modulus (GPa) = 83.81958 86.70027 85.25992
# Shear Modulus (GPa) = 43.33832 45.48900 44.41366
#
# Velocity S-wave (km/s) = 4.03281 4.13166 4.08253
# Velocity P-wave (km/s) = 7.28969 7.43618 7.36330
#
# Compressibility (1/GPa) = 0.01193039
#
# Stress axis : x y z
#
# Youngs Moduli (GPa) = 108.98665 124.80575 76.80964
#
# Poissons Ratio (x) = 0.20043 0.29774
# Poissons Ratio (y) = 0.17503 0.28083
# Poissons Ratio (z) = 0.42246 0.45631
#
# Static dielectric constant tensor:
#      x y z
#    x 5.480220 0.000000 0.219240 
#    y 0.000000 4.769420 0.000000 
#    z 0.219240 0.000000 4.831590 
# 
# 
# High freq. dielectric constant tensor:
#      x y z
#    x 2.101170 0.000000 -0.000430 
#    y 0.000000 2.074760 0.000000 
#    z -0.000430 0.000000 2.072110 
# 
# From -- ./inp_files/26015.got.cif
#   From: 2010.03.12/outbox.cif.g09.slc.cpg/sg5_14_cif.got.tgz:26015.got - 2010.03.31 09:47:26.
