data_PCOD8052774
_publ_section_title
;
Structure prediction by ZEFSAII (Michael W. Deem and Ramdas Pophale) SiO2 
 PCOD8052774
Probable space group: C M
;
_chemical_formula_sum "Si O2"
_cell_formula_units_Z 32
_cell_length_a 18.373520
_cell_length_b 13.242835
_cell_length_c 18.582953
_cell_angle_alpha 90.000000
_cell_angle_beta 23.975484
_cell_angle_gamma 90.000000
_cell_volume 1837.315529
_symmetry_space_group_name_H-M "C M"
_symmetry_group_IT_number 8
_symmetry_cell_setting 'monoclinic'
loop_
_space_group_symop_operation_xyz
x,y,z
x,-y,z
1/2+x,1/2+y,z
1/2+x,1/2-y,z
loop_
_atom_site_type_symbol
_atom_site_label
_atom_site_fract_x
_atom_site_fract_y
_atom_site_fract_z
Si Si1 0.081290 0.613451 0.832050
Si Si2 0.236351 0.614125 0.413794
Si Si3 0.970153 0.380818 0.782293
Si Si4 0.588218 0.306496 0.161398
Si Si5 0.297367 0.380117 0.767575
Si Si6 0.175230 0.114889 0.235852
Si Si7 0.522653 0.884939 0.138197
Si Si8 0.664978 0.692723 0.399276
O O1 0.149852 0.500000 0.759022
O O2 0.215725 0.667075 0.766881
O O3 0.071532 0.664712 0.761700
O O4 0.887968 0.614792 0.043504
O O5 0.206053 0.500000 0.414072
O O6 0.434181 0.622595 0.267837
O O7 0.212920 0.689342 0.367546
O O8 0.088026 0.644813 0.606836
O O9 0.941705 0.500000 0.819543
O O10 0.773872 0.332340 0.953555
O O11 0.596113 0.325171 0.239406
O O12 0.537988 0.189085 0.193033
O O13 0.303474 0.500000 0.756313
O O14 0.494129 0.335594 0.602581
O O15 0.172914 0.348483 0.946299
O O16 0.112151 0.172264 0.364481
O O17 0.101172 0.000000 0.302350
O O18 0.328908 0.877320 0.275952
O O19 0.552655 0.000000 0.136724
#
# Coordination Sequence:
#
# PCOD8052774 Si02
#       8
#     4   4   4   4   4   4   4   4
#     4   8  15  27  46  73 102 126 152 198 254 293
#     4  10  21  35  50  72 101 134 170 206 245 299
#     4   9  17  31  50  74 102 128 159 207 253 291
#     4  10  20  33  53  76  99 133 168 201 254 297
#     4  10  18  29  49  76 101 130 162 200 251 298
#     4  10  18  32  52  77 103 126 159 210 255 292
#     4  10  20  35  50  72 105 134 166 207 244 294
#     4  11  21  32  51  76 101 133 167 203 255 296
#
# _framework density 17.416715
#
# number of rings (size 3 to 8) (size 9 to 14) (size 15 to 20)
#    0.000    2.250    1.250    3.750    1.750    0.000 
#    0.000    0.625    0.000    0.000    0.000    0.875 
#    0.000    0.000    0.000    0.000    0.000    0.000 
#
# Total GULP energy -198349.062994 kJ/mol
# GULP energy per Si atom -12396.816437 kJ/mol
# Density = 1.737707 g / cm^3
# Si number density = 17.416715 Si / 1000 Ang^3
#
#
#
# Elastic Constant Matrix: (Units=GPa)
#
#
# Indices 1 2 3 4 5 6 
#
# 1 91.9607 51.0124 32.8854 -0.0051 1.2296 -0.0016
# 2 51.0124 79.6057 26.6058 0.0021 9.0898 -0.0036
# 3 32.8854 26.6058 87.0112 0.0134 -7.8935 -0.0095
# 4 -0.0051 0.0021 0.0134 19.0884 0.0102 6.5358
# 5 1.2296 9.0898 -7.8935 0.0102 19.4155 -0.0016
# 6 -0.0016 -0.0036 -0.0095 6.5358 -0.0016 15.6595
#
#
#
# Elastic Compliance Matrix: (Units=1/GPa)
#
#
# Indices 1 2 3 4 5 6 
#
# 1 0.017945 -0.010692 -0.003283 0.000009 0.002534 -0.000006
# 2 -0.010692 0.021899 -0.003659 0.000003 -0.011063 -0.000001
# 3 -0.003283 -0.003659 0.014564 -0.000021 0.007842 0.000017
# 4 0.000009 0.000003 -0.000021 0.061123 -0.000045 -0.025511
# 5 0.002534 -0.011063 0.007842 -0.000045 0.059713 0.000027
# 6 -0.000006 -0.000001 0.000017 -0.025511 0.000027 0.074506
#
#
# Mechanical properties :
#
#
# Convention : Reuss Voigt Hill
#
# Bulk Modulus (GPa) = 52.24438 53.28722 52.76580
# Shear Modulus (GPa) = 17.15865 20.70428 18.93147
#
# Velocity S-wave (km/s) = 3.14217 3.45158 3.30050
# Velocity P-wave (km/s) = 6.57466 6.82249 6.69972
#
# Compressibility (1/GPa) = 0.01914081
#
# Stress axis : x y z
#
# Youngs Moduli (GPa) = 55.72505 45.66325 68.66283
#
# Poissons Ratio (x) = 0.48821 0.22543
# Poissons Ratio (y) = 0.59579 0.25124
# Poissons Ratio (z) = 0.18296 0.16709
#
# Static dielectric constant tensor:
#      x y z
#    x 3.211420 0.000000 -0.060400 
#    y 0.000000 2.986550 0.000010 
#    z -0.060400 0.000010 3.343260 
# 
# 
# High freq. dielectric constant tensor:
#      x y z
#    x 1.663280 0.000000 -0.007730 
#    y 0.000000 1.640410 0.000000 
#    z -0.007730 0.000000 1.686410 
# 
# From -- ./inp_files/16998.got.cif
#   From: 2010.03.12/outbox.cif.g09.slc.cpg/sg8_9_cif.got.tgz:16998.got - 2010.03.31 10:45:26.
