data_PCOD8052627
_publ_section_title
;
Structure prediction by ZEFSAII (Michael W. Deem and Ramdas Pophale) SiO2 
 PCOD8052627
Probable space group: P C
;
_chemical_formula_sum "Si O2"
_cell_formula_units_Z 10
_cell_length_a 7.465087
_cell_length_b 12.416850
_cell_length_c 5.264899
_cell_angle_alpha 90.000000
_cell_angle_beta 118.637673
_cell_angle_gamma 90.000000
_cell_volume 428.318305
_symmetry_space_group_name_H-M "P C"
_symmetry_group_IT_number 7
_symmetry_cell_setting 'monoclinic'
loop_
_space_group_symop_operation_xyz
x,y,z
x,-y,1/2+z
loop_
_atom_site_type_symbol
_atom_site_label
_atom_site_fract_x
_atom_site_fract_y
_atom_site_fract_z
Si Si1 0.725410 0.930887 0.219570
Si Si2 0.478987 0.465389 0.579270
Si Si3 0.001058 0.272397 0.927538
Si Si4 0.801970 0.350591 0.306844
Si Si5 0.466674 0.243602 0.357103
O O1 0.904961 0.844497 0.314494
O O2 0.742012 0.980266 0.510646
O O3 0.508584 0.869169 0.028508
O O4 0.350554 0.499873 0.240245
O O5 0.691532 0.533136 0.709885
O O6 0.523906 0.338277 0.601500
O O7 0.240909 0.252047 0.101745
O O8 0.928286 0.326506 0.139570
O O9 0.953443 0.348320 0.653210
O O10 0.623632 0.260204 0.228154
#
# Coordination Sequence:
#
# PCOD8052627 Si02
#       5
#     2   2   2   2   2
#     4  11  24  43  65  92 127 166 213 273 328 373
#     4  10  20  39  63  90 131 167 200 253 310 372
#     4  11  24  43  70  96 128 171 218 260 319 385
#     4  10  22  43  64  96 136 166 204 263 316 381
#     4  10  24  44  68  96 128 170 217 265 315 381
#
# _framework density 23.347123
#
# number of rings (size 3 to 8) (size 9 to 14) (size 15 to 20)
#    0.000    1.600    0.000    6.000    0.000   11.200 
#    0.000   32.000    0.000    0.000    0.000    0.000 
#    0.000    0.000    0.000    0.000    0.000    0.000 
#
# Total GULP energy -123901.589134 kJ/mol
# GULP energy per Si atom -12390.158913 kJ/mol
# Density = 2.329398 g / cm^3
# Si number density = 23.347123 Si / 1000 Ang^3
#
#
#
# Elastic Constant Matrix: (Units=GPa)
#
#
# Indices 1 2 3 4 5 6 
#
# 1 77.5313 -3.8568 62.8339 0.0000 6.8438 0.0000
# 2 -3.8568 96.2210 20.9939 0.0000 1.0130 0.0000
# 3 62.8339 20.9939 139.4429 0.0000 -11.5406 0.0000
# 4 0.0000 0.0000 0.0000 46.1075 0.0000 -7.0430
# 5 6.8438 1.0130 -11.5406 0.0000 63.6493 0.0000
# 6 0.0000 0.0000 0.0000 -7.0430 0.0000 19.4788
#
#
#
# Elastic Compliance Matrix: (Units=1/GPa)
#
#
# Indices 1 2 3 4 5 6 
#
# 1 0.022301 0.003322 -0.010916 0.000000 -0.004430 0.000000
# 2 0.003322 0.011255 -0.003285 0.000000 -0.001132 0.000000
# 3 -0.010916 -0.003285 0.012879 0.000000 0.003561 0.000000
# 4 0.000000 0.000000 0.000000 0.022956 0.000000 0.008300
# 5 -0.004430 -0.001132 0.003561 0.000000 0.016851 0.000000
# 6 0.000000 0.000000 0.000000 0.008300 0.000000 0.054339
#
#
# Mechanical properties :
#
#
# Convention : Reuss Voigt Hill
#
# Bulk Modulus (GPa) = 40.52282 52.57080 46.54681
# Shear Modulus (GPa) = 29.31447 41.39539 35.35493
#
# Velocity S-wave (km/s) = 3.54728 4.21532 3.89564
# Velocity P-wave (km/s) = 5.84568 6.80131 6.34152
#
# Compressibility (1/GPa) = 0.02467745
#
# Stress axis : x y z
#
# Youngs Moduli (GPa) = 44.84159 88.85277 77.64346
#
# Poissons Ratio (x) = -0.29518 0.84753
# Poissons Ratio (y) = -0.14897 0.25507
# Poissons Ratio (z) = 0.48948 0.29189
#
# Static dielectric constant tensor:
#      x y z
#    x 4.124740 0.000000 -0.412030 
#    y 0.000000 4.334860 0.000000 
#    z -0.412030 0.000000 5.144310 
# 
# 
# High freq. dielectric constant tensor:
#      x y z
#    x 1.899140 0.000000 -0.017030 
#    y 0.000000 1.924170 0.000000 
#    z -0.017030 0.000000 1.947400 
# 
# From -- ./inp_files/567.got.cif
#   From: 2010.03.12/outbox.cif.g09.slc.cpg/sg7_cif.got.tgz:567.got - 2010.03.30 08:40:41.
