data_PCOD8052578
_publ_section_title
;
Structure prediction by ZEFSAII (Michael W. Deem and Ramdas Pophale) SiO2 
 PCOD8052578
Probable space group: P C
;
_chemical_formula_sum "Si O2"
_cell_formula_units_Z 14
_cell_length_a 15.700670
_cell_length_b 8.578884
_cell_length_c 5.312717
_cell_angle_alpha 90.000000
_cell_angle_beta 110.109490
_cell_angle_gamma 90.000000
_cell_volume 671.967882
_symmetry_space_group_name_H-M "P C"
_symmetry_group_IT_number 7
_symmetry_cell_setting 'monoclinic'
loop_
_space_group_symop_operation_xyz
x,y,z
x,-y,1/2+z
loop_
_atom_site_type_symbol
_atom_site_label
_atom_site_fract_x
_atom_site_fract_y
_atom_site_fract_z
Si Si1 0.541650 0.560019 0.174360
Si Si2 0.264419 0.099895 0.912592
Si Si3 0.340023 0.571031 0.470198
Si Si4 0.871539 0.813739 0.011809
Si Si5 0.796993 0.160389 0.936089
Si Si6 0.062403 0.095838 0.665564
Si Si7 0.584836 0.093389 0.717956
O O1 0.594838 0.499734 0.478210
O O2 0.529663 0.745600 0.162608
O O3 0.445123 0.474375 0.074992
O O4 0.333631 0.242631 0.966326
O O5 0.162103 0.170808 0.799222
O O6 0.282059 0.987002 0.694155
O O7 0.292447 0.498567 0.670849
O O8 0.824376 0.741832 0.713830
O O9 0.852559 0.999435 0.990672
O O10 0.826074 0.741393 0.217271
O O11 0.980036 0.781641 0.121016
O O12 0.690998 0.127997 0.825286
O O13 0.052406 0.034759 0.370805
O O14 0.556591 0.000311 0.438943
#
# Coordination Sequence:
#
# PCOD8052578 Si02
#       7
#     2   2   2   2   2   2   2
#     4  10  23  43  59  80 113 155 190 222 292 360
#     4  10  21  35  57  92 115 138 190 248 277 317
#     4  10  21  42  63  79 112 155 191 217 292 365
#     4  10  14  25  41  71 118 145 162 211 293 333
#     4  10  16  25  44  74 113 142 171 218 284 324
#     4  10  16  25  44  73 116 137 170 217 284 316
#     4  12  21  35  58  89 115 138 196 249 276 315
#
# _framework density 20.834330000000001
#
# number of rings (size 3 to 8) (size 9 to 14) (size 15 to 20)
#    0.000    1.714    5.714    1.714    0.000    0.000 
#    0.000   17.143    0.000    0.000    0.000    6.000 
#    0.000    0.000    0.000    0.000    0.000    0.000 
#
# Total GULP energy -173479.764251 kJ/mol
# GULP energy per Si atom -12391.411732 kJ/mol
# Density = 2.078691 g / cm^3
# Si number density = 20.834330 Si / 1000 Ang^3
#
#
#
# Elastic Constant Matrix: (Units=GPa)
#
#
# Indices 1 2 3 4 5 6 
#
# 1 56.3885 28.1651 35.6379 0.0000 -0.4663 0.0000
# 2 28.1651 76.2132 32.7925 0.0000 -4.8182 0.0000
# 3 35.6379 32.7925 164.6296 0.0000 -55.5995 0.0000
# 4 0.0000 0.0000 0.0000 22.8198 0.0000 -7.0785
# 5 -0.4663 -4.8182 -55.5995 0.0000 35.6531 0.0000
# 6 0.0000 0.0000 0.0000 -7.0785 0.0000 8.2568
#
#
#
# Elastic Compliance Matrix: (Units=1/GPa)
#
#
# Indices 1 2 3 4 5 6 
#
# 1 0.027350 -0.006812 -0.010043 0.000000 -0.016225 0.000000
# 2 -0.006812 0.016542 -0.002314 0.000000 -0.001463 0.000000
# 3 -0.010043 -0.002314 0.018083 0.000000 0.027756 0.000000
# 4 0.000000 0.000000 0.000000 0.059696 0.000000 0.051176
# 5 -0.016225 -0.001463 0.027756 0.000000 0.070922 0.000000
# 6 0.000000 0.000000 0.000000 0.051176 0.000000 0.164984
#
#
# Mechanical properties :
#
#
# Convention : Reuss Voigt Hill
#
# Bulk Modulus (GPa) = 42.30836 54.49136 48.39986
# Shear Modulus (GPa) = 12.38254 26.72167 19.55210
#
# Velocity S-wave (km/s) = 2.44054 3.58520 3.06675
# Velocity P-wave (km/s) = 5.31910 6.58404 5.98508
#
# Compressibility (1/GPa) = 0.02363599
#
# Stress axis : x y z
#
# Youngs Moduli (GPa) = 36.56361 60.45309 55.29997
#
# Poissons Ratio (x) = 0.41179 0.55539
# Poissons Ratio (y) = 0.24906 0.12799
# Poissons Ratio (z) = 0.36721 0.13992
#
# Static dielectric constant tensor:
#      x y z
#    x 4.157630 0.000000 -1.165960 
#    y 0.000000 3.217880 0.000000 
#    z -1.165960 0.000000 6.578700 
# 
# 
# High freq. dielectric constant tensor:
#      x y z
#    x 1.808850 0.000000 -0.022810 
#    y 0.000000 1.744640 0.000000 
#    z -0.022810 0.000000 1.854770 
# 
# From -- ./inp_files/1256.got.cif
#   From: 2010.03.12/outbox.cif.g09.slc.cpg/sg7_cif.got.tgz:1256.got - 2010.03.30 08:40:41.
