data_PCOD8052580
_publ_section_title
;
Structure prediction by ZEFSAII (Michael W. Deem and Ramdas Pophale) SiO2 
 PCOD8052580
Probable space group: P C
;
_chemical_formula_sum "Si O2"
_cell_formula_units_Z 16
_cell_length_a 18.197385
_cell_length_b 7.147138
_cell_length_c 5.331687
_cell_angle_alpha 90.000000
_cell_angle_beta 98.287604
_cell_angle_gamma 90.000000
_cell_volume 686.193518
_symmetry_space_group_name_H-M "P C"
_symmetry_group_IT_number 7
_symmetry_cell_setting 'monoclinic'
loop_
_space_group_symop_operation_xyz
x,y,z
x,-y,1/2+z
loop_
_atom_site_type_symbol
_atom_site_label
_atom_site_fract_x
_atom_site_fract_y
_atom_site_fract_z
Si Si1 0.700200 0.700932 0.739420
Si Si2 0.874794 0.297747 0.312660
Si Si3 0.473871 0.622853 0.127736
Si Si4 0.936811 0.712093 0.343243
Si Si5 0.638206 0.716032 0.208869
Si Si6 0.257011 0.789643 0.546832
Si Si7 0.319372 0.210277 0.577530
Si Si8 0.089816 0.882823 0.473287
O O1 0.787657 0.671502 0.795415
O O2 0.675688 0.810563 0.474009
O O3 0.659442 0.502099 0.709044
O O4 0.671464 0.811738 0.972496
O O5 0.915593 0.496181 0.307710
O O6 0.906717 0.188440 0.572209
O O7 0.896096 0.191464 0.064069
O O8 0.468847 0.486163 0.362902
O O9 0.549819 0.740416 0.175428
O O10 0.408273 0.775537 0.108282
O O11 0.025363 0.729956 0.407901
O O12 0.290192 0.687177 0.316908
O O13 0.168541 0.782276 0.485479
O O14 0.290844 0.998239 0.577240
O O15 0.283641 0.687863 0.815641
O O16 0.082320 0.966356 0.748075
#
# Coordination Sequence:
#
# PCOD8052580 Si02
#       8
#     2   2   2   2   2   2   2   2
#     4  10  16  28  51  69 111 142 186 206 233 317
#     4  10  19  35  52  83 117 144 172 218 266 336
#     4  12  21  34  50  81 129 142 161 221 281 338
#     4  10  20  32  54  80 115 139 173 223 280 314
#     4  10  16  27  43  75 107 144 176 203 246 309
#     4  10  19  40  59  79  92 136 202 236 254 303
#     4  10  20  35  61  76 104 139 180 234 267 309
#     4  12  21  37  62  81 105 136 184 245 263 310
#
# _framework density 23.317041
#
# number of rings (size 3 to 8) (size 9 to 14) (size 15 to 20)
#    0.000    1.500    5.000    5.250    0.000    0.000 
#    0.000    0.000   16.500    0.000    0.000    0.000 
#  127.500    0.000    0.000    0.000    0.000    0.000 
#
# Total GULP energy -198281.766821 kJ/mol
# GULP energy per Si atom -12392.610426 kJ/mol
# Density = 2.326397 g / cm^3
# Si number density = 23.317041 Si / 1000 Ang^3
#
#
#
# Elastic Constant Matrix: (Units=GPa)
#
#
# Indices 1 2 3 4 5 6 
#
# 1 195.0427 15.9300 35.4592 0.0000 13.4222 0.0000
# 2 15.9300 19.5281 -10.3784 0.0000 3.3418 0.0000
# 3 35.4592 -10.3784 218.9755 0.0000 -20.9143 0.0000
# 4 0.0000 0.0000 0.0000 -2.9814 0.0000 7.5973
# 5 13.4222 3.3418 -20.9143 0.0000 51.0413 0.0000
# 6 0.0000 0.0000 0.0000 7.5973 0.0000 30.6635
#
#
#
# Elastic Compliance Matrix: (Units=1/GPa)
#
#
# Indices 1 2 3 4 5 6 
#
# 1 0.005931 -0.005267 -0.001380 0.000000 -0.001780 0.000000
# 2 -0.005267 0.057521 0.003488 0.000000 -0.000952 0.000000
# 3 -0.001380 0.003488 0.005171 0.000000 0.002253 0.000000
# 4 0.000000 0.000000 0.000000 -0.205603 0.000000 0.050941
# 5 -0.001780 -0.000952 0.002253 0.000000 0.021046 0.000000
# 6 0.000000 0.000000 0.000000 0.050941 0.000000 0.019991
#
#
# Mechanical properties :
#
#
# Convention : Reuss Voigt Hill
#
# Bulk Modulus (GPa) = 16.04991 57.28531 36.66761
# Shear Modulus (GPa) = -72.61261 41.91369 -15.34946
#
# Velocity S-wave (km/s) = -5.58651 4.24436 -2.56851
# Velocity P-wave (km/s) = 5.89184 6.97429 2.63885
#
# Compressibility (1/GPa) = 0.06230565
#
# Stress axis : x y z
#
# Youngs Moduli (GPa) = 168.61613 17.38486 193.39680
#
# Poissons Ratio (x) = 0.09156 0.26689
# Poissons Ratio (y) = 0.88805 -0.67460
# Poissons Ratio (z) = 0.23269 -0.06064
#
# Static dielectric constant tensor:
#      x y z
#    x 4.415790 0.000000 -0.769550 
#    y 0.000000 3.108950 0.000000 
#    z -0.769550 0.000000 8.502910 
# 
# 
# High freq. dielectric constant tensor:
#      x y z
#    x 1.932670 0.000000 -0.007280 
#    y 0.000000 1.855180 0.000000 
#    z -0.007280 0.000000 1.972600 
# 
# From -- ./inp_files/1276.got.cif
#   From: 2010.03.12/outbox.cif.g09.slc.cpg/sg7_cif.got.tgz:1276.got - 2010.03.30 08:40:41.
