data_PCOD8052028
_publ_section_title
;
Structure prediction by ZEFSAII (Michael W. Deem and Ramdas Pophale) SiO2 
 PCOD8052028
Probable space group: C 2
;
_chemical_formula_sum "Si O2"
_cell_formula_units_Z 24
_cell_length_a 9.742149
_cell_length_b 9.663927
_cell_length_c 12.231371
_cell_angle_alpha 90.000000
_cell_angle_beta 91.611433
_cell_angle_gamma 90.000000
_cell_volume 1151.096571
_symmetry_space_group_name_H-M "C 2"
_symmetry_group_IT_number 5
_symmetry_cell_setting 'monoclinic'
loop_
_space_group_symop_operation_xyz
x,y,z
-x,y,-z
1/2+x,1/2+y,z
1/2-x,1/2+y,-z
loop_
_atom_site_type_symbol
_atom_site_label
_atom_site_fract_x
_atom_site_fract_y
_atom_site_fract_z
Si Si1 0.155027 0.709820 0.039408
Si Si2 0.865336 0.024954 0.928124
Si Si3 0.633733 0.329674 0.447875
Si Si4 0.103277 0.363808 0.405474
Si Si5 0.028727 0.074295 0.307767
Si Si6 0.286927 0.105200 0.720332
O O1 0.178744 0.635175 0.154379
O O2 0.191113 0.872254 0.045109
O O3 0.250971 0.639252 0.951277
O O4 0.000000 0.687349 0.000000
O O5 0.896264 0.032943 0.801292
O O6 0.000000 0.061466 0.000000
O O7 0.500000 0.258288 0.500000
O O8 0.746052 0.339882 0.544120
O O9 0.591635 0.482312 0.406059
O O10 0.693005 0.243635 0.348696
O O11 0.052273 0.233099 0.336686
O O12 0.107319 0.490097 0.320556
O O13 0.000000 0.401996 0.500000
O O14 0.866983 0.047012 0.292902
#
# Coordination Sequence:
#
# PCOD8052028 Si02
#       6
#     4   4   4   4   4   4
#     4  11  27  45  71 106 135 173 236 284 344 411
#     4  11  25  46  73  99 137 181 225 286 349 408
#     4  12  24  45  71  98 141 184 226 285 337 401
#     4  12  26  43  70 105 139 181 235 278 337 404
#     4  12  25  45  71 102 139 182 231 280 345 408
#     4  12  25  46  70 103 139 181 230 283 344 408
#
# _framework density 20.849684
#
# number of rings (size 3 to 8) (size 9 to 14) (size 15 to 20)
#    0.000    0.333    6.667    2.000    2.333    4.667 
#    0.000    0.000    0.000    0.000    0.000    0.000 
#    0.000    0.000    0.000    0.000    0.000    0.000 
#
# Total GULP energy -148889.579726 kJ/mol
# GULP energy per Si atom -12407.464977 kJ/mol
# Density = 2.080223 g / cm^3
# Si number density = 20.849684 Si / 1000 Ang^3
#
#
#
# Elastic Constant Matrix: (Units=GPa)
#
#
# Indices 1 2 3 4 5 6 
#
# 1 107.8787 37.4294 31.1007 0.0000 -19.6557 0.0000
# 2 37.4294 112.8968 12.5054 0.0000 -13.3114 0.0000
# 3 31.1007 12.5054 71.8535 0.0000 -8.2109 0.0000
# 4 0.0000 0.0000 0.0000 81.8203 0.0000 19.4205
# 5 -19.6557 -13.3114 -8.2109 0.0000 37.1486 0.0000
# 6 0.0000 0.0000 0.0000 19.4205 0.0000 47.7233
#
#
#
# Elastic Compliance Matrix: (Units=1/GPa)
#
#
# Indices 1 2 3 4 5 6 
#
# 1 0.012412 -0.003106 -0.004318 0.000000 0.004500 0.000000
# 2 -0.003106 0.010139 -0.000198 0.000000 0.001946 0.000000
# 3 -0.004318 -0.000198 0.015954 0.000000 0.001171 0.000000
# 4 0.000000 0.000000 0.000000 0.013529 0.000000 -0.005505
# 5 0.004500 0.001946 0.001171 0.000000 0.030256 0.000000
# 6 0.000000 0.000000 0.000000 -0.005505 0.000000 0.023194
#
#
# Mechanical properties :
#
#
# Convention : Reuss Voigt Hill
#
# Bulk Modulus (GPa) = 42.98837 50.52222 46.75530
# Shear Modulus (GPa) = 38.91624 47.44468 43.18046
#
# Velocity S-wave (km/s) = 4.32500 4.77546 4.55580
# Velocity P-wave (km/s) = 6.75306 7.39533 7.08148
#
# Compressibility (1/GPa) = 0.02326211
#
# Stress axis : x y z
#
# Youngs Moduli (GPa) = 80.56700 98.63110 62.67931
#
# Poissons Ratio (x) = 0.30637 0.27062
# Poissons Ratio (y) = 0.25026 0.01239
# Poissons Ratio (z) = 0.34785 0.01950
#
# Static dielectric constant tensor:
#      x y z
#    x 3.845610 0.000000 -0.089530 
#    y 0.000000 3.916240 0.000000 
#    z -0.089530 0.000000 3.900980 
# 
# 
# High freq. dielectric constant tensor:
#      x y z
#    x 1.825550 0.000000 -0.006520 
#    y 0.000000 1.823180 0.000000 
#    z -0.006520 0.000000 1.830160 
# 
# From -- ./inp_files/38331.got.cif
#   From: 2010.03.12/outbox.cif.g09.slc.cpg/sg5_20_cif.got.tgz:38331.got - 2010.03.31 09:47:26.
