data_PCOD8052877
_publ_section_title
;
Structure prediction by ZEFSAII (Michael W. Deem and Ramdas Pophale) SiO2 
 PCOD8052877
Probable space group: C M
;
_chemical_formula_sum "Si O2"
_cell_formula_units_Z 32
_cell_length_a 13.831716
_cell_length_b 14.014278
_cell_length_c 9.484550
_cell_angle_alpha 90.000000
_cell_angle_beta 119.743871
_cell_angle_gamma 90.000000
_cell_volume 1596.280688
_symmetry_space_group_name_H-M "C M"
_symmetry_group_IT_number 8
_symmetry_cell_setting 'monoclinic'
loop_
_space_group_symop_operation_xyz
x,y,z
x,-y,z
1/2+x,1/2+y,z
1/2+x,1/2-y,z
loop_
_atom_site_type_symbol
_atom_site_label
_atom_site_fract_x
_atom_site_fract_y
_atom_site_fract_z
Si Si1 0.296050 0.609437 0.739500
Si Si2 0.377231 0.394367 0.503379
Si Si3 0.130137 0.785532 0.382337
Si Si4 0.994438 0.111212 0.064166
Si Si5 0.132225 0.894860 0.667297
Si Si6 0.062963 0.389799 0.482521
Si Si7 0.202428 0.889116 0.020255
Si Si8 0.837159 0.291856 0.340165
O O1 0.334127 0.500000 0.751345
O O2 0.320210 0.653175 0.601103
O O3 0.163126 0.618878 0.671940
O O4 0.374567 0.651256 0.920279
O O5 0.328912 0.500000 0.431343
O O6 0.506598 0.401653 0.629465
O O7 0.356221 0.322463 0.357314
O O8 0.024160 0.834998 0.230957
O O9 0.148203 0.819381 0.555567
O O10 0.099606 0.672671 0.371086
O O11 0.239491 0.817141 0.378086
O O12 0.084776 0.134165 0.008738
O O13 0.989471 0.000000 0.098933
O O14 0.171385 0.000000 0.644262
O O15 0.201649 0.862031 0.854615
O O16 0.047433 0.500000 0.425063
O O17 0.949775 0.347521 0.467441
O O18 0.300581 0.825375 0.158712
O O19 0.232038 0.000000 0.063692
#
# Coordination Sequence:
#
# PCOD8052877 Si02
#       8
#     4   4   4   4   4   4   4   4
#     4   9  17  34  60  86 115 157 199 241 292 357
#     4  10  18  33  60  89 114 146 199 255 297 340
#     4  11  22  36  59  93 118 152 201 253 298 344
#     4   9  17  33  59  92 119 146 196 256 299 338
#     4  10  19  35  60  90 118 146 194 257 305 343
#     4  11  23  39  57  85 125 165 198 232 299 376
#     4   9  18  34  59  88 120 159 199 241 297 361
#     4  11  22  38  59  87 121 159 199 243 296 357
#
# _framework density 20.046600999999999
#
# number of rings (size 3 to 8) (size 9 to 14) (size 15 to 20)
#    0.000    2.000    3.750    0.750    0.000    1.500 
#    2.250    0.000    0.000    0.750    0.000    3.500 
#    0.000    0.000    0.000    0.000    0.000    0.000 
#
# Total GULP energy -198285.779846 kJ/mol
# GULP energy per Si atom -12392.861240 kJ/mol
# Density = 2.000097 g / cm^3
# Si number density = 20.046601 Si / 1000 Ang^3
#
#
#
# Elastic Constant Matrix: (Units=GPa)
#
#
# Indices 1 2 3 4 5 6 
#
# 1 91.1512 29.0385 40.2727 0.0000 16.7518 0.0000
# 2 29.0385 112.8515 69.9338 0.0000 5.8407 0.0000
# 3 40.2727 69.9338 140.7183 0.0000 13.3951 0.0000
# 4 0.0000 0.0000 0.0000 22.1791 0.0000 -1.4201
# 5 16.7518 5.8407 13.3951 0.0000 31.9502 0.0000
# 6 0.0000 0.0000 0.0000 -1.4201 0.0000 22.0677
#
#
#
# Elastic Compliance Matrix: (Units=1/GPa)
#
#
# Indices 1 2 3 4 5 6 
#
# 1 0.013687 -0.001642 -0.002548 0.000000 -0.005808 0.000000
# 2 -0.001642 0.013005 -0.006092 0.000000 0.001038 0.000000
# 3 -0.002548 -0.006092 0.011072 0.000000 -0.002192 0.000000
# 4 0.000000 0.000000 0.000000 0.045274 0.000000 0.002914
# 5 -0.005808 0.001038 -0.002192 0.000000 0.035073 0.000000
# 6 0.000000 0.000000 0.000000 0.002914 0.000000 0.045503
#
#
# Mechanical properties :
#
#
# Convention : Reuss Voigt Hill
#
# Bulk Modulus (GPa) = 58.14161 69.24566 63.69363
# Shear Modulus (GPa) = 26.32794 28.93783 27.63288
#
# Velocity S-wave (km/s) = 3.62793 3.80350 3.71675
# Velocity P-wave (km/s) = 6.82754 7.34208 7.08948
#
# Compressibility (1/GPa) = 0.01719939
#
# Stress axis : x y z
#
# Youngs Moduli (GPa) = 73.06126 76.89138 90.31785
#
# Poissons Ratio (x) = 0.12627 0.23015
# Poissons Ratio (y) = 0.11998 0.55023
# Poissons Ratio (z) = 0.18617 0.46843
#
# Static dielectric constant tensor:
#      x y z
#    x 3.514930 0.000000 0.253570 
#    y 0.000000 3.700820 0.000000 
#    z 0.253570 0.000000 3.636390 
# 
# 
# High freq. dielectric constant tensor:
#      x y z
#    x 1.769900 0.000000 0.020160 
#    y 0.000000 1.778410 0.000000 
#    z 0.020160 0.000000 1.767530 
# 
# From -- ./inp_files/13264.got.cif
#   From: 2010.03.12/outbox.cif.g09.slc.cpg/sg8_7_cif.got.tgz:13264.got - 2010.03.31 10:45:26.
