data_PCOD8052203
_publ_section_title
;
Structure prediction by ZEFSAII (Michael W. Deem and Ramdas Pophale) SiO2 
 PCOD8052203
Probable space group: C 2
;
_chemical_formula_sum "Si O2"
_cell_formula_units_Z 18
_cell_length_a 8.442871
_cell_length_b 4.961761
_cell_length_c 18.044432
_cell_angle_alpha 90.000000
_cell_angle_beta 115.833017
_cell_angle_gamma 90.000000
_cell_volume 680.368886
_symmetry_space_group_name_H-M "C 2"
_symmetry_group_IT_number 5
_symmetry_cell_setting 'monoclinic'
loop_
_space_group_symop_operation_xyz
x,y,z
-x,y,-z
1/2+x,1/2+y,z
1/2-x,1/2+y,-z
loop_
_atom_site_type_symbol
_atom_site_label
_atom_site_fract_x
_atom_site_fract_y
_atom_site_fract_z
Si Si1 0.176451 0.312360 0.946499
Si Si2 0.000000 0.562319 0.500000
Si Si3 0.991710 0.816314 0.727204
Si Si4 0.152445 0.314457 0.389963
Si Si5 0.170095 0.582251 0.164302
O O1 0.979147 0.427326 0.912945
O O2 0.216919 0.268831 0.867947
O O3 0.312269 0.529141 0.008103
O O4 0.904571 0.356356 0.536583
O O5 0.861863 0.761230 0.431216
O O6 0.203578 0.849738 0.775133
O O7 0.916539 0.566619 0.668381
O O8 0.911126 0.791221 0.793101
O O9 0.934949 0.068769 0.668507
#
# Coordination Sequence:
#
# PCOD8052203 Si02
#       5
#     4   2   4   4   4
#     4  12  30  52  80 116 156 204 258 318 384 458
#     4  12  28  52  80 114 156 204 258 318 384 456
#     4  12  28  50  78 114 154 202 256 316 382 456
#     4  12  28  50  78 114 154 202 256 316 382 456
#     4  12  29  52  80 115 156 204 258 318 384 457
#
# _framework density 26.456237000000002
#
# number of rings (size 3 to 8) (size 9 to 14) (size 15 to 20)
#    0.000    0.000    0.000    7.333    0.000   25.778 
#    0.000    0.000    0.000    0.000    0.000    0.000 
#    0.000    0.000    0.000    0.000    0.000    0.000 
#
# Total GULP energy -111631.624642 kJ/mol
# GULP energy per Si atom -12403.513849 kJ/mol
# Density = 2.639602 g / cm^3
# Si number density = 26.456237 Si / 1000 Ang^3
#
#
#
# Elastic Constant Matrix: (Units=GPa)
#
#
# Indices 1 2 3 4 5 6 
#
# 1 110.6896 28.9045 30.3797 0.0000 26.0569 0.0000
# 2 28.9045 160.2410 50.2153 0.0000 7.9259 0.0000
# 3 30.3797 50.2153 125.8407 0.0000 26.1206 0.0000
# 4 0.0000 0.0000 0.0000 30.6923 0.0000 -14.8629
# 5 26.0569 7.9259 26.1206 0.0000 46.7578 0.0000
# 6 0.0000 0.0000 0.0000 -14.8629 0.0000 45.5171
#
#
#
# Elastic Compliance Matrix: (Units=1/GPa)
#
#
# Indices 1 2 3 4 5 6 
#
# 1 0.010916 -0.001401 -0.000976 0.000000 -0.005300 0.000000
# 2 -0.001401 0.007320 -0.002813 0.000000 0.001112 0.000000
# 3 -0.000976 -0.002813 0.010286 0.000000 -0.004725 0.000000
# 4 0.000000 0.000000 0.000000 0.038701 0.000000 0.012637
# 5 -0.005300 0.001112 -0.004725 0.000000 0.026792 0.000000
# 6 0.000000 0.000000 0.000000 0.012637 0.000000 0.026096
#
#
# Mechanical properties :
#
#
# Convention : Reuss Voigt Hill
#
# Bulk Modulus (GPa) = 55.12534 68.41890 61.77212
# Shear Modulus (GPa) = 36.61982 43.74489 40.18236
#
# Velocity S-wave (km/s) = 3.72447 4.07071 3.90144
# Velocity P-wave (km/s) = 6.27513 6.92904 6.61018
#
# Compressibility (1/GPa) = 0.01814048
#
# Stress axis : x y z
#
# Youngs Moduli (GPa) = 91.61119 136.61208 97.22286
#
# Poissons Ratio (x) = 0.19139 0.09489
# Poissons Ratio (y) = 0.12835 0.27354
# Poissons Ratio (z) = 0.08941 0.38436
#
# Static dielectric constant tensor:
#      x y z
#    x 5.045820 0.000000 -0.019440 
#    y 0.000000 4.550760 0.000000 
#    z -0.019440 0.000000 5.372830 
# 
# 
# High freq. dielectric constant tensor:
#      x y z
#    x 2.063980 0.000000 0.002060 
#    y 0.000000 2.071590 0.000000 
#    z 0.002060 0.000000 2.091100 
# 
# From -- ./inp_files/59082.got.cif
#   From: 2010.03.12/outbox.cif.g09.slc.cpg/sg5_30_cif.got.tgz:59082.got - 2010.03.31 09:47:26.
