data_PCOD8052298
_publ_section_title
;
Structure prediction by ZEFSAII (Michael W. Deem and Ramdas Pophale) SiO2 
 PCOD8052298
Probable space group: P M
;
_chemical_formula_sum "Si O2"
_cell_formula_units_Z 16
_cell_length_a 15.863157
_cell_length_b 9.144561
_cell_length_c 14.160285
_cell_angle_alpha 90.000000
_cell_angle_beta 153.212576
_cell_angle_gamma 90.000000
_cell_volume 925.751275
_symmetry_space_group_name_H-M "P M"
_symmetry_group_IT_number 6
_symmetry_cell_setting 'monoclinic'
loop_
_space_group_symop_operation_xyz
x,y,z
x,-y,z
loop_
_atom_site_type_symbol
_atom_site_label
_atom_site_fract_x
_atom_site_fract_y
_atom_site_fract_z
Si Si1 0.101940 0.327342 0.434540
Si Si2 0.386356 0.829852 0.075092
Si Si3 0.101912 0.833078 0.630036
Si Si4 0.101912 0.326367 0.133697
Si Si5 0.394357 0.674104 0.575750
Si Si6 0.817485 0.829853 0.506209
Si Si7 0.809497 0.325900 0.990878
Si Si8 0.101941 0.325700 0.920281
O O1 0.101929 0.500000 0.442847
O O2 0.101907 0.265768 0.538743
O O3 0.285384 0.273720 0.560817
O O4 0.918520 0.273696 0.193929
O O5 0.601920 0.783141 0.282419
O O6 0.362843 0.000000 0.077854
O O7 0.286697 0.797040 0.875797
O O8 0.289505 0.734928 0.059578
O O9 0.917087 0.797095 0.506160
O O10 0.101979 0.000000 0.596905
O O11 0.101904 0.500000 0.132417
O O12 0.101924 0.266421 0.027494
O O13 0.917851 0.270429 0.005563
O O14 0.285957 0.270417 0.373689
O O15 0.403059 0.500000 0.583219
O O16 0.601927 0.742721 0.783951
O O17 0.914388 0.734917 0.684434
O O18 0.840998 0.000000 0.556011
O O19 0.800771 0.500000 0.980936
O O20 0.101940 0.500000 0.914004
#
# Coordination Sequence:
#
# PCOD8052298 Si02
#       8
#     2   2   2   2   2   2   2   2
#     4   9  17  28  44  68  92 115 149 189 228 273
#     4   9  19  36  53  67  90 129 169 196 227 283
#     4   9  18  32  49  68  90 119 155 195 237 279
#     4   8  15  26  41  65  94 121 149 182 225 277
#     4   8  14  26  43  63  90 122 152 182 219 269
#     4   9  19  36  53  67  90 129 169 196 227 283
#     4   8  14  26  43  63  90 122 152 182 219 269
#     4  10  19  30  48  77 104 121 149 200 250 281
#
# _framework density 17.283262000000001
#
# number of rings (size 3 to 8) (size 9 to 14) (size 15 to 20)
#    0.000    3.250    0.000    2.625    0.000    4.500 
#    0.000    2.500    0.000    6.000    0.000    0.000 
#    0.000    0.000    0.000    0.000    0.000    0.000 
#
# Total GULP energy -198330.720277 kJ/mol
# GULP energy per Si atom -12395.670017 kJ/mol
# Density = 1.724392 g / cm^3
# Si number density = 17.283262 Si / 1000 Ang^3
#
#
#
# Elastic Constant Matrix: (Units=GPa)
#
#
# Indices 1 2 3 4 5 6 
#
# 1 138.9999 37.9222 108.6098 0.0000 -3.9827 0.0000
# 2 37.9222 33.3280 34.6328 0.0000 -4.1284 0.0000
# 3 108.6098 34.6328 148.6588 0.0000 16.3157 0.0000
# 4 0.0000 0.0000 0.0000 11.3089 0.0000 11.0560
# 5 -3.9827 -4.1284 16.3157 0.0000 39.1723 0.0000
# 6 0.0000 0.0000 0.0000 11.0560 0.0000 2.5315
#
#
#
# Elastic Compliance Matrix: (Units=1/GPa)
#
#
# Indices 1 2 3 4 5 6 
#
# 1 0.020301 -0.007961 -0.013740 0.000000 0.006948 0.000000
# 2 -0.007961 0.045535 -0.005480 0.000000 0.006272 0.000000
# 3 -0.013740 -0.005480 0.019133 0.000000 -0.009944 0.000000
# 4 0.000000 0.000000 0.000000 -0.027043 0.000000 0.118110
# 5 0.006948 0.006272 -0.009944 0.000000 0.031037 0.000000
# 6 0.000000 0.000000 0.000000 0.118110 0.000000 -0.120811
#
#
# Mechanical properties :
#
#
# Convention : Reuss Voigt Hill
#
# Bulk Modulus (GPa) = 32.67231 75.92405 54.29818
# Shear Modulus (GPa) = 152.82737 19.92398 86.37567
#
# Velocity S-wave (km/s) = 9.41366 3.39896 7.07707
# Velocity P-wave (km/s) = 11.70902 7.70899 9.91286
#
# Compressibility (1/GPa) = 0.03060696
#
# Stress axis : x y z
#
# Youngs Moduli (GPa) = 49.25835 21.96109 52.26541
#
# Poissons Ratio (x) = 0.17484 0.71811
# Poissons Ratio (y) = 0.39216 0.28642
# Poissons Ratio (z) = 0.67680 0.12035
#
# Static dielectric constant tensor:
#      x y z
#    x 3.394630 0.000000 0.157940 
#    y 0.000000 2.814450 0.000000 
#    z 0.157940 0.000000 3.519380 
# 
# 
# High freq. dielectric constant tensor:
#      x y z
#    x 1.671740 0.000000 0.003240 
#    y 0.000000 1.626940 0.000000 
#    z 0.003240 0.000000 1.674280 
# 
# From -- ./inp_files/5267.got.cif
#   From: 2010.03.12/outbox.cif.g09.slc.cpg/sg6_3_cif.got.tgz:5267.got - 2010.03.30 10:24:59.
