data_PCOD8052828
_publ_section_title
;
Structure prediction by ZEFSAII (Michael W. Deem and Ramdas Pophale) SiO2 
 PCOD8052828
Probable space group: C M
;
_chemical_formula_sum "Si O2"
_cell_formula_units_Z 32
_cell_length_a 9.531812
_cell_length_b 17.018763
_cell_length_c 19.131002
_cell_angle_alpha 90.000000
_cell_angle_beta 144.608286
_cell_angle_gamma 90.000000
_cell_volume 1797.389489
_symmetry_space_group_name_H-M "C M"
_symmetry_group_IT_number 8
_symmetry_cell_setting 'monoclinic'
loop_
_space_group_symop_operation_xyz
x,y,z
x,-y,z
1/2+x,1/2+y,z
1/2+x,1/2-y,z
loop_
_atom_site_type_symbol
_atom_site_label
_atom_site_fract_x
_atom_site_fract_y
_atom_site_fract_z
Si Si1 0.763640 0.090351 0.888170
Si Si2 0.345991 0.909369 0.916244
Si Si3 0.070094 0.666489 0.259216
Si Si4 0.829999 0.300712 0.297154
Si Si5 0.738470 0.910339 0.456579
Si Si6 0.246728 0.092937 0.720209
Si Si7 0.192876 0.827105 0.991376
Si Si8 0.820231 0.852663 0.060023
O O1 0.483718 0.120818 0.772903
O O2 0.789010 0.000000 0.873253
O O3 0.855472 0.096039 0.004902
O O4 0.925052 0.146904 0.905804
O O5 0.252842 0.877600 0.802992
O O6 0.279696 0.000000 0.902026
O O7 0.222393 0.857708 0.925204
O O8 0.636341 0.897229 0.037048
O O9 0.295352 0.718709 0.323169
O O10 0.191183 0.595711 0.353271
O O11 0.896924 0.716258 0.242575
O O12 0.900684 0.636147 0.126997
O O13 0.578996 0.347997 0.202208
O O14 0.042508 0.354965 0.417195
O O15 0.004326 0.877463 0.583438
O O16 0.706910 0.000000 0.468210
O O17 0.257843 0.000000 0.727124
O O18 0.216456 0.733718 0.000425
#
# Coordination Sequence:
#
# PCOD8052828 Si02
#       8
#     4   4   4   4   4   4   4   4
#     4  10  18  32  53  75 100 136 175 208 245 304
#     4  10  21  33  51  76 107 137 164 210 258 302
#     4   9  20  33  55  77 102 137 167 203 264 305
#     4   9  19  33  55  75 103 138 167 205 260 312
#     4   9  18  35  58  76  95 133 185 217 239 297
#     4   8  17  35  55  72 100 140 174 207 255 301
#     4  11  20  32  51  80 108 130 165 209 261 308
#     4  10  19  33  50  73 106 137 171 195 259 313
#
# _framework density 17.803599999999999
#
# number of rings (size 3 to 8) (size 9 to 14) (size 15 to 20)
#    0.750    1.750    1.250    2.250    5.250    3.000 
#    0.000    5.000    2.750    0.000    0.000    0.000 
#    0.000    0.000    0.000    0.000    0.000    0.000 
#
# Total GULP energy -198255.775246 kJ/mol
# GULP energy per Si atom -12390.985953 kJ/mol
# Density = 1.776308 g / cm^3
# Si number density = 17.803600 Si / 1000 Ang^3
#
#
#
# Elastic Constant Matrix: (Units=GPa)
#
#
# Indices 1 2 3 4 5 6 
#
# 1 99.6342 18.7717 37.3752 -0.0005 13.1411 -0.0002
# 2 18.7717 46.3083 26.1978 -0.0002 10.1633 -0.0001
# 3 37.3752 26.1978 108.9707 0.0016 17.4015 -0.0016
# 4 -0.0005 -0.0002 0.0016 25.0686 -0.0002 4.9551
# 5 13.1411 10.1633 17.4015 -0.0002 24.8657 -0.0004
# 6 -0.0002 -0.0001 -0.0016 4.9551 -0.0004 24.3873
#
#
#
# Elastic Compliance Matrix: (Units=1/GPa)
#
#
# Indices 1 2 3 4 5 6 
#
# 1 0.012065 -0.002465 -0.003026 0.000000 -0.003251 0.000000
# 2 -0.002465 0.026551 -0.004518 0.000001 -0.006388 0.000000
# 3 -0.003026 -0.004518 0.012103 -0.000001 -0.005024 0.000001
# 4 0.000000 0.000001 -0.000001 0.041560 0.000000 -0.008444
# 5 -0.003251 -0.006388 -0.005024 0.000000 0.048061 0.000000
# 6 0.000000 0.000000 0.000001 -0.008444 0.000000 0.042721
#
#
# Mechanical properties :
#
#
# Convention : Reuss Voigt Hill
#
# Bulk Modulus (GPa) = 32.57197 46.62249 39.59723
# Shear Modulus (GPa) = 23.43969 26.36888 24.90428
#
# Velocity S-wave (km/s) = 3.63239 3.85268 3.74416
# Velocity P-wave (km/s) = 5.99393 6.78490 6.40164
#
# Compressibility (1/GPa) = 0.03070124
#
# Stress axis : x y z
#
# Youngs Moduli (GPa) = 82.88298 37.66279 82.62287
#
# Poissons Ratio (x) = 0.09285 0.25005
# Poissons Ratio (y) = 0.20433 0.37326
# Poissons Ratio (z) = 0.25084 0.17015
#
# Static dielectric constant tensor:
#      x y z
#    x 3.303960 0.000000 0.202690 
#    y 0.000000 3.098530 0.000000 
#    z 0.202690 0.000000 3.354760 
# 
# 
# High freq. dielectric constant tensor:
#      x y z
#    x 1.682710 0.000000 0.016220 
#    y 0.000000 1.672150 0.000000 
#    z 0.016220 0.000000 1.672900 
# 
# From -- ./inp_files/19017.got.cif
#   From: 2010.03.12/outbox.cif.g09.slc.cpg/sg8_10_cif.got.tgz:19017.got - 2010.03.31 10:45:26.
