data_PCOD8052969
_publ_section_title
;
Structure prediction by ZEFSAII (Michael W. Deem and Ramdas Pophale) SiO2 
 PCOD8052969
Probable space group: C M
;
_chemical_formula_sum "Si O2"
_cell_formula_units_Z 32
_cell_length_a 22.856277
_cell_length_b 9.042564
_cell_length_c 28.290199
_cell_angle_alpha 90.000000
_cell_angle_beta 162.105964
_cell_angle_gamma 90.000000
_cell_volume 1796.534933
_symmetry_space_group_name_H-M "C M"
_symmetry_group_IT_number 8
_symmetry_cell_setting 'monoclinic'
loop_
_space_group_symop_operation_xyz
x,y,z
x,-y,z
1/2+x,1/2+y,z
1/2+x,1/2-y,z
loop_
_atom_site_type_symbol
_atom_site_label
_atom_site_fract_x
_atom_site_fract_y
_atom_site_fract_z
Si Si1 0.706960 0.833566 0.138380
Si Si2 0.457781 0.667907 0.014693
Si Si3 0.868120 0.662903 0.803576
Si Si4 0.946186 0.674942 0.247578
Si Si5 0.670383 0.176530 0.963152
Si Si6 0.196411 0.825683 0.882955
Si Si7 0.379968 0.329655 0.563676
Si Si8 0.624410 0.835807 0.681986
O O1 0.875692 0.743711 0.242770
O O2 0.775580 0.000000 0.203692
O O3 0.647062 0.747086 0.140001
O O4 0.527578 0.842074 0.966270
O O5 0.506636 0.500000 0.067478
O O6 0.386819 0.761368 0.005179
O O7 0.296371 0.668073 0.850948
O O8 0.782896 0.500000 0.730152
O O9 0.693111 0.765301 0.685194
O O10 0.969702 0.720199 0.833828
O O11 0.906892 0.500000 0.217338
O O12 0.844045 0.748760 0.124399
O O13 0.167468 0.714750 0.413939
O O14 0.699378 0.000000 0.985815
O O15 0.662036 0.240087 0.904698
O O16 0.014162 0.788643 0.710775
O O17 0.222306 0.000000 0.911548
O O18 0.399103 0.500000 0.565659
O O19 0.442832 0.246374 0.564366
O O20 0.558003 0.000000 0.619010
#
# Coordination Sequence:
#
# PCOD8052969 Si02
#       8
#     4   4   4   4   4   4   4   4
#     4   9  16  27  44  68  95 123 156 198 241 281
#     4   9  16  27  44  68  95 123 157 199 239 279
#     4   8  15  27  43  63  91 122 152 190 237 281
#     4  10  19  32  50  72  97 128 162 198 239 285
#     4  10  20  33  49  72  99 128 160 197 240 287
#     4  10  19  32  50  72  98 129 161 197 239 285
#     4   9  19  33  49  70  98 129 160 194 237 285
#     4   9  16  25  43  69  93 118 154 197 238 277
#
# _framework density 17.812066000000002
#
# number of rings (size 3 to 8) (size 9 to 14) (size 15 to 20)
#    0.000    2.750    0.000    3.000    0.000    8.000 
#    0.000    0.000    0.000    1.500    0.000    3.500 
#    0.000    0.000    0.000    0.000    0.000    0.000 
#
# Total GULP energy -198360.772706 kJ/mol
# GULP energy per Si atom -12397.548294 kJ/mol
# Density = 1.777152 g / cm^3
# Si number density = 17.812066 Si / 1000 Ang^3
#
#
#
# Elastic Constant Matrix: (Units=GPa)
#
#
# Indices 1 2 3 4 5 6 
#
# 1 146.4817 76.3596 52.8641 0.0222 36.6044 -0.0033
# 2 76.3596 127.9860 50.4663 -0.0318 26.6969 -0.0226
# 3 52.8641 50.4663 60.4277 -0.1155 26.4702 -0.0677
# 4 0.0222 -0.0318 -0.1155 19.4904 -0.0297 8.2902
# 5 36.6044 26.6969 26.4702 -0.0297 25.5691 -0.0046
# 6 -0.0033 -0.0226 -0.0677 8.2902 -0.0046 35.8062
#
#
#
# Elastic Compliance Matrix: (Units=1/GPa)
#
#
# Indices 1 2 3 4 5 6 
#
# 1 0.012799 -0.004218 -0.002886 -0.000057 -0.010931 0.000005
# 2 -0.004218 0.013248 -0.007246 -0.000016 -0.000293 -0.000002
# 3 -0.002886 -0.007246 0.036598 0.000158 -0.026191 0.000024
# 4 -0.000057 -0.000016 0.000158 0.056913 -0.000001 -0.013177
# 5 -0.010931 -0.000293 -0.026191 -0.000001 0.082177 -0.000040
# 6 0.000005 -0.000002 0.000024 -0.013177 -0.000040 0.030979
#
#
# Mechanical properties :
#
#
# Convention : Reuss Voigt Hill
#
# Bulk Modulus (GPa) = 29.45946 77.14171 53.30059
# Shear Modulus (GPa) = 18.33326 26.52019 22.42672
#
# Velocity S-wave (km/s) = 3.21169 3.86280 3.55219
# Velocity P-wave (km/s) = 5.50711 7.95598 6.84200
#
# Compressibility (1/GPa) = 0.03394495
#
# Stress axis : x y z
#
# Youngs Moduli (GPa) = 78.13382 75.48237 27.32398
#
# Poissons Ratio (x) = 0.31838 0.07885
# Poissons Ratio (y) = 0.32956 0.19799
# Poissons Ratio (z) = 0.22548 0.54694
#
# Static dielectric constant tensor:
#      x y z
#    x 3.422970 0.000090 0.342740 
#    y 0.000090 3.522830 -0.000040 
#    z 0.342740 -0.000040 2.936550 
# 
# 
# High freq. dielectric constant tensor:
#      x y z
#    x 1.692040 0.000000 0.034100 
#    y 0.000000 1.705550 -0.000010 
#    z 0.034100 -0.000010 1.638330 
# 
# From -- ./inp_files/23737.got.cif
#   From: 2010.03.12/outbox.cif.g09.slc.cpg/sg8_12_cif.got.tgz:23737.got - 2010.03.31 10:45:26.
