data_PCOD8052821
_publ_section_title
;
Structure prediction by ZEFSAII (Michael W. Deem and Ramdas Pophale) SiO2 
 PCOD8052821
Probable space group: C M
;
_chemical_formula_sum "Si O2"
_cell_formula_units_Z 24
_cell_length_a 12.779144
_cell_length_b 13.346334
_cell_length_c 11.896839
_cell_angle_alpha 90.000000
_cell_angle_beta 131.630899
_cell_angle_gamma 90.000000
_cell_volume 1516.602036
_symmetry_space_group_name_H-M "C M"
_symmetry_group_IT_number 8
_symmetry_cell_setting 'monoclinic'
loop_
_space_group_symop_operation_xyz
x,y,z
x,-y,z
1/2+x,1/2+y,z
1/2+x,1/2-y,z
loop_
_atom_site_type_symbol
_atom_site_label
_atom_site_fract_x
_atom_site_fract_y
_atom_site_fract_z
Si Si1 0.731360 0.384088 0.433540
Si Si2 0.721043 0.884682 0.694354
Si Si3 0.002292 0.736597 0.645770
Si Si4 0.531509 0.384528 0.867810
Si Si5 0.779158 0.615325 0.206548
Si Si6 0.538288 0.756070 0.424529
O O1 0.734905 0.500000 0.472273
O O2 0.866891 0.329039 0.582444
O O3 0.728038 0.372224 0.297524
O O4 0.590699 0.334301 0.383623
O O5 0.637706 0.837141 0.740513
O O6 0.666752 0.833497 0.539435
O O7 0.885680 0.867133 0.828697
O O8 0.680529 0.000000 0.657447
O O9 0.033855 0.823849 0.754675
O O10 0.983590 0.784639 0.507164
O O11 0.550018 0.500000 0.847682
O O12 0.653980 0.347946 0.037253
O O13 0.819383 0.500000 0.211583
O O14 0.912551 0.684466 0.273836
#
# Coordination Sequence:
#
# PCOD8052821 Si02
#       6
#     4   4   4   4   4   4
#     4  10  18  32  51  73  98 129 167 202 241 288
#     4   9  17  30  50  73  96 125 166 199 232 290
#     4   9  17  31  48  73  98 127 161 199 244 285
#     4  10  19  32  49  75 103 127 161 203 244 285
#     4   9  19  33  51  71  99 132 162 199 242 290
#     4   9  18  30  51  73  94 126 167 200 239 284
#
# _framework density 15.82485
#
# number of rings (size 3 to 8) (size 9 to 14) (size 15 to 20)
#    1.000    1.667    1.667    1.000    0.000    2.000 
#    0.000    0.000    0.000    1.000    0.000    0.000 
#    0.000    0.000    0.000    0.000    0.000    0.000 
#
# Total GULP energy -148711.115703 kJ/mol
# GULP energy per Si atom -12392.592975 kJ/mol
# Density = 1.578883 g / cm^3
# Si number density = 15.824850 Si / 1000 Ang^3
#
#
#
# Elastic Constant Matrix: (Units=GPa)
#
#
# Indices 1 2 3 4 5 6 
#
# 1 77.6419 54.6991 36.2807 0.0000 13.0367 0.0000
# 2 54.6991 88.6025 50.5129 0.0000 7.4614 0.0000
# 3 36.2807 50.5129 107.7695 0.0000 19.0833 0.0000
# 4 0.0000 0.0000 0.0000 24.9204 0.0000 1.1552
# 5 13.0367 7.4614 19.0833 0.0000 20.9577 0.0000
# 6 0.0000 0.0000 0.0000 1.1552 0.0000 33.7473
#
#
#
# Elastic Compliance Matrix: (Units=1/GPa)
#
#
# Indices 1 2 3 4 5 6 
#
# 1 0.024776 -0.014625 0.000383 0.000000 -0.010554 0.000000
# 2 -0.014625 0.024065 -0.007690 0.000000 0.007532 0.000000
# 3 0.000383 -0.007690 0.014679 0.000000 -0.010866 0.000000
# 4 0.000000 0.000000 0.000000 0.040192 0.000000 -0.001376
# 5 -0.010554 0.007532 -0.010866 0.000000 0.061493 0.000000
# 6 0.000000 0.000000 0.000000 -0.001376 0.000000 0.029679
#
#
# Mechanical properties :
#
#
# Convention : Reuss Voigt Hill
#
# Bulk Modulus (GPa) = 50.87565 61.88882 56.38224
# Shear Modulus (GPa) = 20.38322 24.75982 22.57152
#
# Velocity S-wave (km/s) = 3.59284 3.95981 3.78078
# Velocity P-wave (km/s) = 7.03067 7.75244 7.40036
#
# Compressibility (1/GPa) = 0.01965577
#
# Stress axis : x y z
#
# Youngs Moduli (GPa) = 40.36096 41.55408 68.12672
#
# Poissons Ratio (x) = 0.60774 -0.02609
# Poissons Ratio (y) = 0.59029 0.52387
# Poissons Ratio (z) = -0.01545 0.31954
#
# Static dielectric constant tensor:
#      x y z
#    x 2.911440 0.000000 0.172600 
#    y 0.000000 2.906580 0.000000 
#    z 0.172600 0.000000 2.884830 
# 
# 
# High freq. dielectric constant tensor:
#      x y z
#    x 1.601190 0.000000 0.017080 
#    y 0.000000 1.601520 0.000000 
#    z 0.017080 0.000000 1.594450 
# 
# From -- ./inp_files/10425.got.cif
#   From: 2010.03.12/outbox.cif.g09.slc.cpg/sg8_6_cif.got.tgz:10425.got - 2010.03.31 10:45:26.
