data_PCOD8052395
_publ_section_title
;
Structure prediction by ZEFSAII (Michael W. Deem and Ramdas Pophale) SiO2 
 PCOD8052395
Probable space group: P M
;
_chemical_formula_sum "Si O2"
_cell_formula_units_Z 14
_cell_length_a 4.903920
_cell_length_b 13.472889
_cell_length_c 10.479865
_cell_angle_alpha 90.000000
_cell_angle_beta 58.032933
_cell_angle_gamma 90.000000
_cell_volume 587.403007
_symmetry_space_group_name_H-M "P M"
_symmetry_group_IT_number 6
_symmetry_cell_setting 'monoclinic'
loop_
_space_group_symop_operation_xyz
x,y,z
x,-y,z
loop_
_atom_site_type_symbol
_atom_site_label
_atom_site_fract_x
_atom_site_fract_y
_atom_site_fract_z
Si Si1 0.916620 0.889138 0.431750
Si Si2 0.356034 0.801427 0.837149
Si Si3 0.862557 0.198475 0.189256
Si Si4 0.732648 0.000000 0.109384
Si Si5 0.484331 0.000000 0.896309
Si Si6 0.419208 0.607210 0.916266
Si Si7 0.162276 0.887787 0.637537
Si Si8 0.682664 0.608445 0.122997
O O1 0.537329 0.899517 0.522568
O O2 0.016106 0.815059 0.292028
O O3 0.020837 0.841200 0.541585
O O4 0.072105 0.000000 0.376098
O O5 0.603071 0.896604 0.795566
O O6 0.552369 0.696713 0.791579
O O7 0.129186 0.815213 0.769262
O O8 0.143660 0.796604 0.016709
O O9 0.650693 0.098852 0.212474
O O10 0.651542 0.300156 0.231874
O O11 0.513580 0.000000 0.039378
O O12 0.100067 0.000000 0.967189
O O13 0.579553 0.500000 0.842455
O O14 0.459647 0.631453 0.056297
O O15 0.042178 0.601243 0.980304
O O16 0.018602 0.000000 0.705051
O O17 0.587796 0.500000 0.206941
#
# Coordination Sequence:
#
# PCOD8052395 Si02
#       8
#     2   2   2   1   1   2   2   2
#     4  10  22  38  53  75 110 148 178 213 269 328
#     4  10  20  36  57  83 107 141 182 227 264 315
#     4  10  20  36  57  83 107 141 182 227 264 315
#     4  10  20  30  46  78 108 128 163 220 265 298
#     4  10  20  30  46  78 108 128 163 220 265 298
#     4   9  18  32  51  78 109 138 173 220 271 316
#     4  10  22  38  53  75 110 148 178 213 269 328
#     4   9  18  32  51  78 109 138 173 220 271 316
#
# _framework density 23.833721000000001
#
# number of rings (size 3 to 8) (size 9 to 14) (size 15 to 20)
#    0.000    2.286    1.429    0.857    0.000    9.143 
#    0.000    0.000    0.000    1.714    0.000    0.000 
#    0.000    0.000    0.000    0.000    0.000    0.000 
#
# Total GULP energy -173490.843154 kJ/mol
# GULP energy per Si atom -12392.203082 kJ/mol
# Density = 2.377947 g / cm^3
# Si number density = 23.833721 Si / 1000 Ang^3
#
#
#
# Elastic Constant Matrix: (Units=GPa)
#
#
# Indices 1 2 3 4 5 6 
#
# 1 52.0907 31.2929 33.4677 0.0000 32.7633 0.0000
# 2 31.2929 235.8049 79.3305 0.0000 40.2694 0.0000
# 3 33.4677 79.3305 158.5336 0.0000 47.1587 0.0000
# 4 0.0000 0.0000 0.0000 19.8165 0.0000 15.7489
# 5 32.7633 40.2694 47.1587 0.0000 33.7062 0.0000
# 6 0.0000 0.0000 0.0000 15.7489 0.0000 27.0083
#
#
#
# Elastic Compliance Matrix: (Units=1/GPa)
#
#
# Indices 1 2 3 4 5 6 
#
# 1 0.054157 0.001422 0.006886 0.000000 -0.063975 0.000000
# 2 0.001422 0.005532 -0.001184 0.000000 -0.006335 0.000000
# 3 0.006886 -0.001184 0.012019 0.000000 -0.022095 0.000000
# 4 0.000000 0.000000 0.000000 0.094046 0.000000 -0.054839
# 5 -0.063975 -0.006335 -0.022095 0.000000 0.130335 0.000000
# 6 0.000000 0.000000 0.000000 -0.054839 0.000000 0.069003
#
#
# Mechanical properties :
#
#
# Convention : Reuss Voigt Hill
#
# Bulk Modulus (GPa) = 11.63386 81.62350 46.62868
# Shear Modulus (GPa) = 13.17532 36.26206 24.71869
#
# Velocity S-wave (km/s) = 2.35372 3.90482 3.22395
# Velocity P-wave (km/s) = 3.50408 7.39267 5.78490
#
# Compressibility (1/GPa) = 0.08595600
#
# Stress axis : x y z
#
# Youngs Moduli (GPa) = 18.46479 180.75656 83.20021
#
# Poissons Ratio (x) = -0.25696 -0.57293
# Poissons Ratio (y) = -0.02625 0.09852
# Poissons Ratio (z) = -0.12715 0.21404
#
# Static dielectric constant tensor:
#      x y z
#    x 4.404250 0.000000 0.335760 
#    y 0.000000 6.336600 0.000000 
#    z 0.335760 0.000000 4.192130 
# 
# 
# High freq. dielectric constant tensor:
#      x y z
#    x 1.961160 0.000000 0.030240 
#    y 0.000000 1.943080 0.000000 
#    z 0.030240 0.000000 1.910100 
# 
# From -- ./inp_files/1213.got.cif
#   From: 2010.03.12/outbox.cif.g09.slc.cpg/sg6_1_cif.got.tgz:1213.got - 2010.03.30 10:24:59.
