data_PCOD8052957
_publ_section_title
;
Structure prediction by ZEFSAII (Michael W. Deem and Ramdas Pophale) SiO2 
 PCOD8052957
Probable space group: C M
;
_chemical_formula_sum "Si O2"
_cell_formula_units_Z 32
_cell_length_a 20.065579
_cell_length_b 8.819741
_cell_length_c 12.259498
_cell_angle_alpha 90.000000
_cell_angle_beta 54.332301
_cell_angle_gamma 90.000000
_cell_volume 1762.612090
_symmetry_space_group_name_H-M "C M"
_symmetry_group_IT_number 8
_symmetry_cell_setting 'monoclinic'
loop_
_space_group_symop_operation_xyz
x,y,z
x,-y,z
1/2+x,1/2+y,z
1/2+x,1/2-y,z
loop_
_atom_site_type_symbol
_atom_site_label
_atom_site_fract_x
_atom_site_fract_y
_atom_site_fract_z
Si Si1 0.368990 0.679524 0.403620
Si Si2 0.885606 0.679378 0.947639
Si Si3 0.633554 0.825175 0.444683
Si Si4 0.343812 0.320420 0.768725
Si Si5 0.306809 0.178259 0.249926
Si Si6 0.469425 0.175611 0.486655
Si Si7 0.567426 0.179952 0.740422
Si Si8 0.226193 0.321123 0.698142
O O1 0.378662 0.500000 0.393181
O O2 0.362674 0.741069 0.287418
O O3 0.447586 0.748920 0.391338
O O4 0.287829 0.735391 0.544886
O O5 0.884090 0.500000 0.932847
O O6 0.834819 0.754358 0.897923
O O7 0.978461 0.745069 0.856780
O O8 0.843638 0.729949 0.099402
O O9 0.712303 0.725662 0.342525
O O10 0.566790 0.804514 0.412556
O O11 0.593264 0.766986 0.595372
O O12 0.661411 0.000000 0.429669
O O13 0.353812 0.500000 0.762261
O O14 0.422445 0.253568 0.631895
O O15 0.260833 0.271827 0.782983
O O16 0.314054 0.000000 0.260318
O O17 0.444557 0.000000 0.509296
O O18 0.635161 0.244304 0.761852
O O19 0.563124 0.000000 0.749249
O O20 0.222412 0.500000 0.693271
#
# Coordination Sequence:
#
# PCOD8052957 Si02
#       8
#     4   4   4   4   4   4   4   4
#     4  10  19  34  55  80 110 144 183 224 275 331
#     4  10  21  37  55  76 108 149 182 220 276 331
#     4  10  19  34  58  81 105 144 187 227 273 327
#     4  10  19  31  51  81 111 141 179 224 275 327
#     4  11  23  36  53  80 114 148 185 229 279 329
#     4  10  19  33  55  83 111 141 183 230 277 325
#     4   9  15  31  56  78 100 134 182 224 265 319
#     4   8  15  28  51  79 101 127 171 222 264 309
#
# _framework density 18.154872999999998
#
# number of rings (size 3 to 8) (size 9 to 14) (size 15 to 20)
#    0.000    2.250    2.500    2.250    0.000    2.000 
#    0.000    1.250    0.000    3.000    0.000    0.000 
#    0.000    0.000    0.000    0.000    0.000    0.000 
#
# Total GULP energy -198372.371841 kJ/mol
# GULP energy per Si atom -12398.273240 kJ/mol
# Density = 1.811355 g / cm^3
# Si number density = 18.154873 Si / 1000 Ang^3
#
#
#
# Elastic Constant Matrix: (Units=GPa)
#
#
# Indices 1 2 3 4 5 6 
#
# 1 145.7749 38.7952 65.7269 0.0000 18.1401 0.0000
# 2 38.7952 58.6129 37.8991 0.0000 12.4589 0.0000
# 3 65.7269 37.8991 109.3081 0.0000 13.4405 0.0000
# 4 0.0000 0.0000 0.0000 23.1314 0.0000 4.1200
# 5 18.1401 12.4589 13.4405 0.0000 30.6376 0.0000
# 6 0.0000 0.0000 0.0000 4.1200 0.0000 30.1925
#
#
#
# Elastic Compliance Matrix: (Units=1/GPa)
#
#
# Indices 1 2 3 4 5 6 
#
# 1 0.010133 -0.003107 -0.004686 0.000000 -0.002680 0.000000
# 2 -0.003107 0.024008 -0.005794 0.000000 -0.005381 0.000000
# 3 -0.004686 -0.005794 0.014105 0.000000 -0.001057 0.000000
# 4 0.000000 0.000000 0.000000 0.044308 0.000000 -0.006046
# 5 -0.002680 -0.005381 -0.001057 0.000000 0.036879 0.000000
# 6 0.000000 0.000000 0.000000 -0.006046 0.000000 0.033946
#
#
# Mechanical properties :
#
#
# Convention : Reuss Voigt Hill
#
# Bulk Modulus (GPa) = 47.45724 66.50428 56.98076
# Shear Modulus (GPa) = 25.30646 28.21059 26.75853
#
# Velocity S-wave (km/s) = 3.73758 3.94621 3.84331
# Velocity P-wave (km/s) = 6.69499 7.58120 7.15184
#
# Compressibility (1/GPa) = 0.02107160
#
# Stress axis : x y z
#
# Youngs Moduli (GPa) = 98.68455 41.65278 70.89626
#
# Poissons Ratio (x) = 0.12943 0.33224
# Poissons Ratio (y) = 0.30664 0.41077
# Poissons Ratio (z) = 0.46246 0.24133
#
# Static dielectric constant tensor:
#      x y z
#    x 3.752180 0.000000 0.017210 
#    y 0.000000 3.162900 0.000000 
#    z 0.017210 0.000000 3.185520 
# 
# 
# High freq. dielectric constant tensor:
#      x y z
#    x 1.723340 0.000000 0.008580 
#    y 0.000000 1.686860 0.000000 
#    z 0.008580 0.000000 1.672630 
# 
# From -- ./inp_files/23736.got.cif
#   From: 2010.03.12/outbox.cif.g09.slc.cpg/sg8_12_cif.got.tgz:23736.got - 2010.03.31 10:45:26.
