data_PCOD8052907
_publ_section_title
;
Structure prediction by ZEFSAII (Michael W. Deem and Ramdas Pophale) SiO2 
 PCOD8052907
Probable space group: C M
;
_chemical_formula_sum "Si O2"
_cell_formula_units_Z 32
_cell_length_a 23.660931
_cell_length_b 9.067701
_cell_length_c 24.805353
_cell_angle_alpha 90.000000
_cell_angle_beta 161.895706
_cell_angle_gamma 90.000000
_cell_volume 1653.797402
_symmetry_space_group_name_H-M "C M"
_symmetry_group_IT_number 8
_symmetry_cell_setting 'monoclinic'
loop_
_space_group_symop_operation_xyz
x,y,z
x,-y,z
1/2+x,1/2+y,z
1/2+x,1/2-y,z
loop_
_atom_site_type_symbol
_atom_site_label
_atom_site_fract_x
_atom_site_fract_y
_atom_site_fract_z
Si Si1 0.199980 0.174335 0.700930
Si Si2 0.084586 0.326005 0.007835
Si Si3 0.476866 0.673048 0.393049
Si Si4 0.338907 0.669698 0.025447
Si Si5 0.563858 0.829148 0.868019
Si Si6 0.187247 0.669202 0.371047
Si Si7 0.559089 0.825436 0.679647
Si Si8 0.708310 0.168955 0.513760
O O1 0.404691 0.231877 0.874913
O O2 0.074368 0.218341 0.536511
O O3 0.127218 0.262981 0.685204
O O4 0.192695 0.000000 0.705685
O O5 0.071587 0.500000 0.992256
O O6 0.093475 0.264798 0.954844
O O7 0.265146 0.277343 0.204036
O O8 0.494442 0.500000 0.398384
O O9 0.567303 0.750890 0.424458
O O10 0.394205 0.500000 0.067083
O O11 0.247881 0.692838 0.001315
O O12 0.200782 0.722858 0.854053
O O13 0.518534 0.768562 0.183853
O O14 0.406297 0.739718 0.696066
O O15 0.504540 0.000000 0.815328
O O16 0.219788 0.500000 0.384099
O O17 0.364285 0.760383 0.516722
O O18 0.138570 0.685831 0.389664
O O19 0.540749 0.000000 0.659656
O O20 0.722126 0.000000 0.544051
#
# Coordination Sequence:
#
# PCOD8052907 Si02
#       8
#     4   4   4   4   4   4   4   4
#     4  10  21  38  59  85 117 154 200 245 292 347
#     4   9  18  34  59  88 112 145 193 238 281 341
#     4  10  20  37  62  86 116 156 196 237 284 349
#     4  10  22  39  63  91 118 154 200 249 299 352
#     4  10  18  35  61  87 116 152 193 238 292 355
#     4  11  24  40  61  89 123 161 198 241 299 360
#     4  11  24  42  63  87 118 156 203 253 301 351
#     4  11  22  35  56  89 124 154 189 239 298 351
#
# _framework density 19.349406999999999
#
# number of rings (size 3 to 8) (size 9 to 14) (size 15 to 20)
#    0.000    1.750    2.500    1.875    0.000    5.500 
#    0.000    2.500    0.000    0.000    0.000    0.000 
#    0.000    0.000    0.000    0.000    0.000    0.000 
#
# Total GULP energy -198443.283647 kJ/mol
# GULP energy per Si atom -12402.705228 kJ/mol
# Density = 1.930537 g / cm^3
# Si number density = 19.349407 Si / 1000 Ang^3
#
#
#
# Elastic Constant Matrix: (Units=GPa)
#
#
# Indices 1 2 3 4 5 6 
#
# 1 118.0124 50.2172 58.3824 0.0123 2.5455 0.0032
# 2 50.2172 63.2345 53.5363 -0.0007 3.7552 0.0029
# 3 58.3824 53.5363 156.3392 -0.0028 13.0164 0.0038
# 4 0.0123 -0.0007 -0.0028 21.6910 0.0207 3.8408
# 5 2.5455 3.7552 13.0164 0.0207 10.7040 0.0061
# 6 0.0032 0.0029 0.0038 3.8408 0.0061 30.4149
#
#
#
# Elastic Compliance Matrix: (Units=1/GPa)
#
#
# Indices 1 2 3 4 5 6 
#
# 1 0.013243 -0.008875 -0.002118 -0.000011 0.002539 0.000001
# 2 -0.008875 0.028244 -0.006351 0.000005 -0.000074 -0.000002
# 3 -0.002118 -0.006351 0.010164 0.000011 -0.009628 0.000000
# 4 -0.000011 0.000005 0.000011 0.047157 -0.000101 -0.005955
# 5 0.002539 -0.000074 -0.009628 -0.000101 0.104553 -0.000007
# 6 0.000001 -0.000002 0.000000 -0.005955 -0.000007 0.033631
#
#
# Mechanical properties :
#
#
# Convention : Reuss Voigt Hill
#
# Bulk Modulus (GPa) = 58.95292 73.53978 66.24635
# Shear Modulus (GPa) = 18.02888 24.25866 21.14377
#
# Velocity S-wave (km/s) = 3.05578 3.54463 3.30924
# Velocity P-wave (km/s) = 6.55622 7.40549 6.99376
#
# Compressibility (1/GPa) = 0.01696269
#
# Stress axis : x y z
#
# Youngs Moduli (GPa) = 75.51160 35.40634 98.38918
#
# Poissons Ratio (x) = 0.31422 0.20837
# Poissons Ratio (y) = 0.67014 0.62490
# Poissons Ratio (z) = 0.15992 0.22488
#
# Static dielectric constant tensor:
#      x y z
#    x 3.546760 -0.000020 0.029760 
#    y -0.000020 3.442050 -0.000010 
#    z 0.029760 -0.000010 3.774050 
# 
# 
# High freq. dielectric constant tensor:
#      x y z
#    x 1.753220 0.000000 0.002500 
#    y 0.000000 1.737270 0.000000 
#    z 0.002500 0.000000 1.766330 
# 
# From -- ./inp_files/32441.got.cif
#   From: 2010.03.12/outbox.cif.g09.slc.cpg/sg8_17_cif.got.tgz:32441.got - 2010.03.31 10:45:26.
