data_PCOD8052945
_publ_section_title
;
Structure prediction by ZEFSAII (Michael W. Deem and Ramdas Pophale) SiO2 
 PCOD8052945
Probable space group: C M
;
_chemical_formula_sum "Si O2"
_cell_formula_units_Z 32
_cell_length_a 35.699746
_cell_length_b 8.512861
_cell_length_c 5.181579
_cell_angle_alpha 90.000000
_cell_angle_beta 89.978426
_cell_angle_gamma 90.000000
_cell_volume 1574.717890
_symmetry_space_group_name_H-M "C M"
_symmetry_group_IT_number 8
_symmetry_cell_setting 'monoclinic'
loop_
_space_group_symop_operation_xyz
x,y,z
x,-y,z
1/2+x,1/2+y,z
1/2+x,1/2-y,z
loop_
_atom_site_type_symbol
_atom_site_label
_atom_site_fract_x
_atom_site_fract_y
_atom_site_fract_z
Si Si1 0.780260 0.181773 0.842570
Si Si2 0.115408 0.315588 0.798354
Si Si3 0.652603 0.681683 0.299259
Si Si4 0.487563 0.187391 0.314136
Si Si5 0.233095 0.317359 0.340784
Si Si6 0.361215 0.815686 0.814017
Si Si7 0.902790 0.687795 0.313872
Si Si8 0.530348 0.186938 0.813444
O O1 0.752169 0.223371 0.611895
O O2 0.817417 0.282014 0.809273
O O3 0.791495 0.000000 0.836520
O O4 0.761219 0.228712 0.111631
O O5 0.117838 0.500000 0.853359
O O6 0.131021 0.282547 0.513610
O O7 0.072942 0.252980 0.813138
O O8 0.139505 0.227557 0.013454
O O9 0.644324 0.500000 0.350032
O O10 0.696636 0.711584 0.317360
O O11 0.445216 0.251303 0.312127
O O12 0.508831 0.253955 0.564432
O O13 0.487640 0.000000 0.314085
O O14 0.509331 0.252797 0.064981
O O15 0.221645 0.500000 0.322704
O O16 0.381454 0.743464 0.563208
O O17 0.367511 0.000000 0.814228
O O18 0.381022 0.743327 0.066330
O O19 0.902429 0.500000 0.313642
O O20 0.529623 0.000000 0.808771
#
# Coordination Sequence:
#
# PCOD8052945 Si02
#       8
#     4   4   4   4   4   4   4   4
#     4  10  21  36  55  78 103 136 179 223 269 323
#     4  11  22  39  61  86 118 155 194 237 289 345
#     4  12  25  40  60  89 119 150 191 237 289 345
#     4   9  15  26  44  72 108 137 170 223 275 315
#     4  10  21  38  58  79 105 140 181 225 277 333
#     4  10  19  31  48  73 104 138 173 211 265 327
#     4   9  17  28  45  72 106 139 170 213 271 325
#     4   9  17  28  48  77 105 137 180 227 271 319
#
# _framework density 20.321100000000001
#
# number of rings (size 3 to 8) (size 9 to 14) (size 15 to 20)
#    0.000    2.000    0.000    4.500    0.000    7.000 
#    0.000    0.000    0.000    0.000    0.000   17.500 
#    0.000    0.000    0.000    0.000    0.000    0.000 
#
# Total GULP energy -198457.583362 kJ/mol
# GULP energy per Si atom -12403.598960 kJ/mol
# Density = 2.027485 g / cm^3
# Si number density = 20.321100 Si / 1000 Ang^3
#
#
#
# Elastic Constant Matrix: (Units=GPa)
#
#
# Indices 1 2 3 4 5 6 
#
# 1 119.3615 19.1699 37.3360 0.0000 -1.9555 0.0000
# 2 19.1699 25.6581 14.0113 0.0000 3.2199 0.0000
# 3 37.3360 14.0113 137.9731 0.0000 -1.4006 0.0000
# 4 0.0000 0.0000 0.0000 14.6058 0.0000 -2.3906
# 5 -1.9555 3.2199 -1.4006 0.0000 40.4375 0.0000
# 6 0.0000 0.0000 0.0000 -2.3906 0.0000 15.2641
#
#
#
# Elastic Compliance Matrix: (Units=1/GPa)
#
#
# Indices 1 2 3 4 5 6 
#
# 1 0.010085 -0.006529 -0.002057 0.000000 0.000936 0.000000
# 2 -0.006529 0.045971 -0.002943 0.000000 -0.004078 0.000000
# 3 -0.002057 -0.002943 0.008107 0.000000 0.000416 0.000000
# 4 0.000000 0.000000 0.000000 0.070267 0.000000 0.011005
# 5 0.000936 -0.004078 0.000416 0.000000 0.025114 0.000000
# 6 0.000000 0.000000 0.000000 0.011005 0.000000 0.067237
#
#
# Mechanical properties :
#
#
# Convention : Reuss Voigt Hill
#
# Bulk Modulus (GPa) = 24.32731 47.11413 35.72072
# Shear Modulus (GPa) = 18.97236 28.22652 23.59944
#
# Velocity S-wave (km/s) = 3.05885 3.73101 3.41152
# Velocity P-wave (km/s) = 4.94700 6.46496 5.75624
#
# Compressibility (1/GPa) = 0.04110607
#
# Stress axis : x y z
#
# Youngs Moduli (GPa) = 99.15553 21.75271 123.34463
#
# Poissons Ratio (x) = 0.14203 0.25366
# Poissons Ratio (y) = 0.64743 0.36300
# Poissons Ratio (z) = 0.20391 0.06402
#
# Static dielectric constant tensor:
#      x y z
#    x 3.757570 0.000000 -0.001570 
#    y 0.000000 3.171120 0.000000 
#    z -0.001570 0.000000 4.023320 
# 
# 
# High freq. dielectric constant tensor:
#      x y z
#    x 1.809430 0.000000 0.000120 
#    y 0.000000 1.743220 0.000000 
#    z 0.000120 0.000000 1.816130 
# 
# From -- ./inp_files/6419.got.cif
#   From: 2010.03.12/outbox.cif.g09.slc.cpg/sg8_4_cif.got.tgz:6419.got - 2010.03.31 10:45:26.
