data_PCOD8052757
_publ_section_title
;
Structure prediction by ZEFSAII (Michael W. Deem and Ramdas Pophale) SiO2 
 PCOD8052757
Probable space group: C M
;
_chemical_formula_sum "Si O2"
_cell_formula_units_Z 32
_cell_length_a 5.221784
_cell_length_b 19.689659
_cell_length_c 16.063611
_cell_angle_alpha 90.000000
_cell_angle_beta 76.673287
_cell_angle_gamma 90.000000
_cell_volume 1607.107894
_symmetry_space_group_name_H-M "C M"
_symmetry_group_IT_number 8
_symmetry_cell_setting 'monoclinic'
loop_
_space_group_symop_operation_xyz
x,y,z
x,-y,z
1/2+x,1/2+y,z
1/2+x,1/2-y,z
loop_
_atom_site_type_symbol
_atom_site_label
_atom_site_fract_x
_atom_site_fract_y
_atom_site_fract_z
Si Si1 0.977660 0.289805 0.688900
Si Si2 0.209312 0.577899 0.610910
Si Si3 0.995831 0.418651 0.322369
Si Si4 0.877347 0.073411 0.773622
Si Si5 0.219924 0.080793 0.027269
Si Si6 0.141957 0.579639 0.130784
Si Si7 0.929359 0.080033 0.416794
Si Si8 0.828061 0.367362 0.843419
O O1 0.757295 0.247154 0.657380
O O2 0.930404 0.297149 0.793305
O O3 0.984372 0.365807 0.647442
O O4 0.093540 0.500000 0.612877
O O5 0.418744 0.581574 0.671164
O O6 0.360086 0.599485 0.516281
O O7 0.997041 0.500000 0.322629
O O8 0.062451 0.389069 0.225910
O O9 0.211195 0.389776 0.370688
O O10 0.713355 0.389463 0.371833
O O11 0.565623 0.079266 0.815468
O O12 0.061415 0.123522 0.810069
O O13 0.966862 0.000000 0.798402
O O14 0.445074 0.105060 0.073840
O O15 0.940025 0.099300 0.087834
O O16 0.237018 0.000000 0.003535
O O17 0.250163 0.130419 0.945662
O O18 0.107972 0.500000 0.140127
O O19 0.940286 0.000000 0.404767
#
# Coordination Sequence:
#
# PCOD8052757 Si02
#       8
#     4   4   4   4   4   4   4   4
#     4  11  24  42  59  79 113 152 186 225 278 337
#     4   9  20  37  58  85 112 145 192 237 274 319
#     4   9  16  27  42  65 102 143 173 207 268 333
#     4  10  19  31  49  74 106 138 173 222 275 318
#     4  10  18  28  45  70 101 135 177 224 266 316
#     4   9  17  27  41  65 102 143 173 208 269 333
#     4   9  17  28  46  71 101 135 176 222 264 316
#     4  11  21  34  51  73 101 141 184 225 270 322
#
# _framework density 19.911545
#
# number of rings (size 3 to 8) (size 9 to 14) (size 15 to 20)
#    0.000    2.250    0.000    4.125    0.000    8.000 
#    0.000    8.125    0.000    0.000    0.000    0.000 
#    0.000   20.000    0.000    0.000    0.000    0.000 
#
# Total GULP energy -198238.727939 kJ/mol
# GULP energy per Si atom -12389.920496 kJ/mol
# Density = 1.986622 g / cm^3
# Si number density = 19.911545 Si / 1000 Ang^3
#
#
#
# Elastic Constant Matrix: (Units=GPa)
#
#
# Indices 1 2 3 4 5 6 
#
# 1 137.6991 17.9265 44.4082 0.0000 5.5289 0.0000
# 2 17.9265 48.9875 12.8954 0.0000 -6.2941 0.0000
# 3 44.4082 12.8954 138.2544 0.0000 3.2586 0.0000
# 4 0.0000 0.0000 0.0000 12.8623 0.0000 -4.6873
# 5 5.5289 -6.2941 3.2586 0.0000 28.8986 0.0000
# 6 0.0000 0.0000 0.0000 -4.6873 0.0000 12.9172
#
#
#
# Elastic Compliance Matrix: (Units=1/GPa)
#
#
# Indices 1 2 3 4 5 6 
#
# 1 0.008475 -0.002712 -0.002423 0.000000 -0.001939 0.000000
# 2 -0.002712 0.022478 -0.001357 0.000000 0.005568 0.000000
# 3 -0.002423 -0.001357 0.008156 0.000000 -0.000751 0.000000
# 4 0.000000 0.000000 0.000000 0.089594 0.000000 0.032511
# 5 -0.001939 0.005568 -0.000751 0.000000 0.036272 0.000000
# 6 0.000000 0.000000 0.000000 0.032511 0.000000 0.089213
#
#
# Mechanical properties :
#
#
# Convention : Reuss Voigt Hill
#
# Bulk Modulus (GPa) = 38.27907 52.82236 45.55072
# Shear Modulus (GPa) = 18.12371 27.58301 22.85336
#
# Velocity S-wave (km/s) = 3.02024 3.72597 3.39151
# Velocity P-wave (km/s) = 5.60614 6.71540 6.18568
#
# Compressibility (1/GPa) = 0.02612393
#
# Stress axis : x y z
#
# Youngs Moduli (GPa) = 117.99755 44.48704 122.61335
#
# Poissons Ratio (x) = 0.12067 0.29715
# Poissons Ratio (y) = 0.32006 0.16634
# Poissons Ratio (z) = 0.28596 0.06035
#
# Static dielectric constant tensor:
#      x y z
#    x 3.709100 0.000000 -0.005500 
#    y 0.000000 3.114700 0.000000 
#    z -0.005500 0.000000 3.813340 
# 
# 
# High freq. dielectric constant tensor:
#      x y z
#    x 1.791220 0.000000 -0.001680 
#    y 0.000000 1.706570 0.000000 
#    z -0.001680 0.000000 1.780070 
# 
# From -- ./inp_files/24997.got.cif
#   From: 2010.03.12/outbox.cif.g09.slc.cpg/sg8_13_cif.got.tgz:24997.got - 2010.03.31 10:45:26.
