data_PCOD8052139
_publ_section_title
;
Structure prediction by ZEFSAII (Michael W. Deem and Ramdas Pophale) SiO2 
 PCOD8052139
Probable space group: C 2
;
_chemical_formula_sum "Si O2"
_cell_formula_units_Z 18
_cell_length_a 10.554544
_cell_length_b 8.683536
_cell_length_c 9.327599
_cell_angle_alpha 90.000000
_cell_angle_beta 120.068431
_cell_angle_gamma 90.000000
_cell_volume 739.838111
_symmetry_space_group_name_H-M "C 2"
_symmetry_group_IT_number 5
_symmetry_cell_setting 'monoclinic'
loop_
_space_group_symop_operation_xyz
x,y,z
-x,y,-z
1/2+x,1/2+y,z
1/2-x,1/2+y,-z
loop_
_atom_site_type_symbol
_atom_site_label
_atom_site_fract_x
_atom_site_fract_y
_atom_site_fract_z
Si Si1 0.834316 0.802140 0.628867
Si Si2 0.000000 0.613150 0.500000
Si Si3 0.836039 0.336479 0.950535
Si Si4 0.240377 0.994245 0.178312
Si Si5 0.327621 0.508898 0.381072
O O1 0.967858 0.716918 0.624092
O O2 0.719741 0.683853 0.631566
O O3 0.885404 0.907055 0.796173
O O4 0.752119 0.906120 0.462583
O O5 0.862745 0.514134 0.371853
O O6 0.817532 0.153593 0.918554
O O7 0.719656 0.435910 0.795902
O O8 0.806528 0.379901 0.097759
O O9 0.000000 0.385585 0.000000
O O10 0.500000 0.499416 0.500000
#
# Coordination Sequence:
#
# PCOD8052139 Si02
#       5
#     4   2   4   4   4
#     4  12  24  44  77 108 147 201 256 302 367 453
#     4  12  24  48  76 110 154 198 254 304 380 446
#     4  12  28  50  74 116 154 197 251 318 382 442
#     4  12  28  47  76 111 151 198 254 312 377 449
#     4  12  25  46  75 111 154 201 252 306 379 457
#
# _framework density 24.329647999999999
#
# number of rings (size 3 to 8) (size 9 to 14) (size 15 to 20)
#    0.000    0.000    5.556    2.667    1.556    7.111 
#    0.000    1.111    0.000    0.000    0.000    0.000 
#    0.000    0.000    0.000    0.000    0.000    0.000 
#
# Total GULP energy -111557.273759 kJ/mol
# GULP energy per Si atom -12395.252640 kJ/mol
# Density = 2.427427 g / cm^3
# Si number density = 24.329648 Si / 1000 Ang^3
#
#
#
# Elastic Constant Matrix: (Units=GPa)
#
#
# Indices 1 2 3 4 5 6 
#
# 1 120.3233 37.9703 61.1398 0.0000 -24.4367 0.0000
# 2 37.9703 142.9645 49.1606 0.0000 -19.8650 0.0000
# 3 61.1398 49.1606 93.4906 0.0000 -25.4207 0.0000
# 4 0.0000 0.0000 0.0000 38.5017 0.0000 -19.4228
# 5 -24.4367 -19.8650 -25.4207 0.0000 51.1476 0.0000
# 6 0.0000 0.0000 0.0000 -19.4228 0.0000 37.9299
#
#
#
# Elastic Compliance Matrix: (Units=1/GPa)
#
#
# Indices 1 2 3 4 5 6 
#
# 1 0.012695 -0.000511 -0.007444 0.000000 0.002167 0.000000
# 2 -0.000511 0.008629 -0.003883 0.000000 0.001177 0.000000
# 3 -0.007444 -0.003883 0.018765 0.000000 0.004262 0.000000
# 4 0.000000 0.000000 0.000000 0.035019 0.000000 0.017932
# 5 0.002167 0.001177 0.004262 0.000000 0.023162 0.000000
# 6 0.000000 0.000000 0.000000 0.017932 0.000000 0.035547
#
#
# Mechanical properties :
#
#
# Convention : Reuss Voigt Hill
#
# Bulk Modulus (GPa) = 60.92840 72.59110 66.75975
# Shear Modulus (GPa) = 30.68138 39.41637 35.04888
#
# Velocity S-wave (km/s) = 3.55501 4.02941 3.79962
# Velocity P-wave (km/s) = 6.47673 7.17979 6.83730
#
# Compressibility (1/GPa) = 0.01641271
#
# Stress axis : x y z
#
# Youngs Moduli (GPa) = 78.77216 115.88310 53.28957
#
# Poissons Ratio (x) = 0.05919 0.39670
# Poissons Ratio (y) = 0.04023 0.20695
# Poissons Ratio (z) = 0.58640 0.45003
#
# Static dielectric constant tensor:
#      x y z
#    x 4.279830 0.000000 -0.309890 
#    y 0.000000 4.683870 0.000000 
#    z -0.309890 0.000000 4.332070 
# 
# 
# High freq. dielectric constant tensor:
#      x y z
#    x 1.966780 0.000000 -0.029200 
#    y 0.000000 1.990530 0.000000 
#    z -0.029200 0.000000 1.962010 
# 
# From -- ./inp_files/18404.got.cif
#   From: 2010.03.12/outbox.cif.g09.slc.cpg/sg5_10_cif.got.tgz:18404.got - 2010.03.31 09:47:26.
