data_PCOD8052978
_publ_section_title
;
Structure prediction by ZEFSAII (Michael W. Deem and Ramdas Pophale) SiO2 
 PCOD8052978
Probable space group: C M
;
_chemical_formula_sum "Si O2"
_cell_formula_units_Z 32
_cell_length_a 20.767560
_cell_length_b 8.871488
_cell_length_c 25.449842
_cell_angle_alpha 90.000000
_cell_angle_beta 157.787943
_cell_angle_gamma 90.000000
_cell_volume 1772.555119
_symmetry_space_group_name_H-M "C M"
_symmetry_group_IT_number 8
_symmetry_cell_setting 'monoclinic'
loop_
_space_group_symop_operation_xyz
x,y,z
x,-y,z
1/2+x,1/2+y,z
1/2+x,1/2-y,z
loop_
_atom_site_type_symbol
_atom_site_label
_atom_site_fract_x
_atom_site_fract_y
_atom_site_fract_z
Si Si1 0.936050 0.824986 0.800320
Si Si2 0.010477 0.678665 0.352412
Si Si3 0.402090 0.675017 0.084985
Si Si4 0.749357 0.825562 0.082710
Si Si5 0.588776 0.325562 0.802587
Si Si6 0.554461 0.820958 0.503675
Si Si7 0.827647 0.321335 0.532878
Si Si8 0.283676 0.820957 0.381624
O O1 0.743299 0.768908 0.663455
O O2 0.982214 0.794212 0.774727
O O3 0.960450 0.000000 0.832569
O O4 0.055441 0.728827 0.929037
O O5 0.028332 0.500000 0.362873
O O6 0.009957 0.737472 0.411910
O O7 0.169057 0.749998 0.442639
O O8 0.833815 0.730952 0.193236
O O9 0.377702 0.500000 0.052750
O O10 0.355919 0.705807 0.110572
O O11 0.594838 0.731102 0.221846
O O12 0.282686 0.771157 0.956255
O O13 0.750601 0.000000 0.099031
O O14 0.587543 0.500000 0.786271
O O15 0.504302 0.230948 0.692053
O O16 0.419069 0.752432 0.442650
O O17 0.547092 0.000000 0.498364
O O18 0.809784 0.500000 0.522413
O O19 0.828182 0.262533 0.473392
O O20 0.291033 0.000000 0.386924
#
# Coordination Sequence:
#
# PCOD8052978 Si02
#       8
#     4   4   4   4   4   4   4   4
#     4   9  17  32  52  77 104 135 174 216 261 306
#     4  11  20  33  54  81 107 136 174 218 263 307
#     4   9  17  32  52  77 104 135 174 216 261 306
#     4  10  19  32  51  79 107 136 173 218 262 305
#     4  10  19  32  51  79 107 136 173 218 262 305
#     4   9  18  34  55  78 105 136 175 219 259 306
#     4  11  20  33  54  81 107 136 174 218 263 307
#     4   9  18  34  55  78 105 136 175 219 259 306
#
# _framework density 18.053035999999999
#
# number of rings (size 3 to 8) (size 9 to 14) (size 15 to 20)
#    0.000    2.250    2.500    1.500    0.000    1.000 
#    0.000    1.250    0.000   14.250    0.000    0.000 
#    0.000    0.000    0.000    0.000    0.000    0.000 
#
# Total GULP energy -198422.317031 kJ/mol
# GULP energy per Si atom -12401.394814 kJ/mol
# Density = 1.801195 g / cm^3
# Si number density = 18.053036 Si / 1000 Ang^3
#
#
#
# Elastic Constant Matrix: (Units=GPa)
#
#
# Indices 1 2 3 4 5 6 
#
# 1 116.6168 34.9332 78.3118 -0.0024 1.9375 -0.0008
# 2 34.9332 53.9379 36.4842 -0.0203 -5.3211 0.0043
# 3 78.3118 36.4842 155.2148 -0.0407 2.9782 0.0112
# 4 -0.0024 -0.0203 -0.0407 32.9871 0.0082 -3.9131
# 5 1.9375 -5.3211 2.9782 0.0082 28.9319 -0.0009
# 6 -0.0008 0.0043 0.0112 -3.9131 -0.0009 17.5843
#
#
#
# Elastic Compliance Matrix: (Units=1/GPa)
#
#
# Indices 1 2 3 4 5 6 
#
# 1 0.014116 -0.005318 -0.005847 -0.000009 -0.001322 0.000004
# 2 -0.005318 0.024676 -0.003217 0.000009 0.005226 -0.000002
# 3 -0.005847 -0.003217 0.010173 0.000010 -0.001247 -0.000004
# 4 -0.000009 0.000009 0.000010 0.031137 -0.000007 0.006929
# 5 -0.001322 0.005226 -0.001247 -0.000007 0.035742 0.000000
# 6 0.000004 -0.000002 -0.000004 0.006929 0.000000 0.058411
#
#
# Mechanical properties :
#
#
# Convention : Reuss Voigt Hill
#
# Bulk Modulus (GPa) = 49.50341 69.46978 59.48659
# Shear Modulus (GPa) = 23.83758 27.63670 25.73714
#
# Velocity S-wave (km/s) = 3.63770 3.91687 3.77986
# Velocity P-wave (km/s) = 6.71747 7.68247 7.21612
#
# Compressibility (1/GPa) = 0.02020063
#
# Stress axis : x y z
#
# Youngs Moduli (GPa) = 70.83917 40.52536 98.30079
#
# Poissons Ratio (x) = 0.21552 0.57475
# Poissons Ratio (y) = 0.37673 0.31626
# Poissons Ratio (z) = 0.41419 0.13038
#
# Static dielectric constant tensor:
#      x y z
#    x 3.344760 -0.000010 -0.050390 
#    y -0.000010 3.169930 0.000000 
#    z -0.050390 0.000000 3.597170 
# 
# 
# High freq. dielectric constant tensor:
#      x y z
#    x 1.673210 0.000000 -0.008830 
#    y 0.000000 1.681480 0.000000 
#    z -0.008830 0.000000 1.715820 
# 
# From -- ./inp_files/15860.got.cif
#   From: 2010.03.12/outbox.cif.g09.slc.cpg/sg8_8_cif.got.tgz:15860.got - 2010.03.31 10:45:26.
