data_PCOD8052949
_publ_section_title
;
Structure prediction by ZEFSAII (Michael W. Deem and Ramdas Pophale) SiO2 
 PCOD8052949
Probable space group: C M
;
_chemical_formula_sum "Si O2"
_cell_formula_units_Z 32
_cell_length_a 35.916400
_cell_length_b 8.471158
_cell_length_c 5.178903
_cell_angle_alpha 90.000000
_cell_angle_beta 89.962269
_cell_angle_gamma 90.000000
_cell_volume 1575.699018
_symmetry_space_group_name_H-M "C M"
_symmetry_group_IT_number 8
_symmetry_cell_setting 'monoclinic'
loop_
_space_group_symop_operation_xyz
x,y,z
x,-y,z
1/2+x,1/2+y,z
1/2+x,1/2-y,z
loop_
_atom_site_type_symbol
_atom_site_label
_atom_site_fract_x
_atom_site_fract_y
_atom_site_fract_z
Si Si1 0.108050 0.313318 0.806920
Si Si2 0.981827 0.183465 0.316253
Si Si3 0.444485 0.814585 0.817099
Si Si4 0.734997 0.187338 0.286470
Si Si5 0.563338 0.187255 0.310866
Si Si6 0.317741 0.812793 0.287593
Si Si7 0.691395 0.188003 0.787393
Si Si8 0.860106 0.312118 0.788048
O O1 0.110859 0.500000 0.787949
O O2 0.083620 0.251159 0.568381
O O3 0.149631 0.241652 0.793889
O O4 0.089079 0.261108 0.072523
O O5 0.969612 0.228332 0.604989
O O6 0.024874 0.222762 0.282052
O O7 0.975089 0.000000 0.267816
O O8 0.958418 0.279803 0.105367
O O9 0.402409 0.751149 0.791915
O O10 0.447042 0.000000 0.764962
O O11 0.775729 0.257627 0.296727
O O12 0.711951 0.249652 0.531877
O O13 0.737746 0.000000 0.286158
O O14 0.714095 0.251406 0.033334
O O15 0.556041 0.000000 0.315550
O O16 0.339772 0.745395 0.534486
O O17 0.318947 0.000000 0.287682
O O18 0.338050 0.744004 0.034597
O O19 0.689846 0.000000 0.792185
O O20 0.859674 0.500000 0.793715
#
# Coordination Sequence:
#
# PCOD8052949 Si02
#       8
#     4   4   4   4   4   4   4   4
#     4   9  17  30  52  79 102 131 180 235 273 309
#     4  12  25  40  58  87 125 156 183 229 299 355
#     4  11  22  41  66  87 110 149 202 245 279 335
#     4  10  19  31  49  74 104 138 173 211 265 327
#     4  10  19  33  55  80 104 138 187 231 269 325
#     4  10  19  34  54  77 105 136 173 219 271 321
#     4   9  17  30  49  74 104 135 172 223 273 311
#     4   9  19  35  57  80 102 135 180 229 273 315
#
# _framework density 20.308444999999999
#
# number of rings (size 3 to 8) (size 9 to 14) (size 15 to 20)
#    0.000    2.000    0.000    4.500    0.000    6.000 
#    0.000    3.750    0.000    4.500    0.000    0.000 
#    0.000    0.000    0.000    0.000    0.000    0.000 
#
# Total GULP energy -198449.510583 kJ/mol
# GULP energy per Si atom -12403.094411 kJ/mol
# Density = 2.026222 g / cm^3
# Si number density = 20.308445 Si / 1000 Ang^3
#
#
#
# Elastic Constant Matrix: (Units=GPa)
#
#
# Indices 1 2 3 4 5 6 
#
# 1 133.3411 24.2310 36.3308 0.0000 9.1207 0.0000
# 2 24.2310 26.5144 17.9205 0.0000 -2.8418 0.0000
# 3 36.3308 17.9205 135.6896 0.0000 8.6546 0.0000
# 4 0.0000 0.0000 0.0000 13.5856 0.0000 0.4578
# 5 9.1207 -2.8418 8.6546 0.0000 46.4711 0.0000
# 6 0.0000 0.0000 0.0000 0.4578 0.0000 26.0985
#
#
#
# Elastic Compliance Matrix: (Units=1/GPa)
#
#
# Indices 1 2 3 4 5 6 
#
# 1 0.009455 -0.007954 -0.001348 0.000000 -0.002091 0.000000
# 2 -0.007954 0.048705 -0.004647 0.000000 0.005405 0.000000
# 3 -0.001348 -0.004647 0.008446 0.000000 -0.001593 0.000000
# 4 0.000000 0.000000 0.000000 0.073651 0.000000 -0.001292
# 5 -0.002091 0.005405 -0.001593 0.000000 0.022556 0.000000
# 6 0.000000 0.000000 0.000000 -0.001292 0.000000 0.038339
#
#
# Mechanical properties :
#
#
# Convention : Reuss Voigt Hill
#
# Bulk Modulus (GPa) = 25.83484 50.27885 38.05685
# Shear Modulus (GPa) = 20.66508 31.70188 26.18348
#
# Velocity S-wave (km/s) = 3.19338 3.95526 3.59456
# Velocity P-wave (km/s) = 5.13281 6.75797 6.00066
#
# Compressibility (1/GPa) = 0.03870742
#
# Stress axis : x y z
#
# Youngs Moduli (GPa) = 105.76109 20.53175 118.39924
#
# Poissons Ratio (x) = 0.16331 0.15957
# Poissons Ratio (y) = 0.84125 0.55026
# Poissons Ratio (z) = 0.14254 0.09542
#
# Static dielectric constant tensor:
#      x y z
#    x 3.867490 0.000000 0.012230 
#    y 0.000000 3.202780 0.000000 
#    z 0.012230 0.000000 4.056870 
# 
# 
# High freq. dielectric constant tensor:
#      x y z
#    x 1.812760 0.000000 0.000150 
#    y 0.000000 1.745480 0.000000 
#    z 0.000150 0.000000 1.814330 
# 
# From -- ./inp_files/6421.got.cif
#   From: 2010.03.12/outbox.cif.g09.slc.cpg/sg8_4_cif.got.tgz:6421.got - 2010.03.31 10:45:26.
