data_PCOD8052636
_publ_section_title
;
Structure prediction by ZEFSAII (Michael W. Deem and Ramdas Pophale) SiO2 
 PCOD8052636
Probable space group: P C
;
_chemical_formula_sum "Si O2"
_cell_formula_units_Z 16
_cell_length_a 17.878311
_cell_length_b 7.754244
_cell_length_c 5.224603
_cell_angle_alpha 90.000000
_cell_angle_beta 100.948777
_cell_angle_gamma 90.000000
_cell_volume 711.117085
_symmetry_space_group_name_H-M "P C"
_symmetry_group_IT_number 7
_symmetry_cell_setting 'monoclinic'
loop_
_space_group_symop_operation_xyz
x,y,z
x,-y,1/2+z
loop_
_atom_site_type_symbol
_atom_site_label
_atom_site_fract_x
_atom_site_fract_y
_atom_site_fract_z
Si Si1 0.342230 0.592869 0.171780
Si Si2 0.705697 0.107221 0.260272
Si Si3 0.963192 0.117683 0.416320
Si Si4 0.827455 0.383695 0.335175
Si Si5 0.235943 0.884820 0.109378
Si Si6 0.507069 0.452351 0.239911
Si Si7 0.527727 0.093247 0.123336
Si Si8 0.101221 0.617723 0.023638
O O1 0.307288 0.497925 0.397419
O O2 0.319678 0.795736 0.159991
O O3 0.433830 0.575654 0.235443
O O4 0.744525 0.294747 0.284608
O O5 0.615902 0.144272 0.206568
O O6 0.730480 0.000753 0.527233
O O7 0.886477 0.227281 0.379415
O O8 0.033417 0.246437 0.474368
O O9 0.966505 0.013444 0.154420
O O10 0.838705 0.495847 0.088218
O O11 0.179096 0.723899 0.066924
O O12 0.223927 0.995372 0.356308
O O13 0.556050 0.474187 0.532034
O O14 0.479235 0.258013 0.178702
O O15 0.506801 0.947376 0.316796
O O16 0.095539 0.507289 0.277604
#
# Coordination Sequence:
#
# PCOD8052636 Si02
#       8
#     2   2   2   2   2   2   2   2
#     4  10  21  41  60  84 117 155 192 239 299 355
#     4  10  21  39  60  85 119 159 200 247 305 358
#     4  12  24  42  64  90 126 166 205 247 298 353
#     4  12  24  39  60  91 124 160 207 251 298 353
#     4  12  24  41  64  92 121 156 203 248 296 357
#     4  10  21  38  59  83 117 153 191 238 299 360
#     4  10  21  38  61  88 117 153 200 250 299 357
#     4  12  24  42  66  93 125 160 200 250 302 353
#
# _framework density 22.499811000000001
#
# number of rings (size 3 to 8) (size 9 to 14) (size 15 to 20)
#    0.000    1.000    0.000    7.500    0.000    1.000 
#    0.000   15.000    0.000    0.000    0.000    0.000 
#    0.000    0.000    0.000    0.000    0.000    0.000 
#
# Total GULP energy -198365.246187 kJ/mol
# GULP energy per Si atom -12397.827887 kJ/mol
# Density = 2.244860 g / cm^3
# Si number density = 22.499811 Si / 1000 Ang^3
#
#
#
# Elastic Constant Matrix: (Units=GPa)
#
#
# Indices 1 2 3 4 5 6 
#
# 1 25.9046 16.7748 25.2858 0.0000 -4.6825 0.0000
# 2 16.7748 103.0721 46.0093 0.0000 -9.2744 0.0000
# 3 25.2858 46.0093 164.4251 0.0000 -33.7598 0.0000
# 4 0.0000 0.0000 0.0000 60.1771 0.0000 -6.6253
# 5 -4.6825 -9.2744 -33.7598 0.0000 22.7474 0.0000
# 6 0.0000 0.0000 0.0000 -6.6253 0.0000 49.9088
#
#
#
# Elastic Compliance Matrix: (Units=1/GPa)
#
#
# Indices 1 2 3 4 5 6 
#
# 1 0.047715 -0.005128 -0.006207 0.000000 -0.001480 0.000000
# 2 -0.005128 0.011638 -0.002460 0.000000 0.000038 0.000000
# 3 -0.006207 -0.002460 0.010437 0.000000 0.013209 0.000000
# 4 0.000000 0.000000 0.000000 0.016864 0.000000 0.002239
# 5 -0.001480 0.000038 0.013209 0.000000 0.063275 0.000000
# 6 0.000000 0.000000 0.000000 0.002239 0.000000 0.020334
#
#
# Mechanical properties :
#
#
# Convention : Reuss Voigt Hill
#
# Bulk Modulus (GPa) = 23.69682 52.17127 37.93405
# Shear Modulus (GPa) = 23.59393 40.25546 31.92469
#
# Velocity S-wave (km/s) = 3.24177 4.23442 3.77090
# Velocity P-wave (km/s) = 4.95650 6.86621 5.98798
#
# Compressibility (1/GPa) = 0.04219975
#
# Stress axis : x y z
#
# Youngs Moduli (GPa) = 20.95784 85.92451 95.81622
#
# Poissons Ratio (x) = 0.44063 0.59470
# Poissons Ratio (y) = 0.10747 0.23572
# Poissons Ratio (z) = 0.13008 0.21138
#
# Static dielectric constant tensor:
#      x y z
#    x 4.011930 0.000000 -0.137250 
#    y 0.000000 4.172200 0.000000 
#    z -0.137250 0.000000 4.975020 
# 
# 
# High freq. dielectric constant tensor:
#      x y z
#    x 1.872180 0.000000 -0.008960 
#    y 0.000000 1.900910 0.000000 
#    z -0.008960 0.000000 1.919380 
# 
# From -- ./inp_files/1345.got.cif
#   From: 2010.03.12/outbox.cif.g09.slc.cpg/sg7_cif.got.tgz:1345.got - 2010.03.30 08:40:41.
