data_PCOD8052851
_publ_section_title
;
Structure prediction by ZEFSAII (Michael W. Deem and Ramdas Pophale) SiO2 
 PCOD8052851
Probable space group: C M
;
_chemical_formula_sum "Si O2"
_cell_formula_units_Z 32
_cell_length_a 19.671613
_cell_length_b 8.848209
_cell_length_c 19.912211
_cell_angle_alpha 90.000000
_cell_angle_beta 28.901615
_cell_angle_gamma 90.000000
_cell_volume 1675.089318
_symmetry_space_group_name_H-M "C M"
_symmetry_group_IT_number 8
_symmetry_cell_setting 'monoclinic'
loop_
_space_group_symop_operation_xyz
x,y,z
x,-y,z
1/2+x,1/2+y,z
1/2+x,1/2-y,z
loop_
_atom_site_type_symbol
_atom_site_label
_atom_site_fract_x
_atom_site_fract_y
_atom_site_fract_z
Si Si1 0.495510 0.179838 0.258040
Si Si2 0.191844 0.180699 0.564809
Si Si3 0.643542 0.820484 0.263651
Si Si4 0.428943 0.678129 0.707840
Si Si5 0.956079 0.180594 0.026337
Si Si6 0.615989 0.819848 0.011622
Si Si7 0.158859 0.831110 0.740354
Si Si8 0.457961 0.830370 0.545026
O O1 0.334778 0.239610 0.405307
O O2 0.589986 0.243039 0.238200
O O3 0.562101 0.238635 0.130740
O O4 0.497431 0.000000 0.257149
O O5 0.183602 0.249733 0.647417
O O6 0.052099 0.241720 0.649136
O O7 0.198766 0.000000 0.560420
O O8 0.798862 0.764978 0.147219
O O9 0.544995 0.758619 0.408406
O O10 0.633098 0.000000 0.270414
O O11 0.424132 0.500000 0.716744
O O12 0.475144 0.724144 0.593803
O O13 0.275409 0.741787 0.862032
O O14 0.010752 0.252837 0.047671
O O15 0.970403 0.000000 0.019842
O O16 0.042474 0.247400 0.888078
O O17 0.611688 0.000000 0.010555
O O18 0.297080 0.834143 0.664702
O O19 0.105844 0.000000 0.770068
O O20 0.510745 0.000000 0.516649
#
# Coordination Sequence:
#
# PCOD8052851 Si02
#       8
#     4   4   4   4   4   4   4   4
#     4   9  17  31  49  72 102 131 162 205 251 289
#     4   9  17  30  49  74 100 128 166 208 246 287
#     4   9  18  31  51  78 101 125 166 213 247 283
#     4  10  21  33  49  76 104 131 164 204 247 294
#     4  10  20  33  52  77 101 130 166 205 248 292
#     4  10  21  34  49  73 105 135 163 201 248 296
#     4   9  16  29  51  74  95 124 167 210 243 281
#     4  10  18  33  54  74  98 130 166 206 250 292
#
# _framework density 19.103458
#
# number of rings (size 3 to 8) (size 9 to 14) (size 15 to 20)
#    0.000    2.500    2.500    0.000    3.500    0.000 
#    0.000    0.000    0.000    3.000    0.000    0.000 
#    0.000    0.000    0.000    0.000    0.000    0.000 
#
# Total GULP energy -198318.048835 kJ/mol
# GULP energy per Si atom -12394.878052 kJ/mol
# Density = 1.905998 g / cm^3
# Si number density = 19.103458 Si / 1000 Ang^3
#
#
#
# Elastic Constant Matrix: (Units=GPa)
#
#
# Indices 1 2 3 4 5 6 
#
# 1 144.3599 13.6830 65.5120 0.0000 1.0796 0.0000
# 2 13.6830 5.9693 13.0421 -0.0002 -1.4184 0.0005
# 3 65.5120 13.0421 129.6525 0.0003 1.7794 0.0001
# 4 0.0000 -0.0002 0.0003 12.7134 0.0001 4.2775
# 5 1.0796 -1.4184 1.7794 0.0001 40.5268 -0.0002
# 6 0.0000 0.0005 0.0001 4.2775 -0.0002 23.0607
#
#
#
# Elastic Compliance Matrix: (Units=1/GPa)
#
#
# Indices 1 2 3 4 5 6 
#
# 1 0.009972 -0.015410 -0.003479 0.000000 -0.000652 0.000000
# 2 -0.015410 0.241469 -0.016635 0.000007 0.009592 -0.000006
# 3 -0.003479 -0.016635 0.011158 -0.000001 -0.000979 0.000000
# 4 0.000000 0.000007 -0.000001 0.083893 0.000000 -0.015561
# 5 -0.000652 0.009592 -0.000979 0.000000 0.025071 0.000000
# 6 0.000000 -0.000006 0.000000 -0.015561 0.000000 0.046250
#
#
# Mechanical properties :
#
#
# Convention : Reuss Voigt Hill
#
# Bulk Modulus (GPa) = 5.22057 51.60620 28.41339
# Shear Modulus (GPa) = 9.04630 27.77650 18.41140
#
# Velocity S-wave (km/s) = 2.17846 3.81728 3.10784
# Velocity P-wave (km/s) = 3.01103 6.81920 5.27105
#
# Compressibility (1/GPa) = 0.19154980
#
# Stress axis : x y z
#
# Youngs Moduli (GPa) = 100.28446 4.14131 89.62265
#
# Poissons Ratio (x) = 0.06382 0.31184
# Poissons Ratio (y) = 1.54537 1.49089
# Poissons Ratio (z) = 0.34894 0.06889
#
# Static dielectric constant tensor:
#      x y z
#    x 3.646510 0.000000 0.042200 
#    y 0.000000 2.898630 0.000000 
#    z 0.042200 0.000000 3.844980 
# 
# 
# High freq. dielectric constant tensor:
#      x y z
#    x 1.754210 0.000000 0.003390 
#    y 0.000000 1.671870 0.000000 
#    z 0.003390 0.000000 1.762780 
# 
# From -- ./inp_files/14827.got.cif
#   From: 2010.03.12/outbox.cif.g09.slc.cpg/sg8_8_cif.got.tgz:14827.got - 2010.03.31 10:45:26.
