data_PCOD8052929
_publ_section_title
;
Structure prediction by ZEFSAII (Michael W. Deem and Ramdas Pophale) SiO2 
 PCOD8052929
Probable space group: C M
;
_chemical_formula_sum "Si O2"
_cell_formula_units_Z 32
_cell_length_a 19.189147
_cell_length_b 9.301120
_cell_length_c 11.452572
_cell_angle_alpha 90.000000
_cell_angle_beta 64.474706
_cell_angle_gamma 90.000000
_cell_volume 1844.551123
_symmetry_space_group_name_H-M "C M"
_symmetry_group_IT_number 8
_symmetry_cell_setting 'monoclinic'
loop_
_space_group_symop_operation_xyz
x,y,z
x,-y,z
1/2+x,1/2+y,z
1/2+x,1/2-y,z
loop_
_atom_site_type_symbol
_atom_site_label
_atom_site_fract_x
_atom_site_fract_y
_atom_site_fract_z
Si Si1 0.220310 0.839234 0.614890
Si Si2 0.481390 0.330682 0.908224
Si Si3 0.780618 0.162128 0.373568
Si Si4 0.841672 0.667927 0.121742
Si Si5 0.141613 0.170686 0.897891
Si Si6 0.113148 0.339159 0.379336
Si Si7 0.054199 0.158436 0.616902
Si Si8 0.676635 0.333056 0.130373
O O1 0.278782 0.735303 0.502959
O O2 0.203628 0.774174 0.756359
O O3 0.139646 0.847533 0.606507
O O4 0.256295 0.000000 0.594755
O O5 0.465200 0.500000 0.938685
O O6 0.555042 0.278069 0.930417
O O7 0.495432 0.295428 0.761540
O O8 0.409487 0.236374 0.998110
O O9 0.837249 0.253691 0.250081
O O10 0.695893 0.161259 0.380541
O O11 0.812683 0.000000 0.362424
O O12 0.856709 0.500000 0.132492
O O13 0.764204 0.694398 0.104428
O O14 0.143473 0.000000 0.889061
O O15 0.166021 0.227791 0.007203
O O16 0.085528 0.500000 0.371025
O O17 0.050141 0.268364 0.511497
O O18 0.117197 0.250872 0.256265
O O19 0.032286 0.000000 0.585868
O O20 0.654589 0.500000 0.153846
#
# Coordination Sequence:
#
# PCOD8052929 Si02
#       8
#     4   4   4   4   4   4   4   4
#     4   8  13  24  43  65  86 107 140 185 225 260
#     4   9  17  30  48  68  90 116 147 183 221 262
#     4   9  16  26  41  62  88 116 147 183 221 259
#     4  10  19  29  44  67  93 120 148 180 219 262
#     4   8  15  29  49  69  88 116 150 181 217 263
#     4   9  16  25  40  64  90 114 144 185 225 255
#     4   8  14  25  42  63  85 111 143 180 222 264
#     4   9  17  30  47  66  90 120 151 179 214 265
#
# _framework density 17.348393999999999
#
# number of rings (size 3 to 8) (size 9 to 14) (size 15 to 20)
#    0.000    3.250    0.000    2.625    0.000    4.000 
#    0.000    3.125    0.000    1.500    0.000    3.500 
#    0.000    0.000    0.000    0.000    0.000    0.000 
#
# Total GULP energy -198323.010995 kJ/mol
# GULP energy per Si atom -12395.188187 kJ/mol
# Density = 1.730891 g / cm^3
# Si number density = 17.348394 Si / 1000 Ang^3
#
#
#
# Elastic Constant Matrix: (Units=GPa)
#
#
# Indices 1 2 3 4 5 6 
#
# 1 26.7362 27.6191 40.3984 0.0000 4.1440 0.0000
# 2 27.6191 111.2393 88.7909 0.0000 -1.9458 0.0000
# 3 40.3984 88.7909 177.0830 0.0000 5.5140 0.0000
# 4 0.0000 0.0000 0.0000 32.8320 0.0000 -5.6626
# 5 4.1440 -1.9458 5.5140 0.0000 25.3988 0.0000
# 6 0.0000 0.0000 0.0000 -5.6626 0.0000 12.1605
#
#
#
# Elastic Compliance Matrix: (Units=1/GPa)
#
#
# Indices 1 2 3 4 5 6 
#
# 1 0.061571 -0.007390 -0.010079 0.000000 -0.008424 0.000000
# 2 -0.007390 0.016075 -0.006494 0.000000 0.003847 0.000000
# 3 -0.010079 -0.006494 0.011243 0.000000 -0.001294 0.000000
# 4 0.000000 0.000000 0.000000 0.033118 0.000000 0.015421
# 5 -0.008424 0.003847 -0.001294 0.000000 0.041322 0.000000
# 6 0.000000 0.000000 0.000000 0.015421 0.000000 0.089414
#
#
# Mechanical properties :
#
#
# Convention : Reuss Voigt Hill
#
# Bulk Modulus (GPa) = 24.41187 69.85282 47.13234
# Shear Modulus (GPa) = 15.90719 24.62827 20.26773
#
# Velocity S-wave (km/s) = 3.03136 3.77188 3.42171
# Velocity P-wave (km/s) = 5.13364 7.70205 6.54507
#
# Compressibility (1/GPa) = 0.04096369
#
# Stress axis : x y z
#
# Youngs Moduli (GPa) = 16.24147 62.20681 88.94461
#
# Poissons Ratio (x) = 0.45969 0.89645
# Poissons Ratio (y) = 0.12002 0.57763
# Poissons Ratio (z) = 0.16369 0.40399
#
# Static dielectric constant tensor:
#      x y z
#    x 2.740700 0.000000 0.145380 
#    y 0.000000 3.287900 0.000000 
#    z 0.145380 0.000000 3.586970 
# 
# 
# High freq. dielectric constant tensor:
#      x y z
#    x 1.605990 0.000000 0.003460 
#    y 0.000000 1.662530 0.000000 
#    z 0.003460 0.000000 1.688410 
# 
# From -- ./inp_files/23677.got.cif
#   From: 2010.03.12/outbox.cif.g09.slc.cpg/sg8_12_cif.got.tgz:23677.got - 2010.03.31 10:45:26.
