data_PCOD8052557
_publ_section_title
;
Structure prediction by ZEFSAII (Michael W. Deem and Ramdas Pophale) SiO2 
 PCOD8052557
Probable space group: P M
;
_chemical_formula_sum "Si O2"
_cell_formula_units_Z 16
_cell_length_a 16.011022
_cell_length_b 8.792181
_cell_length_c 14.346266
_cell_angle_alpha 90.000000
_cell_angle_beta 26.357314
_cell_angle_gamma 90.000000
_cell_volume 896.614934
_symmetry_space_group_name_H-M "P M"
_symmetry_group_IT_number 6
_symmetry_cell_setting 'monoclinic'
loop_
_space_group_symop_operation_xyz
x,y,z
x,-y,z
loop_
_atom_site_type_symbol
_atom_site_label
_atom_site_fract_x
_atom_site_fract_y
_atom_site_fract_z
Si Si1 0.326970 0.319323 0.638000
Si Si2 0.326957 0.680672 0.936151
Si Si3 0.311921 0.320911 0.160001
Si Si4 0.311914 0.320912 0.444242
Si Si5 0.034591 0.681083 0.079451
Si Si6 0.035919 0.178944 0.578129
Si Si7 0.632659 0.675949 0.981377
Si Si8 0.618283 0.318598 0.495754
O O1 0.330395 0.500000 0.629658
O O2 0.325861 0.253133 0.534685
O O3 0.510746 0.261612 0.510351
O O4 0.142435 0.263228 0.878602
O O5 0.330406 0.500000 0.937625
O O6 0.510715 0.738410 0.696253
O O7 0.325851 0.746869 0.041681
O O8 0.142409 0.736754 0.064644
O O9 0.272245 0.500000 0.201037
O O10 0.135175 0.243415 0.386619
O O11 0.508030 0.284300 0.015244
O O12 0.272258 0.500000 0.482537
O O13 0.135135 0.243432 0.571170
O O14 0.507994 0.284254 0.196790
O O15 0.026447 0.500000 0.087594
O O16 0.826538 0.752536 0.287501
O O17 0.817158 0.221929 0.796878
O O18 0.056152 0.000000 0.557899
O O19 0.693144 0.500000 0.920913
O O20 0.624795 0.500000 0.489251
#
# Coordination Sequence:
#
# PCOD8052557 Si02
#       8
#     2   2   2   2   2   2   2   2
#     4   8  14  24  39  63  93 122 152 184 223 273
#     4   8  14  24  39  63  93 122 152 184 223 273
#     4   9  18  33  52  72  95 125 161 199 236 278
#     4   9  18  33  52  72  95 125 161 199 236 278
#     4   8  13  21  36  61  95 126 146 176 224 274
#     4  11  22  34  49  69  95 125 157 199 246 290
#     4   9  18  32  49  69  93 123 161 201 238 280
#     4   8  13  21  34  59  95 126 148 176 222 274
#
# _framework density 17.844895000000001
#
# number of rings (size 3 to 8) (size 9 to 14) (size 15 to 20)
#    0.000    3.250    0.000    3.375    0.000    4.000 
#    0.000    7.500    0.000    0.000    0.000    3.500 
#    0.000    2.000    0.000    0.000    0.000    0.000 
#
# Total GULP energy -198319.758628 kJ/mol
# GULP energy per Si atom -12394.984914 kJ/mol
# Density = 1.780428 g / cm^3
# Si number density = 17.844895 Si / 1000 Ang^3
#
#
#
# Elastic Constant Matrix: (Units=GPa)
#
#
# Indices 1 2 3 4 5 6 
#
# 1 166.5637 25.7558 109.9181 0.0000 20.4811 0.0000
# 2 25.7558 35.3268 28.3988 0.0000 -1.9638 0.0000
# 3 109.9181 28.3988 150.1696 0.0000 -8.3854 0.0000
# 4 0.0000 0.0000 0.0000 6.9025 0.0000 -1.5527
# 5 20.4811 -1.9638 -8.3854 0.0000 35.9302 0.0000
# 6 0.0000 0.0000 0.0000 -1.5527 0.0000 4.8001
#
#
#
# Elastic Compliance Matrix: (Units=1/GPa)
#
#
# Indices 1 2 3 4 5 6 
#
# 1 0.015336 -0.002690 -0.011361 0.000000 -0.011540 0.000000
# 2 -0.002690 0.033858 -0.004301 0.000000 0.002380 0.000000
# 3 -0.011361 -0.004301 0.016350 0.000000 0.010057 0.000000
# 4 0.000000 0.000000 0.000000 0.156243 0.000000 0.050540
# 5 -0.011540 0.002380 0.010057 0.000000 0.036887 0.000000
# 6 0.000000 0.000000 0.000000 0.050540 0.000000 0.224679
#
#
# Mechanical properties :
#
#
# Convention : Reuss Voigt Hill
#
# Bulk Modulus (GPa) = 34.67402 75.57839 55.12621
# Shear Modulus (GPa) = 9.43982 22.05905 15.74943
#
# Velocity S-wave (km/s) = 2.30248 3.51971 2.97404
# Velocity P-wave (km/s) = 5.15185 7.67872 6.53851
#
# Compressibility (1/GPa) = 0.02884003
#
# Stress axis : x y z
#
# Youngs Moduli (GPa) = 65.20601 29.53491 61.16194
#
# Poissons Ratio (x) = 0.07944 0.69487
# Poissons Ratio (y) = 0.17537 0.26309
# Poissons Ratio (z) = 0.74081 0.12704
#
# Static dielectric constant tensor:
#      x y z
#    x 3.670720 0.000000 0.105340 
#    y 0.000000 2.698540 0.000000 
#    z 0.105340 0.000000 3.528480 
# 
# 
# High freq. dielectric constant tensor:
#      x y z
#    x 1.698250 0.000000 0.001480 
#    y 0.000000 1.629870 0.000000 
#    z 0.001480 0.000000 1.696230 
# 
# From -- ./inp_files/5627.got.cif
#   From: 2010.03.12/outbox.cif.g09.slc.cpg/sg6_3_cif.got.tgz:5627.got - 2010.03.30 10:24:59.
