data_PCOD8052130
_publ_section_title
;
Structure prediction by ZEFSAII (Michael W. Deem and Ramdas Pophale) SiO2 
 PCOD8052130
Probable space group: C 2
;
_chemical_formula_sum "Si O2"
_cell_formula_units_Z 28
_cell_length_a 8.657664
_cell_length_b 5.003243
_cell_length_c 32.132577
_cell_angle_alpha 90.000000
_cell_angle_beta 115.755627
_cell_angle_gamma 90.000000
_cell_volume 1253.593174
_symmetry_space_group_name_H-M "C 2"
_symmetry_group_IT_number 5
_symmetry_cell_setting 'monoclinic'
loop_
_space_group_symop_operation_xyz
x,y,z
-x,y,-z
1/2+x,1/2+y,z
1/2-x,1/2+y,-z
loop_
_atom_site_type_symbol
_atom_site_label
_atom_site_fract_x
_atom_site_fract_y
_atom_site_fract_z
Si Si1 0.482270 0.105510 0.411416
Si Si2 0.136756 0.105907 0.981942
Si Si3 0.597682 0.127990 0.838644
Si Si4 0.373967 0.605137 0.447125
Si Si5 0.608678 0.207481 0.268579
Si Si6 0.989615 0.131181 0.874761
Si Si7 0.664785 0.209657 0.695305
O O1 0.383482 0.307144 0.430239
O O2 0.683461 0.151849 0.441711
O O3 0.437635 0.151005 0.358469
O O4 0.422676 0.808544 0.416084
O O5 0.041362 0.176567 0.928292
O O6 0.228725 0.369816 0.009966
O O7 0.000000 0.008605 0.000000
O O8 0.472450 0.139577 0.785021
O O9 0.788932 0.192147 0.846024
O O10 0.535067 0.332351 0.866481
O O11 0.594332 0.832837 0.857718
O O12 0.500000 0.653709 0.500000
O O13 0.467859 0.305058 0.285103
O O14 0.742175 0.445370 0.277293
O O15 0.700679 0.945158 0.297334
#
# Coordination Sequence:
#
# PCOD8052130 Si02
#       7
#     4   4   4   4   4   4   4
#     4  12  24  43  67  96 129 169 214 264 318 379
#     4  12  25  44  67  96 130 169 213 264 319 379
#     4  12  25  44  67  96 130 170 214 264 318 379
#     4  12  25  44  67  96 130 170 214 264 319 380
#     4  12  25  44  67  96 130 170 214 264 319 379
#     4  12  25  44  67  96 129 169 214 264 318 379
#     4  12  25  43  66  96 130 169 213 264 319 379
#
# _framework density 22.335796999999999
#
# number of rings (size 3 to 8) (size 9 to 14) (size 15 to 20)
#    0.000    0.000    0.000   12.000    0.000    0.000 
#    0.000    0.000    0.000    0.000    0.000    0.000 
#    0.000    0.000    0.000    0.000    0.000    0.000 
#
# Total GULP energy -173786.408248 kJ/mol
# GULP energy per Si atom -12413.314875 kJ/mol
# Density = 2.228496 g / cm^3
# Si number density = 22.335797 Si / 1000 Ang^3
#
#
#
# Elastic Constant Matrix: (Units=GPa)
#
#
# Indices 1 2 3 4 5 6 
#
# 1 51.5665 60.3812 30.2915 0.0000 3.5295 0.0000
# 2 60.3812 54.7122 5.9811 0.0000 8.7215 0.0000
# 3 30.2915 5.9811 62.6012 0.0000 -1.6539 0.0000
# 4 0.0000 0.0000 0.0000 28.4267 0.0000 -1.6408
# 5 3.5295 8.7215 -1.6539 0.0000 35.8881 0.0000
# 6 0.0000 0.0000 0.0000 -1.6408 0.0000 26.7192
#
#
#
# Elastic Compliance Matrix: (Units=1/GPa)
#
#
# Indices 1 2 3 4 5 6 
#
# 1 -0.040181 0.043642 0.015116 0.000000 -0.005958 0.000000
# 2 0.043642 -0.028148 -0.018383 0.000000 0.001701 0.000000
# 3 0.015116 -0.018383 0.010508 0.000000 0.003465 0.000000
# 4 0.000000 0.000000 0.000000 0.035303 0.000000 0.002168
# 5 -0.005958 0.001701 0.003465 0.000000 0.028197 0.000000
# 6 0.000000 0.000000 0.000000 0.002168 0.000000 0.037559
#
#
# Mechanical properties :
#
#
# Convention : Reuss Voigt Hill
#
# Bulk Modulus (GPa) = 43.61541 40.24306 41.92924
# Shear Modulus (GPa) = -167.39440 23.02188 -72.18626
#
# Velocity S-wave (km/s) = -8.66644 3.21396 -5.69112
# Velocity P-wave (km/s) = 8.97627 5.64173 4.93681
#
# Compressibility (1/GPa) = 0.02292768
#
# Stress axis : x y z
#
# Youngs Moduli (GPa) = -24.88710 -35.52634 95.16803
#
# Poissons Ratio (x) = 1.55044 -1.43856
# Poissons Ratio (y) = 1.08612 1.74950
# Poissons Ratio (z) = 0.37619 -0.65309
#
# Static dielectric constant tensor:
#      x y z
#    x 4.065710 0.000000 0.122980 
#    y 0.000000 4.089140 0.000000 
#    z 0.122980 0.000000 4.086240 
# 
# 
# High freq. dielectric constant tensor:
#      x y z
#    x 1.891460 0.000000 0.004130 
#    y 0.000000 1.891460 0.000000 
#    z 0.004130 0.000000 1.897410 
# 
# From -- ./inp_files/71520.got.cif
#   From: 2010.03.12/outbox.cif.g09.slc.cpg/sg5_36_cif.got.tgz:71520.got - 2010.03.31 09:47:26.
