data_PCOD8052721
_publ_section_title
;
Structure prediction by ZEFSAII (Michael W. Deem and Ramdas Pophale) SiO2 
 PCOD8052721
Probable space group: C M
;
_chemical_formula_sum "Si O2"
_cell_formula_units_Z 32
_cell_length_a 22.677567
_cell_length_b 9.553529
_cell_length_c 12.202831
_cell_angle_alpha 90.000000
_cell_angle_beta 47.950473
_cell_angle_gamma 90.000000
_cell_volume 1963.161493
_symmetry_space_group_name_H-M "C M"
_symmetry_group_IT_number 8
_symmetry_cell_setting 'monoclinic'
loop_
_space_group_symop_operation_xyz
x,y,z
x,-y,z
1/2+x,1/2+y,z
1/2+x,1/2-y,z
loop_
_atom_site_type_symbol
_atom_site_label
_atom_site_fract_x
_atom_site_fract_y
_atom_site_fract_z
Si Si1 0.791270 0.335785 0.848360
Si Si2 0.616564 0.660411 0.473300
Si Si3 0.439089 0.659979 0.718878
Si Si4 0.522591 0.845339 0.946898
Si Si5 0.689189 0.839808 0.811641
Si Si6 0.653596 0.153902 0.620095
Si Si7 0.750274 0.659632 0.143729
Si Si8 0.893431 0.840658 0.025683
O O1 0.802949 0.500000 0.812444
O O2 0.876573 0.261019 0.737177
O O3 0.735892 0.272319 0.824025
O O4 0.748447 0.304904 0.017346
O O5 0.614373 0.500000 0.512371
O O6 0.526239 0.714110 0.573781
O O7 0.665891 0.737105 0.507376
O O8 0.662104 0.683117 0.301723
O O9 0.424300 0.500000 0.698727
O O10 0.431449 0.670517 0.858653
O O11 0.593612 0.815579 0.946309
O O12 0.562201 0.842415 0.776145
O O13 0.453230 0.730162 0.038870
O O14 0.486148 0.000000 0.013313
O O15 0.709700 0.814766 0.656648
O O16 0.710795 0.000000 0.818147
O O17 0.673574 0.000000 0.548537
O O18 0.778843 0.500000 0.126248
O O19 0.810058 0.760596 0.133582
O O20 0.879528 0.000000 0.079232
#
# Coordination Sequence:
#
# PCOD8052721 Si02
#       8
#     4   4   4   4   4   4   4   4
#     4  10  19  30  46  69  93 122 158 195 227 267
#     4  10  18  31  49  70  95 125 155 187 231 281
#     4   9  17  28  45  66  89 118 154 194 232 271
#     4   8  15  27  45  68  92 118 144 183 235 279
#     4   8  16  30  47  68  93 121 152 190 234 274
#     4   8  16  28  46  71  94 117 146 188 234 276
#     4   9  20  33  45  65  99 132 153 182 232 283
#     4  10  17  27  45  71  95 117 154 197 229 267
#
# _framework density 16.300238
#
# number of rings (size 3 to 8) (size 9 to 14) (size 15 to 20)
#    0.750    2.250    1.250    0.750    0.000    3.000 
#    0.000    0.000    0.000    1.500    0.000    5.250 
#    0.000    0.000    0.000    0.000    0.000    0.000 
#
# Total GULP energy -198248.929370 kJ/mol
# GULP energy per Si atom -12390.558086 kJ/mol
# Density = 1.626314 g / cm^3
# Si number density = 16.300238 Si / 1000 Ang^3
#
#
#
# Elastic Constant Matrix: (Units=GPa)
#
#
# Indices 1 2 3 4 5 6 
#
# 1 95.5440 64.8745 32.7283 0.0000 -8.4240 0.0000
# 2 64.8745 102.9251 33.0897 0.0000 -8.0520 0.0000
# 3 32.7283 33.0897 69.4034 0.0000 -10.6423 0.0000
# 4 0.0000 0.0000 0.0000 18.3809 0.0000 -1.7822
# 5 -8.4240 -8.0520 -10.6423 0.0000 15.9057 0.0000
# 6 0.0000 0.0000 0.0000 -1.7822 0.0000 32.1934
#
#
#
# Elastic Compliance Matrix: (Units=1/GPa)
#
#
# Indices 1 2 3 4 5 6 
#
# 1 0.019214 -0.010783 -0.003562 0.000000 0.002334 0.000000
# 2 -0.010783 0.017609 -0.003142 0.000000 0.001101 0.000000
# 3 -0.003562 -0.003142 0.019002 0.000000 0.009238 0.000000
# 4 0.000000 0.000000 0.000000 0.054698 0.000000 0.003028
# 5 0.002334 0.001101 0.009238 0.000000 0.070845 0.000000
# 6 0.000000 0.000000 0.000000 0.003028 0.000000 0.031230
#
#
# Mechanical properties :
#
#
# Convention : Reuss Voigt Hill
#
# Bulk Modulus (GPa) = 47.95596 58.80641 53.38118
# Shear Modulus (GPa) = 19.64473 22.44132 21.04303
#
# Velocity S-wave (km/s) = 3.47534 3.71448 3.59690
# Velocity P-wave (km/s) = 6.75191 7.38592 7.07602
#
# Compressibility (1/GPa) = 0.02085247
#
# Stress axis : x y z
#
# Youngs Moduli (GPa) = 52.04564 56.79057 52.62501
#
# Poissons Ratio (x) = 0.61237 0.18743
# Poissons Ratio (y) = 0.56121 0.16532
# Poissons Ratio (z) = 0.18537 0.17841
#
# Static dielectric constant tensor:
#      x y z
#    x 2.844600 0.000000 -0.111910 
#    y 0.000000 3.109170 0.000000 
#    z -0.111910 0.000000 2.826470 
# 
# 
# High freq. dielectric constant tensor:
#      x y z
#    x 1.608030 0.000000 -0.013150 
#    y 0.000000 1.635590 0.000000 
#    z -0.013150 0.000000 1.591360 
# 
# From -- ./inp_files/28283.got.cif
#   From: 2010.03.12/outbox.cif.g09.slc.cpg/sg8_15_cif.got.tgz:28283.got - 2010.03.31 10:45:26.
