data_PCOD8052106
_publ_section_title
;
Structure prediction by ZEFSAII (Michael W. Deem and Ramdas Pophale) SiO2 
 PCOD8052106
Probable space group: C 2
;
_chemical_formula_sum "Si O2"
_cell_formula_units_Z 14
_cell_length_a 7.421048
_cell_length_b 17.092186
_cell_length_c 5.070763
_cell_angle_alpha 90.000000
_cell_angle_beta 66.045263
_cell_angle_gamma 90.000000
_cell_volume 587.785565
_symmetry_space_group_name_H-M "C 2"
_symmetry_group_IT_number 5
_symmetry_cell_setting 'monoclinic'
loop_
_space_group_symop_operation_xyz
x,y,z
-x,y,-z
1/2+x,1/2+y,z
1/2-x,1/2+y,-z
loop_
_atom_site_type_symbol
_atom_site_label
_atom_site_fract_x
_atom_site_fract_y
_atom_site_fract_z
Si Si1 0.000000 0.399530 0.000000
Si Si2 0.794904 0.991961 0.200373
Si Si3 0.687122 0.333841 0.550811
Si Si4 0.000000 0.718027 0.000000
Si Si5 0.500000 0.113563 0.500000
O O1 0.845012 0.456432 0.946460
O O2 0.107159 0.339954 0.730713
O O3 0.867237 0.920890 0.335605
O O4 0.684430 0.056186 0.443738
O O5 0.000000 0.033038 0.000000
O O6 0.500000 0.300752 0.500000
O O7 0.688103 0.273625 0.801367
O O8 0.941958 0.663243 0.790434
#
# Coordination Sequence:
#
# PCOD8052106 Si02
#       5
#     2   4   4   2   2
#     4  12  23  44  82 121 148 198 274 326 375 448
#     4  12  25  46  79 119 148 207 268 321 378 476
#     4  12  23  47  81 116 154 205 267 318 382 471
#     4  12  27  52  76 115 170 204 250 332 401 468
#     4  12  28  50  74 116 168 200 250 338 402 448
#
# _framework density 23.818207999999998
#
# number of rings (size 3 to 8) (size 9 to 14) (size 15 to 20)
#    0.000    0.000    8.571    0.857    0.000    0.000 
#    2.571    2.857    0.000    0.000    0.000    0.000 
#    0.000    0.000    0.000    0.000    0.000    0.000 
#
# Total GULP energy -86720.160695 kJ/mol
# GULP energy per Si atom -12388.594385 kJ/mol
# Density = 2.376400 g / cm^3
# Si number density = 23.818208 Si / 1000 Ang^3
#
#
#
# Elastic Constant Matrix: (Units=GPa)
#
#
# Indices 1 2 3 4 5 6 
#
# 1 105.0912 27.7492 56.5900 0.0000 -24.2491 0.0000
# 2 27.7492 134.0124 66.1077 0.0000 -10.6115 0.0000
# 3 56.5900 66.1077 167.9624 0.0000 -24.1111 0.0000
# 4 0.0000 0.0000 0.0000 -71.0015 0.0000 -15.8628
# 5 -24.2491 -10.6115 -24.1111 0.0000 51.6176 0.0000
# 6 0.0000 0.0000 0.0000 -15.8628 0.0000 19.5798
#
#
#
# Elastic Compliance Matrix: (Units=1/GPa)
#
#
# Indices 1 2 3 4 5 6 
#
# 1 0.012440 -0.000588 -0.003364 0.000000 0.004152 0.000000
# 2 -0.000588 0.009290 -0.003456 0.000000 0.000020 0.000000
# 3 -0.003364 -0.003456 0.008702 0.000000 0.001774 0.000000
# 4 0.000000 0.000000 0.000000 -0.011926 0.000000 -0.009662
# 5 0.004152 0.000020 0.001774 0.000000 0.022156 0.000000
# 6 0.000000 0.000000 0.000000 -0.009662 0.000000 0.043245
#
#
# Mechanical properties :
#
#
# Convention : Reuss Voigt Hill
#
# Bulk Modulus (GPa) = 64.03118 78.66218 71.34668
# Shear Modulus (GPa) = 48.10996 17.14713 32.62854
#
# Velocity S-wave (km/s) = 4.49919 2.68604 3.70523
# Velocity P-wave (km/s) = 7.34383 6.53586 6.95160
#
# Compressibility (1/GPa) = 0.01561739
#
# Stress axis : x y z
#
# Youngs Moduli (GPa) = 80.38411 107.64448 114.91833
#
# Poissons Ratio (x) = 0.06326 0.38659
# Poissons Ratio (y) = 0.04724 0.39710
# Poissons Ratio (z) = 0.27042 0.37197
#
# Static dielectric constant tensor:
#      x y z
#    x 4.095910 0.000000 -0.240440 
#    y 0.000000 4.424450 0.000000 
#    z -0.240440 0.000000 5.160480 
# 
# 
# High freq. dielectric constant tensor:
#      x y z
#    x 1.918480 0.000000 -0.004820 
#    y 0.000000 1.941070 0.000000 
#    z -0.004820 0.000000 1.967960 
# 
# From -- ./inp_files/1797.got.cif
#   From: 2010.03.12/outbox.cif.g09.slc.cpg/sg5_1_cif.got.tgz:1797.got - 2010.03.31 09:47:26.
