data_PCOD8052256
_publ_section_title
;
Structure prediction by ZEFSAII (Michael W. Deem and Ramdas Pophale) SiO2 
 PCOD8052256
Probable space group: P M
;
_chemical_formula_sum "Si O2"
_cell_formula_units_Z 16
_cell_length_a 11.473951
_cell_length_b 9.222884
_cell_length_c 11.400509
_cell_angle_alpha 90.000000
_cell_angle_beta 50.735078
_cell_angle_gamma 90.000000
_cell_volume 934.055670
_symmetry_space_group_name_H-M "P M"
_symmetry_group_IT_number 6
_symmetry_cell_setting 'monoclinic'
loop_
_space_group_symop_operation_xyz
x,y,z
x,-y,z
loop_
_atom_site_type_symbol
_atom_site_label
_atom_site_fract_x
_atom_site_fract_y
_atom_site_fract_z
Si Si1 0.489450 0.159973 0.368440
Si Si2 0.957226 0.829242 0.186088
Si Si3 0.543838 0.173005 0.813703
Si Si4 0.646722 0.828609 0.490912
Si Si5 0.687899 0.661724 0.925082
Si Si6 0.810142 0.159700 0.040861
Si Si7 0.368053 0.658882 0.253230
Si Si8 0.250067 0.673369 0.087114
O O1 0.526614 0.233801 0.471412
O O2 0.643591 0.153270 0.198891
O O3 0.363774 0.245793 0.373891
O O4 0.421537 0.000000 0.428789
O O5 0.815992 0.776841 0.354740
O O6 0.925634 0.794351 0.069527
O O7 0.094404 0.729331 0.136103
O O8 0.992180 0.000000 0.182092
O O9 0.600504 0.219482 0.649384
O O10 0.666742 0.235429 0.825863
O O11 0.530771 0.000000 0.837256
O O12 0.382648 0.247006 0.932607
O O13 0.643630 0.000000 0.475135
O O14 0.737647 0.500000 0.854421
O O15 0.816664 0.728804 0.927738
O O16 0.533878 0.653434 0.094018
O O17 0.853344 0.000000 0.966238
O O18 0.315472 0.500000 0.325861
O O19 0.258603 0.717373 0.219772
O O20 0.267577 0.500000 0.060972
#
# Coordination Sequence:
#
# PCOD8052256 Si02
#       8
#     2   2   2   2   2   2   2   2
#     4   8  13  24  43  65  87 110 141 184 227 265
#     4   9  17  31  50  71  94 120 153 191 230 274
#     4  10  18  30  49  69  92 124 157 189 228 272
#     4   8  16  30  48  71  95 117 148 191 231 270
#     4   9  16  26  41  64  93 119 148 189 230 268
#     4   8  14  25  43  66  89 114 147 186 227 272
#     4   8  15  26  39  59  88 117 145 182 223 263
#     4  10  20  32  45  67  98 125 153 190 230 274
#
# _framework density 17.1296
#
# number of rings (size 3 to 8) (size 9 to 14) (size 15 to 20)
#    0.000    3.250    0.000    3.375    0.000    4.000 
#    0.000    4.375    0.000    1.500    0.000    3.500 
#    0.000    0.000    0.000    0.000    0.000    0.000 
#
# Total GULP energy -198263.212911 kJ/mol
# GULP energy per Si atom -12391.450807 kJ/mol
# Density = 1.709061 g / cm^3
# Si number density = 17.129600 Si / 1000 Ang^3
#
#
#
# Elastic Constant Matrix: (Units=GPa)
#
#
# Indices 1 2 3 4 5 6 
#
# 1 143.9814 65.9635 50.7220 0.0000 23.5599 0.0000
# 2 65.9635 90.5351 38.9297 0.0000 14.8971 0.0000
# 3 50.7220 38.9297 63.7605 0.0000 20.4389 0.0000
# 4 0.0000 0.0000 0.0000 8.6193 0.0000 0.3210
# 5 23.5599 14.8971 20.4389 0.0000 21.9785 0.0000
# 6 0.0000 0.0000 0.0000 0.3210 0.0000 27.5233
#
#
#
# Elastic Compliance Matrix: (Units=1/GPa)
#
#
# Indices 1 2 3 4 5 6 
#
# 1 0.012060 -0.006149 -0.004319 0.000000 -0.004744 0.000000
# 2 -0.006149 0.018199 -0.006238 0.000000 0.000058 0.000000
# 3 -0.004319 -0.006238 0.028620 0.000000 -0.017758 0.000000
# 4 0.000000 0.000000 0.000000 0.116069 0.000000 -0.001354
# 5 -0.004744 0.000058 -0.017758 0.000000 0.067059 0.000000
# 6 0.000000 0.000000 0.000000 -0.001354 0.000000 0.036349
#
#
# Mechanical properties :
#
#
# Convention : Reuss Voigt Hill
#
# Bulk Modulus (GPa) = 39.26679 67.72305 53.49492
# Shear Modulus (GPa) = 15.61246 21.13502 18.37374
#
# Velocity S-wave (km/s) = 3.02227 3.51640 3.27866
# Velocity P-wave (km/s) = 5.92891 7.49055 6.75501
#
# Compressibility (1/GPa) = 0.02546682
#
# Stress axis : x y z
#
# Youngs Moduli (GPa) = 82.91656 54.94887 34.94004
#
# Poissons Ratio (x) = 0.33791 0.15090
# Poissons Ratio (y) = 0.50989 0.21796
# Poissons Ratio (z) = 0.35810 0.34277
#
# Static dielectric constant tensor:
#      x y z
#    x 3.397240 0.000000 0.356620 
#    y 0.000000 3.314360 0.000000 
#    z 0.356620 0.000000 2.870700 
# 
# 
# High freq. dielectric constant tensor:
#      x y z
#    x 1.667150 0.000000 0.030200 
#    y 0.000000 1.655170 0.000000 
#    z 0.030200 0.000000 1.610820 
# 
# From -- ./inp_files/3794.got.cif
#   From: 2010.03.12/outbox.cif.g09.slc.cpg/sg6_2_cif.got.tgz:3794.got - 2010.03.30 10:24:59.
