data_PCOD8053193
_publ_section_title
;
Structure prediction by ZEFSAII (Michael W. Deem and Ramdas Pophale) SiO2 
 PCOD8053193
Probable space group: C M
;
_chemical_formula_sum "Si O2"
_cell_formula_units_Z 32
_cell_length_a 28.653376
_cell_length_b 8.793255
_cell_length_c 21.746368
_cell_angle_alpha 90.000000
_cell_angle_beta 162.253111
_cell_angle_gamma 90.000000
_cell_volume 1670.110072
_symmetry_space_group_name_H-M "C M"
_symmetry_group_IT_number 8
_symmetry_cell_setting 'monoclinic'
loop_
_space_group_symop_operation_xyz
x,y,z
x,-y,z
1/2+x,1/2+y,z
1/2+x,1/2-y,z
loop_
_atom_site_type_symbol
_atom_site_label
_atom_site_fract_x
_atom_site_fract_y
_atom_site_fract_z
Si Si1 0.448600 0.318400 0.670690
Si Si2 0.169904 0.680779 0.525254
Si Si3 0.654135 0.821428 0.031592
Si Si4 0.409810 0.167794 0.282627
Si Si5 0.122905 0.822834 0.243207
Si Si6 0.197694 0.833923 0.898289
Si Si7 0.514548 0.678296 0.970734
Si Si8 0.964804 0.682440 0.155253
O O1 0.460484 0.500000 0.687734
O O2 0.522834 0.256614 0.826130
O O3 0.275126 0.269253 0.448983
O O4 0.542266 0.252419 0.728081
O O5 0.166245 0.500000 0.523891
O O6 0.096585 0.734506 0.368636
O O7 0.070882 0.739099 0.460245
O O8 0.342381 0.742566 0.746135
O O9 0.636840 0.000000 0.004086
O O10 0.826377 0.775192 0.227539
O O11 0.629172 0.768037 0.070058
O O12 0.433747 0.000000 0.342315
O O13 0.305614 0.149394 0.092360
O O14 0.067333 0.785501 0.105532
O O15 0.991805 0.764107 0.124569
O O16 0.153408 0.000000 0.291440
O O17 0.151143 0.000000 0.815210
O O18 0.298279 0.755213 0.970670
O O19 0.522054 0.500000 0.965027
O O20 0.963455 0.500000 0.146786
#
# Coordination Sequence:
#
# PCOD8053193 Si02
#       8
#     4   4   4   4   4   4   4   4
#     4  10  19  35  58  78 101 137 176 211 256 310
#     4   8  15  31  57  80  95 126 177 217 248 303
#     4  11  21  33  53  82 109 131 167 216 261 307
#     4   8  14  29  53  78 102 129 166 209 255 307
#     4  11  23  35  48  74 109 140 176 219 257 299
#     4   7  13  27  50  78  99 122 165 213 252 303
#     4  10  21  37  53  71 103 145 181 213 254 303
#     4   9  16  31  56  79  98 126 168 214 261 312
#
# _framework density 19.160415
#
# number of rings (size 3 to 8) (size 9 to 14) (size 15 to 20)
#    0.000    2.750    0.000    4.875    0.000    2.000 
#    0.000    8.125    0.000    4.500    0.000    0.000 
#    0.000    0.000    0.000    0.000    0.000    0.000 
#
# Total GULP energy -198266.274534 kJ/mol
# GULP energy per Si atom -12391.642158 kJ/mol
# Density = 1.911681 g / cm^3
# Si number density = 19.160415 Si / 1000 Ang^3
#
#
#
# Elastic Constant Matrix: (Units=GPa)
#
#
# Indices 1 2 3 4 5 6 
#
# 1 151.1070 48.6310 43.8027 0.0000 24.7192 0.0000
# 2 48.6310 66.8611 16.3760 0.0000 1.4924 0.0000
# 3 43.8027 16.3760 24.8023 0.0000 9.3577 0.0000
# 4 0.0000 0.0000 0.0000 14.7770 0.0000 1.2266
# 5 24.7192 1.4924 9.3577 0.0000 28.1388 0.0000
# 6 0.0000 0.0000 0.0000 1.2266 0.0000 23.6466
#
#
#
# Elastic Compliance Matrix: (Units=1/GPa)
#
#
# Indices 1 2 3 4 5 6 
#
# 1 0.015919 -0.006139 -0.021620 0.000000 -0.006469 0.000000
# 2 -0.006139 0.020498 -0.004936 0.000000 0.005947 0.000000
# 3 -0.021620 -0.004936 0.085184 0.000000 -0.009074 0.000000
# 4 0.000000 0.000000 0.000000 0.067965 0.000000 -0.003525
# 5 -0.006469 0.005947 -0.009074 0.000000 0.043923 0.000000
# 6 0.000000 0.000000 0.000000 -0.003525 0.000000 0.042472
#
#
# Mechanical properties :
#
#
# Convention : Reuss Voigt Hill
#
# Bulk Modulus (GPa) = 17.79016 51.15442 34.47229
# Shear Modulus (GPa) = 13.88549 22.24319 18.06434
#
# Velocity S-wave (km/s) = 2.69494 3.41088 3.07383
# Velocity P-wave (km/s) = 4.35759 6.50139 5.53429
#
# Compressibility (1/GPa) = 0.05621084
#
# Stress axis : x y z
#
# Youngs Moduli (GPa) = 62.81832 48.78614 11.73928
#
# Poissons Ratio (x) = 0.29949 0.25380
# Poissons Ratio (y) = 0.38563 0.05794
# Poissons Ratio (z) = 1.35814 0.24081
#
# Static dielectric constant tensor:
#      x y z
#    x 3.775300 0.000000 0.500210 
#    y 0.000000 3.186340 0.000000 
#    z 0.500210 0.000000 3.563770 
# 
# 
# High freq. dielectric constant tensor:
#      x y z
#    x 1.752880 0.000000 0.033110 
#    y 0.000000 1.712750 0.000000 
#    z 0.033110 0.000000 1.725970 
# 
# From -- ./inp_files/24834.got.cif
#   From: 2010.03.12/outbox.cif.g09.slc.cpg/sg8_13_cif.got.tgz:24834.got - 2010.03.31 10:45:26.
