data_PCOD8053935
_publ_section_title
;
Structure prediction by ZEFSAII (Michael W. Deem and Ramdas Pophale) SiO2 
 PCOD8053935
Probable space group: C M
;
_chemical_formula_sum "Si O2"
_cell_formula_units_Z 32
_cell_length_a 9.929421
_cell_length_b 8.952780
_cell_length_c 17.441942
_cell_angle_alpha 90.000000
_cell_angle_beta 90.161580
_cell_angle_gamma 90.000000
_cell_volume 1550.511345
_symmetry_space_group_name_H-M "C M"
_symmetry_group_IT_number 8
_symmetry_cell_setting 'monoclinic'
loop_
_space_group_symop_operation_xyz
x,y,z
x,-y,z
1/2+x,1/2+y,z
1/2+x,1/2-y,z
loop_
_atom_site_type_symbol
_atom_site_label
_atom_site_fract_x
_atom_site_fract_y
_atom_site_fract_z
Si Si1 0.597550 0.826506 0.660350
Si Si2 0.093207 0.173205 0.499066
Si Si3 0.352276 0.327927 0.254015
Si Si4 0.360863 0.173269 0.410446
Si Si5 0.786398 0.328276 0.903253
Si Si6 0.583775 0.172094 0.165827
Si Si7 0.366715 0.326547 0.748462
Si Si8 0.555718 0.171797 0.991849
O O1 0.568425 0.745753 0.580961
O O2 0.499469 0.763139 0.725295
O O3 0.750508 0.797881 0.685821
O O4 0.566122 0.000000 0.649676
O O5 0.246082 0.200407 0.473510
O O6 0.996340 0.245442 0.436223
O O7 0.057626 0.000000 0.505436
O O8 0.368921 0.500000 0.276641
O O9 0.311198 0.238383 0.329821
O O10 0.492279 0.270535 0.220804
O O11 0.237744 0.303870 0.190337
O O12 0.393208 0.000000 0.399901
O O13 0.772567 0.500000 0.877512
O O14 0.818001 0.228433 0.830308
O O15 0.646238 0.274631 0.938172
O O16 0.901515 0.308060 0.967010
O O17 0.539057 0.000000 0.173521
O O18 0.568722 0.228203 0.078875
O O19 0.403292 0.500000 0.754177
O O20 0.603157 0.000000 0.984118
#
# Coordination Sequence:
#
# PCOD8053935 Si02
#       8
#     4   4   4   4   4   4   4   4
#     4  11  24  41  62  89 120 155 196 242 293 350
#     4  11  24  41  63  91 120 154 197 242 291 349
#     4  11  23  38  60  89 118 153 198 244 293 351
#     4  11  24  41  62  88 120 158 197 241 293 348
#     4  11  23  38  60  89 119 155 199 245 294 350
#     4  10  22  40  61  86 119 157 196 243 297 351
#     4  11  24  41  62  88 120 158 198 243 294 349
#     4  10  22  40  60  86 120 156 197 244 295 352
#
# _framework density 20.638351
#
# number of rings (size 3 to 8) (size 9 to 14) (size 15 to 20)
#    0.000    1.250    0.000    5.250    0.000   13.500 
#    0.000    0.000    0.000    0.000    0.000    0.000 
#    0.000    0.000    0.000    0.000    0.000    0.000 
#
# Total GULP energy -198542.510155 kJ/mol
# GULP energy per Si atom -12408.906885 kJ/mol
# Density = 2.059138 g / cm^3
# Si number density = 20.638351 Si / 1000 Ang^3
#
#
#
# Elastic Constant Matrix: (Units=GPa)
#
#
# Indices 1 2 3 4 5 6 
#
# 1 65.5567 45.0414 1.3325 0.0000 -6.4624 0.0000
# 2 45.0414 109.3246 32.9934 0.0000 -1.0849 0.0000
# 3 1.3325 32.9934 92.8921 0.0000 -1.2888 0.0000
# 4 0.0000 0.0000 0.0000 33.3236 0.0000 -2.2731
# 5 -6.4624 -1.0849 -1.2888 0.0000 36.2928 0.0000
# 6 0.0000 0.0000 0.0000 -2.2731 0.0000 34.6337
#
#
#
# Elastic Compliance Matrix: (Units=1/GPa)
#
#
# Indices 1 2 3 4 5 6 
#
# 1 0.022654 -0.010319 0.003394 0.000000 0.003846 0.000000
# 2 -0.010319 0.014947 -0.005183 0.000000 -0.001575 0.000000
# 3 0.003394 -0.005183 0.012570 0.000000 0.000896 0.000000
# 4 0.000000 0.000000 0.000000 0.030144 0.000000 0.001978
# 5 0.003846 -0.001575 0.000896 0.000000 0.028223 0.000000
# 6 0.000000 0.000000 0.000000 0.001978 0.000000 0.029003
#
#
# Mechanical properties :
#
#
# Convention : Reuss Voigt Hill
#
# Bulk Modulus (GPa) = 38.52976 47.38978 42.95977
# Shear Modulus (GPa) = 29.34100 33.41042 31.37571
#
# Velocity S-wave (km/s) = 3.77460 4.02786 3.90328
# Velocity P-wave (km/s) = 6.14055 6.68157 6.41676
#
# Compressibility (1/GPa) = 0.02595397
#
# Stress axis : x y z
#
# Youngs Moduli (GPa) = 44.14187 66.90233 79.55622
#
# Poissons Ratio (x) = 0.69040 -0.26999
# Poissons Ratio (y) = 0.45552 0.41232
# Poissons Ratio (z) = -0.14980 0.34674
#
# Static dielectric constant tensor:
#      x y z
#    x 3.727820 0.000000 0.065030 
#    y 0.000000 3.852290 0.000000 
#    z 0.065030 0.000000 3.771060 
# 
# 
# High freq. dielectric constant tensor:
#      x y z
#    x 1.816020 0.000000 0.003280 
#    y 0.000000 1.816800 0.000000 
#    z 0.003280 0.000000 1.819690 
# 
# From -- ./inp_files/25854.got.cif
#   From: 2010.03.12/outbox.cif.g09.slc.cpg/sg8_13_cif.got.tgz:25854.got - 2010.03.31 10:45:26.
