data_PCOD8053164
_publ_section_title
;
Structure prediction by ZEFSAII (Michael W. Deem and Ramdas Pophale) SiO2 
 PCOD8053164
Probable space group: C M
;
_chemical_formula_sum "Si O2"
_cell_formula_units_Z 32
_cell_length_a 15.401469
_cell_length_b 8.736624
_cell_length_c 22.789763
_cell_angle_alpha 90.000000
_cell_angle_beta 149.134481
_cell_angle_gamma 90.000000
_cell_volume 1573.199987
_symmetry_space_group_name_H-M "C M"
_symmetry_group_IT_number 8
_symmetry_cell_setting 'monoclinic'
loop_
_space_group_symop_operation_xyz
x,y,z
x,-y,z
1/2+x,1/2+y,z
1/2+x,1/2-y,z
loop_
_atom_site_type_symbol
_atom_site_label
_atom_site_fract_x
_atom_site_fract_y
_atom_site_fract_z
Si Si1 0.743340 0.819993 0.133870
Si Si2 0.897820 0.819889 0.526161
Si Si3 0.228496 0.679742 0.663065
Si Si4 0.439009 0.178418 0.879025
Si Si5 0.047075 0.822481 0.122404
Si Si6 0.592974 0.318485 0.281495
Si Si7 0.745115 0.825299 0.866085
Si Si8 0.862804 0.676518 0.630337
O O1 0.692042 0.754580 0.167161
O O2 0.932737 0.769665 0.228051
O O3 0.725308 0.000000 0.127121
O O4 0.616373 0.762172 0.008936
O O5 0.753528 0.773932 0.396796
O O6 0.841582 0.769501 0.558195
O O7 0.068290 0.733863 0.607343
O O8 0.929713 0.000000 0.542636
O O9 0.221749 0.500000 0.650199
O O10 0.398217 0.727590 0.796540
O O11 0.228635 0.758713 0.599302
O O12 0.292338 0.209554 0.841549
O O13 0.443039 0.000000 0.865108
O O14 0.057893 0.762618 0.194940
O O15 0.086793 0.000000 0.143665
O O16 0.857985 0.786960 0.988815
O O17 0.625472 0.500000 0.304003
O O18 0.548596 0.801774 0.766538
O O19 0.779491 0.000000 0.865056
O O20 0.821676 0.500000 0.593277
#
# Coordination Sequence:
#
# PCOD8053164 Si02
#       8
#     4   4   4   4   4   4   4   4
#     4   9  20  37  60  89 123 161 201 249 304 364
#     4  12  26  45  65  89 124 164 212 263 311 366
#     4  12  25  41  62  91 125 165 210 256 311 370
#     4  10  19  34  60  91 127 163 202 251 307 365
#     4   9  19  36  60  89 122 159 201 248 302 363
#     4  10  22  41  64  87 119 166 209 249 304 367
#     4   9  18  34  60  90 125 162 199 247 309 369
#     4  11  23  40  65  94 125 162 206 255 312 372
#
# _framework density 20.340707999999999
#
# number of rings (size 3 to 8) (size 9 to 14) (size 15 to 20)
#    0.000    1.750    1.250    3.000    1.750    3.000 
#    0.000    2.500    0.000    0.000    0.000    0.000 
#    0.000    0.000    0.000    0.000    0.000    0.000 
#
# Total GULP energy -198443.615764 kJ/mol
# GULP energy per Si atom -12402.725985 kJ/mol
# Density = 2.029441 g / cm^3
# Si number density = 20.340708 Si / 1000 Ang^3
#
#
#
# Elastic Constant Matrix: (Units=GPa)
#
#
# Indices 1 2 3 4 5 6 
#
# 1 86.6474 14.0910 22.1244 0.0002 -14.1351 0.0000
# 2 14.0910 63.1457 22.0525 0.0002 -0.7510 0.0000
# 3 22.1244 22.0525 75.4289 0.0019 -11.4543 0.0002
# 4 0.0002 0.0002 0.0019 30.4491 0.0001 -2.1473
# 5 -14.1351 -0.7510 -11.4543 0.0001 27.1333 0.0000
# 6 0.0000 0.0000 0.0002 -2.1473 0.0000 35.9020
#
#
#
# Elastic Compliance Matrix: (Units=1/GPa)
#
#
# Indices 1 2 3 4 5 6 
#
# 1 0.013470 -0.002083 -0.002442 0.000000 0.005929 0.000000
# 2 -0.002083 0.018042 -0.005078 0.000000 -0.002729 0.000000
# 3 -0.002442 -0.005078 0.016288 -0.000001 0.005463 0.000000
# 4 0.000000 0.000000 -0.000001 0.032981 -0.000001 0.001973
# 5 0.005929 -0.002729 0.005463 -0.000001 0.042175 0.000000
# 6 0.000000 0.000000 0.000000 0.001973 0.000000 0.027972
#
#
# Mechanical properties :
#
#
# Convention : Reuss Voigt Hill
#
# Bulk Modulus (GPa) = 34.97127 37.97309 36.47218
# Shear Modulus (GPa) = 27.82953 29.82715 28.82834
#
# Velocity S-wave (km/s) = 3.70289 3.83348 3.76875
# Velocity P-wave (km/s) = 5.95919 6.18896 6.07516
#
# Compressibility (1/GPa) = 0.02859490
#
# Stress axis : x y z
#
# Youngs Moduli (GPa) = 74.23670 55.42548 61.39437
#
# Poissons Ratio (x) = 0.11543 0.14992
# Poissons Ratio (y) = 0.15461 0.31179
# Poissons Ratio (z) = 0.18127 0.28148
#
# Static dielectric constant tensor:
#      x y z
#    x 3.676890 0.000000 -0.082710 
#    y 0.000000 3.611130 0.000000 
#    z -0.082710 0.000000 3.822990 
# 
# 
# High freq. dielectric constant tensor:
#      x y z
#    x 1.795560 0.000000 -0.005850 
#    y 0.000000 1.789120 0.000000 
#    z -0.005850 0.000000 1.793930 
# 
# From -- ./inp_files/21498.got.cif
#   From: 2010.03.12/outbox.cif.g09.slc.cpg/sg8_11_cif.got.tgz:21498.got - 2010.03.31 10:45:26.
