data_PCOD8053637
_publ_section_title
;
Structure prediction by ZEFSAII (Michael W. Deem and Ramdas Pophale) SiO2 
 PCOD8053637
Probable space group: C M
;
_chemical_formula_sum "Si O2"
_cell_formula_units_Z 20
_cell_length_a 8.844850
_cell_length_b 9.928686
_cell_length_c 12.399200
_cell_angle_alpha 90.000000
_cell_angle_beta 124.276870
_cell_angle_gamma 90.000000
_cell_volume 899.761040
_symmetry_space_group_name_H-M "C M"
_symmetry_group_IT_number 8
_symmetry_cell_setting 'monoclinic'
loop_
_space_group_symop_operation_xyz
x,y,z
x,-y,z
1/2+x,1/2+y,z
1/2+x,1/2-y,z
loop_
_atom_site_type_symbol
_atom_site_label
_atom_site_fract_x
_atom_site_fract_y
_atom_site_fract_z
Si Si1 0.197570 0.653833 0.770480
Si Si2 0.129373 0.646919 0.506002
Si Si3 0.233017 0.223554 0.331926
Si Si4 0.611564 0.654366 0.921936
Si Si5 0.326475 0.353329 0.157509
O O1 0.119339 0.500000 0.749797
O O2 0.168028 0.712375 0.638172
O O3 0.096745 0.760585 0.806057
O O4 0.409712 0.652371 0.890920
O O5 0.218584 0.500000 0.544727
O O6 0.233766 0.725588 0.454765
O O7 0.912974 0.631554 0.393391
O O8 0.046195 0.144106 0.234829
O O9 0.259356 0.341979 0.254375
O O10 0.680072 0.500000 0.929948
O O11 0.746899 0.728776 0.058549
O O12 0.258236 0.500000 0.087391
#
# Coordination Sequence:
#
# PCOD8053637 Si02
#       5
#     4   4   4   4   4
#     4  10  22  40  62  88 118 153 194 240 290 346
#     4  10  20  38  61  85 117 153 189 235 290 345
#     4  10  22  37  59  89 118 151 192 238 288 345
#     4  11  24  40  60  87 118 154 197 243 290 343
#     4  11  23  39  60  87 119 155 196 240 288 345
#
# _framework density 22.228124000000001
#
# number of rings (size 3 to 8) (size 9 to 14) (size 15 to 20)
#    0.000    1.600    0.000    4.200    0.000    9.600 
#    0.000    5.000    0.000    0.000    0.000    0.000 
#    0.000    0.000    0.000    0.000    0.000    0.000 
#
# Total GULP energy -123955.118636 kJ/mol
# GULP energy per Si atom -12395.511864 kJ/mol
# Density = 2.217753 g / cm^3
# Si number density = 22.228124 Si / 1000 Ang^3
#
#
#
# Elastic Constant Matrix: (Units=GPa)
#
#
# Indices 1 2 3 4 5 6 
#
# 1 67.4388 17.9985 3.2538 0.0000 -5.4630 0.0000
# 2 17.9985 136.6455 31.2219 0.0000 -11.9672 0.0000
# 3 3.2538 31.2219 88.5355 0.0000 -4.6284 0.0000
# 4 0.0000 0.0000 0.0000 29.6115 0.0000 2.4065
# 5 -5.4630 -11.9672 -4.6284 0.0000 35.2280 0.0000
# 6 0.0000 0.0000 0.0000 2.4065 0.0000 13.9707
#
#
#
# Elastic Compliance Matrix: (Units=1/GPa)
#
#
# Indices 1 2 3 4 5 6 
#
# 1 0.015477 -0.001930 0.000204 0.000000 0.001771 0.000000
# 2 -0.001930 0.008399 -0.002776 0.000000 0.002189 0.000000
# 3 0.000204 -0.002776 0.012303 0.000000 0.000705 0.000000
# 4 0.000000 0.000000 0.000000 0.034250 0.000000 -0.005900
# 5 0.001771 0.002189 0.000705 0.000000 0.029497 0.000000
# 6 0.000000 0.000000 0.000000 -0.005900 0.000000 0.072595
#
#
# Mechanical properties :
#
#
# Convention : Reuss Voigt Hill
#
# Bulk Modulus (GPa) = 36.79890 44.17425 40.48657
# Shear Modulus (GPa) = 26.23522 31.77174 29.00348
#
# Velocity S-wave (km/s) = 3.43924 3.78477 3.61613
# Velocity P-wave (km/s) = 5.68878 6.24625 5.97402
#
# Compressibility (1/GPa) = 0.02717473
#
# Stress axis : x y z
#
# Youngs Moduli (GPa) = 64.61195 119.06874 81.27888
#
# Poissons Ratio (x) = 0.22982 -0.01662
# Poissons Ratio (y) = 0.12471 0.22566
# Poissons Ratio (z) = -0.01321 0.33058
#
# Static dielectric constant tensor:
#      x y z
#    x 3.927380 0.000000 -0.084800 
#    y 0.000000 3.814290 0.000000 
#    z -0.084800 0.000000 4.050510 
# 
# 
# High freq. dielectric constant tensor:
#      x y z
#    x 1.872700 0.000000 -0.002540 
#    y 0.000000 1.863960 0.000000 
#    z -0.002540 0.000000 1.885390 
# 
# From -- ./inp_files/10044.got.cif
#   From: 2010.03.12/outbox.cif.g09.slc.cpg/sg8_6_cif.got.tgz:10044.got - 2010.03.31 10:45:26.
