data_PCOD8053014
_publ_section_title
;
Structure prediction by ZEFSAII (Michael W. Deem and Ramdas Pophale) SiO2 
 PCOD8053014
Probable space group: C M
;
_chemical_formula_sum "Si O2"
_cell_formula_units_Z 32
_cell_length_a 5.108334
_cell_length_b 28.501315
_cell_length_c 11.610577
_cell_angle_alpha 90.000000
_cell_angle_beta 115.719960
_cell_angle_gamma 90.000000
_cell_volume 1522.954945
_symmetry_space_group_name_H-M "C M"
_symmetry_group_IT_number 8
_symmetry_cell_setting 'monoclinic'
loop_
_space_group_symop_operation_xyz
x,y,z
x,-y,z
1/2+x,1/2+y,z
1/2+x,1/2-y,z
loop_
_atom_site_type_symbol
_atom_site_label
_atom_site_fract_x
_atom_site_fract_y
_atom_site_fract_z
Si Si1 0.128840 0.445335 0.021790
Si Si2 0.243168 0.629097 0.670418
Si Si3 0.035119 0.398042 0.396288
Si Si4 0.215292 0.115057 0.109707
Si Si5 0.157572 0.224335 0.046230
Si Si6 0.815491 0.577787 0.734681
Si Si7 0.886344 0.227895 0.751530
Si Si8 0.608459 0.550054 0.459718
O O1 0.179295 0.500000 0.071375
O O2 0.425556 0.415727 0.070976
O O3 0.923130 0.416481 0.069243
O O4 0.977753 0.448836 0.868126
O O5 0.073163 0.634874 0.516250
O O6 0.488043 0.588848 0.712994
O O7 0.433317 0.674288 0.730571
O O8 0.016346 0.621725 0.732187
O O9 0.352595 0.412190 0.411561
O O10 0.869043 0.373156 0.260507
O O11 0.836596 0.441266 0.400524
O O12 0.156955 0.167290 0.049669
O O13 0.473925 0.249496 0.111911
O O14 0.014647 0.240199 0.899876
O O15 0.787512 0.546910 0.613740
O O16 0.547936 0.241616 0.684766
O O17 0.462821 0.500000 0.407714
#
# Coordination Sequence:
#
# PCOD8053014 Si02
#       8
#     4   4   4   4   4   4   4   4
#     4  12  25  39  60  90 124 161 198 241 297 357
#     4  10  20  37  58  82 112 147 184 235 293 342
#     4  10  23  38  56  80 111 153 195 227 276 345
#     4  12  25  42  60  85 124 164 200 244 288 345
#     4  10  21  38  61  87 113 149 197 244 295 352
#     4  10  20  36  58  83 112 146 189 240 293 342
#     4  10  19  32  54  83 110 135 175 231 290 351
#     4  10  20  36  59  82 108 145 192 244 283 328
#
# _framework density 21.011783000000001
#
# number of rings (size 3 to 8) (size 9 to 14) (size 15 to 20)
#    0.000    1.500    0.000    5.625    0.000    5.000 
#    0.000    5.000    0.000    0.000    0.000    0.000 
#    0.000    0.000    0.000    0.000    0.000    0.000 
#
# Total GULP energy -198245.820511 kJ/mol
# GULP energy per Si atom -12390.363782 kJ/mol
# Density = 2.096396 g / cm^3
# Si number density = 21.011783 Si / 1000 Ang^3
#
#
#
# Elastic Constant Matrix: (Units=GPa)
#
#
# Indices 1 2 3 4 5 6 
#
# 1 157.3719 50.1420 26.3749 0.0000 -5.5102 0.0000
# 2 50.1420 105.7146 -5.6474 0.0000 -5.5259 0.0000
# 3 26.3749 -5.6474 69.1119 0.0000 5.6419 0.0000
# 4 0.0000 0.0000 0.0000 3.7050 0.0000 2.5170
# 5 -5.5102 -5.5259 5.6419 0.0000 24.3892 0.0000
# 6 0.0000 0.0000 0.0000 2.5170 0.0000 31.4910
#
#
#
# Elastic Compliance Matrix: (Units=1/GPa)
#
#
# Indices 1 2 3 4 5 6 
#
# 1 0.008319 -0.004047 -0.003653 0.000000 0.001808 0.000000
# 2 -0.004047 0.011567 0.002395 0.000000 0.001152 0.000000
# 3 -0.003653 0.002395 0.016392 0.000000 -0.004074 0.000000
# 4 0.000000 0.000000 0.000000 0.285405 0.000000 -0.022812
# 5 0.001808 0.001152 -0.004074 0.000000 0.042614 0.000000
# 6 0.000000 0.000000 0.000000 -0.022812 0.000000 0.033578
#
#
# Mechanical properties :
#
#
# Convention : Reuss Voigt Hill
#
# Bulk Modulus (GPa) = 38.95684 52.65972 45.80828
# Shear Modulus (GPa) = 11.98924 29.33896 20.66410
#
# Velocity S-wave (km/s) = 2.39131 3.74078 3.13941
# Velocity P-wave (km/s) = 5.11910 6.61621 5.91521
#
# Compressibility (1/GPa) = 0.02566943
#
# Stress axis : x y z
#
# Youngs Moduli (GPa) = 120.20316 86.45288 61.00628
#
# Poissons Ratio (x) = 0.34984 0.22286
# Poissons Ratio (y) = 0.48641 -0.14613
# Poissons Ratio (z) = 0.43911 -0.20709
#
# Static dielectric constant tensor:
#      x y z
#    x 4.238760 0.000000 -0.061770 
#    y 0.000000 3.603780 0.000000 
#    z -0.061770 0.000000 3.822040 
# 
# 
# High freq. dielectric constant tensor:
#      x y z
#    x 1.848480 0.000000 -0.003210 
#    y 0.000000 1.803440 0.000000 
#    z -0.003210 0.000000 1.808220 
# 
# From -- ./inp_files/18201.got.cif
#   From: 2010.03.12/outbox.cif.g09.slc.cpg/sg8_10_cif.got.tgz:18201.got - 2010.03.31 10:45:26.
