data_PCOD8053711
_publ_section_title
;
Structure prediction by ZEFSAII (Michael W. Deem and Ramdas Pophale) SiO2 
 PCOD8053711
Probable space group: C M
;
_chemical_formula_sum "Si O2"
_cell_formula_units_Z 22
_cell_length_a 8.766940
_cell_length_b 12.922668
_cell_length_c 8.213083
_cell_angle_alpha 90.000000
_cell_angle_beta 84.962465
_cell_angle_gamma 90.000000
_cell_volume 926.884615
_symmetry_space_group_name_H-M "C M"
_symmetry_group_IT_number 8
_symmetry_cell_setting 'monoclinic'
loop_
_space_group_symop_operation_xyz
x,y,z
x,-y,z
1/2+x,1/2+y,z
1/2+x,1/2-y,z
loop_
_atom_site_type_symbol
_atom_site_label
_atom_site_fract_x
_atom_site_fract_y
_atom_site_fract_z
Si Si1 0.565440 0.000000 0.169281
Si Si2 0.980531 0.500000 0.526141
Si Si3 0.572531 0.693218 0.202594
Si Si4 0.238772 0.000000 0.305327
Si Si5 0.112226 0.705413 0.526311
Si Si6 0.778482 0.828963 0.020582
Si Si7 0.905590 0.123799 0.655138
O O1 0.598749 0.000000 0.359909
O O2 0.379492 0.000000 0.162175
O O3 0.637165 0.902732 0.072633
O O4 0.804532 0.500000 0.483730
O O5 0.019522 0.607229 0.615846
O O6 0.629493 0.597030 0.300383
O O7 0.570062 0.786782 0.336683
O O8 0.694655 0.717409 0.045878
O O9 0.409631 0.664466 0.144108
O O10 0.064132 0.812287 0.621714
O O11 0.291411 0.679287 0.536427
O O12 0.842660 0.855732 0.840055
O O13 0.926472 0.000000 0.622922
#
# Coordination Sequence:
#
# PCOD8053711 Si02
#       7
#     2   2   4   2   4   4   4
#     4  10  21  40  68  97 133 179 234 299 350 405
#     4  10  20  43  70 101 138 178 248 299 352 409
#     4  12  24  42  73 104 139 185 248 305 345 433
#     4  10  23  37  62 110 133 175 234 306 358 402
#     4  12  25  45  73 105 145 192 244 294 367 426
#     4  12  23  45  70 100 139 184 239 292 363 421
#     4  12  28  48  71 106 153 196 233 297 370 444
#
# _framework density 23.735426
#
# number of rings (size 3 to 8) (size 9 to 14) (size 15 to 20)
#    0.545    0.000    3.636    6.000    1.273    0.000 
#    1.636    0.909    0.000    0.000    0.000    0.000 
#    0.000    0.000    0.000    0.000    0.000    0.000 
#
# Total GULP energy -136301.778986 kJ/mol
# GULP energy per Si atom -12391.070817 kJ/mol
# Density = 2.368140 g / cm^3
# Si number density = 23.735426 Si / 1000 Ang^3
#
#
#
# Elastic Constant Matrix: (Units=GPa)
#
#
# Indices 1 2 3 4 5 6 
#
# 1 67.0592 30.1573 -12.6216 0.0000 14.4193 0.0000
# 2 30.1573 144.4529 7.5375 0.0000 -0.3766 0.0000
# 3 -12.6216 7.5375 63.4131 0.0000 -2.5127 0.0000
# 4 0.0000 0.0000 0.0000 27.1339 0.0000 -5.8474
# 5 14.4193 -0.3766 -2.5127 0.0000 36.6057 0.0000
# 6 0.0000 0.0000 0.0000 -5.8474 0.0000 43.6993
#
#
#
# Elastic Compliance Matrix: (Units=1/GPa)
#
#
# Indices 1 2 3 4 5 6 
#
# 1 0.019140 -0.004225 0.004022 0.000000 -0.007307 0.000000
# 2 -0.004225 0.007898 -0.001715 0.000000 0.001628 0.000000
# 3 0.004022 -0.001715 0.016756 0.000000 -0.000452 0.000000
# 4 0.000000 0.000000 0.000000 0.037948 0.000000 0.005078
# 5 -0.007307 0.001628 -0.000452 0.000000 0.030182 0.000000
# 6 0.000000 0.000000 0.000000 0.005078 0.000000 0.023563
#
#
# Mechanical properties :
#
#
# Convention : Reuss Voigt Hill
#
# Bulk Modulus (GPa) = 25.02538 36.11906 30.57222
# Shear Modulus (GPa) = 32.75593 38.14459 35.45026
#
# Velocity S-wave (km/s) = 3.71892 4.01318 3.86885
# Velocity P-wave (km/s) = 5.38580 6.06008 5.73286
#
# Compressibility (1/GPa) = 0.03995943
#
# Stress axis : x y z
#
# Youngs Moduli (GPa) = 52.24558 126.60742 59.67944
#
# Poissons Ratio (x) = 0.53490 -0.24005
# Poissons Ratio (y) = 0.22073 0.10236
# Poissons Ratio (z) = -0.21015 0.21716
#
# Static dielectric constant tensor:
#      x y z
#    x 4.236380 0.000000 -0.035270 
#    y 0.000000 4.939560 0.000000 
#    z -0.035270 0.000000 3.963740 
# 
# 
# High freq. dielectric constant tensor:
#      x y z
#    x 1.942130 0.000000 -0.002220 
#    y 0.000000 1.959220 0.000000 
#    z -0.002220 0.000000 1.910060 
# 
# From -- ./inp_files/7915.got.cif
#   From: 2010.03.12/outbox.cif.g09.slc.cpg/sg8_4_cif.got.tgz:7915.got - 2010.03.31 10:45:26.
