data_PCOD8053900
_publ_section_title
;
Structure prediction by ZEFSAII (Michael W. Deem and Ramdas Pophale) SiO2 
 PCOD8053900
Probable space group: C M
;
_chemical_formula_sum "Si O2"
_cell_formula_units_Z 28
_cell_length_a 16.429689
_cell_length_b 12.060480
_cell_length_c 8.412257
_cell_angle_alpha 90.000000
_cell_angle_beta 58.929577
_cell_angle_gamma 90.000000
_cell_volume 1427.745758
_symmetry_space_group_name_H-M "C M"
_symmetry_group_IT_number 8
_symmetry_cell_setting 'monoclinic'
loop_
_space_group_symop_operation_xyz
x,y,z
x,-y,z
1/2+x,1/2+y,z
1/2+x,1/2-y,z
loop_
_atom_site_type_symbol
_atom_site_label
_atom_site_fract_x
_atom_site_fract_y
_atom_site_fract_z
Si Si1 0.782570 0.239503 0.856860
Si Si2 0.132562 0.124103 0.194317
Si Si3 0.238605 0.623605 0.586575
Si Si4 0.937532 0.629896 0.516414
Si Si5 0.934381 0.869061 0.915751
Si Si6 0.089729 0.761496 0.545235
Si Si7 0.436542 0.691571 0.264748
O O1 0.751686 0.149684 0.758533
O O2 0.848232 0.333671 0.712535
O O3 0.835450 0.173110 0.943077
O O4 0.688976 0.296714 0.018746
O O5 0.146536 0.164493 0.360867
O O6 0.021433 0.124130 0.262065
O O7 0.172880 0.000000 0.139533
O O8 0.197190 0.500000 0.611901
O O9 0.165015 0.710133 0.588752
O O10 0.338959 0.627413 0.395516
O O11 0.935781 0.500000 0.490585
O O12 0.932548 0.686032 0.347006
O O13 0.033449 0.664252 0.510875
O O14 0.019425 0.842859 0.709869
O O15 0.930077 0.000000 0.953500
O O16 0.952862 0.801816 0.059735
#
# Coordination Sequence:
#
# PCOD8053900 Si02
#       7
#     4   4   4   4   4   4   4
#     4  10  22  36  58  86 112 144 191 227 275 342
#     4  11  21  38  58  83 115 149 184 233 279 325
#     4  11  21  38  58  83 115 149 184 233 279 325
#     4   9  19  39  58  80 112 147 181 233 284 328
#     4  11  21  39  60  84 114 147 183 233 280 328
#     4  10  22  36  58  86 112 144 191 227 275 342
#     4  10  22  36  58  84 112 148 194 226 272 338
#
# _framework density 19.611332999999998
#
# number of rings (size 3 to 8) (size 9 to 14) (size 15 to 20)
#    0.000    1.714    0.000    5.571    0.000    0.000 
#    0.000   22.857    0.000    0.000    0.000    0.000 
#    0.000    0.000    0.000    0.000    0.000    0.000 
#
# Total GULP energy -173662.443333 kJ/mol
# GULP energy per Si atom -12404.460238 kJ/mol
# Density = 1.956670 g / cm^3
# Si number density = 19.611333 Si / 1000 Ang^3
#
#
#
# Elastic Constant Matrix: (Units=GPa)
#
#
# Indices 1 2 3 4 5 6 
#
# 1 88.4407 29.6896 9.5365 0.0000 9.5270 0.0000
# 2 29.6896 110.4412 32.9441 0.0000 6.4650 0.0000
# 3 9.5365 32.9441 88.9038 0.0000 8.5456 0.0000
# 4 0.0000 0.0000 0.0000 19.8604 0.0000 1.5304
# 5 9.5270 6.4650 8.5456 0.0000 41.6828 0.0000
# 6 0.0000 0.0000 0.0000 1.5304 0.0000 20.1230
#
#
#
# Elastic Compliance Matrix: (Units=1/GPa)
#
#
# Indices 1 2 3 4 5 6 
#
# 1 0.012660 -0.003290 0.000092 0.000000 -0.002402 0.000000
# 2 -0.003290 0.011063 -0.003727 0.000000 -0.000200 0.000000
# 3 0.000092 -0.003727 0.012818 0.000000 -0.002071 0.000000
# 4 0.000000 0.000000 0.000000 0.050648 0.000000 -0.003852
# 5 -0.002402 -0.000200 -0.002071 0.000000 0.024995 0.000000
# 6 0.000000 0.000000 0.000000 -0.003852 0.000000 0.049987
#
#
# Mechanical properties :
#
#
# Convention : Reuss Voigt Hill
#
# Bulk Modulus (GPa) = 44.07105 48.01401 46.04253
# Shear Modulus (GPa) = 27.23506 30.70760 28.97133
#
# Velocity S-wave (km/s) = 3.73062 3.96132 3.84770
# Velocity P-wave (km/s) = 6.40919 6.74231 6.57786
#
# Compressibility (1/GPa) = 0.02269063
#
# Stress axis : x y z
#
# Youngs Moduli (GPa) = 78.98637 90.39450 78.01252
#
# Poissons Ratio (x) = 0.29743 -0.00719
# Poissons Ratio (y) = 0.25989 0.29077
# Poissons Ratio (z) = -0.00728 0.33692
#
# Static dielectric constant tensor:
#      x y z
#    x 3.589960 0.000000 0.055710 
#    y 0.000000 3.371580 0.000000 
#    z 0.055710 0.000000 3.612710 
# 
# 
# High freq. dielectric constant tensor:
#      x y z
#    x 1.768420 0.000000 0.004450 
#    y 0.000000 1.758320 0.000000 
#    z 0.004450 0.000000 1.772480 
# 
# From -- ./inp_files/12715.got.cif
#   From: 2010.03.12/outbox.cif.g09.slc.cpg/sg8_7_cif.got.tgz:12715.got - 2010.03.31 10:45:26.
