data_PCOD8053289
_publ_section_title
;
Structure prediction by ZEFSAII (Michael W. Deem and Ramdas Pophale) SiO2 
 PCOD8053289
Probable space group: C M
;
_chemical_formula_sum "Si O2"
_cell_formula_units_Z 32
_cell_length_a 15.179970
_cell_length_b 8.560108
_cell_length_c 25.060031
_cell_angle_alpha 90.000000
_cell_angle_beta 151.908004
_cell_angle_gamma 90.000000
_cell_volume 1533.380659
_symmetry_space_group_name_H-M "C M"
_symmetry_group_IT_number 8
_symmetry_cell_setting 'monoclinic'
loop_
_space_group_symop_operation_xyz
x,y,z
x,-y,z
1/2+x,1/2+y,z
1/2+x,1/2-y,z
loop_
_atom_site_type_symbol
_atom_site_label
_atom_site_fract_x
_atom_site_fract_y
_atom_site_fract_z
Si Si1 0.887550 0.682980 0.122210
Si Si2 0.712603 0.317854 0.648450
Si Si3 0.932728 0.180872 0.674594
Si Si4 0.610863 0.816768 0.139254
Si Si5 0.974781 0.685651 0.286180
Si Si6 0.981659 0.179243 0.876845
Si Si7 0.806826 0.177485 0.898834
Si Si8 0.372232 0.183271 0.528884
O O1 0.856818 0.500000 0.113336
O O2 0.052173 0.721865 0.168676
O O3 0.939864 0.753672 0.207888
O O4 0.690566 0.749497 0.995056
O O5 0.701128 0.500000 0.630188
O O6 0.756876 0.228879 0.616946
O O7 0.874960 0.285967 0.777803
O O8 0.512770 0.259744 0.561921
O O9 0.938299 0.282359 0.624041
O O10 0.123299 0.216313 0.809118
O O11 0.919385 0.000000 0.652194
O O12 0.817282 0.749797 0.241768
O O13 0.606513 0.000000 0.125574
O O14 0.470271 0.733633 0.024293
O O15 0.972706 0.500000 0.285757
O O16 0.169577 0.745724 0.412071
O O17 0.875620 0.192117 0.875576
O O18 0.982909 0.000000 0.856800
O O19 0.754883 0.000000 0.885416
O O20 0.371012 0.000000 0.518548
#
# Coordination Sequence:
#
# PCOD8053289 Si02
#       8
#     4   4   4   4   4   4   4   4
#     4   9  20  39  63  89 123 166 206 250 310 374
#     4  12  25  42  66  98 131 169 212 261 322 386
#     4  12  25  43  67  96 129 170 215 264 323 385
#     4  11  22  38  63  95 128 166 213 264 318 378
#     4  11  23  44  66  88 122 167 216 266 322 380
#     4  10  19  37  64  93 129 171 209 256 317 379
#     4  11  21  37  64  96 131 169 209 261 321 382
#     4  12  26  46  67  93 127 166 216 272 325 382
#
# _framework density 20.868919999999999
#
# number of rings (size 3 to 8) (size 9 to 14) (size 15 to 20)
#    0.000    1.000    2.500    5.250    0.000    2.500 
#    0.000    6.875    0.000    0.000    0.000    0.000 
#    0.000    0.000    0.000    0.000    0.000    0.000 
#
# Total GULP energy -198495.741329 kJ/mol
# GULP energy per Si atom -12405.983833 kJ/mol
# Density = 2.082142 g / cm^3
# Si number density = 20.868920 Si / 1000 Ang^3
#
#
#
# Elastic Constant Matrix: (Units=GPa)
#
#
# Indices 1 2 3 4 5 6 
#
# 1 105.6334 28.0860 22.7510 0.0001 32.6770 0.0000
# 2 28.0860 83.2158 16.9850 0.0000 2.0824 0.0000
# 3 22.7510 16.9850 108.9686 0.0017 23.2282 0.0001
# 4 0.0001 0.0000 0.0017 30.9894 0.0000 2.1986
# 5 32.6770 2.0824 23.2282 0.0000 28.6951 0.0000
# 6 0.0000 0.0000 0.0001 2.1986 0.0000 32.4180
#
#
#
# Elastic Compliance Matrix: (Units=1/GPa)
#
#
# Indices 1 2 3 4 5 6 
#
# 1 0.016765 -0.005488 0.001619 0.000000 -0.020004 0.000000
# 2 -0.005488 0.014224 -0.002639 0.000000 0.007354 0.000000
# 3 0.001619 -0.002639 0.011605 -0.000001 -0.011047 0.000000
# 4 0.000000 0.000000 -0.000001 0.032425 0.000001 -0.002199
# 5 -0.020004 0.007354 -0.011047 0.000001 0.066038 0.000000
# 6 0.000000 0.000000 0.000000 -0.002199 0.000000 0.030996
#
#
# Mechanical properties :
#
#
# Convention : Reuss Voigt Hill
#
# Bulk Modulus (GPa) = 33.80824 48.16243 40.98534
# Shear Modulus (GPa) = 25.65042 33.75356 29.70199
#
# Velocity S-wave (km/s) = 3.50968 4.02606 3.77671
# Velocity P-wave (km/s) = 5.71483 6.68886 6.22094
#
# Compressibility (1/GPa) = 0.02957859
#
# Stress axis : x y z
#
# Youngs Moduli (GPa) = 59.64649 70.30419 86.17051
#
# Poissons Ratio (x) = 0.38586 -0.13954
# Poissons Ratio (y) = 0.32736 0.22738
# Poissons Ratio (z) = -0.09659 0.18552
#
# Static dielectric constant tensor:
#      x y z
#    x 4.107280 0.000000 0.048970 
#    y 0.000000 3.716680 0.000000 
#    z 0.048970 0.000000 3.800180 
# 
# 
# High freq. dielectric constant tensor:
#      x y z
#    x 1.831980 0.000000 0.009500 
#    y 0.000000 1.813140 0.000000 
#    z 0.009500 0.000000 1.817250 
# 
# From -- ./inp_files/26533.got.cif
#   From: 2010.03.12/outbox.cif.g09.slc.cpg/sg8_14_cif.got.tgz:26533.got - 2010.03.31 10:45:26.
