data_PCOD8053391
_publ_section_title
;
Structure prediction by ZEFSAII (Michael W. Deem and Ramdas Pophale) SiO2 
 PCOD8053391
Probable space group: C M
;
_chemical_formula_sum "Si O2"
_cell_formula_units_Z 28
_cell_length_a 13.790085
_cell_length_b 10.084207
_cell_length_c 11.456322
_cell_angle_alpha 90.000000
_cell_angle_beta 57.433985
_cell_angle_gamma 90.000000
_cell_volume 1342.653390
_symmetry_space_group_name_H-M "C M"
_symmetry_group_IT_number 8
_symmetry_cell_setting 'monoclinic'
loop_
_space_group_symop_operation_xyz
x,y,z
x,-y,z
1/2+x,1/2+y,z
1/2+x,1/2-y,z
loop_
_atom_site_type_symbol
_atom_site_label
_atom_site_fract_x
_atom_site_fract_y
_atom_site_fract_z
Si Si1 0.284820 0.147468 0.087230
Si Si2 0.651284 0.156457 0.316754
Si Si3 0.872138 0.141132 0.739445
Si Si4 0.009831 0.242157 0.852916
Si Si5 0.951224 0.848302 0.441089
Si Si6 0.691122 0.648081 0.901732
Si Si7 0.199057 0.650886 0.553913
O O1 0.263567 0.267716 0.192201
O O2 0.264411 0.000000 0.154755
O O3 0.417097 0.149575 0.956757
O O4 0.195492 0.170105 0.037941
O O5 0.544476 0.241725 0.334156
O O6 0.650779 0.170146 0.455905
O O7 0.647874 0.000000 0.281674
O O8 0.961324 0.150715 0.575032
O O9 0.780334 0.256043 0.780574
O O10 0.939278 0.140282 0.818468
O O11 0.805974 0.000000 0.776606
O O12 0.063805 0.173460 0.932765
O O13 0.110252 0.297364 0.706527
O O14 0.827418 0.788663 0.481813
O O15 0.974392 0.000000 0.378687
O O16 0.730803 0.500000 0.844683
O O17 0.217825 0.500000 0.574160
#
# Coordination Sequence:
#
# PCOD8053391 Si02
#       7
#     4   4   4   4   4   4   4
#     4  10  24  43  63  88 123 170 208 249 306 370
#     4  11  24  43  64  88 123 166 209 258 302 362
#     4  10  20  34  57  90 124 156 195 245 301 357
#     4  11  20  38  64  96 125 154 202 257 310 361
#     4  10  20  38  61  89 123 160 198 247 306 366
#     4  10  22  38  60  89 124 161 201 248 305 363
#     4  10  21  38  63  94 124 159 199 250 314 369
#
# _framework density 20.854230000000001
#
# number of rings (size 3 to 8) (size 9 to 14) (size 15 to 20)
#    0.000    1.714    2.857    1.286    0.000    5.714 
#    0.000    5.714    0.000    0.000    0.000    0.000 
#    0.000    0.000    0.000    0.000    0.000    0.000 
#
# Total GULP energy -173464.587479 kJ/mol
# GULP energy per Si atom -12390.327677 kJ/mol
# Density = 2.080676 g / cm^3
# Si number density = 20.854230 Si / 1000 Ang^3
#
#
#
# Elastic Constant Matrix: (Units=GPa)
#
#
# Indices 1 2 3 4 5 6 
#
# 1 105.9065 40.7786 19.5089 0.0000 -6.0704 0.0000
# 2 40.7786 139.2671 47.9289 0.0000 -13.8238 0.0000
# 3 19.5089 47.9289 63.4211 0.0000 -13.8970 0.0000
# 4 0.0000 0.0000 0.0000 30.6299 0.0000 -5.0819
# 5 -6.0704 -13.8238 -13.8970 0.0000 27.6918 0.0000
# 6 0.0000 0.0000 0.0000 -5.0819 0.0000 23.7785
#
#
#
# Elastic Compliance Matrix: (Units=1/GPa)
#
#
# Indices 1 2 3 4 5 6 
#
# 1 0.010719 -0.002695 -0.001169 0.000000 0.000418 0.000000
# 2 -0.002695 0.010424 -0.006784 0.000000 0.001208 0.000000
# 3 -0.001169 -0.006784 0.022983 0.000000 0.007891 0.000000
# 4 0.000000 0.000000 0.000000 0.033848 0.000000 0.007234
# 5 0.000418 0.001208 0.007891 0.000000 0.040767 0.000000
# 6 0.000000 0.000000 0.000000 0.007234 0.000000 0.043601
#
#
# Mechanical properties :
#
#
# Convention : Reuss Voigt Hill
#
# Bulk Modulus (GPa) = 43.80110 58.33639 51.06875
# Shear Modulus (GPa) = 26.14394 29.77859 27.96127
#
# Velocity S-wave (km/s) = 3.54454 3.78291 3.66566
# Velocity P-wave (km/s) = 6.14823 6.86401 6.51596
#
# Compressibility (1/GPa) = 0.02283047
#
# Stress axis : x y z
#
# Youngs Moduli (GPa) = 93.29010 95.93047 43.50976
#
# Poissons Ratio (x) = 0.25852 0.05087
# Poissons Ratio (y) = 0.25140 0.29517
# Poissons Ratio (z) = 0.10908 0.65080
#
# Static dielectric constant tensor:
#      x y z
#    x 4.158410 0.000000 0.002860 
#    y 0.000000 3.799080 0.000000 
#    z 0.002860 0.000000 3.561530 
# 
# 
# High freq. dielectric constant tensor:
#      x y z
#    x 1.818330 0.000000 0.003000 
#    y 0.000000 1.814460 0.000000 
#    z 0.003000 0.000000 1.801780 
# 
# From -- ./inp_files/21460.got.cif
#   From: 2010.03.12/outbox.cif.g09.slc.cpg/sg8_11_cif.got.tgz:21460.got - 2010.03.31 10:45:26.
