data_PCOD8053471
_publ_section_title
;
Structure prediction by ZEFSAII (Michael W. Deem and Ramdas Pophale) SiO2 
 PCOD8053471
Probable space group: C M
;
_chemical_formula_sum "Si O2"
_cell_formula_units_Z 32
_cell_length_a 28.113772
_cell_length_b 8.589531
_cell_length_c 11.934185
_cell_angle_alpha 90.000000
_cell_angle_beta 33.028712
_cell_angle_gamma 90.000000
_cell_volume 1570.815009
_symmetry_space_group_name_H-M "C M"
_symmetry_group_IT_number 8
_symmetry_cell_setting 'monoclinic'
loop_
_space_group_symop_operation_xyz
x,y,z
x,-y,z
1/2+x,1/2+y,z
1/2+x,1/2-y,z
loop_
_atom_site_type_symbol
_atom_site_label
_atom_site_fract_x
_atom_site_fract_y
_atom_site_fract_z
Si Si1 0.065430 0.678256 0.301790
Si Si2 0.820264 0.680132 0.549093
Si Si3 0.332597 0.684902 0.993577
Si Si4 0.137955 0.317822 0.399617
Si Si5 0.382083 0.681562 0.651312
Si Si6 0.487230 0.683478 0.840723
Si Si7 0.141062 0.678133 0.917722
Si Si8 0.479331 0.682917 0.109350
O O1 0.031514 0.500000 0.373053
O O2 0.113058 0.726138 0.322020
O O3 0.985527 0.793906 0.438522
O O4 0.134074 0.699460 0.065615
O O5 0.839613 0.500000 0.489095
O O6 0.833128 0.720945 0.653529
O O7 0.720595 0.719223 0.713183
O O8 0.884057 0.781673 0.346173
O O9 0.339471 0.500000 0.976921
O O10 0.348884 0.746685 0.835961
O O11 0.406416 0.756156 0.929838
O O12 0.237353 0.737235 0.224237
O O13 0.126886 0.500000 0.443087
O O14 0.078727 0.227704 0.604693
O O15 0.360555 0.500000 0.676726
O O16 0.477462 0.500000 0.860741
O O17 0.483741 0.747101 0.973851
O O18 0.160054 0.500000 0.849188
O O19 0.050939 0.728325 0.040005
O O20 0.497542 0.500000 0.079748
#
# Coordination Sequence:
#
# PCOD8053471 Si02
#       8
#     4   4   4   4   4   4   4   4
#     4  10  20  35  58  90 125 156 195 249 304 361
#     4  12  25  41  62  91 127 160 201 252 307 370
#     4   9  19  37  60  87 119 159 197 239 294 356
#     4  10  20  36  60  88 120 156 198 244 297 359
#     4  11  20  35  63  90 121 161 202 244 301 366
#     4  10  22  41  61  85 118 155 202 253 299 353
#     4  11  23  41  65  91 123 161 203 251 308 366
#     4  11  24  42  63  88 121 162 210 258 306 361
#
# _framework density 20.371589
#
# number of rings (size 3 to 8) (size 9 to 14) (size 15 to 20)
#    0.000    1.500    2.500    3.000    0.000    4.500 
#    0.000    4.375    0.000    0.000    0.000    0.000 
#    0.000    0.000    0.000    0.000    0.000    0.000 
#
# Total GULP energy -198470.920417 kJ/mol
# GULP energy per Si atom -12404.432526 kJ/mol
# Density = 2.032522 g / cm^3
# Si number density = 20.371589 Si / 1000 Ang^3
#
#
#
# Elastic Constant Matrix: (Units=GPa)
#
#
# Indices 1 2 3 4 5 6 
#
# 1 71.2720 18.1742 61.7076 0.0000 16.8973 0.0000
# 2 18.1742 38.7043 8.2568 0.0000 5.4251 0.0000
# 3 61.7076 8.2568 126.6783 0.0000 -0.4246 0.0000
# 4 0.0000 0.0000 0.0000 33.8114 0.0000 -4.6818
# 5 16.8973 5.4251 -0.4246 0.0000 39.1197 0.0000
# 6 0.0000 0.0000 0.0000 -4.6818 0.0000 19.4669
#
#
#
# Elastic Compliance Matrix: (Units=1/GPa)
#
#
# Indices 1 2 3 4 5 6 
#
# 1 0.033298 -0.010475 -0.015581 0.000000 -0.013099 0.000000
# 2 -0.010475 0.030029 0.003147 0.000000 0.000394 0.000000
# 3 -0.015581 0.003147 0.015300 0.000000 0.006460 0.000000
# 4 0.000000 0.000000 0.000000 0.030595 0.000000 0.007358
# 5 -0.013099 0.000394 0.006460 0.000000 0.031236 0.000000
# 6 0.000000 0.000000 0.000000 0.007358 0.000000 0.053139
#
#
# Mechanical properties :
#
#
# Convention : Reuss Voigt Hill
#
# Bulk Modulus (GPa) = 30.48046 45.88132 38.18089
# Shear Modulus (GPa) = 19.97184 28.38066 24.17625
#
# Velocity S-wave (km/s) = 3.13449 3.73654 3.44868
# Velocity P-wave (km/s) = 5.30045 6.41769 5.88564
#
# Compressibility (1/GPa) = 0.03280790
#
# Stress axis : x y z
#
# Youngs Moduli (GPa) = 30.03202 33.30089 65.35748
#
# Poissons Ratio (x) = 0.34884 1.01835
# Poissons Ratio (y) = 0.31460 -0.20567
# Poissons Ratio (z) = 0.46793 -0.10479
#
# Static dielectric constant tensor:
#      x y z
#    x 3.895350 0.000000 0.017740 
#    y 0.000000 3.485950 0.000000 
#    z 0.017740 0.000000 3.721050 
# 
# 
# High freq. dielectric constant tensor:
#      x y z
#    x 1.798040 0.000000 -0.004160 
#    y 0.000000 1.778130 0.000000 
#    z -0.004160 0.000000 1.805130 
# 
# From -- ./inp_files/21536.got.cif
#   From: 2010.03.12/outbox.cif.g09.slc.cpg/sg8_11_cif.got.tgz:21536.got - 2010.03.31 10:45:26.
