data_PCOD8053133
_publ_section_title
;
Structure prediction by ZEFSAII (Michael W. Deem and Ramdas Pophale) SiO2 
 PCOD8053133
Probable space group: C M
;
_chemical_formula_sum "Si O2"
_cell_formula_units_Z 32
_cell_length_a 19.912768
_cell_length_b 8.928374
_cell_length_c 24.840990
_cell_angle_alpha 90.000000
_cell_angle_beta 156.872082
_cell_angle_gamma 90.000000
_cell_volume 1734.714838
_symmetry_space_group_name_H-M "C M"
_symmetry_group_IT_number 8
_symmetry_cell_setting 'monoclinic'
loop_
_space_group_symop_operation_xyz
x,y,z
x,-y,z
1/2+x,1/2+y,z
1/2+x,1/2-y,z
loop_
_atom_site_type_symbol
_atom_site_label
_atom_site_fract_x
_atom_site_fract_y
_atom_site_fract_z
Si Si1 0.409060 0.676847 0.275660
Si Si2 0.749152 0.674456 0.336795
Si Si3 0.920277 0.326013 0.800260
Si Si4 0.535046 0.327139 0.485181
Si Si5 0.540841 0.826020 0.271243
Si Si6 0.217514 0.173504 0.958437
Si Si7 0.429092 0.327783 0.029028
Si Si8 0.043070 0.824714 0.995838
O O1 0.404187 0.500000 0.265158
O O2 0.481963 0.727030 0.386829
O O3 0.536032 0.745009 0.325007
O O4 0.220837 0.739743 0.128893
O O5 0.758025 0.500000 0.355988
O O6 0.697877 0.758586 0.353562
O O7 0.613875 0.712532 0.189995
O O8 0.934095 0.731081 0.454870
O O9 0.955190 0.500000 0.837673
O O10 0.734586 0.297535 0.639060
O O11 0.052630 0.267809 0.853369
O O12 0.933224 0.234297 0.865083
O O13 0.486755 0.500000 0.458205
O O14 0.574548 0.000000 0.304808
O O15 0.363211 0.795090 0.109786
O O16 0.168513 0.000000 0.919176
O O17 0.282294 0.226693 0.947630
O O18 0.384125 0.500000 0.007629
O O19 0.434254 0.293117 0.969452
O O20 0.082175 0.000000 0.017408
#
# Coordination Sequence:
#
# PCOD8053133 Si02
#       8
#     4   4   4   4   4   4   4   4
#     4  11  21  35  58  85 113 147 189 235 280 332
#     4  10  19  34  57  84 113 148 188 230 281 336
#     4  11  23  39  58  81 115 155 190 230 280 337
#     4  10  23  40  57  82 116 152 190 231 281 336
#     4  10  20  34  55  84 117 146 183 237 282 328
#     4  10  20  34  55  83 114 146 186 232 280 333
#     4   9  19  34  55  83 114 144 181 231 283 332
#     4  11  21  36  57  86 116 144 187 236 281 332
#
# _framework density 18.446836999999999
#
# number of rings (size 3 to 8) (size 9 to 14) (size 15 to 20)
#    0.000    1.750    2.500    2.250    0.000    4.000 
#    0.000    1.250    0.000    1.500    0.000    0.000 
#    0.000    0.000    0.000    0.000    0.000    0.000 
#
# Total GULP energy -198485.833718 kJ/mol
# GULP energy per Si atom -12405.364607 kJ/mol
# Density = 1.840485 g / cm^3
# Si number density = 18.446837 Si / 1000 Ang^3
#
#
#
# Elastic Constant Matrix: (Units=GPa)
#
#
# Indices 1 2 3 4 5 6 
#
# 1 134.1614 57.8613 41.2283 0.0021 14.5872 -0.0003
# 2 57.8613 84.5207 28.2857 -0.0084 13.4113 -0.0007
# 3 41.2283 28.2857 57.0033 -0.0129 9.2288 -0.0009
# 4 0.0021 -0.0084 -0.0129 21.7961 -0.0023 4.1031
# 5 14.5872 13.4113 9.2288 -0.0023 27.0644 0.0001
# 6 -0.0003 -0.0007 -0.0009 4.1031 0.0001 38.8467
#
#
#
# Elastic Compliance Matrix: (Units=1/GPa)
#
#
# Indices 1 2 3 4 5 6 
#
# 1 0.011895 -0.006116 -0.005315 -0.000007 -0.001568 0.000001
# 2 -0.006116 0.017973 -0.003797 0.000005 -0.004316 0.000000
# 3 -0.005315 -0.003797 0.023817 0.000013 -0.003376 -0.000001
# 4 -0.000007 0.000005 0.000013 0.046811 0.000001 -0.004944
# 5 -0.001568 -0.004316 -0.003376 0.000001 0.041084 0.000000
# 6 0.000001 0.000000 -0.000001 -0.004944 0.000000 0.026264
#
#
# Mechanical properties :
#
#
# Convention : Reuss Voigt Hill
#
# Bulk Modulus (GPa) = 43.04468 58.93732 50.99100
# Shear Modulus (GPa) = 24.26684 27.42877 25.84781
#
# Velocity S-wave (km/s) = 3.63092 3.86023 3.74733
# Velocity P-wave (km/s) = 6.40025 7.20331 6.81362
#
# Compressibility (1/GPa) = 0.02323167
#
# Stress axis : x y z
#
# Youngs Moduli (GPa) = 84.06898 55.63763 41.98643
#
# Poissons Ratio (x) = 0.34026 0.22314
# Poissons Ratio (y) = 0.51413 0.15941
# Poissons Ratio (z) = 0.44679 0.21124
#
# Static dielectric constant tensor:
#      x y z
#    x 3.589300 -0.000010 0.002560 
#    y -0.000010 3.509860 0.000000 
#    z 0.002560 0.000000 3.116480 
# 
# 
# High freq. dielectric constant tensor:
#      x y z
#    x 1.729590 0.000000 0.009320 
#    y 0.000000 1.728520 0.000000 
#    z 0.009320 0.000000 1.685130 
# 
# From -- ./inp_files/23691.got.cif
#   From: 2010.03.12/outbox.cif.g09.slc.cpg/sg8_12_cif.got.tgz:23691.got - 2010.03.31 10:45:26.
