data_PCOD8053367
_publ_section_title
;
Structure prediction by ZEFSAII (Michael W. Deem and Ramdas Pophale) SiO2 
 PCOD8053367
Probable space group: C M
;
_chemical_formula_sum "Si O2"
_cell_formula_units_Z 32
_cell_length_a 22.375238
_cell_length_b 8.967470
_cell_length_c 11.168720
_cell_angle_alpha 90.000000
_cell_angle_beta 131.213136
_cell_angle_gamma 90.000000
_cell_volume 1685.820013
_symmetry_space_group_name_H-M "C M"
_symmetry_group_IT_number 8
_symmetry_cell_setting 'monoclinic'
loop_
_space_group_symop_operation_xyz
x,y,z
x,-y,z
1/2+x,1/2+y,z
1/2+x,1/2-y,z
loop_
_atom_site_type_symbol
_atom_site_label
_atom_site_fract_x
_atom_site_fract_y
_atom_site_fract_z
Si Si1 0.370940 0.176197 0.363520
Si Si2 0.597329 0.173964 0.536902
Si Si3 0.752603 0.827402 0.600348
Si Si4 0.718652 0.324145 0.309061
Si Si5 0.420396 0.671131 0.938076
Si Si6 0.530139 0.824759 0.694802
Si Si7 0.445008 0.327256 0.244251
Si Si8 0.063639 0.323412 0.000660
O O1 0.287370 0.226875 0.308295
O O2 0.441717 0.232285 0.544528
O O3 0.381321 0.250760 0.247906
O O4 0.375998 0.000000 0.353159
O O5 0.684784 0.213682 0.607022
O O6 0.590384 0.221528 0.667620
O O7 0.533064 0.260203 0.372533
O O8 0.577321 0.000000 0.497378
O O9 0.743177 0.724179 0.473424
O O10 0.746302 0.000000 0.553712
O O11 0.835731 0.789479 0.770590
O O12 0.706716 0.500000 0.291789
O O13 0.637527 0.247299 0.165379
O O14 0.444802 0.500000 0.944841
O O15 0.413978 0.701440 0.070289
O O16 0.484020 0.780993 0.964762
O O17 0.527445 0.000000 0.708754
O O18 0.558757 0.756577 0.858964
O O19 0.449442 0.500000 0.282401
O O20 0.073761 0.500000 0.015971
#
# Coordination Sequence:
#
# PCOD8053367 Si02
#       8
#     4   4   4   4   4   4   4   4
#     4   9  19  37  58  78 105 143 181 219 269 325
#     4   9  18  35  57  79 108 145 181 219 266 321
#     4  10  21  37  58  82 108 144 186 225 270 325
#     4  11  23  38  56  80 112 145 179 227 280 323
#     4  10  22  38  55  80 114 145 178 227 279 320
#     4   8  16  33  56  79 103 136 179 221 261 313
#     4  10  20  34  55  82 110 141 177 221 271 320
#     4  11  22  36  57  82 108 145 189 225 266 325
#
# _framework density 18.981860000000001
#
# number of rings (size 3 to 8) (size 9 to 14) (size 15 to 20)
#    0.000    2.250    0.000    3.375    0.000    7.000 
#    0.000    8.750    0.000    0.000    0.000    0.000 
#    0.000    0.000    0.000    0.000    0.000    0.000 
#
# Total GULP energy -198426.158497 kJ/mol
# GULP energy per Si atom -12401.634906 kJ/mol
# Density = 1.893866 g / cm^3
# Si number density = 18.981860 Si / 1000 Ang^3
#
#
#
# Elastic Constant Matrix: (Units=GPa)
#
#
# Indices 1 2 3 4 5 6 
#
# 1 145.1077 51.0224 70.1952 0.0000 9.7179 0.0000
# 2 51.0224 57.6315 43.4648 0.0000 -1.6355 0.0000
# 3 70.1952 43.4648 134.6000 0.0000 -6.1647 0.0000
# 4 0.0000 0.0000 0.0000 19.7217 0.0000 -8.0799
# 5 9.7179 -1.6355 -6.1647 0.0000 32.4143 0.0000
# 6 0.0000 0.0000 0.0000 -8.0799 0.0000 24.5076
#
#
#
# Elastic Compliance Matrix: (Units=1/GPa)
#
#
# Indices 1 2 3 4 5 6 
#
# 1 0.011760 -0.007611 -0.003888 0.000000 -0.004649 0.000000
# 2 -0.007611 0.027866 -0.004903 0.000000 0.002755 0.000000
# 3 -0.003888 -0.004903 0.011180 0.000000 0.003045 0.000000
# 4 0.000000 0.000000 0.000000 0.058624 0.000000 0.019328
# 5 -0.004649 0.002755 0.003045 0.000000 0.032962 0.000000
# 6 0.000000 0.000000 0.000000 0.019328 0.000000 0.047176
#
#
# Mechanical properties :
#
#
# Convention : Reuss Voigt Hill
#
# Bulk Modulus (GPa) = 55.55133 74.07823 64.81478
# Shear Modulus (GPa) = 21.89416 26.83917 24.36667
#
# Velocity S-wave (km/s) = 3.39990 3.76432 3.58674
# Velocity P-wave (km/s) = 6.68890 7.61603 7.16747
#
# Compressibility (1/GPa) = 0.01800137
#
# Stress axis : x y z
#
# Youngs Moduli (GPa) = 85.03642 35.88661 89.44688
#
# Poissons Ratio (x) = 0.27312 0.34778
# Poissons Ratio (y) = 0.64719 0.43856
# Poissons Ratio (z) = 0.33063 0.17595
#
# Static dielectric constant tensor:
#      x y z
#    x 3.670990 0.000000 -0.080300 
#    y 0.000000 3.360750 0.000000 
#    z -0.080300 0.000000 3.570250 
# 
# 
# High freq. dielectric constant tensor:
#      x y z
#    x 1.750430 0.000000 -0.004270 
#    y 0.000000 1.725690 0.000000 
#    z -0.004270 0.000000 1.740890 
# 
# From -- ./inp_files/23903.got.cif
#   From: 2010.03.12/outbox.cif.g09.slc.cpg/sg8_12_cif.got.tgz:23903.got - 2010.03.31 10:45:26.
