data_PCOD8053108
_publ_section_title
;
Structure prediction by ZEFSAII (Michael W. Deem and Ramdas Pophale) SiO2 
 PCOD8053108
Probable space group: C M
;
_chemical_formula_sum "Si O2"
_cell_formula_units_Z 32
_cell_length_a 14.403379
_cell_length_b 8.831886
_cell_length_c 28.635473
_cell_angle_alpha 90.000000
_cell_angle_beta 151.053596
_cell_angle_gamma 90.000000
_cell_volume 1763.030106
_symmetry_space_group_name_H-M "C M"
_symmetry_group_IT_number 8
_symmetry_cell_setting 'monoclinic'
loop_
_space_group_symop_operation_xyz
x,y,z
x,-y,z
1/2+x,1/2+y,z
1/2+x,1/2-y,z
loop_
_atom_site_type_symbol
_atom_site_label
_atom_site_fract_x
_atom_site_fract_y
_atom_site_fract_z
Si Si1 0.635420 0.322404 0.457820
Si Si2 0.338054 0.822074 0.093216
Si Si3 0.744834 0.820835 0.238200
Si Si4 0.625012 0.680524 0.090893
Si Si5 0.233376 0.179371 0.945048
Si Si6 0.905509 0.321337 0.742025
Si Si7 0.866757 0.831065 0.632202
Si Si8 0.493082 0.669019 0.590023
O O1 0.637996 0.500000 0.466836
O O2 0.433313 0.266874 0.348564
O O3 0.671802 0.242285 0.524200
O O4 0.806878 0.273961 0.497223
O O5 0.561253 0.771982 0.188523
O O6 0.233518 0.753358 0.092681
O O7 0.325596 0.000000 0.092330
O O8 0.234024 0.769946 0.999606
O O9 0.741592 0.737972 0.187070
O O10 0.743986 0.000000 0.228349
O O11 0.616521 0.500000 0.087488
O O12 0.409754 0.744704 0.995315
O O13 0.035863 0.235681 0.836443
O O14 0.253706 0.000000 0.948962
O O15 0.929565 0.500000 0.759300
O O16 0.958472 0.271749 0.713000
O O17 0.686408 0.265845 0.652692
O O18 0.024369 0.836229 0.660107
O O19 0.821367 0.000000 0.630892
O O20 0.451335 0.500000 0.552479
#
# Coordination Sequence:
#
# PCOD8053108 Si02
#       8
#     4   4   4   4   4   4   4   4
#     4   9  17  33  56  78 107 145 181 217 264 315
#     4   8  17  35  55  76 103 137 174 212 260 315
#     4   9  18  35  55  77 109 142 174 214 263 316
#     4  10  19  34  56  81 105 134 177 222 261 314
#     4  10  21  37  55  76 107 141 172 215 270 321
#     4  11  21  36  56  80 105 139 182 222 265 318
#     4   9  19  36  53  75 107 140 176 220 267 310
#     4   8  19  36  52  73 107 140 176 222 264 307
#
# _framework density 18.150570999999999
#
# number of rings (size 3 to 8) (size 9 to 14) (size 15 to 20)
#    0.750    2.000    0.000    2.250    0.000    3.000 
#    2.250    8.750    0.000    0.000    0.000    0.000 
#    0.000    0.000    0.000    0.000    0.000    0.000 
#
# Total GULP energy -198282.075927 kJ/mol
# GULP energy per Si atom -12392.629745 kJ/mol
# Density = 1.810926 g / cm^3
# Si number density = 18.150571 Si / 1000 Ang^3
#
#
#
# Elastic Constant Matrix: (Units=GPa)
#
#
# Indices 1 2 3 4 5 6 
#
# 1 94.3439 27.2878 22.0104 0.0001 1.3249 0.0001
# 2 27.2878 59.8860 30.7731 0.0001 0.0799 0.0000
# 3 22.0104 30.7731 87.2675 0.0003 -0.5797 0.0000
# 4 0.0001 0.0001 0.0003 32.3485 0.0000 -0.9659
# 5 1.3249 0.0799 -0.5797 0.0000 20.1751 0.0000
# 6 0.0001 0.0000 0.0000 -0.9659 0.0000 24.0964
#
#
#
# Elastic Compliance Matrix: (Units=1/GPa)
#
#
# Indices 1 2 3 4 5 6 
#
# 1 0.012357 -0.004916 -0.001389 0.000000 -0.000832 0.000000
# 2 -0.004916 0.022351 -0.006642 0.000000 0.000043 0.000000
# 3 -0.001389 -0.006642 0.014155 0.000000 0.000524 0.000000
# 4 0.000000 0.000000 0.000000 0.030950 0.000000 0.001241
# 5 -0.000832 0.000043 0.000524 0.000000 0.049636 0.000000
# 6 0.000000 0.000000 0.000000 0.001241 0.000000 0.041550
#
#
# Mechanical properties :
#
#
# Convention : Reuss Voigt Hill
#
# Bulk Modulus (GPa) = 43.53374 44.62667 44.08020
# Shear Modulus (GPa) = 24.44417 26.08574 25.26495
#
# Velocity S-wave (km/s) = 3.67378 3.79514 3.73495
# Velocity P-wave (km/s) = 6.48324 6.62151 6.55274
#
# Compressibility (1/GPa) = 0.02297069
#
# Stress axis : x y z
#
# Youngs Moduli (GPa) = 80.92539 44.74040 70.64769
#
# Poissons Ratio (x) = 0.21994 0.09811
# Poissons Ratio (y) = 0.39783 0.46921
# Poissons Ratio (z) = 0.11238 0.29714
#
# Static dielectric constant tensor:
#      x y z
#    x 3.398770 0.000000 0.040670 
#    y 0.000000 3.244650 0.000000 
#    z 0.040670 0.000000 3.289860 
# 
# 
# High freq. dielectric constant tensor:
#      x y z
#    x 1.694170 0.000000 0.000390 
#    y 0.000000 1.700440 0.000000 
#    z 0.000390 0.000000 1.695320 
# 
# From -- ./inp_files/33298.got.cif
#   From: 2010.03.12/outbox.cif.g09.slc.cpg/sg8_17_cif.got.tgz:33298.got - 2010.03.31 10:45:26.
