data_PCOD8053257
_publ_section_title
;
Structure prediction by ZEFSAII (Michael W. Deem and Ramdas Pophale) SiO2 
 PCOD8053257
Probable space group: C M
;
_chemical_formula_sum "Si O2"
_cell_formula_units_Z 32
_cell_length_a 19.536169
_cell_length_b 8.784616
_cell_length_c 12.076690
_cell_angle_alpha 90.000000
_cell_angle_beta 51.817254
_cell_angle_gamma 90.000000
_cell_volume 1629.132678
_symmetry_space_group_name_H-M "C M"
_symmetry_group_IT_number 8
_symmetry_cell_setting 'monoclinic'
loop_
_space_group_symop_operation_xyz
x,y,z
x,-y,z
1/2+x,1/2+y,z
1/2+x,1/2-y,z
loop_
_atom_site_type_symbol
_atom_site_label
_atom_site_fract_x
_atom_site_fract_y
_atom_site_fract_z
Si Si1 0.862410 0.180772 0.138240
Si Si2 0.379538 0.178640 0.576301
Si Si3 0.686301 0.680772 0.814349
Si Si4 0.123934 0.829740 0.109233
Si Si5 0.924777 0.829740 0.308390
Si Si6 0.024356 0.819650 0.582331
Si Si7 0.024356 0.818552 0.835230
Si Si8 0.669173 0.821360 0.286666
O O1 0.873430 0.235932 0.253854
O O2 0.768203 0.238915 0.193399
O O3 0.868495 0.000000 0.128967
O O4 0.937902 0.246962 0.982579
O O5 0.280508 0.238915 0.681094
O O6 0.414008 0.215151 0.420190
O O7 0.437419 0.260479 0.610514
O O8 0.385990 0.000000 0.591516
O O9 0.680216 0.500000 0.817247
O O10 0.610809 0.746962 0.809672
O O11 0.675281 0.735932 0.952003
O O12 0.134703 0.715151 0.199494
O O13 0.024356 0.837252 0.171802
O O14 0.156046 0.000000 0.110380
O O15 0.892665 0.000000 0.373761
O O16 0.024356 0.761042 0.708685
O O17 0.111292 0.760479 0.436640
O O18 0.024356 0.000000 0.574571
O O19 0.024356 0.000000 0.838675
O O20 0.662721 0.000000 0.314785
#
# Coordination Sequence:
#
# PCOD8053257 Si02
#       8
#     4   4   4   4   4   4   4   4
#     4   9  19  36  58  85 113 148 189 234 283 332
#     4  11  23  37  57  85 119 150 185 235 288 332
#     4   9  19  36  58  85 113 148 189 234 283 332
#     4  10  19  36  62  84 108 146 194 235 276 336
#     4  10  19  36  62  84 108 146 194 235 276 336
#     4  11  23  38  59  82 112 153 194 233 278 339
#     4   9  18  36  59  82 110 147 192 231 274 337
#     4  11  23  37  57  85 119 150 185 235 288 332
#
# _framework density 19.642353
#
# number of rings (size 3 to 8) (size 9 to 14) (size 15 to 20)
#    0.000    2.000    2.500    1.125    3.500    0.000 
#    0.000    1.250    0.000    3.000    0.000    0.000 
#    0.000    0.000    0.000    0.000    0.000    0.000 
#
# Total GULP energy -198404.494145 kJ/mol
# GULP energy per Si atom -12400.280884 kJ/mol
# Density = 1.959765 g / cm^3
# Si number density = 19.642353 Si / 1000 Ang^3
#
#
#
# Elastic Constant Matrix: (Units=GPa)
#
#
# Indices 1 2 3 4 5 6 
#
# 1 130.1384 26.1615 70.5507 0.0000 -3.3015 0.0000
# 2 26.1615 45.3903 26.0161 0.0000 -0.2623 0.0000
# 3 70.5507 26.0161 129.7619 0.0000 2.6217 0.0000
# 4 0.0000 0.0000 0.0000 10.6081 0.0000 -4.0687
# 5 -3.3015 -0.2623 2.6217 0.0000 39.5776 0.0000
# 6 0.0000 0.0000 0.0000 -4.0687 0.0000 12.8610
#
#
#
# Elastic Compliance Matrix: (Units=1/GPa)
#
#
# Indices 1 2 3 4 5 6 
#
# 1 0.011406 -0.003386 -0.005548 0.000000 0.001297 0.000000
# 2 -0.003386 0.025907 -0.003355 0.000000 0.000111 0.000000
# 3 -0.005548 -0.003355 0.011421 0.000000 -0.001242 0.000000
# 4 0.000000 0.000000 0.000000 0.107286 0.000000 0.033941
# 5 0.001297 0.000111 -0.001242 0.000000 0.025458 0.000000
# 6 0.000000 0.000000 0.000000 0.033941 0.000000 0.088492
#
#
# Mechanical properties :
#
#
# Convention : Reuss Voigt Hill
#
# Bulk Modulus (GPa) = 41.40216 61.19413 51.29815
# Shear Modulus (GPa) = 16.52343 24.78015 20.65179
#
# Velocity S-wave (km/s) = 2.90352 3.55571 3.24603
# Velocity P-wave (km/s) = 5.68896 6.93392 6.34206
#
# Compressibility (1/GPa) = 0.02415333
#
# Stress axis : x y z
#
# Youngs Moduli (GPa) = 87.67552 38.60020 87.55886
#
# Poissons Ratio (x) = 0.13071 0.48582
# Poissons Ratio (y) = 0.29688 0.29378
# Poissons Ratio (z) = 0.48647 0.12951
#
# Static dielectric constant tensor:
#      x y z
#    x 3.779590 0.000000 -0.096740 
#    y 0.000000 3.172690 0.000000 
#    z -0.096740 0.000000 3.726020 
# 
# 
# High freq. dielectric constant tensor:
#      x y z
#    x 1.777120 0.000000 0.000130 
#    y 0.000000 1.725880 0.000000 
#    z 0.000130 0.000000 1.777190 
# 
# From -- ./inp_files/23876.got.cif
#   From: 2010.03.12/outbox.cif.g09.slc.cpg/sg8_12_cif.got.tgz:23876.got - 2010.03.31 10:45:26.
