data_PCOD8053267
_publ_section_title
;
Structure prediction by ZEFSAII (Michael W. Deem and Ramdas Pophale) SiO2 
 PCOD8053267
Probable space group: C M
;
_chemical_formula_sum "Si O2"
_cell_formula_units_Z 32
_cell_length_a 15.245260
_cell_length_b 8.623117
_cell_length_c 11.848859
_cell_angle_alpha 90.000000
_cell_angle_beta 87.686315
_cell_angle_gamma 90.000000
_cell_volume 1556.400839
_symmetry_space_group_name_H-M "C M"
_symmetry_group_IT_number 8
_symmetry_cell_setting 'monoclinic'
loop_
_space_group_symop_operation_xyz
x,y,z
x,-y,z
1/2+x,1/2+y,z
1/2+x,1/2-y,z
loop_
_atom_site_type_symbol
_atom_site_label
_atom_site_fract_x
_atom_site_fract_y
_atom_site_fract_z
Si Si1 0.437460 0.680141 0.450720
Si Si2 0.597808 0.181003 0.568369
Si Si3 0.716038 0.176173 0.207352
Si Si4 0.771010 0.681888 0.969737
Si Si5 0.467711 0.182566 0.980710
Si Si6 0.127860 0.316712 0.823865
Si Si7 0.258267 0.820247 0.430075
Si Si8 0.509669 0.822159 0.225795
O O1 0.416947 0.500000 0.464029
O O2 0.511793 0.727102 0.535397
O O3 0.349114 0.774114 0.485590
O O4 0.466440 0.715614 0.322079
O O5 0.619147 0.230025 0.694493
O O6 0.679746 0.220687 0.485734
O O7 0.577237 0.000000 0.557716
O O8 0.766001 0.282023 0.296283
O O9 0.613187 0.190451 0.232748
O O10 0.747986 0.000000 0.220701
O O11 0.737598 0.230444 0.081257
O O12 0.761532 0.500000 0.991330
O O13 0.714898 0.733994 0.865229
O O14 0.871962 0.728001 0.939008
O O15 0.479632 0.247089 0.106859
O O16 0.480921 0.000000 0.985762
O O17 0.542603 0.249837 0.894274
O O18 0.137960 0.500000 0.839670
O O19 0.238425 0.000000 0.450219
O O20 0.478272 0.000000 0.243978
#
# Coordination Sequence:
#
# PCOD8053267 Si02
#       8
#     4   4   4   4   4   4   4   4
#     4  12  25  41  64  94 129 163 206 259 314 381
#     4  11  24  43  66  91 122 165 215 266 318 372
#     4  11  21  37  64  93 126 164 206 254 312 376
#     4  11  22  36  61  94 127 161 207 256 305 368
#     4   9  19  38  61  87 119 160 199 241 299 365
#     4  10  22  43  65  85 118 164 210 255 310 370
#     4  12  25  42  65  92 127 166 209 260 316 378
#     4  10  19  36  64  90 124 165 204 249 308 374
#
# _framework density 20.560255999999999
#
# number of rings (size 3 to 8) (size 9 to 14) (size 15 to 20)
#    0.000    1.250    2.500    4.125    0.000    3.500 
#    0.000    3.125    0.000    0.000    0.000    0.000 
#    0.000    0.000    0.000    0.000    0.000    0.000 
#
# Total GULP energy -198487.832495 kJ/mol
# GULP energy per Si atom -12405.489531 kJ/mol
# Density = 2.051346 g / cm^3
# Si number density = 20.560256 Si / 1000 Ang^3
#
#
#
# Elastic Constant Matrix: (Units=GPa)
#
#
# Indices 1 2 3 4 5 6 
#
# 1 109.4502 24.6024 35.1445 0.0000 25.2783 0.0000
# 2 24.6024 64.2786 23.7547 0.0000 3.6034 0.0000
# 3 35.1445 23.7547 103.1414 0.0000 20.4154 0.0000
# 4 0.0000 0.0000 0.0000 22.7569 0.0000 8.5034
# 5 25.2783 3.6034 20.4154 0.0000 19.0627 0.0000
# 6 0.0000 0.0000 0.0000 8.5034 0.0000 30.5693
#
#
#
# Elastic Compliance Matrix: (Units=1/GPa)
#
#
# Indices 1 2 3 4 5 6 
#
# 1 0.014346 -0.004360 -0.000358 0.000000 -0.017817 0.000000
# 2 -0.004360 0.018353 -0.004060 0.000000 0.006660 0.000000
# 3 -0.000358 -0.004060 0.013333 0.000000 -0.013037 0.000000
# 4 0.000000 0.000000 0.000000 0.049040 0.000000 -0.013641
# 5 -0.017817 0.006660 -0.013037 0.000000 0.088788 0.000000
# 6 0.000000 0.000000 0.000000 -0.013641 0.000000 0.036507
#
#
# Mechanical properties :
#
#
# Convention : Reuss Voigt Hill
#
# Bulk Modulus (GPa) = 35.11511 49.31929 42.21720
# Shear Modulus (GPa) = 20.20900 27.36904 23.78902
#
# Velocity S-wave (km/s) = 3.13855 3.65247 3.40522
# Velocity P-wave (km/s) = 5.50002 6.46739 6.00322
#
# Compressibility (1/GPa) = 0.02847777
#
# Stress axis : x y z
#
# Youngs Moduli (GPa) = 69.70351 54.48713 75.00316
#
# Poissons Ratio (x) = 0.23757 0.02682
# Poissons Ratio (y) = 0.30391 0.30448
# Poissons Ratio (z) = 0.02493 0.22119
#
# Static dielectric constant tensor:
#      x y z
#    x 3.964670 0.000000 0.047540 
#    y 0.000000 3.570990 0.000000 
#    z 0.047540 0.000000 3.748380 
# 
# 
# High freq. dielectric constant tensor:
#      x y z
#    x 1.819870 0.000000 0.006870 
#    y 0.000000 1.793020 0.000000 
#    z 0.006870 0.000000 1.801650 
# 
# From -- ./inp_files/21383.got.cif
#   From: 2010.03.12/outbox.cif.g09.slc.cpg/sg8_11_cif.got.tgz:21383.got - 2010.03.31 10:45:26.
