data_PCOD8053374
_publ_section_title
;
Structure prediction by ZEFSAII (Michael W. Deem and Ramdas Pophale) SiO2 
 PCOD8053374
Probable space group: C M
;
_chemical_formula_sum "Si O2"
_cell_formula_units_Z 32
_cell_length_a 24.971833
_cell_length_b 9.298044
_cell_length_c 23.768526
_cell_angle_alpha 90.000000
_cell_angle_beta 17.854968
_cell_angle_gamma 90.000000
_cell_volume 1692.110095
_symmetry_space_group_name_H-M "C M"
_symmetry_group_IT_number 8
_symmetry_cell_setting 'monoclinic'
loop_
_space_group_symop_operation_xyz
x,y,z
x,-y,z
1/2+x,1/2+y,z
1/2+x,1/2-y,z
loop_
_atom_site_type_symbol
_atom_site_label
_atom_site_fract_x
_atom_site_fract_y
_atom_site_fract_z
Si Si1 0.004030 0.669261 0.101640
Si Si2 0.503938 0.667086 0.985682
Si Si3 0.203923 0.333387 0.200179
Si Si4 0.799664 0.834644 0.493352
Si Si5 0.804017 0.333398 0.600085
Si Si6 0.809597 0.163413 0.877031
Si Si7 0.698429 0.663411 0.488210
Si Si8 0.708258 0.665357 0.084750
O O1 0.004025 0.500000 0.091258
O O2 0.833154 0.720272 0.306770
O O3 0.174941 0.720274 0.964955
O O4 0.003969 0.744237 0.042195
O O5 0.503854 0.500000 0.001190
O O6 0.678275 0.708701 0.777104
O O7 0.329656 0.708778 0.125715
O O8 0.226359 0.500000 0.161454
O O9 0.264122 0.241026 0.086615
O O10 0.003964 0.298499 0.417511
O O11 0.743800 0.758992 0.606950
O O12 0.700445 0.760845 0.541378
O O13 0.003962 0.816102 0.278340
O O14 0.742627 0.000000 0.553914
O O15 0.781627 0.500000 0.606164
O O16 0.004026 0.171378 0.656608
O O17 0.760302 0.000000 0.943483
O O18 0.807484 0.260852 0.934326
O O19 0.747693 0.500000 0.456109
O O20 0.765287 0.500000 0.031249
#
# Coordination Sequence:
#
# PCOD8053374 Si02
#       8
#     4   4   4   4   4   4   4   4
#     4  10  22  40  58  80 112 148 187 234 283 330
#     4  10  22  38  58  82 108 146 193 232 273 332
#     4   9  19  36  56  79 110 148 186 226 275 332
#     4  10  20  34  55  85 119 148 180 229 285 333
#     4   9  19  36  56  79 110 148 186 226 275 332
#     4  10  21  37  58  82 109 148 192 229 275 337
#     4  10  21  37  58  82 109 148 192 229 275 337
#     4  10  20  34  55  85 119 148 180 229 285 333
#
# _framework density 18.911299
#
# number of rings (size 3 to 8) (size 9 to 14) (size 15 to 20)
#    0.000    2.250    1.250    0.750    1.750    4.500 
#    0.000    0.000    0.000    0.000    0.000    0.000 
#    0.000    0.000    0.000    0.000    0.000    0.000 
#
# Total GULP energy -198448.979823 kJ/mol
# GULP energy per Si atom -12403.061239 kJ/mol
# Density = 1.886826 g / cm^3
# Si number density = 18.911299 Si / 1000 Ang^3
#
#
#
# Elastic Constant Matrix: (Units=GPa)
#
#
# Indices 1 2 3 4 5 6 
#
# 1 149.4780 68.8991 81.4370 0.0077 10.3280 -0.0028
# 2 68.8991 82.6611 45.8901 -0.0207 6.5256 0.0078
# 3 81.4370 45.8901 119.4099 0.0034 -1.9502 0.0024
# 4 0.0077 -0.0207 0.0034 16.0580 -0.0087 6.6857
# 5 10.3280 6.5256 -1.9502 -0.0087 19.1860 0.0038
# 6 -0.0028 0.0078 0.0024 6.6857 0.0038 39.6200
#
#
#
# Elastic Compliance Matrix: (Units=1/GPa)
#
#
# Indices 1 2 3 4 5 6 
#
# 1 0.014458 -0.007703 -0.006996 -0.000022 -0.005874 0.000007
# 2 -0.007703 0.020166 -0.002545 0.000033 -0.002971 -0.000010
# 3 -0.006996 -0.002545 0.014223 0.000001 0.006077 -0.000002
# 4 -0.000022 0.000033 0.000001 0.066980 0.000033 -0.011303
# 5 -0.005874 -0.002971 0.006077 0.000033 0.056911 -0.000011
# 6 0.000007 -0.000010 -0.000002 -0.011303 -0.000011 0.027147
#
#
# Mechanical properties :
#
#
# Convention : Reuss Voigt Hill
#
# Bulk Modulus (GPa) = 69.64354 82.66682 76.15518
# Shear Modulus (GPa) = 20.90666 25.32765 23.11716
#
# Velocity S-wave (km/s) = 3.32853 3.66360 3.50008
# Velocity P-wave (km/s) = 7.18878 7.85517 7.52935
#
# Compressibility (1/GPa) = 0.01435883
#
# Stress axis : x y z
#
# Youngs Moduli (GPa) = 69.16673 49.58918 70.31029
#
# Poissons Ratio (x) = 0.38201 0.49186
# Poissons Ratio (y) = 0.53282 0.17891
# Poissons Ratio (z) = 0.48386 0.12619
#
# Static dielectric constant tensor:
#      x y z
#    x 3.278400 -0.000010 -0.120710 
#    y -0.000010 3.431990 0.000020 
#    z -0.120710 0.000020 3.702430 
# 
# 
# High freq. dielectric constant tensor:
#      x y z
#    x 1.723030 0.000000 -0.006730 
#    y 0.000000 1.730430 0.000000 
#    z -0.006730 0.000000 1.746640 
# 
# From -- ./inp_files/17259.got.cif
#   From: 2010.03.12/outbox.cif.g09.slc.cpg/sg8_9_cif.got.tgz:17259.got - 2010.03.31 10:45:26.
