data_PCOD8053573
_publ_section_title
;
Structure prediction by ZEFSAII (Michael W. Deem and Ramdas Pophale) SiO2 
 PCOD8053573
Probable space group: C M
;
_chemical_formula_sum "Si O2"
_cell_formula_units_Z 32
_cell_length_a 19.317129
_cell_length_b 9.610465
_cell_length_c 9.553561
_cell_angle_alpha 90.000000
_cell_angle_beta 76.487135
_cell_angle_gamma 90.000000
_cell_volume 1724.488709
_symmetry_space_group_name_H-M "C M"
_symmetry_group_IT_number 8
_symmetry_cell_setting 'monoclinic'
loop_
_space_group_symop_operation_xyz
x,y,z
x,-y,z
1/2+x,1/2+y,z
1/2+x,1/2-y,z
loop_
_atom_site_type_symbol
_atom_site_label
_atom_site_fract_x
_atom_site_fract_y
_atom_site_fract_z
Si Si1 0.504410 0.343948 0.518800
Si Si2 0.658459 0.335744 0.345247
Si Si3 0.423025 0.156451 0.364239
Si Si4 0.164390 0.661960 0.067317
Si Si5 0.269066 0.158047 0.524052
Si Si6 0.289205 0.337665 0.790763
Si Si7 0.941683 0.157326 0.839379
Si Si8 0.506130 0.163370 0.053902
O O1 0.490218 0.500000 0.472467
O O2 0.579753 0.290545 0.427675
O O3 0.442966 0.247288 0.488269
O O4 0.499547 0.336840 0.688119
O O5 0.665766 0.500000 0.312004
O O6 0.680649 0.252290 0.196770
O O7 0.706381 0.289326 0.453431
O O8 0.338291 0.164713 0.391869
O O9 0.460852 0.215210 0.208274
O O10 0.449890 0.000000 0.378492
O O11 0.164093 0.500000 0.110178
O O12 0.088561 0.704568 0.036005
O O13 0.225700 0.695944 0.927497
O O14 0.274398 0.254405 0.656477
O O15 0.255854 0.000000 0.582068
O O16 0.292106 0.500000 0.750113
O O17 0.363970 0.291417 0.824507
O O18 0.935732 0.000000 0.901117
O O19 0.972172 0.258868 0.940232
O O20 0.497135 0.000000 0.031793
#
# Coordination Sequence:
#
# PCOD8053573 Si02
#       8
#     4   4   4   4   4   4   4   4
#     4  10  20  37  59  82 110 144 185 232 277 325
#     4  10  22  38  58  85 113 145 186 230 277 330
#     4  10  20  37  59  82 110 144 185 232 277 325
#     4  10  22  40  58  81 114 149 186 228 275 330
#     4  10  22  38  58  85 113 145 186 230 277 330
#     4  10  22  40  58  81 114 149 186 228 275 330
#     4  10  22  38  57  83 113 145 185 230 275 328
#     4  10  22  38  57  83 113 145 185 230 275 328
#
# _framework density 18.556222999999999
#
# number of rings (size 3 to 8) (size 9 to 14) (size 15 to 20)
#    0.000    2.000    2.500    0.000    3.500    3.000 
#    0.000    0.000    0.000    0.000    0.000    0.000 
#    0.000    0.000    0.000    0.000    0.000    0.000 
#
# Total GULP energy -198427.490070 kJ/mol
# GULP energy per Si atom -12401.718129 kJ/mol
# Density = 1.851399 g / cm^3
# Si number density = 18.556223 Si / 1000 Ang^3
#
#
#
# Elastic Constant Matrix: (Units=GPa)
#
#
# Indices 1 2 3 4 5 6 
#
# 1 86.0544 39.7487 51.5976 0.0000 6.0401 0.0000
# 2 39.7487 63.3869 52.8082 0.0000 14.0706 0.0000
# 3 51.5976 52.8082 110.3133 0.0000 3.9620 0.0000
# 4 0.0000 0.0000 0.0000 38.8315 0.0000 7.8813
# 5 6.0401 14.0706 3.9620 0.0000 38.4918 0.0000
# 6 0.0000 0.0000 0.0000 7.8813 0.0000 26.7233
#
#
#
# Elastic Compliance Matrix: (Units=1/GPa)
#
#
# Indices 1 2 3 4 5 6 
#
# 1 0.017868 -0.007159 -0.004942 0.000000 0.000322 0.000000
# 2 -0.007159 0.032072 -0.011667 0.000000 -0.009399 0.000000
# 3 -0.004942 -0.011667 0.016843 0.000000 0.003307 0.000000
# 4 0.000000 0.000000 0.000000 0.027392 0.000000 -0.008078
# 5 0.000322 -0.009399 0.003307 0.000000 0.029025 0.000000
# 6 0.000000 0.000000 0.000000 -0.008078 0.000000 0.039803
#
#
# Mechanical properties :
#
#
# Convention : Reuss Voigt Hill
#
# Bulk Modulus (GPa) = 51.95651 60.89595 56.42623
# Shear Modulus (GPa) = 23.04643 28.51599 25.78121
#
# Velocity S-wave (km/s) = 3.52799 3.92437 3.73145
# Velocity P-wave (km/s) = 6.68251 7.30907 7.00280
#
# Compressibility (1/GPa) = 0.01924687
#
# Stress axis : x y z
#
# Youngs Moduli (GPa) = 55.96661 31.18022 59.37166
#
# Poissons Ratio (x) = 0.22321 0.29342
# Poissons Ratio (y) = 0.40065 0.69269
# Poissons Ratio (z) = 0.27659 0.36378
#
# Static dielectric constant tensor:
#      x y z
#    x 3.583350 0.000000 -0.214050 
#    y 0.000000 3.360850 0.000000 
#    z -0.214050 0.000000 3.358840 
# 
# 
# High freq. dielectric constant tensor:
#      x y z
#    x 1.731130 0.000000 -0.010360 
#    y 0.000000 1.715970 0.000000 
#    z -0.010360 0.000000 1.721000 
# 
# From -- ./inp_files/15815.got.cif
#   From: 2010.03.12/outbox.cif.g09.slc.cpg/sg8_8_cif.got.tgz:15815.got - 2010.03.31 10:45:26.
