data_PCOD8053111
_publ_section_title
;
Structure prediction by ZEFSAII (Michael W. Deem and Ramdas Pophale) SiO2 
 PCOD8053111
Probable space group: C M
;
_chemical_formula_sum "Si O2"
_cell_formula_units_Z 32
_cell_length_a 32.999497
_cell_length_b 8.895483
_cell_length_c 12.573648
_cell_angle_alpha 90.000000
_cell_angle_beta 153.519326
_cell_angle_gamma 90.000000
_cell_volume 1645.779525
_symmetry_space_group_name_H-M "C M"
_symmetry_group_IT_number 8
_symmetry_cell_setting 'monoclinic'
loop_
_space_group_symop_operation_xyz
x,y,z
x,-y,z
1/2+x,1/2+y,z
1/2+x,1/2-y,z
loop_
_atom_site_type_symbol
_atom_site_label
_atom_site_fract_x
_atom_site_fract_y
_atom_site_fract_z
Si Si1 0.465340 0.177892 0.359190
Si Si2 0.282291 0.319773 0.994032
Si Si3 0.834148 0.174676 0.572225
Si Si4 0.536996 0.329698 0.731025
Si Si5 0.016149 0.321388 0.063082
Si Si6 0.589948 0.821950 0.459311
Si Si7 0.134166 0.326247 0.142479
Si Si8 0.338172 0.668853 0.349058
O O1 0.528165 0.232007 0.603926
O O2 0.515007 0.230189 0.368205
O O3 0.453937 0.000000 0.339614
O O4 0.366603 0.254336 0.126004
O O5 0.291777 0.500000 0.016201
O O6 0.189553 0.259637 0.724268
O O7 0.287037 0.257176 0.127367
O O8 0.913628 0.261880 0.818937
O O9 0.741088 0.194486 0.419966
O O10 0.819221 0.246114 0.418574
O O11 0.862325 0.000000 0.629015
O O12 0.561862 0.500000 0.757874
O O13 0.445271 0.323345 0.582719
O O14 0.614887 0.262054 0.988581
O O15 0.013612 0.500000 0.058611
O O16 0.062400 0.258754 0.279233
O O17 0.075748 0.261819 0.103779
O O18 0.596048 0.000000 0.472395
O O19 0.110042 0.500000 0.066487
O O20 0.301549 0.500000 0.271386
#
# Coordination Sequence:
#
# PCOD8053111 Si02
#       8
#     4   4   4   4   4   4   4   4
#     4  10  20  35  56  83 111 143 183 228 274 322
#     4   9  18  35  57  81 109 148 183 221 274 329
#     4  10  20  35  55  82 111 146 184 222 274 332
#     4  10  19  34  56  81 113 147 179 222 277 332
#     4  10  21  39  56  80 113 145 186 232 270 316
#     4   9  20  37  59  79 108 152 188 219 272 335
#     4  10  21  34  55  83 111 142 184 230 272 320
#     4   8  15  29  52  77 106 139 175 212 261 326
#
# _framework density 19.443674999999999
#
# number of rings (size 3 to 8) (size 9 to 14) (size 15 to 20)
#    0.000    2.500    1.250    1.500    1.750    1.500 
#    0.000    4.375    0.000    0.000    0.000    0.000 
#    0.000    0.000    0.000    0.000    0.000    0.000 
#
# Total GULP energy -198359.531760 kJ/mol
# GULP energy per Si atom -12397.470735 kJ/mol
# Density = 1.939942 g / cm^3
# Si number density = 19.443675 Si / 1000 Ang^3
#
#
#
# Elastic Constant Matrix: (Units=GPa)
#
#
# Indices 1 2 3 4 5 6 
#
# 1 95.5369 23.1629 62.1840 0.0000 -8.0679 0.0000
# 2 23.1629 39.3113 26.8700 0.0000 0.4108 0.0000
# 3 62.1840 26.8700 152.6547 0.0000 -9.4547 0.0000
# 4 0.0000 0.0000 0.0000 28.8199 0.0000 3.1479
# 5 -8.0679 0.4108 -9.4547 0.0000 27.5090 0.0000
# 6 0.0000 0.0000 0.0000 3.1479 0.0000 19.0738
#
#
#
# Elastic Compliance Matrix: (Units=1/GPa)
#
#
# Indices 1 2 3 4 5 6 
#
# 1 0.015390 -0.005608 -0.005106 0.000000 0.002843 0.000000
# 2 -0.005608 0.031095 -0.003392 0.000000 -0.003275 0.000000
# 3 -0.005106 -0.003392 0.009337 0.000000 0.001762 0.000000
# 4 0.000000 0.000000 0.000000 0.035335 0.000000 -0.005832
# 5 0.002843 -0.003275 0.001762 0.000000 0.037840 0.000000
# 6 0.000000 0.000000 0.000000 -0.005832 0.000000 0.053390
#
#
# Mechanical properties :
#
#
# Convention : Reuss Voigt Hill
#
# Bulk Modulus (GPa) = 36.21801 56.88184 46.54993
# Shear Modulus (GPa) = 22.74772 26.76628 24.75700
#
# Velocity S-wave (km/s) = 3.42413 3.71429 3.57216
# Velocity P-wave (km/s) = 5.85666 6.90744 6.40364
#
# Compressibility (1/GPa) = 0.02761058
#
# Stress axis : x y z
#
# Youngs Moduli (GPa) = 64.97575 32.15984 107.10231
#
# Poissons Ratio (x) = 0.18035 0.54688
# Poissons Ratio (y) = 0.36437 0.36326
# Poissons Ratio (z) = 0.33178 0.10908
#
# Static dielectric constant tensor:
#      x y z
#    x 3.661700 0.000000 -0.093980 
#    y 0.000000 3.240490 0.000000 
#    z -0.093980 0.000000 3.589180 
# 
# 
# High freq. dielectric constant tensor:
#      x y z
#    x 1.758150 0.000000 0.001360 
#    y 0.000000 1.723570 0.000000 
#    z 0.001360 0.000000 1.760360 
# 
# From -- ./inp_files/24804.got.cif
#   From: 2010.03.12/outbox.cif.g09.slc.cpg/sg8_13_cif.got.tgz:24804.got - 2010.03.31 10:45:26.
