data_PCOD8053104
_publ_section_title
;
Structure prediction by ZEFSAII (Michael W. Deem and Ramdas Pophale) SiO2 
 PCOD8053104
Probable space group: C M
;
_chemical_formula_sum "Si O2"
_cell_formula_units_Z 32
_cell_length_a 5.042633
_cell_length_b 25.183980
_cell_length_c 13.493491
_cell_angle_alpha 90.000000
_cell_angle_beta 79.599366
_cell_angle_gamma 90.000000
_cell_volume 1685.431445
_symmetry_space_group_name_H-M "C M"
_symmetry_group_IT_number 8
_symmetry_cell_setting 'monoclinic'
loop_
_space_group_symop_operation_xyz
x,y,z
x,-y,z
1/2+x,1/2+y,z
1/2+x,1/2-y,z
loop_
_atom_site_type_symbol
_atom_site_label
_atom_site_fract_x
_atom_site_fract_y
_atom_site_fract_z
Si Si1 0.510900 0.561118 0.240120
Si Si2 0.133250 0.601664 0.675101
Si Si3 0.012646 0.936985 0.016924
Si Si4 0.008187 0.282538 0.622982
Si Si5 0.617699 0.782655 0.386005
Si Si6 0.964995 0.397566 0.347676
Si Si7 0.196952 0.938408 0.563835
Si Si8 0.072631 0.562991 0.895404
O O1 0.605051 0.500000 0.234889
O O2 0.218582 0.564277 0.310993
O O3 0.732950 0.595124 0.282472
O O4 0.495272 0.584723 0.130048
O O5 0.049438 0.662877 0.677618
O O6 0.413231 0.591152 0.599204
O O7 0.174786 0.586830 0.785986
O O8 0.892035 0.566429 0.645525
O O9 0.276856 0.916308 0.942555
O O10 0.761009 0.915833 0.971218
O O11 0.012789 0.000000 0.022109
O O12 0.203881 0.237932 0.656149
O O13 0.063282 0.293103 0.504576
O O14 0.422135 0.737824 0.353094
O O15 0.574025 0.837650 0.332054
O O16 0.843252 0.409939 0.463034
O O17 0.140314 0.000000 0.544442
O O18 0.087820 0.500000 0.885520
#
# Coordination Sequence:
#
# PCOD8053104 Si02
#       8
#     4   4   4   4   4   4   4   4
#     4  11  22  37  57  83 116 150 188 228 272 332
#     4  12  23  37  56  83 113 154 187 223 277 332
#     4   9  19  35  55  79 107 142 185 235 273 310
#     4  10  21  37  57  78 106 144 190 240 274 311
#     4  10  21  37  57  78 106 143 189 241 275 311
#     4  12  23  37  56  83 112 154 188 223 277 332
#     4  12  24  36  51  80 123 157 182 210 264 341
#     4  10  19  34  55  80 111 144 183 226 273 329
#
# _framework density 18.986236999999999
#
# number of rings (size 3 to 8) (size 9 to 14) (size 15 to 20)
#    0.000    1.250    1.250    6.000    3.500    3.000 
#    0.000    0.000    0.000    0.000    0.000   17.500 
#    0.000    0.000    0.000    0.000    0.000    0.000 
#
# Total GULP energy -198465.306800 kJ/mol
# GULP energy per Si atom -12404.081675 kJ/mol
# Density = 1.894302 g / cm^3
# Si number density = 18.986237 Si / 1000 Ang^3
#
#
#
# Elastic Constant Matrix: (Units=GPa)
#
#
# Indices 1 2 3 4 5 6 
#
# 1 105.1917 19.9578 28.4287 0.0000 13.4384 0.0000
# 2 19.9578 71.8630 32.7009 0.0000 6.6174 0.0000
# 3 28.4287 32.7009 81.3972 0.0000 12.7738 0.0000
# 4 0.0000 0.0000 0.0000 8.6900 0.0000 6.1990
# 5 13.4384 6.6174 12.7738 0.0000 34.5930 0.0000
# 6 0.0000 0.0000 0.0000 6.1990 0.0000 26.6677
#
#
#
# Elastic Compliance Matrix: (Units=1/GPa)
#
#
# Indices 1 2 3 4 5 6 
#
# 1 0.010909 -0.001512 -0.002742 0.000000 -0.002936 0.000000
# 2 -0.001512 0.017257 -0.006347 0.000000 -0.000370 0.000000
# 3 -0.002742 -0.006347 0.016385 0.000000 -0.003771 0.000000
# 4 0.000000 0.000000 0.000000 0.137949 0.000000 -0.032067
# 5 -0.002936 -0.000370 -0.003771 0.000000 0.031511 0.000000
# 6 0.000000 0.000000 0.000000 -0.032067 0.000000 0.044952
#
#
# Mechanical properties :
#
#
# Convention : Reuss Voigt Hill
#
# Bulk Modulus (GPa) = 42.82631 46.73630 44.78131
# Shear Modulus (GPa) = 17.36416 25.81446 21.58931
#
# Velocity S-wave (km/s) = 3.02746 3.69133 3.37575
# Velocity P-wave (km/s) = 5.90137 6.54502 6.23151
#
# Compressibility (1/GPa) = 0.02335013
#
# Stress axis : x y z
#
# Youngs Moduli (GPa) = 91.66378 57.94594 61.03210
#
# Poissons Ratio (x) = 0.08759 0.16736
# Poissons Ratio (y) = 0.13856 0.38737
# Poissons Ratio (z) = 0.25136 0.36779
#
# Static dielectric constant tensor:
#      x y z
#    x 3.748920 0.000000 0.121820 
#    y 0.000000 3.278520 0.000000 
#    z 0.121820 0.000000 3.422200 
# 
# 
# High freq. dielectric constant tensor:
#      x y z
#    x 1.760590 0.000000 0.012800 
#    y 0.000000 1.714730 0.000000 
#    z 0.012800 0.000000 1.722080 
# 
# From -- ./inp_files/18171.got.cif
#   From: 2010.03.12/outbox.cif.g09.slc.cpg/sg8_10_cif.got.tgz:18171.got - 2010.03.31 10:45:26.
