data_PCOD8053212
_publ_section_title
;
Structure prediction by ZEFSAII (Michael W. Deem and Ramdas Pophale) SiO2 
 PCOD8053212
Probable space group: C M
;
_chemical_formula_sum "Si O2"
_cell_formula_units_Z 32
_cell_length_a 15.148850
_cell_length_b 8.678025
_cell_length_c 22.697109
_cell_angle_alpha 90.000000
_cell_angle_beta 31.777140
_cell_angle_gamma 90.000000
_cell_volume 1571.323845
_symmetry_space_group_name_H-M "C M"
_symmetry_group_IT_number 8
_symmetry_cell_setting 'monoclinic'
loop_
_space_group_symop_operation_xyz
x,y,z
x,-y,z
1/2+x,1/2+y,z
1/2+x,1/2-y,z
loop_
_atom_site_type_symbol
_atom_site_label
_atom_site_fract_x
_atom_site_fract_y
_atom_site_fract_z
Si Si1 0.676370 0.681240 0.452450
Si Si2 0.965961 0.182480 0.461370
Si Si3 0.246923 0.675979 0.229645
Si Si4 0.337252 0.180592 0.847332
Si Si5 0.963614 0.175760 0.222950
Si Si6 0.631445 0.318443 0.609656
Si Si7 0.819785 0.321047 0.987874
Si Si8 0.996862 0.678197 0.003190
O O1 0.667616 0.500000 0.458181
O O2 0.543516 0.743980 0.479307
O O3 0.864526 0.731569 0.329318
O O4 0.631370 0.745177 0.542670
O O5 0.773912 0.234838 0.567190
O O6 0.065873 0.256555 0.349874
O O7 0.979909 0.000000 0.449212
O O8 0.224819 0.500000 0.221715
O O9 0.371711 0.690873 0.213166
O O10 0.323469 0.776641 0.133379
O O11 0.452287 0.278029 0.738481
O O12 0.371127 0.242853 0.894547
O O13 0.376450 0.000000 0.818388
O O14 0.144398 0.211161 0.940686
O O15 0.973641 0.000000 0.238829
O O16 0.146919 0.252827 0.110554
O O17 0.662457 0.500000 0.594203
O O18 0.777551 0.500000 0.002922
O O19 0.970450 0.294153 0.948205
O O20 0.039769 0.500000 0.991770
#
# Coordination Sequence:
#
# PCOD8053212 Si02
#       8
#     4   4   4   4   4   4   4   4
#     4   9  21  39  58  85 121 156 193 241 294 348
#     4  10  21  39  61  88 118 157 201 241 292 353
#     4  10  19  35  59  88 124 159 192 242 298 349
#     4  11  23  44  64  83 117 160 203 244 294 353
#     4   9  17  34  59  85 118 156 194 237 289 350
#     4  11  24  42  62  88 120 156 199 247 298 349
#     4   9  20  38  59  85 117 156 196 240 294 351
#     4  11  22  37  60  90 119 154 198 246 297 351
#
# _framework density 20.364995
#
# number of rings (size 3 to 8) (size 9 to 14) (size 15 to 20)
#    0.000    2.000    1.250    1.875    1.750    3.000 
#    0.000    8.125    0.000    0.000    0.000    0.000 
#    0.000    0.000    0.000    0.000    0.000    0.000 
#
# Total GULP energy -198434.295000 kJ/mol
# GULP energy per Si atom -12402.143438 kJ/mol
# Density = 2.031864 g / cm^3
# Si number density = 20.364995 Si / 1000 Ang^3
#
#
#
# Elastic Constant Matrix: (Units=GPa)
#
#
# Indices 1 2 3 4 5 6 
#
# 1 95.2427 27.5896 39.8806 0.0000 20.3072 0.0002
# 2 27.5896 41.8420 12.4331 -0.0006 3.3936 0.0001
# 3 39.8806 12.4331 100.2495 -0.0014 20.2684 0.0001
# 4 0.0000 -0.0006 -0.0014 35.5937 0.0002 -2.1534
# 5 20.3072 3.3936 20.2684 0.0002 31.6753 -0.0001
# 6 0.0002 0.0001 0.0001 -2.1534 -0.0001 24.9584
#
#
#
# Elastic Compliance Matrix: (Units=1/GPa)
#
#
# Indices 1 2 3 4 5 6 
#
# 1 0.016222 -0.008964 -0.003943 0.000000 -0.006916 0.000000
# 2 -0.008964 0.029784 -0.000741 0.000000 0.003030 0.000000
# 3 -0.003943 -0.000741 0.012759 0.000000 -0.005557 0.000000
# 4 0.000000 0.000000 0.000000 0.028242 0.000000 0.002437
# 5 -0.006916 0.003030 -0.005557 0.000000 0.039236 0.000000
# 6 0.000000 0.000000 0.000000 0.002437 0.000000 0.040277
#
#
# Mechanical properties :
#
#
# Convention : Reuss Voigt Hill
#
# Bulk Modulus (GPa) = 31.77594 44.12676 37.95135
# Shear Modulus (GPa) = 24.47319 28.94086 26.70702
#
# Velocity S-wave (km/s) = 3.47036 3.77385 3.62528
# Velocity P-wave (km/s) = 5.62982 6.37999 6.01661
#
# Compressibility (1/GPa) = 0.03147035
#
# Stress axis : x y z
#
# Youngs Moduli (GPa) = 61.64501 33.57480 78.37527
#
# Poissons Ratio (x) = 0.30095 0.30905
# Poissons Ratio (y) = 0.55257 0.05804
# Poissons Ratio (z) = 0.24308 0.02486
#
# Static dielectric constant tensor:
#      x y z
#    x 3.819120 0.000000 0.148960 
#    y 0.000000 3.494770 0.000000 
#    z 0.148960 0.000000 3.647830 
# 
# 
# High freq. dielectric constant tensor:
#      x y z
#    x 1.800860 0.000000 0.003540 
#    y 0.000000 1.781840 0.000000 
#    z 0.003540 0.000000 1.792810 
# 
# From -- ./inp_files/28198.got.cif
#   From: 2010.03.12/outbox.cif.g09.slc.cpg/sg8_15_cif.got.tgz:28198.got - 2010.03.31 10:45:26.
