data_PCOD8053004
_publ_section_title
;
Structure prediction by ZEFSAII (Michael W. Deem and Ramdas Pophale) SiO2 
 PCOD8053004
Probable space group: C M
;
_chemical_formula_sum "Si O2"
_cell_formula_units_Z 32
_cell_length_a 19.832664
_cell_length_b 8.853813
_cell_length_c 24.756999
_cell_angle_alpha 90.000000
_cell_angle_beta 156.365717
_cell_angle_gamma 90.000000
_cell_volume 1742.779708
_symmetry_space_group_name_H-M "C M"
_symmetry_group_IT_number 8
_symmetry_cell_setting 'monoclinic'
loop_
_space_group_symop_operation_xyz
x,y,z
x,-y,z
1/2+x,1/2+y,z
1/2+x,1/2-y,z
loop_
_atom_site_type_symbol
_atom_site_label
_atom_site_fract_x
_atom_site_fract_y
_atom_site_fract_z
Si Si1 0.786450 0.324437 0.638590
Si Si2 0.265255 0.824045 0.281083
Si Si3 0.599979 0.323146 0.824673
Si Si4 0.475991 0.178150 0.125571
Si Si5 0.598770 0.677823 0.326030
Si Si6 0.951495 0.173598 0.601864
Si Si7 0.504366 0.822609 0.361245
Si Si8 0.042697 0.828057 0.551966
O O1 0.779650 0.500000 0.618486
O O2 0.676549 0.234268 0.514463
O O3 0.716242 0.293880 0.647585
O O4 0.976325 0.264191 0.774804
O O5 0.344944 0.781749 0.281642
O O6 0.395388 0.781317 0.423812
O O7 0.092513 0.732475 0.161402
O O8 0.226154 0.000000 0.257274
O O9 0.579187 0.500000 0.819918
O O10 0.560774 0.280120 0.733890
O O11 0.787373 0.267859 0.975066
O O12 0.541344 0.252498 0.227912
O O13 0.488417 0.000000 0.140311
O O14 0.580743 0.500000 0.309469
O O15 0.789360 0.721457 0.479426
O O16 0.477602 0.741181 0.284319
O O17 0.068783 0.198185 0.635027
O O18 0.890791 0.000000 0.561206
O O19 0.521539 0.000000 0.364887
O O20 0.984919 0.000000 0.497694
#
# Coordination Sequence:
#
# PCOD8053004 Si02
#       8
#     4   4   4   4   4   4   4   4
#     4  10  19  32  53  83 115 146 184 231 278 326
#     4  10  20  34  55  83 113 145 187 233 279 332
#     4  10  22  38  57  80 111 153 193 226 278 343
#     4  11  23  39  57  79 114 158 193 229 281 340
#     4  12  23  35  56  87 113 142 191 242 282 329
#     4  10  19  35  58  82 110 146 185 230 278 332
#     4  10  20  35  56  82 114 149 184 230 284 336
#     4   9  18  32  54  82 112 145 181 225 280 332
#
# _framework density 18.361471999999999
#
# number of rings (size 3 to 8) (size 9 to 14) (size 15 to 20)
#    0.000    1.750    2.500    2.625    0.000    3.000 
#    0.000    1.250    0.000    1.500    0.000    0.000 
#    0.000    0.000    0.000    0.000    0.000    0.000 
#
# Total GULP energy -198434.617041 kJ/mol
# GULP energy per Si atom -12402.163565 kJ/mol
# Density = 1.831968 g / cm^3
# Si number density = 18.361472 Si / 1000 Ang^3
#
#
#
# Elastic Constant Matrix: (Units=GPa)
#
#
# Indices 1 2 3 4 5 6 
#
# 1 119.6883 38.5382 47.6286 -0.0007 19.5769 -0.0001
# 2 38.5382 79.0057 40.9824 -0.0038 12.2563 0.0002
# 3 47.6286 40.9824 97.5881 -0.0008 20.0116 0.0019
# 4 -0.0007 -0.0038 -0.0008 17.5416 0.0030 9.0320
# 5 19.5769 12.2563 20.0116 0.0030 26.2993 0.0005
# 6 -0.0001 0.0002 0.0019 9.0320 0.0005 28.9097
#
#
#
# Elastic Compliance Matrix: (Units=1/GPa)
#
#
# Indices 1 2 3 4 5 6 
#
# 1 0.011432 -0.003148 -0.003333 0.000000 -0.004506 0.000000
# 2 -0.003148 0.017227 -0.005370 0.000004 -0.001598 -0.000001
# 3 -0.003333 -0.005370 0.015530 0.000001 -0.006833 -0.000001
# 4 0.000000 0.000004 0.000001 0.067936 -0.000010 -0.021224
# 5 -0.004506 -0.001598 -0.006833 -0.000010 0.047323 0.000003
# 6 0.000000 -0.000001 -0.000001 -0.021224 0.000003 0.041221
#
#
# Mechanical properties :
#
#
# Convention : Reuss Voigt Hill
#
# Bulk Modulus (GPa) = 48.81407 61.17562 54.99484
# Shear Modulus (GPa) = 21.62617 25.82565 23.72591
#
# Velocity S-wave (km/s) = 3.43563 3.75442 3.59856
# Velocity P-wave (km/s) = 6.51006 7.22384 6.87622
#
# Compressibility (1/GPa) = 0.02048590
#
# Stress axis : x y z
#
# Youngs Moduli (GPa) = 87.47104 58.04982 64.38960
#
# Poissons Ratio (x) = 0.18276 0.21464
# Poissons Ratio (y) = 0.27539 0.34577
# Poissons Ratio (z) = 0.29157 0.31173
#
# Static dielectric constant tensor:
#      x y z
#    x 3.753910 0.000000 0.155750 
#    y 0.000000 3.415740 0.000000 
#    z 0.155750 0.000000 3.173560 
# 
# 
# High freq. dielectric constant tensor:
#      x y z
#    x 1.730350 0.000000 0.013390 
#    y 0.000000 1.718970 0.000000 
#    z 0.013390 0.000000 1.676560 
# 
# From -- ./inp_files/23911.got.cif
#   From: 2010.03.12/outbox.cif.g09.slc.cpg/sg8_12_cif.got.tgz:23911.got - 2010.03.31 10:45:26.
