data_PCOD8053608
_publ_section_title
;
Structure prediction by ZEFSAII (Michael W. Deem and Ramdas Pophale) SiO2 
 PCOD8053608
Probable space group: C M
;
_chemical_formula_sum "Si O2"
_cell_formula_units_Z 32
_cell_length_a 32.139279
_cell_length_b 8.749336
_cell_length_c 12.188164
_cell_angle_alpha 90.000000
_cell_angle_beta 27.077983
_cell_angle_gamma 90.000000
_cell_volume 1560.107165
_symmetry_space_group_name_H-M "C M"
_symmetry_group_IT_number 8
_symmetry_cell_setting 'monoclinic'
loop_
_space_group_symop_operation_xyz
x,y,z
x,-y,z
1/2+x,1/2+y,z
1/2+x,1/2-y,z
loop_
_atom_site_type_symbol
_atom_site_label
_atom_site_fract_x
_atom_site_fract_y
_atom_site_fract_z
Si Si1 0.188440 0.320302 0.599080
Si Si2 0.503666 0.679226 0.995123
Si Si3 0.745256 0.176861 0.866216
Si Si4 0.550665 0.820909 0.421528
Si Si5 0.313224 0.179615 0.490664
Si Si6 0.990733 0.672675 0.797800
Si Si7 0.291093 0.173354 0.172602
Si Si8 0.868158 0.177192 0.782289
O O1 0.188313 0.500000 0.615788
O O2 0.260713 0.246604 0.510737
O O3 0.215851 0.277010 0.410034
O O4 0.088646 0.253618 0.859793
O O5 0.503679 0.500000 0.015189
O O6 0.413564 0.749054 0.260564
O O7 0.512607 0.713350 0.844887
O O8 0.759500 0.281786 0.727527
O O9 0.826779 0.208144 0.759829
O O10 0.743270 0.000000 0.835064
O O11 0.648916 0.225324 0.145069
O O12 0.547867 0.775342 0.556684
O O13 0.472864 0.732817 0.536066
O O14 0.529291 0.000000 0.460511
O O15 0.321791 0.000000 0.454865
O O16 0.016968 0.500000 0.771926
O O17 0.884206 0.683093 0.021808
O O18 0.254934 0.000000 0.252258
O O19 0.305993 0.233144 0.015060
O O20 0.864229 0.000000 0.822902
#
# Coordination Sequence:
#
# PCOD8053608 Si02
#       8
#     4   4   4   4   4   4   4   4
#     4  12  25  42  66  94 126 167 213 264 322 383
#     4  12  25  41  64  95 128 168 213 263 318 381
#     4  10  23  43  65  90 123 170 217 259 312 377
#     4   9  20  39  62  88 125 168 207 256 316 375
#     4  12  26  46  67  92 128 169 215 269 321 379
#     4   9  18  35  61  91 129 168 205 256 315 375
#     4  10  20  37  62  93 132 168 206 258 317 380
#     4  10  21  37  61  93 127 164 210 261 313 370
#
# _framework density 20.511412
#
# number of rings (size 3 to 8) (size 9 to 14) (size 15 to 20)
#    0.000    1.500    1.250    4.875    1.750    4.500 
#    0.000    2.500    0.000    0.000    0.000    0.000 
#    0.000    0.000    0.000    0.000    0.000    0.000 
#
# Total GULP energy -198488.859887 kJ/mol
# GULP energy per Si atom -12405.553743 kJ/mol
# Density = 2.046473 g / cm^3
# Si number density = 20.511412 Si / 1000 Ang^3
#
#
#
# Elastic Constant Matrix: (Units=GPa)
#
#
# Indices 1 2 3 4 5 6 
#
# 1 41.9860 25.9855 24.6211 0.0000 8.8043 0.0000
# 2 25.9855 140.4469 44.1563 0.0000 1.3454 0.0000
# 3 24.6211 44.1563 123.7897 0.0000 2.8399 0.0000
# 4 0.0000 0.0000 0.0000 36.6330 0.0000 0.8379
# 5 8.8043 1.3454 2.8399 0.0000 26.4839 0.0000
# 6 0.0000 0.0000 0.0000 0.8379 0.0000 34.8494
#
#
#
# Elastic Compliance Matrix: (Units=1/GPa)
#
#
# Indices 1 2 3 4 5 6 
#
# 1 0.031081 -0.004262 -0.004440 0.000000 -0.009640 0.000000
# 2 -0.004262 0.008604 -0.002249 0.000000 0.001221 0.000000
# 3 -0.004440 -0.002249 0.009751 0.000000 0.000545 0.000000
# 4 0.000000 0.000000 0.000000 0.027313 0.000000 -0.000657
# 5 -0.009640 0.001221 0.000545 0.000000 0.040843 0.000000
# 6 0.000000 0.000000 0.000000 -0.000657 0.000000 0.028711
#
#
# Mechanical properties :
#
#
# Convention : Reuss Voigt Hill
#
# Bulk Modulus (GPa) = 36.32098 55.08314 45.70206
# Shear Modulus (GPa) = 28.18746 33.69058 30.93902
#
# Velocity S-wave (km/s) = 3.71109 4.05721 3.88800
# Velocity P-wave (km/s) = 6.00908 6.99007 6.51806
#
# Compressibility (1/GPa) = 0.02753230
#
# Stress axis : x y z
#
# Youngs Moduli (GPa) = 32.17441 116.22167 102.55098
#
# Poissons Ratio (x) = 0.49536 0.45535
# Poissons Ratio (y) = 0.13713 0.23068
# Poissons Ratio (z) = 0.14286 0.26144
#
# Static dielectric constant tensor:
#      x y z
#    x 3.659170 0.000000 -0.051360 
#    y 0.000000 3.738790 0.000000 
#    z -0.051360 0.000000 3.827650 
# 
# 
# High freq. dielectric constant tensor:
#      x y z
#    x 1.796600 0.000000 -0.004940 
#    y 0.000000 1.805230 0.000000 
#    z -0.004940 0.000000 1.810480 
# 
# From -- ./inp_files/24799.got.cif
#   From: 2010.03.12/outbox.cif.g09.slc.cpg/sg8_13_cif.got.tgz:24799.got - 2010.03.31 10:45:26.
