data_PCOD8053238
_publ_section_title
;
Structure prediction by ZEFSAII (Michael W. Deem and Ramdas Pophale) SiO2 
 PCOD8053238
Probable space group: C M
;
_chemical_formula_sum "Si O2"
_cell_formula_units_Z 32
_cell_length_a 14.448039
_cell_length_b 8.731477
_cell_length_c 14.060817
_cell_angle_alpha 90.000000
_cell_angle_beta 104.333159
_cell_angle_gamma 90.000000
_cell_volume 1718.596250
_symmetry_space_group_name_H-M "C M"
_symmetry_group_IT_number 8
_symmetry_cell_setting 'monoclinic'
loop_
_space_group_symop_operation_xyz
x,y,z
x,-y,z
1/2+x,1/2+y,z
1/2+x,1/2-y,z
loop_
_atom_site_type_symbol
_atom_site_label
_atom_site_fract_x
_atom_site_fract_y
_atom_site_fract_z
Si Si1 0.252210 0.820975 0.712210
Si Si2 0.736853 0.319501 0.496971
Si Si3 0.576703 0.173059 0.986632
Si Si4 0.430931 0.321512 0.833989
Si Si5 0.094237 0.672951 0.782936
Si Si6 0.552956 0.318046 0.339132
Si Si7 0.168890 0.318472 0.203423
Si Si8 0.850602 0.681519 0.343933
O O1 0.260226 0.753084 0.607165
O O2 0.321604 0.729729 0.800865
O O3 0.147264 0.786660 0.725049
O O4 0.274302 0.000000 0.721851
O O5 0.734369 0.500000 0.503779
O O6 0.631762 0.264704 0.436664
O O7 0.817538 0.268401 0.441718
O O8 0.479624 0.273711 0.947448
O O9 0.636613 0.180748 0.902257
O O10 0.543376 0.000000 0.999534
O O11 0.641403 0.232601 0.089374
O O12 0.440497 0.500000 0.821422
O O13 0.484865 0.232684 0.761191
O O14 0.096850 0.500000 0.743665
O O15 0.552959 0.500000 0.324866
O O16 0.582312 0.238949 0.247667
O O17 0.449523 0.263371 0.345997
O O18 0.182284 0.500000 0.217370
O O19 0.268708 0.235400 0.250484
O O20 0.863014 0.500000 0.338404
#
# Coordination Sequence:
#
# PCOD8053238 Si02
#       8
#     4   4   4   4   4   4   4   4
#     4  11  20  35  57  82 109 144 182 223 270 320
#     4   8  19  36  55  78 110 143 179 224 270 316
#     4   8  18  37  57  77 110 144 177 224 271 314
#     4  10  20  35  54  78 108 143 181 222 266 316
#     4   9  19  37  54  76 108 142 179 225 266 313
#     4  10  20  37  57  82 111 142 178 223 270 322
#     4  10  19  36  59  83 109 141 179 223 271 320
#     4  10  20  37  57  82 111 143 179 220 268 325
#
# _framework density 18.619848999999999
#
# number of rings (size 3 to 8) (size 9 to 14) (size 15 to 20)
#    0.750    1.750    0.000    3.375    0.000    2.000 
#    2.250   10.000    0.000    0.000    0.000    0.000 
#    0.000    0.000    0.000    0.000    0.000    0.000 
#
# Total GULP energy -198282.569949 kJ/mol
# GULP energy per Si atom -12392.660622 kJ/mol
# Density = 1.857747 g / cm^3
# Si number density = 18.619849 Si / 1000 Ang^3
#
#
#
# Elastic Constant Matrix: (Units=GPa)
#
#
# Indices 1 2 3 4 5 6 
#
# 1 81.0507 13.2898 10.6969 0.0000 -2.7541 0.0000
# 2 13.2898 70.3789 26.3406 0.0000 3.0532 0.0000
# 3 10.6969 26.3406 65.9283 0.0000 1.2129 0.0000
# 4 0.0000 0.0000 0.0000 21.5554 0.0000 -2.1284
# 5 -2.7541 3.0532 1.2129 0.0000 19.9257 0.0000
# 6 0.0000 0.0000 0.0000 -2.1284 0.0000 33.6387
#
#
#
# Elastic Compliance Matrix: (Units=1/GPa)
#
#
# Indices 1 2 3 4 5 6 
#
# 1 0.012921 -0.002040 -0.001322 0.000000 0.002179 0.000000
# 2 -0.002040 0.017122 -0.006464 0.000000 -0.002512 0.000000
# 3 -0.001322 -0.006464 0.017970 0.000000 -0.000286 0.000000
# 4 0.000000 0.000000 0.000000 0.046684 0.000000 0.002954
# 5 0.002179 -0.002512 -0.000286 0.000000 0.050890 0.000000
# 6 0.000000 0.000000 0.000000 0.002954 0.000000 0.029915
#
#
# Mechanical properties :
#
#
# Convention : Reuss Voigt Hill
#
# Bulk Modulus (GPa) = 35.25712 35.33475 35.29593
# Shear Modulus (GPa) = 24.43725 26.15935 25.29830
#
# Velocity S-wave (km/s) = 3.62668 3.75229 3.69002
# Velocity P-wave (km/s) = 6.04263 6.14744 6.09526
#
# Compressibility (1/GPa) = 0.02836306
#
# Stress axis : x y z
#
# Youngs Moduli (GPa) = 77.39421 58.40396 55.64787
#
# Poissons Ratio (x) = 0.11913 0.07354
# Poissons Ratio (y) = 0.15787 0.35969
# Poissons Ratio (z) = 0.10228 0.37751
#
# Static dielectric constant tensor:
#      x y z
#    x 3.250150 0.000000 0.037030 
#    y 0.000000 3.314270 0.000000 
#    z 0.037030 0.000000 3.568670 
# 
# 
# High freq. dielectric constant tensor:
#      x y z
#    x 1.712630 0.000000 0.002820 
#    y 0.000000 1.723470 0.000000 
#    z 0.002820 0.000000 1.713800 
# 
# From -- ./inp_files/26464.got.cif
#   From: 2010.03.12/outbox.cif.g09.slc.cpg/sg8_14_cif.got.tgz:26464.got - 2010.03.31 10:45:26.
