data_PCOD8053034
_publ_section_title
;
Structure prediction by ZEFSAII (Michael W. Deem and Ramdas Pophale) SiO2 
 PCOD8053034
Probable space group: C M
;
_chemical_formula_sum "Si O2"
_cell_formula_units_Z 32
_cell_length_a 20.816968
_cell_length_b 8.747485
_cell_length_c 25.635250
_cell_angle_alpha 90.000000
_cell_angle_beta 22.252974
_cell_angle_gamma 90.000000
_cell_volume 1767.786084
_symmetry_space_group_name_H-M "C M"
_symmetry_group_IT_number 8
_symmetry_cell_setting 'monoclinic'
loop_
_space_group_symop_operation_xyz
x,y,z
x,-y,z
1/2+x,1/2+y,z
1/2+x,1/2-y,z
loop_
_atom_site_type_symbol
_atom_site_label
_atom_site_fract_x
_atom_site_fract_y
_atom_site_fract_z
Si Si1 0.362900 0.179035 0.264990
Si Si2 0.372399 0.318909 0.977127
Si Si3 0.202189 0.819385 0.534711
Si Si4 0.609792 0.819955 0.991837
Si Si5 0.644727 0.182189 0.848491
Si Si6 0.020994 0.821210 0.567410
Si Si7 0.423017 0.681088 0.822441
Si Si8 0.016994 0.180122 0.251447
O O1 0.437905 0.224542 0.152261
O O2 0.162003 0.220099 0.417345
O O3 0.464096 0.267279 0.233587
O O4 0.390669 0.000000 0.255824
O O5 0.356896 0.500000 0.988861
O O6 0.525313 0.267530 0.898318
O O7 0.409826 0.254425 0.890865
O O8 0.199218 0.248380 0.129222
O O9 0.087102 0.758608 0.573189
O O10 0.384143 0.737337 0.395140
O O11 0.105030 0.773068 0.660878
O O12 0.232324 0.000000 0.507786
O O13 0.635076 0.000000 0.970092
O O14 0.597565 0.759172 0.942125
O O15 0.771217 0.749451 0.901178
O O16 0.835697 0.242786 0.692318
O O17 0.624613 0.000000 0.857652
O O18 0.997194 0.000000 0.591792
O O19 0.404270 0.500000 0.837443
O O20 0.027971 0.000000 0.245270
#
# Coordination Sequence:
#
# PCOD8053034 Si02
#       8
#     4   4   4   4   4   4   4   4
#     4   9  16  30  54  80 104 136 179 219 258 310
#     4  11  22  37  55  76 107 146 183 216 263 325
#     4   9  16  31  56  81 102 131 177 225 265 312
#     4   9  15  28  54  82 103 132 178 223 255 300
#     4  10  19  33  52  76 108 141 177 220 265 310
#     4   8  14  26  49  76 100 130 167 209 258 310
#     4   9  16  30  56  83 101 131 183 227 255 304
#     4  11  21  33  50  78 111 141 174 219 273 315
#
# _framework density 18.101738000000001
#
# number of rings (size 3 to 8) (size 9 to 14) (size 15 to 20)
#    0.000    2.500    2.500    2.250    0.000    0.000 
#    0.000    5.625    0.000    1.500    0.000    0.000 
#    0.000    0.000    0.000    0.000    0.000    0.000 
#
# Total GULP energy -198321.098850 kJ/mol
# GULP energy per Si atom -12395.068678 kJ/mol
# Density = 1.806054 g / cm^3
# Si number density = 18.101738 Si / 1000 Ang^3
#
#
#
# Elastic Constant Matrix: (Units=GPa)
#
#
# Indices 1 2 3 4 5 6 
#
# 1 98.0329 22.6995 68.3565 0.0007 2.9523 -0.0005
# 2 22.6995 51.3212 37.8897 -0.0271 -1.9081 -0.0032
# 3 68.3565 37.8897 173.5063 -0.0009 2.8875 0.0016
# 4 0.0007 -0.0271 -0.0009 16.9959 0.0005 -7.5269
# 5 2.9523 -1.9081 2.8875 0.0005 29.4720 0.0024
# 6 -0.0005 -0.0032 0.0016 -7.5269 0.0024 19.5705
#
#
#
# Elastic Compliance Matrix: (Units=1/GPa)
#
#
# Indices 1 2 3 4 5 6 
#
# 1 0.014384 -0.002663 -0.005067 -0.000006 -0.001117 -0.000002
# 2 -0.002663 0.023842 -0.004194 0.000048 0.002221 0.000022
# 3 -0.005067 -0.004194 0.008686 -0.000008 -0.000615 -0.000005
# 4 -0.000006 0.000048 -0.000008 0.070917 0.000001 0.027275
# 5 -0.001117 0.002221 -0.000615 0.000001 0.034246 -0.000004
# 6 -0.000002 0.000022 -0.000005 0.027275 -0.000004 0.061587
#
#
# Mechanical properties :
#
#
# Convention : Reuss Voigt Hill
#
# Bulk Modulus (GPa) = 43.35795 64.52796 53.94295
# Shear Modulus (GPa) = 20.39162 26.13532 23.26347
#
# Velocity S-wave (km/s) = 3.35998 3.80386 3.58879
# Velocity P-wave (km/s) = 6.24956 7.41736 6.85836
#
# Compressibility (1/GPa) = 0.02306382
#
# Stress axis : x y z
#
# Youngs Moduli (GPa) = 69.52276 41.94242 115.13017
#
# Poissons Ratio (x) = 0.11169 0.58333
# Poissons Ratio (y) = 0.18513 0.48291
# Poissons Ratio (z) = 0.35225 0.17593
#
# Static dielectric constant tensor:
#      x y z
#    x 3.217830 0.000000 0.159770 
#    y 0.000000 2.924370 0.000000 
#    z 0.159770 0.000000 3.757510 
# 
# 
# High freq. dielectric constant tensor:
#      x y z
#    x 1.673100 0.000000 0.010690 
#    y 0.000000 1.659820 0.000000 
#    z 0.010690 0.000000 1.722960 
# 
# From -- ./inp_files/31331.got.cif
#   From: 2010.03.12/outbox.cif.g09.slc.cpg/sg8_16_cif.got.tgz:31331.got - 2010.03.31 10:45:26.
