data_PCOD8053157
_publ_section_title
;
Structure prediction by ZEFSAII (Michael W. Deem and Ramdas Pophale) SiO2 
 PCOD8053157
Probable space group: C M
;
_chemical_formula_sum "Si O2"
_cell_formula_units_Z 32
_cell_length_a 25.260320
_cell_length_b 8.784770
_cell_length_c 24.032990
_cell_angle_alpha 90.000000
_cell_angle_beta 17.900227
_cell_angle_gamma 90.000000
_cell_volume 1639.173577
_symmetry_space_group_name_H-M "C M"
_symmetry_group_IT_number 8
_symmetry_cell_setting 'monoclinic'
loop_
_space_group_symop_operation_xyz
x,y,z
x,-y,z
1/2+x,1/2+y,z
1/2+x,1/2-y,z
loop_
_atom_site_type_symbol
_atom_site_label
_atom_site_fract_x
_atom_site_fract_y
_atom_site_fract_z
Si Si1 0.916040 0.318643 0.101010
Si Si2 0.110793 0.822098 0.718729
Si Si3 0.724208 0.180196 0.716146
Si Si4 0.599585 0.322301 0.349244
Si Si5 0.912365 0.679620 0.230650
Si Si6 0.716303 0.325041 0.993517
Si Si7 0.613041 0.820210 0.600299
Si Si8 0.752568 0.324981 0.081917
O O1 0.917001 0.500000 0.098913
O O2 0.744131 0.247406 0.244474
O O3 0.929604 0.260154 0.150370
O O4 0.078408 0.256993 0.903383
O O5 0.220433 0.759165 0.660169
O O6 0.173309 0.743487 0.599421
O O7 0.140862 0.000000 0.682449
O O8 0.912512 0.786383 0.928810
O O9 0.908210 0.225988 0.559294
O O10 0.708511 0.000000 0.722648
O O11 0.624447 0.500000 0.331767
O O12 0.622174 0.280254 0.261468
O O13 0.887848 0.500000 0.258140
O O14 0.740595 0.755644 0.426448
O O15 0.088017 0.722594 0.086226
O O16 0.692050 0.500000 1.000000
O O17 0.914821 0.272823 0.785305
O O18 0.664190 0.301858 0.110334
O O19 0.629535 0.000000 0.585943
O O20 0.818191 0.500000 0.021684
#
# Coordination Sequence:
#
# PCOD8053157 Si02
#       8
#     4   4   4   4   4   4   4   4
#     4   9  19  36  56  83 117 150 194 238 282 339
#     4  11  21  34  55  87 122 150 181 236 302 350
#     4  10  19  34  59  84 110 152 195 235 280 339
#     4   9  17  31  57  87 108 143 197 239 272 328
#     4  11  23  37  59  90 121 155 192 244 301 346
#     4   9  20  37  58  85 115 153 198 240 287 347
#     4  10  22  41  62  83 112 157 205 243 281 344
#     4   9  17  34  58  83 113 152 196 235 277 339
#
# _framework density 19.522031999999999
#
# number of rings (size 3 to 8) (size 9 to 14) (size 15 to 20)
#    0.000    2.250    1.250    2.625    1.750    3.500 
#    0.000    4.375    0.000    0.000    0.000    0.000 
#    0.000    0.000    0.000    0.000    0.000    0.000 
#
# Total GULP energy -198364.641060 kJ/mol
# GULP energy per Si atom -12397.790066 kJ/mol
# Density = 1.947760 g / cm^3
# Si number density = 19.522032 Si / 1000 Ang^3
#
#
#
# Elastic Constant Matrix: (Units=GPa)
#
#
# Indices 1 2 3 4 5 6 
#
# 1 144.1193 31.8902 80.9240 -0.0123 -2.4022 0.0020
# 2 31.8902 60.1652 31.7172 -0.0495 -0.9498 0.0092
# 3 80.9240 31.7172 131.9901 -0.0141 -3.0604 0.0015
# 4 -0.0123 -0.0495 -0.0141 22.5653 0.0006 -0.3474
# 5 -2.4022 -0.9498 -3.0604 0.0006 26.5678 0.0027
# 6 0.0020 0.0092 0.0015 -0.3474 0.0027 25.0936
#
#
#
# Elastic Compliance Matrix: (Units=1/GPa)
#
#
# Indices 1 2 3 4 5 6 
#
# 1 0.010923 -0.002586 -0.006071 -0.000004 0.000196 0.000000
# 2 -0.002586 0.019645 -0.003133 0.000040 0.000108 -0.000006
# 3 -0.006071 -0.003133 0.012068 -0.000003 0.000729 0.000001
# 4 -0.000004 0.000040 -0.000003 0.044325 0.000000 0.000614
# 5 0.000196 0.000108 0.000729 0.000000 0.037745 -0.000004
# 6 0.000000 -0.000006 0.000001 0.000614 -0.000004 0.039859
#
#
# Mechanical properties :
#
#
# Convention : Reuss Voigt Hill
#
# Bulk Modulus (GPa) = 52.47530 69.48193 60.97862
# Shear Modulus (GPa) = 25.70725 27.62822 26.66773
#
# Velocity S-wave (km/s) = 3.63276 3.76604 3.70000
# Velocity P-wave (km/s) = 6.67340 7.38780 7.03967
#
# Compressibility (1/GPa) = 0.01905658
#
# Stress axis : x y z
#
# Youngs Moduli (GPa) = 91.54849 50.90404 82.86244
#
# Poissons Ratio (x) = 0.13165 0.50306
# Poissons Ratio (y) = 0.23676 0.25957
# Poissons Ratio (z) = 0.55580 0.15946
#
# Static dielectric constant tensor:
#      x y z
#    x 3.716340 -0.000020 0.012590 
#    y -0.000020 3.225310 0.000030 
#    z 0.012590 0.000030 3.701700 
# 
# 
# High freq. dielectric constant tensor:
#      x y z
#    x 1.761200 0.000000 -0.000780 
#    y 0.000000 1.728350 0.000000 
#    z -0.000780 0.000000 1.766310 
# 
# From -- ./inp_files/32332.got.cif
#   From: 2010.03.12/outbox.cif.g09.slc.cpg/sg8_17_cif.got.tgz:32332.got - 2010.03.31 10:45:26.
