data_PCOD8053313
_publ_section_title
;
Structure prediction by ZEFSAII (Michael W. Deem and Ramdas Pophale) SiO2 
 PCOD8053313
Probable space group: C M
;
_chemical_formula_sum "Si O2"
_cell_formula_units_Z 24
_cell_length_a 13.612253
_cell_length_b 10.178777
_cell_length_c 10.112303
_cell_angle_alpha 90.000000
_cell_angle_beta 72.315555
_cell_angle_gamma 90.000000
_cell_volume 1334.909743
_symmetry_space_group_name_H-M "C M"
_symmetry_group_IT_number 8
_symmetry_cell_setting 'monoclinic'
loop_
_space_group_symop_operation_xyz
x,y,z
x,-y,z
1/2+x,1/2+y,z
1/2+x,1/2-y,z
loop_
_atom_site_type_symbol
_atom_site_label
_atom_site_fract_x
_atom_site_fract_y
_atom_site_fract_z
Si Si1 0.731890 0.500000 0.662220
Si Si2 0.816060 0.769882 0.573616
Si Si3 0.514815 0.500000 0.870431
Si Si4 0.601625 0.500000 0.127085
Si Si5 0.316266 0.000000 0.922173
Si Si6 0.425186 0.754586 0.798146
Si Si7 0.110691 0.353655 0.550325
Si Si8 0.031418 0.146620 0.390784
O O1 0.773161 0.623954 0.563648
O O2 0.608017 0.500000 0.726057
O O3 0.778514 0.500000 0.788035
O O4 0.844770 0.787026 0.716158
O O5 0.723584 0.865563 0.569472
O O6 0.915011 0.798816 0.442478
O O7 0.445299 0.627868 0.878762
O O8 0.551906 0.500000 0.004803
O O9 0.566377 0.630297 0.223332
O O10 0.725031 0.500000 0.065739
O O11 0.381901 0.133140 0.913825
O O12 0.530477 0.808173 0.693453
O O13 0.080634 0.500000 0.512078
O O14 0.107484 0.249747 0.430921
O O15 0.036396 0.000000 0.457010
#
# Coordination Sequence:
#
# PCOD8053313 Si02
#       8
#     2   4   2   2   2   4   4   4
#     4   9  18  31  58  89 108 157 176 238 308 343
#     4  10  20  32  57  88 126 138 191 237 303 350
#     4  11  20  37  63  81 120 156 197 230 291 353
#     4   9  22  44  60  73 116 167 210 236 263 350
#     4   9  18  40  55  77 118 152 197 244 282 334
#     4  10  21  34  59  91 116 152 186 243 304 350
#     4  11  21  34  59  92 124 143 184 252 306 352
#     4   9  22  40  57  80 116 161 200 236 286 340
#
# _framework density 17.978745
#
# number of rings (size 3 to 8) (size 9 to 14) (size 15 to 20)
#    0.500    1.667    2.500    0.500   10.500    0.000 
#    3.000    0.000    1.833    0.000    0.000    0.000 
#    0.000    0.000    0.000    0.000    0.000    0.000 
#
# Total GULP energy -148743.643177 kJ/mol
# GULP energy per Si atom -12395.303598 kJ/mol
# Density = 1.793782 g / cm^3
# Si number density = 17.978745 Si / 1000 Ang^3
#
#
#
# Elastic Constant Matrix: (Units=GPa)
#
#
# Indices 1 2 3 4 5 6 
#
# 1 107.3398 45.9797 41.6136 0.0000 -2.8959 0.0000
# 2 45.9797 147.2180 52.9316 0.0000 -3.0453 0.0000
# 3 41.6136 52.9316 98.6529 0.0000 -12.7455 0.0000
# 4 0.0000 0.0000 0.0000 22.5533 0.0000 -0.4037
# 5 -2.8959 -3.0453 -12.7455 0.0000 20.2041 0.0000
# 6 0.0000 0.0000 0.0000 -0.4037 0.0000 30.6797
#
#
#
# Elastic Compliance Matrix: (Units=1/GPa)
#
#
# Indices 1 2 3 4 5 6 
#
# 1 0.011776 -0.002309 -0.003871 0.000000 -0.001102 0.000000
# 2 -0.002309 0.008924 -0.004010 0.000000 -0.001516 0.000000
# 3 -0.003871 -0.004010 0.014993 0.000000 0.008299 0.000000
# 4 0.000000 0.000000 0.000000 0.044350 0.000000 0.000584
# 5 -0.001102 -0.001516 0.008299 0.000000 0.054344 0.000000
# 6 0.000000 0.000000 0.000000 0.000584 0.000000 0.032602
#
#
# Mechanical properties :
#
#
# Convention : Reuss Voigt Hill
#
# Bulk Modulus (GPa) = 65.30131 70.47338 67.88735
# Shear Modulus (GPa) = 25.97745 28.86647 27.42196
#
# Velocity S-wave (km/s) = 3.80531 4.01133 3.90967
# Velocity P-wave (km/s) = 7.46374 7.79343 7.63037
#
# Compressibility (1/GPa) = 0.01531363
#
# Stress axis : x y z
#
# Youngs Moduli (GPa) = 84.91676 112.05396 66.69706
#
# Poissons Ratio (x) = 0.25874 0.25818
# Poissons Ratio (y) = 0.19607 0.26746
# Poissons Ratio (z) = 0.32871 0.44935
#
# Static dielectric constant tensor:
#      x y z
#    x 3.368930 0.000000 -0.152630 
#    y 0.000000 3.516570 0.000000 
#    z -0.152630 0.000000 2.966380 
# 
# 
# High freq. dielectric constant tensor:
#      x y z
#    x 1.701360 0.000000 -0.010720 
#    y 0.000000 1.707500 0.000000 
#    z -0.010720 0.000000 1.654540 
# 
# From -- ./inp_files/21120.got.cif
#   From: 2010.03.12/outbox.cif.g09.slc.cpg/sg8_11_cif.got.tgz:21120.got - 2010.03.31 10:45:26.
