data_PCOD8053340
_publ_section_title
;
Structure prediction by ZEFSAII (Michael W. Deem and Ramdas Pophale) SiO2 
 PCOD8053340
Probable space group: C M
;
_chemical_formula_sum "Si O2"
_cell_formula_units_Z 32
_cell_length_a 19.983430
_cell_length_b 8.841399
_cell_length_c 14.133017
_cell_angle_alpha 90.000000
_cell_angle_beta 44.989243
_cell_angle_gamma 90.000000
_cell_volume 1765.344038
_symmetry_space_group_name_H-M "C M"
_symmetry_group_IT_number 8
_symmetry_cell_setting 'monoclinic'
loop_
_space_group_symop_operation_xyz
x,y,z
x,-y,z
1/2+x,1/2+y,z
1/2+x,1/2-y,z
loop_
_atom_site_type_symbol
_atom_site_label
_atom_site_fract_x
_atom_site_fract_y
_atom_site_fract_z
Si Si1 0.203750 0.177769 0.768840
Si Si2 0.567712 0.178024 0.759610
Si Si3 0.204560 0.179949 0.268217
Si Si4 0.067883 0.678027 0.050149
Si Si5 0.902637 0.172901 0.569949
Si Si6 0.559132 0.675749 0.259757
Si Si7 0.058946 0.175752 0.567531
Si Si8 0.913725 0.321980 0.059054
O O1 0.157169 0.243992 0.720173
O O2 0.314437 0.215324 0.658085
O O3 0.189654 0.000000 0.782947
O O4 0.157275 0.244010 0.910610
O O5 0.556704 0.224150 0.662819
O O6 0.583204 0.000000 0.753173
O O7 0.471425 0.229374 0.908619
O O8 0.149420 0.233018 0.229537
O O9 0.149328 0.233023 0.417217
O O10 0.309474 0.253018 0.163353
O O11 0.204982 0.000000 0.267795
O O12 0.083343 0.500000 0.025598
O O13 0.057060 0.724135 0.168788
O O14 0.971522 0.729403 0.093926
O O15 0.964418 0.204468 0.414635
O O16 0.964322 0.204489 0.601857
O O17 0.867031 0.000000 0.605547
O O18 0.568601 0.500000 0.223011
O O19 0.068379 0.000000 0.585375
O O20 0.899470 0.500000 0.073329
#
# Coordination Sequence:
#
# PCOD8053340 Si02
#       8
#     4   4   4   4   4   4   4   4
#     4  11  22  36  55  76 100 137 185 227 264 313
#     4  10  20  34  52  76 107 138 169 214 267 312
#     4   8  15  31  53  75 100 131 169 208 245 295
#     4  10  20  34  52  76 107 138 169 214 267 312
#     4   9  19  36  54  76 110 143 173 217 267 309
#     4   9  18  33  54  78 105 138 171 207 255 312
#     4   9  18  33  54  78 105 138 171 207 255 312
#     4   8  16  31  50  71  96 129 167 204 246 297
#
# _framework density 18.126777000000001
#
# number of rings (size 3 to 8) (size 9 to 14) (size 15 to 20)
#    0.000    2.750    0.000    4.125    0.000    3.000 
#    0.000    4.375    0.000    7.500    0.000    0.000 
#    0.000    0.000    0.000    0.000    0.000    0.000 
#
# Total GULP energy -198381.131854 kJ/mol
# GULP energy per Si atom -12398.820741 kJ/mol
# Density = 1.808552 g / cm^3
# Si number density = 18.126777 Si / 1000 Ang^3
#
#
#
# Elastic Constant Matrix: (Units=GPa)
#
#
# Indices 1 2 3 4 5 6 
#
# 1 116.2366 43.6465 89.9985 0.0000 4.0724 0.0000
# 2 43.6465 78.0790 43.1495 0.0002 1.9590 -0.0002
# 3 89.9985 43.1495 115.2458 0.0000 -1.5980 0.0000
# 4 0.0000 0.0002 0.0000 27.2553 0.0000 6.3508
# 5 4.0724 1.9590 -1.5980 0.0000 41.2477 0.0000
# 6 0.0000 -0.0002 0.0000 6.3508 0.0000 28.5080
#
#
#
# Elastic Compliance Matrix: (Units=1/GPa)
#
#
# Indices 1 2 3 4 5 6 
#
# 1 0.022847 -0.003558 -0.016547 0.000000 -0.002728 0.000000
# 2 -0.003558 0.016745 -0.003499 0.000000 -0.000579 0.000000
# 3 -0.016547 -0.003499 0.022947 0.000000 0.002689 0.000000
# 4 0.000000 0.000000 0.000000 0.038699 0.000000 -0.008621
# 5 -0.002728 -0.000579 0.002689 0.000000 0.024645 0.000000
# 6 0.000000 0.000000 0.000000 -0.008621 0.000000 0.036998
#
#
# Mechanical properties :
#
#
# Convention : Reuss Voigt Hill
#
# Bulk Modulus (GPa) = 65.23344 73.68338 69.45841
# Shear Modulus (GPa) = 23.23431 28.25331 25.74381
#
# Velocity S-wave (km/s) = 3.58406 3.95226 3.77265
# Velocity P-wave (km/s) = 7.29334 7.84629 7.57486
#
# Compressibility (1/GPa) = 0.01532956
#
# Stress axis : x y z
#
# Youngs Moduli (GPa) = 43.76945 59.72035 43.57953
#
# Poissons Ratio (x) = 0.21251 0.72112
# Poissons Ratio (y) = 0.15575 0.15247
# Poissons Ratio (z) = 0.72427 0.20894
#
# Static dielectric constant tensor:
#      x y z
#    x 3.323150 0.000000 -0.257250 
#    y 0.000000 3.071440 0.000000 
#    z -0.257250 0.000000 3.370110 
# 
# 
# High freq. dielectric constant tensor:
#      x y z
#    x 1.706430 0.000000 -0.000960 
#    y 0.000000 1.680870 0.000000 
#    z -0.000960 0.000000 1.706620 
# 
# From -- ./inp_files/27754.got.cif
#   From: 2010.03.12/outbox.cif.g09.slc.cpg/sg8_14_cif.got.tgz:27754.got - 2010.03.31 10:45:26.
