data_PCOD8053880
_publ_section_title
;
Structure prediction by ZEFSAII (Michael W. Deem and Ramdas Pophale) SiO2 
 PCOD8053880
Probable space group: C M
;
_chemical_formula_sum "Si O2"
_cell_formula_units_Z 32
_cell_length_a 15.141569
_cell_length_b 8.472716
_cell_length_c 12.230629
_cell_angle_alpha 90.000000
_cell_angle_beta 105.624925
_cell_angle_gamma 90.000000
_cell_volume 1511.085796
_symmetry_space_group_name_H-M "C M"
_symmetry_group_IT_number 8
_symmetry_cell_setting 'monoclinic'
loop_
_space_group_symop_operation_xyz
x,y,z
x,-y,z
1/2+x,1/2+y,z
1/2+x,1/2-y,z
loop_
_atom_site_type_symbol
_atom_site_label
_atom_site_fract_x
_atom_site_fract_y
_atom_site_fract_z
Si Si1 0.683740 0.684587 0.616600
Si Si2 0.669502 0.823063 0.009959
Si Si3 0.238475 0.181855 0.245888
Si Si4 0.865755 0.822537 0.975407
Si Si5 0.423552 0.685481 0.222650
Si Si6 0.607711 0.818083 0.374521
Si Si7 0.565322 0.186358 0.767260
Si Si8 0.375111 0.688070 0.738008
O O1 0.675725 0.500000 0.590940
O O2 0.627835 0.778259 0.506231
O O3 0.640824 0.728435 0.718651
O O4 0.789582 0.735579 0.647427
O O5 0.758495 0.815150 0.964023
O O6 0.586348 0.773974 0.902108
O O7 0.655872 0.000000 0.051469
O O8 0.677897 0.707935 0.116229
O O9 0.343735 0.232963 0.266399
O O10 0.196561 0.280184 0.331615
O O11 0.234290 0.000000 0.276626
O O12 0.881781 0.739535 0.863732
O O13 0.901089 0.000000 0.973608
O O14 0.920694 0.745870 0.096633
O O15 0.400818 0.500000 0.211911
O O16 0.521748 0.714964 0.306957
O O17 0.581094 0.000000 0.354557
O O18 0.466111 0.257377 0.704566
O O19 0.569160 0.000000 0.746869
O O20 0.363705 0.500000 0.732896
#
# Coordination Sequence:
#
# PCOD8053880 Si02
#       8
#     4   4   4   4   4   4   4   4
#     4  12  26  46  67  93 126 168 217 268 320 379
#     4   9  18  37  62  90 129 172 211 260 317 374
#     4  11  23  40  63  96 132 169 212 262 316 378
#     4   8  16  34  61  90 127 167 204 253 314 371
#     4  10  21  41  65  96 131 168 210 263 319 377
#     4  12  26  45  68  94 125 170 217 265 319 381
#     4  11  23  41  64  95 130 169 213 263 317 379
#     4  11  22  40  64  96 130 169 212 262 320 377
#
# _framework density 21.176825000000001
#
# number of rings (size 3 to 8) (size 9 to 14) (size 15 to 20)
#    0.000    1.500    1.250    5.250    1.750    2.000 
#    0.000    6.250    0.000    0.000    0.000    0.000 
#    0.000    0.000    0.000    0.000    0.000    0.000 
#
# Total GULP energy -198428.723523 kJ/mol
# GULP energy per Si atom -12401.795220 kJ/mol
# Density = 2.112863 g / cm^3
# Si number density = 21.176825 Si / 1000 Ang^3
#
#
#
# Elastic Constant Matrix: (Units=GPa)
#
#
# Indices 1 2 3 4 5 6 
#
# 1 70.1285 14.9094 20.1960 0.0000 16.6037 0.0000
# 2 14.9094 76.5030 15.4317 0.0000 -1.7740 0.0000
# 3 20.1960 15.4317 84.5105 0.0000 14.4994 0.0000
# 4 0.0000 0.0000 0.0000 28.7675 0.0000 1.7061
# 5 16.6037 -1.7740 14.4994 0.0000 32.8684 0.0000
# 6 0.0000 0.0000 0.0000 1.7061 0.0000 34.2264
#
#
#
# Elastic Compliance Matrix: (Units=1/GPa)
#
#
# Indices 1 2 3 4 5 6 
#
# 1 0.017465 -0.003140 -0.002226 0.000000 -0.008010 0.000000
# 2 -0.003140 0.014256 -0.002442 0.000000 0.003433 0.000000
# 3 -0.002226 -0.002442 0.013675 0.000000 -0.005040 0.000000
# 4 0.000000 0.000000 0.000000 0.034864 0.000000 -0.001738
# 5 -0.008010 0.003433 -0.005040 0.000000 0.036879 0.000000
# 6 0.000000 0.000000 0.000000 -0.001738 0.000000 0.029304
#
#
# Mechanical properties :
#
#
# Convention : Reuss Voigt Hill
#
# Bulk Modulus (GPa) = 33.57988 36.91293 35.24641
# Shear Modulus (GPa) = 29.07223 31.21279 30.14251
#
# Velocity S-wave (km/s) = 3.70919 3.84332 3.77685
# Velocity P-wave (km/s) = 5.85111 6.09619 5.97491
#
# Compressibility (1/GPa) = 0.02977973
#
# Stress axis : x y z
#
# Youngs Moduli (GPa) = 57.25848 70.14835 73.12429
#
# Poissons Ratio (x) = 0.22029 0.16277
# Poissons Ratio (y) = 0.17981 0.17854
# Poissons Ratio (z) = 0.12745 0.17127
#
# Static dielectric constant tensor:
#      x y z
#    x 3.720190 0.000000 0.009420 
#    y 0.000000 3.662130 0.000000 
#    z 0.009420 0.000000 3.871890 
# 
# 
# High freq. dielectric constant tensor:
#      x y z
#    x 1.831450 0.000000 0.004750 
#    y 0.000000 1.821170 0.000000 
#    z 0.004750 0.000000 1.830660 
# 
# From -- ./inp_files/21600.got.cif
#   From: 2010.03.12/outbox.cif.g09.slc.cpg/sg8_11_cif.got.tgz:21600.got - 2010.03.31 10:45:26.
