data_PCOD8053410
_publ_section_title
;
Structure prediction by ZEFSAII (Michael W. Deem and Ramdas Pophale) SiO2 
 PCOD8053410
Probable space group: C M
;
_chemical_formula_sum "Si O2"
_cell_formula_units_Z 32
_cell_length_a 28.662726
_cell_length_b 8.746222
_cell_length_c 12.251132
_cell_angle_alpha 90.000000
_cell_angle_beta 31.189132
_cell_angle_gamma 90.000000
_cell_volume 1590.488599
_symmetry_space_group_name_H-M "C M"
_symmetry_group_IT_number 8
_symmetry_cell_setting 'monoclinic'
loop_
_space_group_symop_operation_xyz
x,y,z
x,-y,z
1/2+x,1/2+y,z
1/2+x,1/2-y,z
loop_
_atom_site_type_symbol
_atom_site_label
_atom_site_fract_x
_atom_site_fract_y
_atom_site_fract_z
Si Si1 0.583990 0.181553 0.508410
Si Si2 0.542326 0.819020 0.836885
Si Si3 0.228326 0.818757 0.077069
Si Si4 0.913545 0.677424 0.450016
Si Si5 0.192626 0.676956 0.696333
Si Si6 0.225467 0.677915 0.866508
Si Si7 0.432316 0.180384 0.649657
Si Si8 0.395115 0.680016 0.268446
O O1 0.563885 0.233096 0.671526
O O2 0.676876 0.262130 0.287762
O O3 0.503508 0.247290 0.593489
O O4 0.594420 0.000000 0.477225
O O5 0.618913 0.747847 0.763863
O O6 0.536146 0.000000 0.859400
O O7 0.445991 0.750495 0.063134
O O8 0.221699 0.000000 0.077954
O O9 0.179312 0.736098 0.070772
O O10 0.331598 0.759055 0.878263
O O11 0.928159 0.500000 0.394174
O O12 0.809668 0.711320 0.681398
O O13 0.963959 0.723669 0.462409
O O14 0.946007 0.771484 0.279140
O O15 0.197463 0.500000 0.656597
O O16 0.163342 0.699206 0.882524
O O17 0.292706 0.745140 0.474529
O O18 0.254615 0.500000 0.817154
O O19 0.429131 0.000000 0.668071
O O20 0.396416 0.500000 0.257280
#
# Coordination Sequence:
#
# PCOD8053410 Si02
#       8
#     4   4   4   4   4   4   4   4
#     4  10  21  37  55  75 100 135 180 218 251 303
#     4  10  21  37  55  75 100 135 180 218 251 303
#     4  10  20  35  54  77 107 138 169 210 260 308
#     4   9  16  30  53  79 107 136 168 206 254 311
#     4   8  17  34  54  76 105 138 166 204 261 311
#     4   9  16  30  53  79 107 136 168 206 254 311
#     4   8  17  34  54  76 105 138 166 204 261 311
#     4  10  20  35  54  77 107 138 169 210 260 308
#
# _framework density 20.119603000000001
#
# number of rings (size 3 to 8) (size 9 to 14) (size 15 to 20)
#    0.000    2.750    0.000    3.000    0.000    2.500 
#    0.000   12.500    0.000    0.000    0.000    0.000 
#    0.000    0.000    0.000    0.000    0.000    0.000 
#
# Total GULP energy -198292.111310 kJ/mol
# GULP energy per Si atom -12393.256957 kJ/mol
# Density = 2.007381 g / cm^3
# Si number density = 20.119603 Si / 1000 Ang^3
#
#
#
# Elastic Constant Matrix: (Units=GPa)
#
#
# Indices 1 2 3 4 5 6 
#
# 1 89.9275 17.2078 17.8802 0.0000 11.5486 0.0000
# 2 17.2078 31.8427 18.0635 0.0000 7.5613 0.0000
# 3 17.8802 18.0635 83.2867 0.0000 20.9868 0.0000
# 4 0.0000 0.0000 0.0000 33.1787 0.0000 6.6451
# 5 11.5486 7.5613 20.9868 0.0000 30.8614 0.0000
# 6 0.0000 0.0000 0.0000 6.6451 0.0000 17.7288
#
#
#
# Elastic Compliance Matrix: (Units=1/GPa)
#
#
# Indices 1 2 3 4 5 6 
#
# 1 0.012742 -0.005777 -0.000770 0.000000 -0.002829 0.000000
# 2 -0.005777 0.038890 -0.006442 0.000000 -0.002986 0.000000
# 3 -0.000770 -0.006442 0.015808 0.000000 -0.008883 0.000000
# 4 0.000000 0.000000 0.000000 0.032586 0.000000 -0.012214
# 5 -0.002829 -0.002986 -0.008883 0.000000 0.040234 0.000000
# 6 0.000000 0.000000 0.000000 -0.012214 0.000000 0.060983
#
#
# Mechanical properties :
#
#
# Convention : Reuss Voigt Hill
#
# Bulk Modulus (GPa) = 24.11866 34.59553 29.35709
# Shear Modulus (GPa) = 20.74336 26.48080 23.61208
#
# Velocity S-wave (km/s) = 3.21441 3.63184 3.42948
# Velocity P-wave (km/s) = 5.07841 5.90079 5.50497
#
# Compressibility (1/GPa) = 0.04146168
#
# Stress axis : x y z
#
# Youngs Moduli (GPa) = 78.48102 25.71371 63.26102
#
# Poissons Ratio (x) = 0.14856 0.04868
# Poissons Ratio (y) = 0.45341 0.40752
# Poissons Ratio (z) = 0.06039 0.16564
#
# Static dielectric constant tensor:
#      x y z
#    x 4.030480 0.000000 0.087970 
#    y 0.000000 3.325190 0.000000 
#    z 0.087970 0.000000 3.657380 
# 
# 
# High freq. dielectric constant tensor:
#      x y z
#    x 1.782840 0.000000 0.011430 
#    y 0.000000 1.757480 0.000000 
#    z 0.011430 0.000000 1.780480 
# 
# From -- ./inp_files/22788.got.cif
#   From: 2010.03.12/outbox.cif.g09.slc.cpg/sg8_12_cif.got.tgz:22788.got - 2010.03.31 10:45:26.
