data_PCOD8053220
_publ_section_title
;
Structure prediction by ZEFSAII (Michael W. Deem and Ramdas Pophale) SiO2 
 PCOD8053220
Probable space group: C M
;
_chemical_formula_sum "Si O2"
_cell_formula_units_Z 32
_cell_length_a 25.208602
_cell_length_b 8.558286
_cell_length_c 16.683015
_cell_angle_alpha 90.000000
_cell_angle_beta 154.608801
_cell_angle_gamma 90.000000
_cell_volume 1543.338527
_symmetry_space_group_name_H-M "C M"
_symmetry_group_IT_number 8
_symmetry_cell_setting 'monoclinic'
loop_
_space_group_symop_operation_xyz
x,y,z
x,-y,z
1/2+x,1/2+y,z
1/2+x,1/2-y,z
loop_
_atom_site_type_symbol
_atom_site_label
_atom_site_fract_x
_atom_site_fract_y
_atom_site_fract_z
Si Si1 0.596010 0.677735 0.276550
Si Si2 0.509768 0.181855 0.736425
Si Si3 0.688984 0.316499 0.854197
Si Si4 0.372164 0.321429 0.854554
Si Si5 0.968978 0.320706 0.246032
Si Si6 0.248528 0.318859 0.351369
Si Si7 0.133407 0.681462 0.613116
Si Si8 0.550223 0.685290 0.964468
O O1 0.642356 0.500000 0.337841
O O2 0.571886 0.730734 0.334319
O O3 0.700677 0.780419 0.375794
O O4 0.466520 0.700432 0.055689
O O5 0.624629 0.221366 0.836807
O O6 0.392822 0.278517 0.544926
O O7 0.549709 0.226254 0.880357
O O8 0.478021 0.000000 0.688985
O O9 0.681694 0.500000 0.862870
O O10 0.621940 0.279099 0.678813
O O11 0.830705 0.256178 0.044811
O O12 0.345392 0.500000 0.798251
O O13 0.243517 0.245543 0.707953
O O14 0.432800 0.250134 0.856329
O O15 0.974962 0.500000 0.227426
O O16 0.006053 0.300237 0.389997
O O17 0.229385 0.500000 0.306563
O O18 0.175703 0.220241 0.184826
O O19 0.160519 0.500000 0.671091
O O20 0.542664 0.500000 0.940308
#
# Coordination Sequence:
#
# PCOD8053220 Si02
#       8
#     4   4   4   4   4   4   4   4
#     4  10  19  35  60  91 127 164 204 255 311 372
#     4  12  26  44  66  92 122 169 220 266 317 378
#     4  11  24  43  61  88 125 163 209 265 317 370
#     4   8  16  32  58  88 123 161 198 245 305 365
#     4  10  22  37  60  91 123 160 206 255 312 374
#     4  11  23  41  64  93 128 167 209 262 320 378
#     4  10  20  38  61  89 121 163 208 250 308 377
#     4  10  21  40  64  96 131 167 208 260 314 376
#
# _framework density 20.734271
#
# number of rings (size 3 to 8) (size 9 to 14) (size 15 to 20)
#    0.000    1.750    1.250    4.125    1.750    2.000 
#    0.000    4.375    0.000    0.000    0.000    0.000 
#    0.000    0.000    0.000    0.000    0.000    0.000 
#
# Total GULP energy -198417.240245 kJ/mol
# GULP energy per Si atom -12401.077515 kJ/mol
# Density = 2.068708 g / cm^3
# Si number density = 20.734271 Si / 1000 Ang^3
#
#
#
# Elastic Constant Matrix: (Units=GPa)
#
#
# Indices 1 2 3 4 5 6 
#
# 1 118.8354 20.4886 30.4635 0.0000 -11.8250 0.0000
# 2 20.4886 68.6115 13.7932 0.0000 1.0022 0.0000
# 3 30.4635 13.7932 58.5734 0.0000 -9.0886 0.0000
# 4 0.0000 0.0000 0.0000 29.9241 0.0000 -3.3668
# 5 -11.8250 1.0022 -9.0886 0.0000 29.4184 0.0000
# 6 0.0000 0.0000 0.0000 -3.3668 0.0000 34.6890
#
#
#
# Elastic Compliance Matrix: (Units=1/GPa)
#
#
# Indices 1 2 3 4 5 6 
#
# 1 0.010191 -0.002212 -0.004340 0.000000 0.002831 0.000000
# 2 -0.002212 0.015862 -0.002948 0.000000 -0.002340 0.000000
# 3 -0.004340 -0.002948 0.020764 0.000000 0.004771 0.000000
# 4 0.000000 0.000000 0.000000 0.033787 0.000000 0.003279
# 5 0.002831 -0.002340 0.004771 0.000000 0.036684 0.000000
# 6 0.000000 0.000000 0.000000 0.003279 0.000000 0.029146
#
#
# Mechanical properties :
#
#
# Convention : Reuss Voigt Hill
#
# Bulk Modulus (GPa) = 35.94896 41.72344 38.83620
# Shear Modulus (GPa) = 28.61955 30.89130 29.75543
#
# Velocity S-wave (km/s) = 3.71927 3.86407 3.79236
# Velocity P-wave (km/s) = 5.98494 6.33045 6.16012
#
# Compressibility (1/GPa) = 0.02781722
#
# Stress axis : x y z
#
# Youngs Moduli (GPa) = 98.12964 63.04301 48.15967
#
# Poissons Ratio (x) = 0.13945 0.20901
# Poissons Ratio (y) = 0.21706 0.14198
# Poissons Ratio (z) = 0.42587 0.18585
#
# Static dielectric constant tensor:
#      x y z
#    x 3.853840 0.000000 0.048970 
#    y 0.000000 3.600970 0.000000 
#    z 0.048970 0.000000 3.684190 
# 
# 
# High freq. dielectric constant tensor:
#      x y z
#    x 1.811840 0.000000 -0.002270 
#    y 0.000000 1.798620 0.000000 
#    z -0.002270 0.000000 1.811950 
# 
# From -- ./inp_files/28213.got.cif
#   From: 2010.03.12/outbox.cif.g09.slc.cpg/sg8_15_cif.got.tgz:28213.got - 2010.03.31 10:45:26.
