data_PCOD8053278
_publ_section_title
;
Structure prediction by ZEFSAII (Michael W. Deem and Ramdas Pophale) SiO2 
 PCOD8053278
Probable space group: C M
;
_chemical_formula_sum "Si O2"
_cell_formula_units_Z 28
_cell_length_a 8.974171
_cell_length_b 32.559461
_cell_length_c 7.987008
_cell_angle_alpha 90.000000
_cell_angle_beta 145.259312
_cell_angle_gamma 90.000000
_cell_volume 1329.922373
_symmetry_space_group_name_H-M "C M"
_symmetry_group_IT_number 8
_symmetry_cell_setting 'monoclinic'
loop_
_space_group_symop_operation_xyz
x,y,z
x,-y,z
1/2+x,1/2+y,z
1/2+x,1/2-y,z
loop_
_atom_site_type_symbol
_atom_site_label
_atom_site_fract_x
_atom_site_fract_y
_atom_site_fract_z
Si Si1 0.481360 0.235158 0.860590
Si Si2 0.120001 0.120873 0.243299
Si Si3 0.324988 0.623951 0.285813
Si Si4 0.753551 0.046367 0.437276
Si Si5 0.112361 0.660607 0.781857
Si Si6 0.935270 0.210136 0.521455
Si Si7 0.214335 0.954336 0.111422
O O1 0.579369 0.208599 0.789325
O O2 0.440440 0.278461 0.724788
O O3 0.209561 0.218936 0.683141
O O4 0.704956 0.235221 0.210169
O O5 0.389676 0.143980 0.452786
O O6 0.117374 0.075843 0.164869
O O7 0.082202 0.116234 0.408801
O O8 0.890977 0.149747 0.953811
O O9 0.232350 0.581336 0.279034
O O10 0.380578 0.661051 0.467361
O O11 0.093313 0.638197 0.946538
O O12 0.516502 0.053652 0.347190
O O13 0.730352 0.000000 0.339684
O O14 0.033793 0.051943 0.782703
O O15 0.176575 0.000000 0.149061
#
# Coordination Sequence:
#
# PCOD8053278 Si02
#       7
#     4   4   4   4   4   4   4
#     4  11  21  42  61  86 123 159 195 252 309 351
#     4  10  19  37  62  80 112 157 191 241 284 351
#     4   9  22  38  62  85 117 153 201 241 291 346
#     4  10  22  39  59  86 125 155 189 245 300 347
#     4   9  19  36  60  80 115 148 191 243 284 340
#     4  11  23  41  63  88 124 157 203 254 302 357
#     4  10  22  39  57  85 122 153 190 244 298 352
#
# _framework density 21.053861000000001
#
# number of rings (size 3 to 8) (size 9 to 14) (size 15 to 20)
#    0.857    1.143    1.429    1.714    2.000    0.571 
#    7.714    0.714    0.000    0.000    0.000    0.000 
#    0.000    0.000    0.000    0.000    0.000    0.000 
#
# Total GULP energy -173462.187778 kJ/mol
# GULP energy per Si atom -12390.156270 kJ/mol
# Density = 2.100594 g / cm^3
# Si number density = 21.053861 Si / 1000 Ang^3
#
#
#
# Elastic Constant Matrix: (Units=GPa)
#
#
# Indices 1 2 3 4 5 6 
#
# 1 30.6968 23.1890 19.3329 0.0000 9.4850 0.0000
# 2 23.1890 91.3394 18.6264 0.0000 -3.5051 0.0000
# 3 19.3329 18.6264 103.4295 0.0000 25.8184 0.0000
# 4 0.0000 0.0000 0.0000 29.4161 0.0000 -7.6411
# 5 9.4850 -3.5051 25.8184 0.0000 32.6499 0.0000
# 6 0.0000 0.0000 0.0000 -7.6411 0.0000 40.6019
#
#
#
# Elastic Compliance Matrix: (Units=1/GPa)
#
#
# Indices 1 2 3 4 5 6 
#
# 1 0.047583 -0.011782 -0.003745 0.000000 -0.012126 0.000000
# 2 -0.011782 0.014620 -0.002089 0.000000 0.006644 0.000000
# 3 -0.003745 -0.002089 0.013119 0.000000 -0.009510 0.000000
# 4 0.000000 0.000000 0.000000 0.035742 0.000000 0.006727
# 5 -0.012126 0.006644 -0.009510 0.000000 0.042384 0.000000
# 6 0.000000 0.000000 0.000000 0.006727 0.000000 0.025895
#
#
# Mechanical properties :
#
#
# Convention : Reuss Voigt Hill
#
# Bulk Modulus (GPa) = 24.94460 38.64027 31.79243
# Shear Modulus (GPa) = 21.93570 31.48809 26.71190
#
# Velocity S-wave (km/s) = 3.23133 3.87149 3.56580
# Velocity P-wave (km/s) = 5.07894 6.19496 5.66450
#
# Compressibility (1/GPa) = 0.04008884
#
# Stress axis : x y z
#
# Youngs Moduli (GPa) = 21.01609 68.39798 76.22715
#
# Poissons Ratio (x) = 0.80584 0.28550
# Poissons Ratio (y) = 0.24761 0.15926
# Poissons Ratio (z) = 0.07871 0.14290
#
# Static dielectric constant tensor:
#      x y z
#    x 3.370050 0.000000 0.243850 
#    y 0.000000 3.838080 0.000000 
#    z 0.243850 0.000000 3.840060 
# 
# 
# High freq. dielectric constant tensor:
#      x y z
#    x 1.797380 0.000000 0.022140 
#    y 0.000000 1.828480 0.000000 
#    z 0.022140 0.000000 1.828860 
# 
# From -- ./inp_files/9328.got.cif
#   From: 2010.03.12/outbox.cif.g09.slc.cpg/sg8_5_cif.got.tgz:9328.got - 2010.03.31 10:45:26.
