data_PCOD8053768
_publ_section_title
;
Structure prediction by ZEFSAII (Michael W. Deem and Ramdas Pophale) SiO2 
 PCOD8053768
Probable space group: C M
;
_chemical_formula_sum "Si O2"
_cell_formula_units_Z 24
_cell_length_a 10.137618
_cell_length_b 9.124118
_cell_length_c 13.403283
_cell_angle_alpha 90.000000
_cell_angle_beta 100.771863
_cell_angle_gamma 90.000000
_cell_volume 1217.915452
_symmetry_space_group_name_H-M "C M"
_symmetry_group_IT_number 8
_symmetry_cell_setting 'monoclinic'
loop_
_space_group_symop_operation_xyz
x,y,z
x,-y,z
1/2+x,1/2+y,z
1/2+x,1/2-y,z
loop_
_atom_site_type_symbol
_atom_site_label
_atom_site_fract_x
_atom_site_fract_y
_atom_site_fract_z
Si Si1 0.849530 0.671518 0.876830
Si Si2 0.007236 0.827777 0.534013
Si Si3 0.456859 0.827520 0.320961
Si Si4 0.304247 0.829438 0.645050
Si Si5 0.139161 0.669143 0.978851
Si Si6 0.700340 0.168714 0.212818
O O1 0.843171 0.500000 0.895818
O O2 0.796355 0.713545 0.760005
O O3 0.761063 0.744682 0.948656
O O4 0.001304 0.728477 0.911719
O O5 0.162466 0.790907 0.575081
O O6 0.959170 0.750522 0.427302
O O7 0.919777 0.767610 0.612645
O O8 0.982353 0.000000 0.521054
O O9 0.590887 0.787071 0.279900
O O10 0.329078 0.771408 0.241756
O O11 0.442423 0.000000 0.335396
O O12 0.340819 0.000000 0.636839
O O13 0.160371 0.500000 0.955979
O O14 0.134555 0.696822 0.096275
O O15 0.744456 0.000000 0.231809
#
# Coordination Sequence:
#
# PCOD8053768 Si02
#       6
#     4   4   4   4   4   4
#     4  10  21  38  59  85 117 150 188 233 278 331
#     4  11  23  38  58  85 115 148 189 234 281 336
#     4  11  23  39  60  84 112 149 190 233 284 337
#     4  10  22  39  59  85 116 150 189 232 279 333
#     4  10  21  37  58  85 116 150 189 232 279 332
#     4  10  22  39  58  84 116 149 189 234 279 333
#
# _framework density 19.705803
#
# number of rings (size 3 to 8) (size 9 to 14) (size 15 to 20)
#    0.000    1.667    0.000    4.000    0.000    8.667 
#    0.000    0.000    0.000    0.000    0.000    0.000 
#    0.000    0.000    0.000    0.000    0.000    0.000 
#
# Total GULP energy -148878.445364 kJ/mol
# GULP energy per Si atom -12406.537114 kJ/mol
# Density = 1.966095 g / cm^3
# Si number density = 19.705803 Si / 1000 Ang^3
#
#
#
# Elastic Constant Matrix: (Units=GPa)
#
#
# Indices 1 2 3 4 5 6 
#
# 1 101.4708 50.1256 21.0041 0.0000 -2.3074 0.0000
# 2 50.1256 70.0007 29.9337 0.0000 -3.1910 0.0000
# 3 21.0041 29.9337 76.5733 0.0000 2.2049 0.0000
# 4 0.0000 0.0000 0.0000 29.3406 0.0000 -3.6321
# 5 -2.3074 -3.1910 2.2049 0.0000 40.9133 0.0000
# 6 0.0000 0.0000 0.0000 -3.6321 0.0000 39.3575
#
#
#
# Elastic Compliance Matrix: (Units=1/GPa)
#
#
# Indices 1 2 3 4 5 6 
#
# 1 0.015250 -0.010964 0.000103 0.000000 -0.000001 0.000000
# 2 -0.010964 0.025155 -0.006875 0.000000 0.001714 0.000000
# 3 0.000103 -0.006875 0.015759 0.000000 -0.001380 0.000000
# 4 0.000000 0.000000 0.000000 0.034476 0.000000 0.003182
# 5 -0.000001 0.001714 -0.001380 0.000000 0.024650 0.000000
# 6 0.000000 0.000000 0.000000 0.003182 0.000000 0.025702
#
#
# Mechanical properties :
#
#
# Convention : Reuss Voigt Hill
#
# Bulk Modulus (GPa) = 48.33154 50.01905 49.17530
# Shear Modulus (GPa) = 27.26865 31.72105 29.49485
#
# Velocity S-wave (km/s) = 3.72397 4.01650 3.87300
# Velocity P-wave (km/s) = 6.56280 6.85184 6.70888
#
# Compressibility (1/GPa) = 0.02069042
#
# Stress axis : x y z
#
# Youngs Moduli (GPa) = 65.57435 39.75385 63.45770
#
# Poissons Ratio (x) = 0.43586 -0.00654
# Poissons Ratio (y) = 0.71896 0.43629
# Poissons Ratio (z) = -0.00675 0.27332
#
# Static dielectric constant tensor:
#      x y z
#    x 3.594870 0.000000 0.080950 
#    y 0.000000 3.571530 0.000000 
#    z 0.080950 0.000000 3.659030 
# 
# 
# High freq. dielectric constant tensor:
#      x y z
#    x 1.779040 0.000000 0.002270 
#    y 0.000000 1.765360 0.000000 
#    z 0.002270 0.000000 1.784420 
# 
# From -- ./inp_files/19693.got.cif
#   From: 2010.03.12/outbox.cif.g09.slc.cpg/sg8_10_cif.got.tgz:19693.got - 2010.03.31 10:45:26.
