data_PCOD8053574
_publ_section_title
;
Structure prediction by ZEFSAII (Michael W. Deem and Ramdas Pophale) SiO2 
 PCOD8053574
Probable space group: C M
;
_chemical_formula_sum "Si O2"
_cell_formula_units_Z 32
_cell_length_a 31.003869
_cell_length_b 8.822807
_cell_length_c 13.177727
_cell_angle_alpha 90.000000
_cell_angle_beta 30.103806
_cell_angle_gamma 90.000000
_cell_volume 1807.978149
_symmetry_space_group_name_H-M "C M"
_symmetry_group_IT_number 8
_symmetry_cell_setting 'monoclinic'
loop_
_space_group_symop_operation_xyz
x,y,z
x,-y,z
1/2+x,1/2+y,z
1/2+x,1/2-y,z
loop_
_atom_site_type_symbol
_atom_site_label
_atom_site_fract_x
_atom_site_fract_y
_atom_site_fract_z
Si Si1 0.148040 0.820925 0.137120
Si Si2 0.122490 0.321798 0.403585
Si Si3 0.992242 0.823594 0.312897
Si Si4 0.282957 0.821106 0.186553
Si Si5 0.857071 0.829470 0.214297
Si Si6 0.902118 0.669768 0.328600
Si Si7 0.953447 0.171770 0.825987
Si Si8 0.328739 0.829292 0.683791
O O1 0.123394 0.725988 0.285191
O O2 0.080524 0.778506 0.187085
O O3 0.146151 0.000000 0.164890
O O4 0.241060 0.765234 0.909246
O O5 0.137509 0.500000 0.383880
O O6 0.195126 0.232497 0.316045
O O7 0.031259 0.278261 0.636437
O O8 0.985774 0.739123 0.216609
O O9 0.911127 0.772258 0.549326
O O10 0.985959 0.000000 0.304952
O O11 0.290822 0.000000 0.160002
O O12 0.285269 0.771567 0.301163
O O13 0.363961 0.741848 0.963534
O O14 0.944245 0.828026 0.967976
O O15 0.821365 0.000000 0.297150
O O16 0.876288 0.767950 0.285592
O O17 0.923810 0.500000 0.248339
O O18 0.823562 0.671868 0.570434
O O19 0.966365 0.000000 0.758577
O O20 0.344380 0.000000 0.691230
#
# Coordination Sequence:
#
# PCOD8053574 Si02
#       8
#     4   4   4   4   4   4   4   4
#     4  10  21  38  56  76 107 147 185 224 274 327
#     4  12  24  37  56  83 113 147 187 230 277 331
#     4   9  18  33  55  79 106 139 179 227 270 319
#     4  10  20  37  59  82 112 147 183 228 277 328
#     4   9  18  34  58  83 110 143 180 224 275 328
#     4   9  17  32  56  80 108 144 179 218 271 329
#     4   9  20  38  58  81 111 145 186 231 274 328
#     4   8  18  35  54  76 107 142 179 220 266 326
#
# _framework density 17.699328000000001
#
# number of rings (size 3 to 8) (size 9 to 14) (size 15 to 20)
#    1.500    1.000    0.000    3.000    0.000    2.500 
#    0.000    3.750    0.000    6.000    0.000    0.000 
#    0.000    0.000    0.000    0.000    0.000    0.000 
#
# Total GULP energy -198230.880762 kJ/mol
# GULP energy per Si atom -12389.430048 kJ/mol
# Density = 1.765904 g / cm^3
# Si number density = 17.699328 Si / 1000 Ang^3
#
#
#
# Elastic Constant Matrix: (Units=GPa)
#
#
# Indices 1 2 3 4 5 6 
#
# 1 58.2998 28.2746 1.3065 0.0000 -7.5316 0.0000
# 2 28.2746 98.6719 15.1704 0.0000 -3.1651 0.0000
# 3 1.3065 15.1704 61.2247 0.0000 -10.2165 0.0000
# 4 0.0000 0.0000 0.0000 27.1637 0.0000 -1.1619
# 5 -7.5316 -3.1651 -10.2165 0.0000 26.0452 0.0000
# 6 0.0000 0.0000 0.0000 -1.1619 0.0000 33.4251
#
#
#
# Elastic Compliance Matrix: (Units=1/GPa)
#
#
# Indices 1 2 3 4 5 6 
#
# 1 0.020854 -0.006100 0.002086 0.000000 0.006107 0.000000
# 2 -0.006100 0.012322 -0.003175 0.000000 -0.001512 0.000000
# 3 0.002086 -0.003175 0.018310 0.000000 0.007400 0.000000
# 4 0.000000 0.000000 0.000000 0.036869 0.000000 0.001282
# 5 0.006107 -0.001512 0.007400 0.000000 0.042880 0.000000
# 6 0.000000 0.000000 0.000000 0.001282 0.000000 0.029962
#
#
# Mechanical properties :
#
#
# Convention : Reuss Voigt Hill
#
# Bulk Modulus (GPa) = 26.94986 34.18883 30.56934
# Shear Modulus (GPa) = 26.60342 28.88979 27.74660
#
# Velocity S-wave (km/s) = 3.88116 4.04450 3.96367
# Velocity P-wave (km/s) = 5.94509 6.41631 6.18519
#
# Compressibility (1/GPa) = 0.03710594
#
# Stress axis : x y z
#
# Youngs Moduli (GPa) = 47.95351 81.15314 54.61390
#
# Poissons Ratio (x) = 0.49507 -0.11391
# Poissons Ratio (y) = 0.29253 0.17342
# Poissons Ratio (z) = -0.10001 0.25770
#
# Static dielectric constant tensor:
#      x y z
#    x 3.099900 0.000000 -0.023720 
#    y 0.000000 3.343680 0.000000 
#    z -0.023720 0.000000 3.118240 
# 
# 
# High freq. dielectric constant tensor:
#      x y z
#    x 1.672190 0.000000 -0.002700 
#    y 0.000000 1.698210 0.000000 
#    z -0.002700 0.000000 1.663810 
# 
# From -- ./inp_files/28377.got.cif
#   From: 2010.03.12/outbox.cif.g09.slc.cpg/sg8_15_cif.got.tgz:28377.got - 2010.03.31 10:45:26.
