data_PCOD8053346
_publ_section_title
;
Structure prediction by ZEFSAII (Michael W. Deem and Ramdas Pophale) SiO2 
 PCOD8053346
Probable space group: C M
;
_chemical_formula_sum "Si O2"
_cell_formula_units_Z 32
_cell_length_a 18.276287
_cell_length_b 9.249904
_cell_length_c 25.023551
_cell_angle_alpha 90.000000
_cell_angle_beta 24.258855
_cell_angle_gamma 90.000000
_cell_volume 1738.071912
_symmetry_space_group_name_H-M "C M"
_symmetry_group_IT_number 8
_symmetry_cell_setting 'monoclinic'
loop_
_space_group_symop_operation_xyz
x,y,z
x,-y,z
1/2+x,1/2+y,z
1/2+x,1/2-y,z
loop_
_atom_site_type_symbol
_atom_site_label
_atom_site_fract_x
_atom_site_fract_y
_atom_site_fract_z
Si Si1 0.009700 0.168072 0.175360
Si Si2 0.970090 0.168711 0.680119
Si Si3 0.921886 0.331312 0.917706
Si Si4 0.858264 0.328715 0.175041
Si Si5 0.453128 0.331553 0.429393
Si Si6 0.071874 0.328638 0.930919
Si Si7 0.130789 0.830698 0.687221
Si Si8 0.791682 0.168009 0.423896
O O1 0.948816 0.260312 0.165951
O O2 0.898266 0.219201 0.300939
O O3 0.978130 0.000000 0.184303
O O4 0.214443 0.201253 0.050587
O O5 0.773350 0.230651 0.800097
O O6 0.017349 0.203237 0.709855
O O7 0.105640 0.247370 0.549923
O O8 0.982901 0.000000 0.659042
O O9 0.965121 0.500000 0.880175
O O10 0.982059 0.277403 0.935942
O O11 0.028580 0.238204 0.804340
O O12 0.877996 0.500000 0.165787
O O13 0.652980 0.282157 0.308721
O O14 0.957660 0.267251 0.056418
O O15 0.423080 0.500000 0.461629
O O16 0.325435 0.240218 0.553041
O O17 0.413296 0.295903 0.394136
O O18 0.073533 0.500000 0.933515
O O19 0.154352 0.000000 0.681327
O O20 0.745661 0.000000 0.452138
#
# Coordination Sequence:
#
# PCOD8053346 Si02
#       8
#     4   4   4   4   4   4   4   4
#     4  10  21  35  52  77 107 136 167 211 264 307
#     4   9  18  33  53  76 102 133 169 210 255 300
#     4  10  20  35  55  76 101 136 176 213 251 303
#     4  10  20  35  56  78 101 134 175 215 254 302
#     4   9  18  34  56  78 100 134 178 213 246 299
#     4   9  18  34  55  76  99 131 174 217 251 293
#     4  10  20  34  53  78 108 137 166 208 261 307
#     4   9  18  34  54  75 102 135 171 209 250 301
#
# _framework density 18.411206
#
# number of rings (size 3 to 8) (size 9 to 14) (size 15 to 20)
#    0.000    2.500    0.000    1.875    0.000    7.000 
#    0.000    5.625    0.000    3.000    0.000    0.000 
#    0.000    0.000    0.000    0.000    0.000    0.000 
#
# Total GULP energy -198443.523694 kJ/mol
# GULP energy per Si atom -12402.720231 kJ/mol
# Density = 1.836930 g / cm^3
# Si number density = 18.411206 Si / 1000 Ang^3
#
#
#
# Elastic Constant Matrix: (Units=GPa)
#
#
# Indices 1 2 3 4 5 6 
#
# 1 110.4646 42.6345 85.0704 0.0160 -3.5842 0.0057
# 2 42.6345 47.8406 59.8917 -0.0104 2.2771 -0.0040
# 3 85.0704 59.8917 176.5068 -0.0349 2.7249 -0.0087
# 4 0.0160 -0.0104 -0.0349 29.5204 0.0038 1.4526
# 5 -3.5842 2.2771 2.7249 0.0038 39.6891 0.0005
# 6 0.0057 -0.0040 -0.0087 1.4526 0.0005 29.4633
#
#
#
# Elastic Compliance Matrix: (Units=1/GPa)
#
#
# Indices 1 2 3 4 5 6 
#
# 1 0.016184 -0.008210 -0.005050 -0.000018 0.002279 -0.000005
# 2 -0.008210 0.040565 -0.009771 0.000007 -0.002398 0.000004
# 3 -0.005050 -0.009771 0.011425 0.000013 -0.000680 0.000002
# 4 -0.000018 0.000007 0.000013 0.033957 -0.000006 -0.001674
# 5 0.002279 -0.002398 -0.000680 -0.000006 0.025586 -0.000001
# 6 -0.000005 0.000004 0.000002 -0.001674 -0.000001 0.034023
#
#
# Mechanical properties :
#
#
# Convention : Reuss Voigt Hill
#
# Bulk Modulus (GPa) = 45.21971 78.88947 62.05459
# Shear Modulus (GPa) = 23.23728 29.54892 26.39310
#
# Velocity S-wave (km/s) = 3.55650 4.01052 3.79031
# Velocity P-wave (km/s) = 6.44043 8.02417 7.27552
#
# Compressibility (1/GPa) = 0.02211425
#
# Stress axis : x y z
#
# Youngs Moduli (GPa) = 61.78927 24.65186 87.52670
#
# Poissons Ratio (x) = 0.20238 0.44198
# Poissons Ratio (y) = 0.50727 0.85518
# Poissons Ratio (z) = 0.31202 0.24086
#
# Static dielectric constant tensor:
#      x y z
#    x 3.429380 0.000000 -0.036800 
#    y 0.000000 3.198400 0.000000 
#    z -0.036800 0.000000 3.622470 
# 
# 
# High freq. dielectric constant tensor:
#      x y z
#    x 1.716230 0.000000 -0.001320 
#    y 0.000000 1.693600 0.000000 
#    z -0.001320 0.000000 1.730510 
# 
# From -- ./inp_files/23865.got.cif
#   From: 2010.03.12/outbox.cif.g09.slc.cpg/sg8_12_cif.got.tgz:23865.got - 2010.03.31 10:45:26.
