data_PCOD8053538
_publ_section_title
;
Structure prediction by ZEFSAII (Michael W. Deem and Ramdas Pophale) SiO2 
 PCOD8053538
Probable space group: C M
;
_chemical_formula_sum "Si O2"
_cell_formula_units_Z 32
_cell_length_a 19.528282
_cell_length_b 9.104159
_cell_length_c 9.519288
_cell_angle_alpha 90.000000
_cell_angle_beta 103.086900
_cell_angle_gamma 90.000000
_cell_volume 1648.464785
_symmetry_space_group_name_H-M "C M"
_symmetry_group_IT_number 8
_symmetry_cell_setting 'monoclinic'
loop_
_space_group_symop_operation_xyz
x,y,z
x,-y,z
1/2+x,1/2+y,z
1/2+x,1/2-y,z
loop_
_atom_site_type_symbol
_atom_site_label
_atom_site_fract_x
_atom_site_fract_y
_atom_site_fract_z
Si Si1 0.071700 0.832618 0.130930
Si Si2 0.301574 0.824769 0.439676
Si Si3 0.160045 0.328889 0.397600
Si Si4 0.084192 0.669295 0.646177
Si Si5 0.162998 0.166177 0.910956
Si Si6 0.934733 0.674193 0.679201
Si Si7 0.433875 0.174058 0.999957
Si Si8 0.802046 0.674027 0.120200
O O1 0.131266 0.751927 0.247517
O O2 0.998468 0.748766 0.109955
O O3 0.063921 0.000000 0.180044
O O4 0.095764 0.827374 0.980973
O O5 0.233514 0.746480 0.474679
O O6 0.368786 0.767925 0.558637
O O7 0.311493 0.769893 0.283839
O O8 0.292196 0.000000 0.445509
O O9 0.172441 0.500000 0.371669
O O10 0.102122 0.306727 0.491960
O O11 0.085296 0.500000 0.689879
O O12 0.145428 0.745686 0.763081
O O13 0.006921 0.735689 0.643796
O O14 0.180422 0.000000 0.874262
O O15 0.230582 0.237512 0.019232
O O16 0.935100 0.500000 0.673762
O O17 0.927650 0.728867 0.836447
O O18 0.365734 0.227711 0.052586
O O19 0.444508 0.000000 0.012774
O O20 0.797606 0.500000 0.122188
#
# Coordination Sequence:
#
# PCOD8053538 Si02
#       8
#     4   4   4   4   4   4   4   4
#     4  11  22  39  61  85 115 152 195 241 290 342
#     4  10  20  38  60  82 116 154 192 239 284 338
#     4  11  24  39  59  86 117 154 195 240 289 342
#     4  10  22  39  58  85 115 150 194 238 287 342
#     4  10  20  37  60  85 112 149 194 240 287 340
#     4   9  19  35  58  84 111 149 191 231 282 342
#     4  10  20  36  60  87 114 149 194 238 284 342
#     4   9  19  35  58  86 112 147 193 235 281 340
#
# _framework density 19.411999999999999
#
# number of rings (size 3 to 8) (size 9 to 14) (size 15 to 20)
#    0.000    2.000    2.500    0.750    3.500    1.500 
#    0.000    2.500    0.000    0.000    0.000    0.000 
#    0.000    0.000    0.000    0.000    0.000    0.000 
#
# Total GULP energy -198430.027967 kJ/mol
# GULP energy per Si atom -12401.876748 kJ/mol
# Density = 1.936782 g / cm^3
# Si number density = 19.412000 Si / 1000 Ang^3
#
#
#
# Elastic Constant Matrix: (Units=GPa)
#
#
# Indices 1 2 3 4 5 6 
#
# 1 132.4188 31.1533 39.3793 0.0000 7.4971 0.0000
# 2 31.1533 57.1428 30.3187 0.0000 3.2652 0.0000
# 3 39.3793 30.3187 83.5897 0.0000 12.1949 0.0000
# 4 0.0000 0.0000 0.0000 26.3499 0.0000 4.0891
# 5 7.4971 3.2652 12.1949 0.0000 40.0223 0.0000
# 6 0.0000 0.0000 0.0000 4.0891 0.0000 27.6028
#
#
#
# Elastic Compliance Matrix: (Units=1/GPa)
#
#
# Indices 1 2 3 4 5 6 
#
# 1 0.009296 -0.003412 -0.003065 0.000000 -0.000529 0.000000
# 2 -0.003412 0.022939 -0.006837 0.000000 0.000851 0.000000
# 3 -0.003065 -0.006837 0.016453 0.000000 -0.003881 0.000000
# 4 0.000000 0.000000 0.000000 0.038844 0.000000 -0.005754
# 5 -0.000529 0.000851 -0.003881 0.000000 0.026198 0.000000
# 6 0.000000 0.000000 0.000000 -0.005754 0.000000 0.037081
#
#
# Mechanical properties :
#
#
# Convention : Reuss Voigt Hill
#
# Bulk Modulus (GPa) = 45.32855 52.76155 49.04505
# Shear Modulus (GPa) = 27.05761 30.28169 28.66965
#
# Velocity S-wave (km/s) = 3.73749 3.95390 3.84722
# Velocity P-wave (km/s) = 6.48279 6.93421 6.71230
#
# Compressibility (1/GPa) = 0.02206115
#
# Stress axis : x y z
#
# Youngs Moduli (GPa) = 107.57588 43.59399 60.77899
#
# Poissons Ratio (x) = 0.14873 0.18627
# Poissons Ratio (y) = 0.36701 0.41555
# Poissons Ratio (z) = 0.32968 0.29805
#
# Static dielectric constant tensor:
#      x y z
#    x 3.684020 0.000000 0.023330 
#    y 0.000000 3.235430 0.000000 
#    z 0.023330 0.000000 3.529280 
# 
# 
# High freq. dielectric constant tensor:
#      x y z
#    x 1.767490 0.000000 0.002670 
#    y 0.000000 1.722160 0.000000 
#    z 0.002670 0.000000 1.759950 
# 
# From -- ./inp_files/15881.got.cif
#   From: 2010.03.12/outbox.cif.g09.slc.cpg/sg8_8_cif.got.tgz:15881.got - 2010.03.31 10:45:26.
