data_PCOD8053958
_publ_section_title
;
Structure prediction by ZEFSAII (Michael W. Deem and Ramdas Pophale) SiO2 
 PCOD8053958
Probable space group: C M
;
_chemical_formula_sum "Si O2"
_cell_formula_units_Z 28
_cell_length_a 5.589071
_cell_length_b 31.684708
_cell_length_c 7.787809
_cell_angle_alpha 90.000000
_cell_angle_beta 114.074048
_cell_angle_gamma 90.000000
_cell_volume 1259.170267
_symmetry_space_group_name_H-M "C M"
_symmetry_group_IT_number 8
_symmetry_cell_setting 'monoclinic'
loop_
_space_group_symop_operation_xyz
x,y,z
x,-y,z
1/2+x,1/2+y,z
1/2+x,1/2-y,z
loop_
_atom_site_type_symbol
_atom_site_label
_atom_site_fract_x
_atom_site_fract_y
_atom_site_fract_z
Si Si1 0.765270 0.500000 0.146150
Si Si2 0.099702 0.914176 0.488885
Si Si3 0.603037 0.412881 0.097319
Si Si4 0.280614 0.830527 0.944322
Si Si5 0.818669 0.157101 0.579744
Si Si6 0.501765 0.225268 0.297032
Si Si7 0.382477 0.500000 0.366433
Si Si8 0.083959 0.611582 0.817213
O O1 0.702470 0.455733 0.031133
O O2 0.570404 0.500000 0.254644
O O3 0.073676 0.500000 0.258235
O O4 0.202570 0.913471 0.323033
O O5 0.324442 0.915118 0.700675
O O6 0.938030 0.870312 0.458709
O O7 0.941016 0.956765 0.486022
O O8 0.709624 0.371190 0.038149
O O9 0.285892 0.414290 0.995127
O O10 0.521816 0.844264 0.894953
O O11 0.038934 0.816612 0.751041
O O12 0.368740 0.791146 0.083753
O O13 0.590191 0.187283 0.445301
O O14 0.704127 0.121613 0.668895
O O15 0.271726 0.249974 0.331000
#
# Coordination Sequence:
#
# PCOD8053958 Si02
#       8
#     2   4   4   4   4   4   2   4
#     4  10  24  39  63 103 134 179 229 277 331 380
#     4  10  22  40  69  95 135 179 225 276 330 393
#     4  10  22  40  69  95 135 179 225 276 330 393
#     4  10  24  44  70  97 136 176 220 275 335 403
#     4  10  24  44  70  97 136 176 220 275 335 403
#     4  12  30  46  72 105 130 175 222 276 344 404
#     4  10  24  39  63 103 134 179 229 277 331 380
#     4  10  22  41  68 100 126 188 220 268 336 393
#
# _framework density 22.236865999999999
#
# number of rings (size 3 to 8) (size 9 to 14) (size 15 to 20)
#    0.000    1.714    0.000    1.714   20.000    1.714 
#    0.000    6.429    0.000    0.000    0.000    0.000 
#    0.000    0.000    0.000    0.000    0.000    0.000 
#
# Total GULP energy -173476.403449 kJ/mol
# GULP energy per Si atom -12391.171675 kJ/mol
# Density = 2.218625 g / cm^3
# Si number density = 22.236866 Si / 1000 Ang^3
#
#
#
# Elastic Constant Matrix: (Units=GPa)
#
#
# Indices 1 2 3 4 5 6 
#
# 1 101.8969 19.4581 11.0158 0.0000 20.4978 0.0000
# 2 19.4581 78.8582 21.9798 0.0000 16.1438 0.0000
# 3 11.0158 21.9798 73.8782 0.0000 12.7264 0.0000
# 4 0.0000 0.0000 0.0000 23.3849 0.0000 13.1330
# 5 20.4978 16.1438 12.7264 0.0000 37.4773 0.0000
# 6 0.0000 0.0000 0.0000 13.1330 0.0000 31.4854
#
#
#
# Elastic Compliance Matrix: (Units=1/GPa)
#
#
# Indices 1 2 3 4 5 6 
#
# 1 0.011226 -0.001596 -0.000276 0.000000 -0.005359 0.000000
# 2 -0.001596 0.014935 -0.003449 0.000000 -0.004389 0.000000
# 3 -0.000276 -0.003449 0.015211 0.000000 -0.003529 0.000000
# 4 0.000000 0.000000 0.000000 0.055844 0.000000 -0.023293
# 5 -0.005359 -0.004389 -0.003529 0.000000 0.032703 0.000000
# 6 0.000000 0.000000 0.000000 -0.023293 0.000000 0.041477
#
#
# Mechanical properties :
#
#
# Convention : Reuss Voigt Hill
#
# Bulk Modulus (GPa) = 32.54189 39.94897 36.24543
# Shear Modulus (GPa) = 26.00352 31.94816 28.97584
#
# Velocity S-wave (km/s) = 3.42334 3.79452 3.61370
# Velocity P-wave (km/s) = 5.50379 6.09935 5.80920
#
# Compressibility (1/GPa) = 0.03072962
#
# Stress axis : x y z
#
# Youngs Moduli (GPa) = 89.07505 66.95791 65.74209
#
# Poissons Ratio (x) = 0.10687 0.01814
# Poissons Ratio (y) = 0.14217 0.22676
# Poissons Ratio (z) = 0.02458 0.23095
#
# Static dielectric constant tensor:
#      x y z
#    x 4.158680 0.000000 0.205820 
#    y 0.000000 4.134440 0.000000 
#    z 0.205820 0.000000 4.136570 
# 
# 
# High freq. dielectric constant tensor:
#      x y z
#    x 1.883580 0.000000 0.010810 
#    y 0.000000 1.868080 0.000000 
#    z 0.010810 0.000000 1.875690 
# 
# From -- ./inp_files/7147.got.cif
#   From: 2010.03.12/outbox.cif.g09.slc.cpg/sg8_4_cif.got.tgz:7147.got - 2010.03.31 10:45:26.
