data_PCOD8053978
_publ_section_title
;
Structure prediction by ZEFSAII (Michael W. Deem and Ramdas Pophale) SiO2 
 PCOD8053978
Probable space group: C M
;
_chemical_formula_sum "Si O2"
_cell_formula_units_Z 26
_cell_length_a 22.319304
_cell_length_b 7.720346
_cell_length_c 7.360437
_cell_angle_alpha 90.000000
_cell_angle_beta 89.305932
_cell_angle_gamma 90.000000
_cell_volume 1268.204080
_symmetry_space_group_name_H-M "C M"
_symmetry_group_IT_number 8
_symmetry_cell_setting 'monoclinic'
loop_
_space_group_symop_operation_xyz
x,y,z
x,-y,z
1/2+x,1/2+y,z
1/2+x,1/2-y,z
loop_
_atom_site_type_symbol
_atom_site_label
_atom_site_fract_x
_atom_site_fract_y
_atom_site_fract_z
Si Si1 0.762151 0.000000 0.105680
Si Si2 0.940259 0.308587 0.830837
Si Si3 0.167507 0.797583 0.140951
Si Si4 0.357443 0.500000 0.812096
Si Si5 0.452048 0.809169 0.403887
Si Si6 0.568334 0.295561 0.857646
Si Si7 0.369117 0.500000 0.379652
Si Si8 0.577554 0.700836 0.451702
O O1 0.724910 0.176658 0.123497
O O2 0.808802 0.000000 0.268430
O O3 0.792162 0.000000 0.905270
O O4 0.915751 0.500000 0.879899
O O5 0.891500 0.167773 0.891600
O O6 0.951303 0.283583 0.618582
O O7 0.004496 0.281656 0.925817
O O8 0.138359 0.764906 0.339410
O O9 0.185551 0.000000 0.115742
O O10 0.120308 0.736080 0.990900
O O11 0.352111 0.500000 0.594108
O O12 0.407659 0.668266 0.319114
O O13 0.521638 0.786489 0.346356
O O14 0.429775 0.000000 0.344420
O O15 0.561498 0.500000 0.860472
O O16 0.585887 0.226350 0.655708
O O17 0.561646 0.500000 0.460988
#
# Coordination Sequence:
#
# PCOD8053978 Si02
#       8
#     2   4   4   2   4   4   2   4
#     4  12  28  42  58  82 110 164 214 228 268 340
#     4   9  17  32  59  92 117 143 183 232 294 354
#     4  10  24  41  55  81 117 150 198 243 270 332
#     4  10  22  42  60  82 120 152 189 244 284 332
#     4   9  17  32  59  92 117 143 183 232 294 354
#     4   9  17  34  60  87 119 149 176 231 300 346
#     4  10  22  42  60  82 120 152 189 244 284 332
#     4   9  17  34  60  87 119 149 176 231 300 346
#
# _framework density 20.501432000000001
#
# number of rings (size 3 to 8) (size 9 to 14) (size 15 to 20)
#    0.000    2.462    1.538    0.000    2.154    3.692 
#    0.000    1.538    0.000    0.000    0.000    0.000 
#    0.000    0.000    0.000    0.000    0.000    0.000 
#
# Total GULP energy -161165.920139 kJ/mol
# GULP energy per Si atom -12397.378472 kJ/mol
# Density = 2.045477 g / cm^3
# Si number density = 20.501432 Si / 1000 Ang^3
#
#
#
# Elastic Constant Matrix: (Units=GPa)
#
#
# Indices 1 2 3 4 5 6 
#
# 1 96.4651 53.1610 3.0721 0.0000 7.8789 0.0000
# 2 53.1610 120.6583 1.3315 0.0000 4.7411 0.0000
# 3 3.0721 1.3315 33.5873 0.0000 9.8446 0.0000
# 4 0.0000 0.0000 0.0000 6.1135 0.0000 -1.3150
# 5 7.8789 4.7411 9.8446 0.0000 34.5057 0.0000
# 6 0.0000 0.0000 0.0000 -1.3150 0.0000 29.3316
#
#
#
# Elastic Compliance Matrix: (Units=1/GPa)
#
#
# Indices 1 2 3 4 5 6 
#
# 1 0.013881 -0.006024 -0.000376 0.000000 -0.002235 0.000000
# 2 -0.006024 0.010947 0.000169 0.000000 -0.000177 0.000000
# 3 -0.000376 0.000169 0.032500 0.000000 -0.009210 0.000000
# 4 0.000000 0.000000 0.000000 0.165166 0.000000 0.007405
# 5 -0.002235 -0.000177 -0.009210 0.000000 0.032143 0.000000
# 6 0.000000 0.000000 0.000000 0.007405 0.000000 0.034425
#
#
# Mechanical properties :
#
#
# Convention : Reuss Voigt Hill
#
# Bulk Modulus (GPa) = 22.28844 40.64888 31.46866
# Shear Modulus (GPa) = 15.79887 26.86655 21.33271
#
# Velocity S-wave (km/s) = 2.77902 3.62397 3.22925
# Velocity P-wave (km/s) = 4.60353 6.11402 5.41174
#
# Compressibility (1/GPa) = 0.04486632
#
# Stress axis : x y z
#
# Youngs Moduli (GPa) = 72.04344 91.34978 30.76895
#
# Poissons Ratio (x) = 0.55026 0.01157
# Poissons Ratio (y) = 0.43397 -0.00519
# Poissons Ratio (z) = 0.02708 -0.01542
#
# Static dielectric constant tensor:
#      x y z
#    x 3.506680 0.000000 0.027330 
#    y 0.000000 3.793490 0.000000 
#    z 0.027330 0.000000 3.779580 
# 
# 
# High freq. dielectric constant tensor:
#      x y z
#    x 1.776480 0.000000 -0.000960 
#    y 0.000000 1.808660 0.000000 
#    z -0.000960 0.000000 1.798140 
# 
# From -- ./inp_files/14486.got.cif
#   From: 2010.03.12/outbox.cif.g09.slc.cpg/sg8_8_cif.got.tgz:14486.got - 2010.03.31 10:45:26.
