data_PCOD8053580
_publ_section_title
;
Structure prediction by ZEFSAII (Michael W. Deem and Ramdas Pophale) SiO2 
 PCOD8053580
Probable space group: C M
;
_chemical_formula_sum "Si O2"
_cell_formula_units_Z 32
_cell_length_a 14.732671
_cell_length_b 8.558975
_cell_length_c 12.183782
_cell_angle_alpha 90.000000
_cell_angle_beta 90.530608
_cell_angle_gamma 90.000000
_cell_volume 1536.267152
_symmetry_space_group_name_H-M "C M"
_symmetry_group_IT_number 8
_symmetry_cell_setting 'monoclinic'
loop_
_space_group_symop_operation_xyz
x,y,z
x,-y,z
1/2+x,1/2+y,z
1/2+x,1/2-y,z
loop_
_atom_site_type_symbol
_atom_site_label
_atom_site_fract_x
_atom_site_fract_y
_atom_site_fract_z
Si Si1 0.105630 0.817971 0.027220
Si Si2 0.957642 0.684081 0.882322
Si Si3 0.812198 0.319373 0.050120
Si Si4 0.586945 0.177804 0.249261
Si Si5 0.273195 0.178129 0.281749
Si Si6 0.274154 0.822198 0.523586
Si Si7 0.933052 0.819826 0.644938
Si Si8 0.579069 0.181989 0.488870
O O1 0.209728 0.757300 0.030158
O O2 0.058204 0.783420 0.145038
O O3 0.097933 0.000000 0.000938
O O4 0.057011 0.720843 0.930980
O O5 0.947668 0.500000 0.861360
O O6 0.943538 0.776843 0.771046
O O7 0.884352 0.756736 0.967925
O O8 0.813708 0.500000 0.021484
O O9 0.841036 0.291023 0.179051
O O10 0.694034 0.195451 0.272412
O O11 0.542084 0.227031 0.365796
O O12 0.562928 0.000000 0.218399
O O13 0.318781 0.195747 0.401772
O O14 0.233857 0.000000 0.268256
O O15 0.329699 0.713611 0.607296
O O16 0.168459 0.778363 0.522485
O O17 0.282784 0.000000 0.564409
O O18 0.000504 0.715522 0.574149
O O19 0.956533 0.000000 0.627230
O O20 0.604515 0.000000 0.491749
#
# Coordination Sequence:
#
# PCOD8053580 Si02
#       8
#     4   4   4   4   4   4   4   4
#     4  10  20  37  59  85 117 151 187 229 283 346
#     4  11  23  40  59  81 110 148 198 247 290 339
#     4   8  17  35  59  83 111 147 182 221 275 339
#     4   9  17  31  55  87 118 147 183 229 283 343
#     4   8  15  31  56  85 115 146 181 224 281 347
#     4  10  20  37  62  90 120 153 188 234 294 353
#     4  12  26  42  58  81 115 155 202 249 294 348
#     4  10  21  39  62  88 118 153 195 243 294 347
#
# _framework density 20.829709999999999
#
# number of rings (size 3 to 8) (size 9 to 14) (size 15 to 20)
#    0.000    2.250    0.000    3.750    0.000    4.000 
#    0.000   12.500    0.000    0.000    0.000    0.000 
#    0.000    0.000    0.000    0.000    0.000    0.000 
#
# Total GULP energy -198316.793204 kJ/mol
# GULP energy per Si atom -12394.799575 kJ/mol
# Density = 2.078230 g / cm^3
# Si number density = 20.829710 Si / 1000 Ang^3
#
#
#
# Elastic Constant Matrix: (Units=GPa)
#
#
# Indices 1 2 3 4 5 6 
#
# 1 40.4524 10.3800 12.2410 0.0000 1.2994 0.0000
# 2 10.3800 57.6028 20.6795 0.0000 1.1189 0.0000
# 3 12.2410 20.6795 95.9078 0.0000 5.3516 0.0000
# 4 0.0000 0.0000 0.0000 32.6366 0.0000 3.8720
# 5 1.2994 1.1189 5.3516 0.0000 35.0020 0.0000
# 6 0.0000 0.0000 0.0000 3.8720 0.0000 26.6046
#
#
#
# Elastic Compliance Matrix: (Units=1/GPa)
#
#
# Indices 1 2 3 4 5 6 
#
# 1 0.026489 -0.003859 -0.002522 0.000000 -0.000474 0.000000
# 2 -0.003859 0.019379 -0.003691 0.000000 0.000088 0.000000
# 3 -0.002522 -0.003691 0.011632 0.000000 -0.001567 0.000000
# 4 0.000000 0.000000 0.000000 0.031179 0.000000 -0.004538
# 5 -0.000474 0.000088 -0.001567 0.000000 0.028824 0.000000
# 6 0.000000 0.000000 0.000000 -0.004538 0.000000 0.038248
#
#
# Mechanical properties :
#
#
# Convention : Reuss Voigt Hill
#
# Bulk Modulus (GPa) = 26.76936 31.17375 28.97156
# Shear Modulus (GPa) = 26.54682 28.89279 27.71980
#
# Velocity S-wave (km/s) = 3.57384 3.72841 3.65195
# Velocity P-wave (km/s) = 5.46893 5.79079 5.63216
#
# Compressibility (1/GPa) = 0.03735614
#
# Stress axis : x y z
#
# Youngs Moduli (GPa) = 37.75144 51.60252 85.97065
#
# Poissons Ratio (x) = 0.19911 0.21686
# Poissons Ratio (y) = 0.14567 0.31731
# Poissons Ratio (z) = 0.09523 0.19046
#
# Static dielectric constant tensor:
#      x y z
#    x 3.564270 0.000000 -0.097600 
#    y 0.000000 3.571130 0.000000 
#    z -0.097600 0.000000 4.004180 
# 
# 
# High freq. dielectric constant tensor:
#      x y z
#    x 1.794240 0.000000 0.000180 
#    y 0.000000 1.803600 0.000000 
#    z 0.000180 0.000000 1.824660 
# 
# From -- ./inp_files/21565.got.cif
#   From: 2010.03.12/outbox.cif.g09.slc.cpg/sg8_11_cif.got.tgz:21565.got - 2010.03.31 10:45:26.
