data_PCOD8053622
_publ_section_title
;
Structure prediction by ZEFSAII (Michael W. Deem and Ramdas Pophale) SiO2 
 PCOD8053622
Probable space group: C M
;
_chemical_formula_sum "Si O2"
_cell_formula_units_Z 24
_cell_length_a 5.376201
_cell_length_b 18.996825
_cell_length_c 10.083284
_cell_angle_alpha 90.000000
_cell_angle_beta 109.853479
_cell_angle_gamma 90.000000
_cell_volume 968.605558
_symmetry_space_group_name_H-M "C M"
_symmetry_group_IT_number 8
_symmetry_cell_setting 'monoclinic'
loop_
_space_group_symop_operation_xyz
x,y,z
x,-y,z
1/2+x,1/2+y,z
1/2+x,1/2-y,z
loop_
_atom_site_type_symbol
_atom_site_label
_atom_site_fract_x
_atom_site_fract_y
_atom_site_fract_z
Si Si1 0.160960 0.578218 0.579460
Si Si2 0.486084 0.781911 0.628997
Si Si3 0.110584 0.922248 0.867668
Si Si4 0.776839 0.274704 0.938778
Si Si5 0.019681 0.919948 0.140012
Si Si6 0.604031 0.081331 0.268695
O O1 0.042999 0.500000 0.581974
O O2 0.434740 0.588798 0.706319
O O3 0.223177 0.591165 0.436554
O O4 0.951777 0.634376 0.598659
O O5 0.696631 0.752439 0.558755
O O6 0.602597 0.765981 0.795226
O O7 0.318440 0.857581 0.910771
O O8 0.250706 0.000000 0.888579
O O9 0.931841 0.917670 0.969464
O O10 0.560732 0.262826 0.019933
O O11 0.311679 0.883374 0.205453
O O12 0.802437 0.882787 0.196570
O O13 0.048407 0.000000 0.197142
O O14 0.569559 0.000000 0.223351
#
# Coordination Sequence:
#
# PCOD8053622 Si02
#       6
#     4   4   4   4   4   4
#     4  10  20  37  64  98 121 150 210 264 290 345
#     4  10  20  38  57  83 119 166 189 236 308 372
#     4  10  20  37  64  98 121 150 210 264 290 345
#     4  10  20  38  57  83 119 166 189 236 308 372
#     4   9  19  37  57  82 121 161 190 236 309 364
#     4   9  19  37  57  82 121 161 190 236 309 364
#
# _framework density 24.777885999999999
#
# number of rings (size 3 to 8) (size 9 to 14) (size 15 to 20)
#    0.000    2.333    3.333    0.000    0.000    2.667 
#    0.000    8.333    0.000    6.000    0.000    0.000 
#    0.000    0.000    0.000    0.000    0.000    0.000 
#
# Total GULP energy -148660.943629 kJ/mol
# GULP energy per Si atom -12388.411969 kJ/mol
# Density = 2.472149 g / cm^3
# Si number density = 24.777886 Si / 1000 Ang^3
#
#
#
# Elastic Constant Matrix: (Units=GPa)
#
#
# Indices 1 2 3 4 5 6 
#
# 1 166.9322 17.7482 27.8734 0.0000 10.1092 0.0000
# 2 17.7482 105.7211 -3.8856 0.0000 7.0515 0.0000
# 3 27.8734 -3.8856 104.8965 0.0000 -4.8834 0.0000
# 4 0.0000 0.0000 0.0000 4.4248 0.0000 -5.1844
# 5 10.1092 7.0515 -4.8834 0.0000 21.9316 0.0000
# 6 0.0000 0.0000 0.0000 -5.1844 0.0000 20.8165
#
#
#
# Elastic Compliance Matrix: (Units=1/GPa)
#
#
# Indices 1 2 3 4 5 6 
#
# 1 0.006609 -0.000970 -0.001940 0.000000 -0.003167 0.000000
# 2 -0.000970 0.009813 0.000500 0.000000 -0.002597 0.000000
# 3 -0.001940 0.000500 0.010207 0.000000 0.003006 0.000000
# 4 0.000000 0.000000 0.000000 0.319115 0.000000 0.079476
# 5 -0.003167 -0.002597 0.003006 0.000000 0.048560 0.000000
# 6 0.000000 0.000000 0.000000 0.079476 0.000000 0.067832
#
#
# Mechanical properties :
#
#
# Convention : Reuss Voigt Hill
#
# Bulk Modulus (GPa) = 45.84705 51.22464 48.53584
# Shear Modulus (GPa) = 10.54350 31.82217 21.18284
#
# Velocity S-wave (km/s) = 2.06505 3.58760 2.92705
# Velocity P-wave (km/s) = 4.92233 6.15464 5.57265
#
# Compressibility (1/GPa) = 0.02181166
#
# Stress axis : x y z
#
# Youngs Moduli (GPa) = 151.30513 101.90338 97.97141
#
# Poissons Ratio (x) = 0.09881 0.19002
# Poissons Ratio (y) = 0.14671 -0.04901
# Poissons Ratio (z) = 0.29346 -0.05098
#
# Static dielectric constant tensor:
#      x y z
#    x 5.051810 0.000000 -0.218870 
#    y 0.000000 4.566050 0.000000 
#    z -0.218870 0.000000 4.105190 
# 
# 
# High freq. dielectric constant tensor:
#      x y z
#    x 1.975770 0.000000 -0.014340 
#    y 0.000000 1.973630 0.000000 
#    z -0.014340 0.000000 1.949710 
# 
# From -- ./inp_files/18069.got.cif
#   From: 2010.03.12/outbox.cif.g09.slc.cpg/sg8_10_cif.got.tgz:18069.got - 2010.03.31 10:45:26.
