data_PCOD8053379
_publ_section_title
;
Structure prediction by ZEFSAII (Michael W. Deem and Ramdas Pophale) SiO2 
 PCOD8053379
Probable space group: C M
;
_chemical_formula_sum "Si O2"
_cell_formula_units_Z 24
_cell_length_a 26.701687
_cell_length_b 7.726188
_cell_length_c 17.887310
_cell_angle_alpha 90.000000
_cell_angle_beta 160.769966
_cell_angle_gamma 90.000000
_cell_volume 1215.407795
_symmetry_space_group_name_H-M "C M"
_symmetry_group_IT_number 8
_symmetry_cell_setting 'monoclinic'
loop_
_space_group_symop_operation_xyz
x,y,z
x,-y,z
1/2+x,1/2+y,z
1/2+x,1/2-y,z
loop_
_atom_site_type_symbol
_atom_site_label
_atom_site_fract_x
_atom_site_fract_y
_atom_site_fract_z
Si Si1 0.533680 0.000000 0.931921
Si Si2 0.544712 0.699023 0.341132
Si Si3 0.696268 0.805991 0.849434
Si Si4 0.028728 0.000000 0.673172
Si Si5 0.485857 0.809962 0.413833
Si Si6 0.750378 0.306343 0.497502
Si Si7 0.248716 0.500000 0.379395
Si Si8 0.815861 0.000000 0.229356
O O1 0.426231 0.171489 0.773275
O O2 0.624066 0.000000 0.137515
O O3 0.643819 0.000000 0.015287
O O4 0.586363 0.500000 0.412811
O O5 0.575251 0.798943 0.461426
O O6 0.651266 0.772713 0.425751
O O7 0.369872 0.728191 0.072790
O O8 0.635449 0.670319 0.825202
O O9 0.609431 0.773066 0.650407
O O10 0.669608 0.000000 0.843501
O O11 0.920891 0.000000 0.592713
O O12 0.924875 0.000000 0.453823
O O13 0.349633 0.668910 0.225646
O O14 0.412648 0.000000 0.320649
O O15 0.690176 0.500000 0.388994
O O16 0.730354 0.174950 0.400962
#
# Coordination Sequence:
#
# PCOD8053379 Si02
#       8
#     2   4   4   2   4   4   2   2
#     4   9  22  45  62  88 125 163 205 254 303 350
#     4  10  20  38  57  82 121 150 189 247 293 345
#     4   9  20  36  54  84 119 149 185 240 297 353
#     4   9  20  35  59  88 115 149 204 230 292 372
#     4  10  20  34  56  86 115 150 191 233 298 360
#     4   9  23  43  58  90 124 154 217 254 284 373
#     4  11  22  43  66  86 123 169 201 254 307 346
#     4   9  18  39  57  82 123 153 184 250 292 350
#
# _framework density 19.746459000000002
#
# number of rings (size 3 to 8) (size 9 to 14) (size 15 to 20)
#    0.500    2.000    0.833    0.000    2.333    3.333 
#    3.000    1.667    0.000    0.000    0.000    0.000 
#    0.000    0.000    0.000    0.000    0.000    0.000 
#
# Total GULP energy -148741.701701 kJ/mol
# GULP energy per Si atom -12395.141808 kJ/mol
# Density = 1.970152 g / cm^3
# Si number density = 19.746459 Si / 1000 Ang^3
#
#
#
# Elastic Constant Matrix: (Units=GPa)
#
#
# Indices 1 2 3 4 5 6 
#
# 1 103.4229 49.2005 20.7466 0.0000 24.3213 0.0000
# 2 49.2005 100.0806 28.1056 0.0000 6.5857 0.0000
# 3 20.7466 28.1056 62.6291 0.0000 18.1949 0.0000
# 4 0.0000 0.0000 0.0000 24.9374 0.0000 1.4382
# 5 24.3213 6.5857 18.1949 0.0000 38.3751 0.0000
# 6 0.0000 0.0000 0.0000 1.4382 0.0000 29.7808
#
#
#
# Elastic Compliance Matrix: (Units=1/GPa)
#
#
# Indices 1 2 3 4 5 6 
#
# 1 0.014832 -0.006918 0.000670 0.000000 -0.008530 0.000000
# 2 -0.006918 0.014670 -0.005606 0.000000 0.004525 0.000000
# 3 0.000670 -0.005606 0.020997 0.000000 -0.009418 0.000000
# 4 0.000000 0.000000 0.000000 0.040212 0.000000 -0.001942
# 5 -0.008530 0.004525 -0.009418 0.000000 0.035154 0.000000
# 6 0.000000 0.000000 0.000000 -0.001942 0.000000 0.033672
#
#
# Mechanical properties :
#
#
# Convention : Reuss Voigt Hill
#
# Bulk Modulus (GPa) = 37.32849 51.35977 44.34413
# Shear Modulus (GPa) = 26.01781 29.82397 27.92089
#
# Velocity S-wave (km/s) = 3.63381 3.89053 3.76436
# Velocity P-wave (km/s) = 6.04574 6.80057 6.43423
#
# Compressibility (1/GPa) = 0.02678919
#
# Stress axis : x y z
#
# Youngs Moduli (GPa) = 67.42226 68.16824 47.62588
#
# Poissons Ratio (x) = 0.47160 -0.03189
# Poissons Ratio (y) = 0.46644 0.26699
# Poissons Ratio (z) = -0.04515 0.38216
#
# Static dielectric constant tensor:
#      x y z
#    x 3.603800 0.000000 0.159580 
#    y 0.000000 3.711870 0.000000 
#    z 0.159580 0.000000 3.552540 
# 
# 
# High freq. dielectric constant tensor:
#      x y z
#    x 1.769490 0.000000 0.000230 
#    y 0.000000 1.770710 0.000000 
#    z 0.000230 0.000000 1.760750 
# 
# From -- ./inp_files/30092.got.cif
#   From: 2010.03.12/outbox.cif.g09.slc.cpg/sg8_16_cif.got.tgz:30092.got - 2010.03.31 10:45:26.
