data_PCOD8053827
_publ_section_title
;
Structure prediction by ZEFSAII (Michael W. Deem and Ramdas Pophale) SiO2 
 PCOD8053827
Probable space group: C M
;
_chemical_formula_sum "Si O2"
_cell_formula_units_Z 28
_cell_length_a 26.408755
_cell_length_b 8.305214
_cell_length_c 4.812903
_cell_angle_alpha 90.000000
_cell_angle_beta 95.293824
_cell_angle_gamma 90.000000
_cell_volume 1051.113185
_symmetry_space_group_name_H-M "C M"
_symmetry_group_IT_number 8
_symmetry_cell_setting 'monoclinic'
loop_
_space_group_symop_operation_xyz
x,y,z
x,-y,z
1/2+x,1/2+y,z
1/2+x,1/2-y,z
loop_
_atom_site_type_symbol
_atom_site_label
_atom_site_fract_x
_atom_site_fract_y
_atom_site_fract_z
Si Si1 0.360000 0.314394 0.477120
Si Si2 0.682376 0.320038 0.954132
Si Si3 0.429321 0.823598 0.951777
Si Si4 0.049067 0.324767 0.958876
Si Si5 0.793420 0.819559 0.963037
Si Si6 0.615552 0.314133 0.442231
Si Si7 0.027101 0.000000 0.739226
Si Si8 0.953390 0.000000 0.211344
O O1 0.381638 0.500000 0.455139
O O2 0.403861 0.205399 0.638116
O O3 0.311293 0.314124 0.656259
O O4 0.336618 0.234695 0.181318
O O5 0.684112 0.500000 0.833060
O O6 0.738400 0.253566 0.963367
O O7 0.640559 0.231376 0.733525
O O8 0.663656 0.315891 0.258917
O O9 0.488992 0.827121 0.941751
O O10 0.418742 0.666152 0.150376
O O11 0.412243 0.000000 0.060592
O O12 0.067712 0.500000 0.857053
O O13 0.061285 0.169519 0.755129
O O14 0.071593 0.294044 0.277306
O O15 0.789949 0.000000 0.079223
O O16 0.593326 0.500000 0.464735
O O17 0.001479 0.000000 0.030213
O O18 0.978412 0.000000 0.523219
#
# Coordination Sequence:
#
# PCOD8053827 Si02
#       8
#     4   4   4   4   4   4   2   2
#     4  10  21  39  61  89 123 165 208 255 314 379
#     4  10  22  39  62  89 122 160 207 259 316 379
#     4  10  22  41  65  96 130 170 219 262 314 380
#     4  10  22  41  65  96 130 170 219 262 314 380
#     4  10  22  39  62  89 122 160 207 259 316 379
#     4  10  21  39  61  89 123 165 208 255 314 379
#     4  10  22  40  62  86 124 168 204 258 314 360
#     4  10  22  40  62  86 124 168 204 258 314 360
#
# _framework density 26.638425999999999
#
# number of rings (size 3 to 8) (size 9 to 14) (size 15 to 20)
#    0.000    2.000    1.429    0.857    0.000    7.429 
#    0.000    5.714    0.000    0.000    0.000    0.000 
#    0.000    0.000    0.000    0.000    0.000    0.000 
#
# Total GULP energy -173583.670872 kJ/mol
# GULP energy per Si atom -12398.833634 kJ/mol
# Density = 2.657780 g / cm^3
# Si number density = 26.638426 Si / 1000 Ang^3
#
#
#
# Elastic Constant Matrix: (Units=GPa)
#
#
# Indices 1 2 3 4 5 6 
#
# 1 124.8325 54.5035 36.6331 0.0000 30.7228 0.0000
# 2 54.5035 203.4476 55.8920 0.0000 2.0672 0.0000
# 3 36.6331 55.8920 144.4129 0.0000 19.9252 0.0000
# 4 0.0000 0.0000 0.0000 31.0338 0.0000 -0.2572
# 5 30.7228 2.0672 19.9252 0.0000 52.6183 0.0000
# 6 0.0000 0.0000 0.0000 -0.2572 0.0000 49.5069
#
#
#
# Elastic Compliance Matrix: (Units=1/GPa)
#
#
# Indices 1 2 3 4 5 6 
#
# 1 0.010868 -0.002593 -0.000941 0.000000 -0.005887 0.000000
# 2 -0.002593 0.006138 -0.001998 0.000000 0.002030 0.000000
# 3 -0.000941 -0.001998 0.008283 0.000000 -0.002509 0.000000
# 4 0.000000 0.000000 0.000000 0.032224 0.000000 0.000167
# 5 -0.005887 0.002030 -0.002509 0.000000 0.023313 0.000000
# 6 0.000000 0.000000 0.000000 0.000167 0.000000 0.020200
#
#
# Mechanical properties :
#
#
# Convention : Reuss Voigt Hill
#
# Bulk Modulus (GPa) = 70.29938 85.19446 77.74692
# Shear Modulus (GPa) = 42.79667 48.34278 45.56972
#
# Velocity S-wave (km/s) = 4.01256 4.26464 4.14052
# Velocity P-wave (km/s) = 6.92207 7.50338 7.21858
#
# Compressibility (1/GPa) = 0.01422488
#
# Stress axis : x y z
#
# Youngs Moduli (GPa) = 92.01259 162.91320 120.73469
#
# Poissons Ratio (x) = 0.42247 0.11360
# Poissons Ratio (y) = 0.23861 0.24121
# Poissons Ratio (z) = 0.08658 0.32548
#
# Static dielectric constant tensor:
#      x y z
#    x 5.012820 0.000000 -0.192830 
#    y 0.000000 6.730270 0.000000 
#    z -0.192830 0.000000 5.322540 
# 
# 
# High freq. dielectric constant tensor:
#      x y z
#    x 2.115700 0.000000 -0.006740 
#    y 0.000000 2.055150 0.000000 
#    z -0.006740 0.000000 2.084660 
# 
# From -- ./inp_files/6381.got.cif
#   From: 2010.03.12/outbox.cif.g09.slc.cpg/sg8_4_cif.got.tgz:6381.got - 2010.03.31 10:45:26.
