data_PCOD8053681
_publ_section_title
;
Structure prediction by ZEFSAII (Michael W. Deem and Ramdas Pophale) SiO2 
 PCOD8053681
Probable space group: C M
;
_chemical_formula_sum "Si O2"
_cell_formula_units_Z 32
_cell_length_a 13.859609
_cell_length_b 18.552297
_cell_length_c 10.788463
_cell_angle_alpha 90.000000
_cell_angle_beta 147.105062
_cell_angle_gamma 90.000000
_cell_volume 1506.566342
_symmetry_space_group_name_H-M "C M"
_symmetry_group_IT_number 8
_symmetry_cell_setting 'monoclinic'
loop_
_space_group_symop_operation_xyz
x,y,z
x,-y,z
1/2+x,1/2+y,z
1/2+x,1/2-y,z
loop_
_atom_site_type_symbol
_atom_site_label
_atom_site_fract_x
_atom_site_fract_y
_atom_site_fract_z
Si Si1 0.667000 0.419649 0.295480
Si Si2 0.522272 0.079541 0.788306
Si Si3 0.154949 0.318814 0.523488
Si Si4 0.482192 0.684597 0.255175
Si Si5 0.336345 0.582651 0.297381
Si Si6 0.132014 0.715801 0.774948
Si Si7 0.808838 0.415062 0.179609
Si Si8 0.460154 0.644277 0.680210
O O1 0.588722 0.500000 0.194870
O O2 0.807419 0.417149 0.563443
O O3 0.509915 0.365900 0.164162
O O4 0.757500 0.394586 0.265047
O O5 0.570570 0.134659 0.733268
O O6 0.577470 0.000000 0.799673
O O7 0.629095 0.095954 0.031553
O O8 0.183888 0.283802 0.688311
O O9 0.333197 0.356421 0.664224
O O10 0.131180 0.245857 0.418157
O O11 0.988242 0.373092 0.336252
O O12 0.468159 0.634377 0.362138
O O13 0.302519 0.730335 0.044378
O O14 0.390498 0.500000 0.329986
O O15 0.356496 0.598817 0.464004
O O16 0.986537 0.775181 0.655068
O O17 0.844766 0.500000 0.203379
O O18 0.647466 0.392408 0.915181
#
# Coordination Sequence:
#
# PCOD8053681 Si02
#       8
#     4   4   4   4   4   4   4   4
#     4  10  20  39  67  98 132 170 219 278 326 378
#     4   9  19  38  66  93 127 168 213 275 323 373
#     4  12  25  42  69  98 131 176 221 268 331 395
#     4  11  22  40  65  99 130 172 225 270 326 389
#     4  10  22  42  65  93 132 175 218 268 329 392
#     4  11  22  42  63  97 132 170 222 274 327 381
#     4  11  25  46  69  98 135 173 220 272 325 392
#     4  12  25  45  66  96 139 176 216 269 329 398
#
# _framework density 21.240351
#
# number of rings (size 3 to 8) (size 9 to 14) (size 15 to 20)
#    0.000    1.250    3.750    2.250    0.000    1.500 
#    9.000    0.000    0.000    0.000    0.000    0.000 
#    0.000    0.000    0.000    0.000    0.000    0.000 
#
# Total GULP energy -198298.821061 kJ/mol
# GULP energy per Si atom -12393.676316 kJ/mol
# Density = 2.119201 g / cm^3
# Si number density = 21.240351 Si / 1000 Ang^3
#
#
#
# Elastic Constant Matrix: (Units=GPa)
#
#
# Indices 1 2 3 4 5 6 
#
# 1 96.9318 33.4401 19.3928 0.0000 0.9040 0.0000
# 2 33.4401 97.1347 24.7201 0.0000 -1.0260 0.0000
# 3 19.3928 24.7201 73.3377 0.0000 -8.7272 0.0000
# 4 0.0000 0.0000 0.0000 28.7792 0.0000 -0.7671
# 5 0.9040 -1.0260 -8.7272 0.0000 28.4990 0.0000
# 6 0.0000 0.0000 0.0000 -0.7671 0.0000 32.6653
#
#
#
# Elastic Compliance Matrix: (Units=1/GPa)
#
#
# Indices 1 2 3 4 5 6 
#
# 1 0.011990 -0.003608 -0.002091 0.000000 -0.001151 0.000000
# 2 -0.003608 0.012363 -0.003266 0.000000 -0.000441 0.000000
# 3 -0.002091 -0.003266 0.015861 0.000000 0.004806 0.000000
# 4 0.000000 0.000000 0.000000 0.034769 0.000000 0.000816
# 5 -0.001151 -0.000441 0.004806 0.000000 0.036581 0.000000
# 6 0.000000 0.000000 0.000000 0.000816 0.000000 0.030633
#
#
# Mechanical properties :
#
#
# Convention : Reuss Voigt Hill
#
# Bulk Modulus (GPa) = 44.87312 46.94559 45.90936
# Shear Modulus (GPa) = 29.84065 30.64544 30.24305
#
# Velocity S-wave (km/s) = 3.75227 3.80253 3.77749
# Velocity P-wave (km/s) = 6.32020 6.43654 6.37864
#
# Compressibility (1/GPa) = 0.02228506
#
# Stress axis : x y z
#
# Youngs Moduli (GPa) = 83.40061 80.88340 63.04639
#
# Poissons Ratio (x) = 0.29181 0.13186
# Poissons Ratio (y) = 0.30089 0.20590
# Poissons Ratio (z) = 0.17443 0.26415
#
# Static dielectric constant tensor:
#      x y z
#    x 3.460750 0.000000 -0.038160 
#    y 0.000000 3.942610 0.000000 
#    z -0.038160 0.000000 4.017550 
# 
# 
# High freq. dielectric constant tensor:
#      x y z
#    x 1.803760 0.000000 -0.004070 
#    y 0.000000 1.848260 0.000000 
#    z -0.004070 0.000000 1.840580 
# 
# From -- ./inp_files/22386.got.cif
#   From: 2010.03.12/outbox.cif.g09.slc.cpg/sg8_12_cif.got.tgz:22386.got - 2010.03.31 10:45:26.
