data_PCOD8053715
_publ_section_title
;
Structure prediction by ZEFSAII (Michael W. Deem and Ramdas Pophale) SiO2 
 PCOD8053715
Probable space group: C M
;
_chemical_formula_sum "Si O2"
_cell_formula_units_Z 32
_cell_length_a 14.283259
_cell_length_b 9.069948
_cell_length_c 28.298871
_cell_angle_alpha 90.000000
_cell_angle_beta 151.063100
_cell_angle_gamma 90.000000
_cell_volume 1773.815590
_symmetry_space_group_name_H-M "C M"
_symmetry_group_IT_number 8
_symmetry_cell_setting 'monoclinic'
loop_
_space_group_symop_operation_xyz
x,y,z
x,-y,z
1/2+x,1/2+y,z
1/2+x,1/2-y,z
loop_
_atom_site_type_symbol
_atom_site_label
_atom_site_fract_x
_atom_site_fract_y
_atom_site_fract_z
Si Si1 0.319120 0.327184 0.117310
Si Si2 0.574479 0.328093 0.142054
Si Si3 0.204574 0.834998 0.672090
Si Si4 0.440915 0.673292 0.979262
Si Si5 0.447795 0.328715 0.277726
Si Si6 0.333567 0.173733 0.499152
Si Si7 0.424247 0.335793 0.626070
Si Si8 0.544165 0.674705 0.781494
O O1 0.269739 0.500000 0.091372
O O2 0.446910 0.271693 0.129688
O O3 0.435736 0.291737 0.216849
O O4 0.121171 0.235640 0.029308
O O5 0.614392 0.500000 0.164305
O O6 0.782375 0.251071 0.234810
O O7 0.463072 0.289491 0.044474
O O8 0.402358 0.742122 0.758231
O O9 0.029114 0.753130 0.566026
O O10 0.140612 0.842128 0.698831
O O11 0.236017 0.000000 0.665536
O O12 0.423579 0.500000 0.962545
O O13 0.252670 0.753951 0.877241
O O14 0.419509 0.500000 0.275033
O O15 0.656477 0.275306 0.388114
O O16 0.292929 0.227313 0.535558
O O17 0.365987 0.000000 0.512355
O O18 0.332026 0.500000 0.584771
O O19 0.445782 0.277570 0.688587
O O20 0.562601 0.500000 0.795248
#
# Coordination Sequence:
#
# PCOD8053715 Si02
#       8
#     4   4   4   4   4   4   4   4
#     4   9  18  36  56  76 102 138 175 210 254 311
#     4   9  19  35  55  77 104 137 174 211 255 311
#     4   9  19  36  53  74 104 139 175 217 257 302
#     4  10  21  35  52  78 107 135 169 217 264 308
#     4   9  18  33  54  78 107 136 171 214 256 304
#     4   9  17  33  54  77 108 141 172 216 264 304
#     4   8  19  36  52  72 102 137 175 215 257 307
#     4  11  21  36  56  78 102 139 179 216 263 313
#
# _framework density 18.040206999999999
#
# number of rings (size 3 to 8) (size 9 to 14) (size 15 to 20)
#    0.750    2.000    0.000    1.125    0.000    4.000 
#    2.250    5.000    0.000    0.000    0.000    0.000 
#    0.000    0.000    0.000    0.000    0.000    0.000 
#
# Total GULP energy -198315.941315 kJ/mol
# GULP energy per Si atom -12394.746332 kJ/mol
# Density = 1.799915 g / cm^3
# Si number density = 18.040207 Si / 1000 Ang^3
#
#
#
# Elastic Constant Matrix: (Units=GPa)
#
#
# Indices 1 2 3 4 5 6 
#
# 1 83.7593 27.9460 16.3781 -0.0001 8.3200 0.0000
# 2 27.9460 77.8749 41.4828 -0.0001 6.9834 0.0000
# 3 16.3781 41.4828 76.3817 -0.0002 10.0498 0.0000
# 4 -0.0001 -0.0001 -0.0002 31.1642 -0.0001 5.2724
# 5 8.3200 6.9834 10.0498 -0.0001 21.4849 0.0000
# 6 0.0000 0.0000 0.0000 5.2724 0.0000 28.3265
#
#
#
# Elastic Compliance Matrix: (Units=1/GPa)
#
#
# Indices 1 2 3 4 5 6 
#
# 1 0.013868 -0.004666 0.000072 0.000000 -0.003887 0.000000
# 2 -0.004666 0.019676 -0.009677 0.000000 -0.000062 0.000000
# 3 0.000072 -0.009677 0.019098 0.000000 -0.005816 0.000000
# 4 0.000000 0.000000 0.000000 0.033131 0.000000 -0.006167
# 5 -0.003887 -0.000062 -0.005816 0.000000 0.050790 0.000000
# 6 0.000000 0.000000 0.000000 -0.006167 0.000000 0.036450
#
#
# Mechanical properties :
#
#
# Convention : Reuss Voigt Hill
#
# Bulk Modulus (GPa) = 41.49646 45.51441 43.50543
# Shear Modulus (GPa) = 23.85610 26.34239 25.09924
#
# Velocity S-wave (km/s) = 3.64041 3.82541 3.73405
# Velocity P-wave (km/s) = 6.38140 6.69297 6.53904
#
# Compressibility (1/GPa) = 0.02409844
#
# Stress axis : x y z
#
# Youngs Moduli (GPa) = 72.10868 50.82272 52.36256
#
# Poissons Ratio (x) = 0.23716 -0.00378
# Poissons Ratio (y) = 0.33649 0.50673
# Poissons Ratio (z) = -0.00521 0.49183
#
# Static dielectric constant tensor:
#      x y z
#    x 3.270660 0.000000 -0.018720 
#    y 0.000000 3.325730 0.000000 
#    z -0.018720 0.000000 3.231810 
# 
# 
# High freq. dielectric constant tensor:
#      x y z
#    x 1.688310 0.000000 0.002940 
#    y 0.000000 1.704320 0.000000 
#    z 0.002940 0.000000 1.688010 
# 
# From -- ./inp_files/26414.got.cif
#   From: 2010.03.12/outbox.cif.g09.slc.cpg/sg8_14_cif.got.tgz:26414.got - 2010.03.31 10:45:26.
