data_PCOD8053026
_publ_section_title
;
Structure prediction by ZEFSAII (Michael W. Deem and Ramdas Pophale) SiO2 
 PCOD8053026
Probable space group: C M
;
_chemical_formula_sum "Si O2"
_cell_formula_units_Z 24
_cell_length_a 12.059179
_cell_length_b 14.826980
_cell_length_c 8.315494
_cell_angle_alpha 90.000000
_cell_angle_beta 37.296403
_cell_angle_gamma 90.000000
_cell_volume 900.921635
_symmetry_space_group_name_H-M "C M"
_symmetry_group_IT_number 8
_symmetry_cell_setting 'monoclinic'
loop_
_space_group_symop_operation_xyz
x,y,z
x,-y,z
1/2+x,1/2+y,z
1/2+x,1/2-y,z
loop_
_atom_site_type_symbol
_atom_site_label
_atom_site_fract_x
_atom_site_fract_y
_atom_site_fract_z
Si Si1 0.523190 0.000000 0.616071
Si Si2 0.668863 0.500000 0.618517
Si Si3 0.271706 0.827456 0.305552
Si Si4 0.622019 0.500000 0.033322
Si Si5 0.749535 0.000000 0.040350
Si Si6 0.739560 0.191890 0.891367
Si Si7 0.492224 0.322847 0.330203
Si Si8 0.043442 0.689911 0.728463
O O1 0.309837 0.000000 0.916031
O O2 0.599152 0.091134 0.604530
O O3 0.586687 0.000000 0.357237
O O4 0.759174 0.416013 0.426677
O O5 0.717531 0.500000 0.748743
O O6 0.449888 0.500000 0.884731
O O7 0.124487 0.834770 0.331676
O O8 0.230612 0.744096 0.473393
O O9 0.475054 0.815455 0.993549
O O10 0.501090 0.412165 0.210170
O O11 0.736225 0.910839 0.949665
O O12 0.788284 0.190121 0.643322
O O13 0.884625 0.258074 0.812329
O O14 0.543340 0.235789 0.162461
#
# Coordination Sequence:
#
# PCOD8053026 Si02
#       8
#     2   2   4   2   2   4   4   4
#     4  12  21  35  62  92 121 151 208 254 283 349
#     4  12  24  38  59  91 128 160 189 245 314 360
#     4  10  19  37  61  90 115 156 207 246 289 355
#     4  12  24  38  59  91 128 160 189 245 314 360
#     4  12  21  35  62  92 121 151 208 254 283 349
#     4  10  19  32  63  90 114 146 210 252 287 331
#     4  10  19  37  61  90 115 156 207 246 289 355
#     4  10  19  32  63  90 114 146 210 252 287 331
#
# _framework density 26.639386999999999
#
# number of rings (size 3 to 8) (size 9 to 14) (size 15 to 20)
#    0.000    1.333    6.667    4.500    0.000    0.000 
#    0.000    1.667    0.000    2.000    0.000    0.000 
#    0.000    0.000    0.000    0.000    0.000    0.000 
#
# Total GULP energy -148806.798895 kJ/mol
# GULP energy per Si atom -12400.566575 kJ/mol
# Density = 2.657875 g / cm^3
# Si number density = 26.639387 Si / 1000 Ang^3
#
#
#
# Elastic Constant Matrix: (Units=GPa)
#
#
# Indices 1 2 3 4 5 6 
#
# 1 45.0702 26.8746 51.6765 -0.0005 7.6048 -0.0030
# 2 26.8746 263.8911 108.6355 -0.0011 26.0348 -0.0021
# 3 51.6765 108.6355 271.8360 -0.0012 9.4992 -0.0023
# 4 -0.0005 -0.0011 -0.0012 60.4525 0.0004 19.7228
# 5 7.6048 26.0348 9.4992 0.0004 70.4318 0.0023
# 6 -0.0030 -0.0021 -0.0023 19.7228 0.0023 16.1896
#
#
#
# Elastic Compliance Matrix: (Units=1/GPa)
#
#
# Indices 1 2 3 4 5 6 
#
# 1 0.028838 -0.000592 -0.005169 -0.000002 -0.002198 0.000008
# 2 -0.000592 0.004698 -0.001714 0.000000 -0.001441 0.000001
# 3 -0.005169 -0.001714 0.005330 0.000000 0.000473 -0.000001
# 4 -0.000002 0.000000 0.000000 0.027453 0.000001 -0.033445
# 5 -0.002198 -0.001441 0.000473 0.000001 0.014904 -0.000004
# 6 0.000008 0.000001 -0.000001 -0.033445 -0.000004 0.102512
#
#
# Mechanical properties :
#
#
# Convention : Reuss Voigt Hill
#
# Bulk Modulus (GPa) = 41.81508 106.13006 73.97257
# Shear Modulus (GPa) = 24.19464 55.65550 39.92507
#
# Velocity S-wave (km/s) = 3.01695 4.57576 3.87553
# Velocity P-wave (km/s) = 5.27890 8.23667 6.91771
#
# Compressibility (1/GPa) = 0.02391481
#
# Stress axis : x y z
#
# Youngs Moduli (GPa) = 34.67664 212.86886 187.62149
#
# Poissons Ratio (x) = 0.12607 0.96975
# Poissons Ratio (y) = 0.02054 0.32166
# Poissons Ratio (z) = 0.17923 0.36495
#
# Static dielectric constant tensor:
#      x y z
#    x 4.697580 0.000000 -0.123160 
#    y 0.000000 4.816130 0.000000 
#    z -0.123160 0.000000 5.923680 
# 
# 
# High freq. dielectric constant tensor:
#      x y z
#    x 2.096740 0.000000 -0.007160 
#    y 0.000000 2.072970 0.000000 
#    z -0.007160 0.000000 2.114800 
# 
# From -- ./inp_files/13216.got.cif
#   From: 2010.03.12/outbox.cif.g09.slc.cpg/sg8_7_cif.got.tgz:13216.got - 2010.03.31 10:45:26.
