data_PCOD8053589
_publ_section_title
;
Structure prediction by ZEFSAII (Michael W. Deem and Ramdas Pophale) SiO2 
 PCOD8053589
Probable space group: C M
;
_chemical_formula_sum "Si O2"
_cell_formula_units_Z 32
_cell_length_a 15.436963
_cell_length_b 8.970470
_cell_length_c 22.697267
_cell_angle_alpha 90.000000
_cell_angle_beta 31.762151
_cell_angle_gamma 90.000000
_cell_volume 1654.480926
_symmetry_space_group_name_H-M "C M"
_symmetry_group_IT_number 8
_symmetry_cell_setting 'monoclinic'
loop_
_space_group_symop_operation_xyz
x,y,z
x,-y,z
1/2+x,1/2+y,z
1/2+x,1/2-y,z
loop_
_atom_site_type_symbol
_atom_site_label
_atom_site_fract_x
_atom_site_fract_y
_atom_site_fract_z
Si Si1 0.117850 0.822925 0.334940
Si Si2 0.449292 0.827684 0.204770
Si Si3 0.479424 0.329241 0.724871
Si Si4 0.299705 0.676154 0.585905
Si Si5 0.148668 0.669690 0.976573
Si Si6 0.260441 0.324734 0.741726
Si Si7 0.141616 0.823639 0.187840
Si Si8 0.475656 0.675816 0.973129
O O1 0.281578 0.766482 0.272973
O O2 0.119314 0.764499 0.267214
O O3 0.958263 0.757549 0.460539
O O4 0.115069 0.000000 0.336505
O O5 0.482241 0.728694 0.243340
O O6 0.431633 0.000000 0.233407
O O7 0.601030 0.805583 0.071741
O O8 0.536343 0.500000 0.691602
O O9 0.635925 0.229731 0.648220
O O10 0.342314 0.300734 0.854775
O O11 0.405446 0.283535 0.703868
O O12 0.300048 0.500000 0.582030
O O13 0.311435 0.728001 0.647029
O O14 0.105122 0.500000 0.981876
O O15 0.042237 0.781467 0.998953
O O16 0.222845 0.500000 0.766667
O O17 0.094758 0.237816 0.853662
O O18 0.161703 0.000000 0.173842
O O19 0.297398 0.746845 0.067193
O O20 0.461917 0.500000 0.974669
#
# Coordination Sequence:
#
# PCOD8053589 Si02
#       8
#     4   4   4   4   4   4   4   4
#     4   9  20  40  61  80 114 155 190 234 289 341
#     4  10  20  37  60  86 113 151 193 236 287 342
#     4   9  19  35  55  83 117 150 182 229 292 340
#     4  10  21  38  61  85 109 150 201 235 273 340
#     4   9  18  36  59  82 117 155 185 230 295 345
#     4   9  20  38  57  81 115 153 189 231 288 343
#     4  11  22  38  58  84 117 154 190 234 293 342
#     4  11  21  34  57  87 118 150 192 237 283 341
#
# _framework density 19.341414
#
# number of rings (size 3 to 8) (size 9 to 14) (size 15 to 20)
#    0.000    2.250    1.250    2.250    1.750    4.000 
#    0.000    3.125    0.000    0.000    0.000    0.000 
#    0.000    0.000    0.000    0.000    0.000    0.000 
#
# Total GULP energy -198419.822684 kJ/mol
# GULP energy per Si atom -12401.238918 kJ/mol
# Density = 1.929739 g / cm^3
# Si number density = 19.341414 Si / 1000 Ang^3
#
#
#
# Elastic Constant Matrix: (Units=GPa)
#
#
# Indices 1 2 3 4 5 6 
#
# 1 142.6422 40.0108 80.7394 0.0000 -1.0907 0.0000
# 2 40.0108 58.8422 38.8766 -0.0002 3.3348 0.0000
# 3 80.7394 38.8766 139.1991 -0.0005 -0.6706 0.0001
# 4 0.0000 -0.0002 -0.0005 19.2071 0.0000 -8.5636
# 5 -1.0907 3.3348 -0.6706 0.0000 23.8715 0.0000
# 6 0.0000 0.0000 0.0001 -8.5636 0.0000 32.3801
#
#
#
# Elastic Compliance Matrix: (Units=1/GPa)
#
#
# Indices 1 2 3 4 5 6 
#
# 1 0.011199 -0.004144 -0.005334 0.000000 0.000941 0.000000
# 2 -0.004144 0.022602 -0.003925 0.000000 -0.003457 0.000000
# 3 -0.005334 -0.003925 0.011377 0.000000 0.000624 0.000000
# 4 0.000000 0.000000 0.000000 0.059024 0.000000 0.015610
# 5 0.000941 -0.003457 0.000624 0.000000 0.042434 0.000000
# 6 0.000000 0.000000 0.000000 0.015610 0.000000 0.035012
#
#
# Mechanical properties :
#
#
# Convention : Reuss Voigt Hill
#
# Bulk Modulus (GPa) = 54.43294 73.32637 63.87965
# Shear Modulus (GPa) = 23.30140 27.16219 25.23180
#
# Velocity S-wave (km/s) = 3.47470 3.75154 3.61577
# Velocity P-wave (km/s) = 6.65600 7.53387 7.10850
#
# Compressibility (1/GPa) = 0.01837123
#
# Stress axis : x y z
#
# Youngs Moduli (GPa) = 89.29045 44.24386 87.89621
#
# Poissons Ratio (x) = 0.18337 0.46883
# Poissons Ratio (y) = 0.37006 0.34501
# Poissons Ratio (z) = 0.47627 0.17367
#
# Static dielectric constant tensor:
#      x y z
#    x 3.556990 0.000000 0.105710 
#    y 0.000000 3.261140 0.000000 
#    z 0.105710 0.000000 3.703210 
# 
# 
# High freq. dielectric constant tensor:
#      x y z
#    x 1.757210 0.000000 0.000860 
#    y 0.000000 1.729900 0.000000 
#    z 0.000860 0.000000 1.752330 
# 
# From -- ./inp_files/21513.got.cif
#   From: 2010.03.12/outbox.cif.g09.slc.cpg/sg8_11_cif.got.tgz:21513.got - 2010.03.31 10:45:26.
