data_PCOD8053628
_publ_section_title
;
Structure prediction by ZEFSAII (Michael W. Deem and Ramdas Pophale) SiO2 
 PCOD8053628
Probable space group: C M
;
_chemical_formula_sum "Si O2"
_cell_formula_units_Z 32
_cell_length_a 14.471927
_cell_length_b 8.622550
_cell_length_c 14.285596
_cell_angle_alpha 90.000000
_cell_angle_beta 75.385575
_cell_angle_gamma 90.000000
_cell_volume 1724.951187
_symmetry_space_group_name_H-M "C M"
_symmetry_group_IT_number 8
_symmetry_cell_setting 'monoclinic'
loop_
_space_group_symop_operation_xyz
x,y,z
x,-y,z
1/2+x,1/2+y,z
1/2+x,1/2-y,z
loop_
_atom_site_type_symbol
_atom_site_label
_atom_site_fract_x
_atom_site_fract_y
_atom_site_fract_z
Si Si1 0.524200 0.683015 0.189300
Si Si2 0.160549 0.326692 0.667846
Si Si3 0.321824 0.183121 0.183077
Si Si4 0.739341 0.317842 0.818927
Si Si5 0.866418 0.173026 0.649206
Si Si6 0.562126 0.320127 0.524836
Si Si7 0.208836 0.183176 0.033533
Si Si8 0.140608 0.319069 0.322016
O O1 0.525821 0.500000 0.204817
O O2 0.420102 0.733909 0.183200
O O3 0.602533 0.734968 0.092018
O O4 0.553017 0.761902 0.279906
O O5 0.115973 0.500000 0.674441
O O6 0.157091 0.263247 0.776094
O O7 0.272071 0.330791 0.608052
O O8 0.107938 0.206841 0.614528
O O9 0.287475 0.240341 0.088918
O O10 0.238811 0.228645 0.276880
O O11 0.337573 0.000000 0.183338
O O12 0.722148 0.500000 0.823591
O O13 0.843749 0.277404 0.747630
O O14 0.732355 0.247308 0.925407
O O15 0.952459 0.236538 0.563688
O O16 0.892860 0.000000 0.677867
O O17 0.570766 0.500000 0.493788
O O18 0.612738 0.212792 0.436080
O O19 0.213831 0.000000 0.027939
O O20 0.158215 0.500000 0.302190
#
# Coordination Sequence:
#
# PCOD8053628 Si02
#       8
#     4   4   4   4   4   4   4   4
#     4  10  20  38  59  83 113 145 184 229 277 330
#     4   9  19  36  52  76 109 142 182 227 269 318
#     4  10  20  38  59  83 113 145 185 228 275 332
#     4   9  16  33  57  79 109 148 183 223 273 319
#     4   8  19  36  52  74 108 141 178 225 270 315
#     4  11  21  37  58  80 107 145 185 225 276 328
#     4   8  17  34  56  80 112 146 181 226 273 324
#     4  11  23  38  57  83 113 144 182 229 281 332
#
# _framework density 18.551248000000001
#
# number of rings (size 3 to 8) (size 9 to 14) (size 15 to 20)
#    0.750    1.750    0.000    3.375    0.000    2.000 
#    2.250   11.250    0.000    0.000    0.000    0.000 
#    0.000    0.000    0.000    0.000    0.000    0.000 
#
# Total GULP energy -198285.147401 kJ/mol
# GULP energy per Si atom -12392.821713 kJ/mol
# Density = 1.850902 g / cm^3
# Si number density = 18.551248 Si / 1000 Ang^3
#
#
#
# Elastic Constant Matrix: (Units=GPa)
#
#
# Indices 1 2 3 4 5 6 
#
# 1 74.4116 8.4457 3.9619 0.0000 5.0083 0.0000
# 2 8.4457 53.8398 17.2992 0.0000 0.9748 0.0000
# 3 3.9619 17.2992 60.5815 0.0000 3.1733 0.0000
# 4 0.0000 0.0000 0.0000 25.1379 0.0000 0.2585
# 5 5.0083 0.9748 3.1733 0.0000 21.9853 0.0000
# 6 0.0000 0.0000 0.0000 0.2585 0.0000 29.6338
#
#
#
# Elastic Compliance Matrix: (Units=1/GPa)
#
#
# Indices 1 2 3 4 5 6 
#
# 1 0.013888 -0.002073 -0.000157 0.000000 -0.003049 0.000000
# 2 -0.002073 0.020759 -0.005813 0.000000 0.000391 0.000000
# 3 -0.000157 -0.005813 0.018300 0.000000 -0.002348 0.000000
# 4 0.000000 0.000000 0.000000 0.039784 0.000000 -0.000347
# 5 -0.003049 0.000391 -0.002348 0.000000 0.046501 0.000000
# 6 0.000000 0.000000 0.000000 -0.000347 0.000000 0.033748
#
#
# Mechanical properties :
#
#
# Convention : Reuss Voigt Hill
#
# Bulk Modulus (GPa) = 27.12813 27.58294 27.35553
# Shear Modulus (GPa) = 24.83208 25.95981 25.39594
#
# Velocity S-wave (km/s) = 3.66261 3.74486 3.70396
# Velocity P-wave (km/s) = 5.70451 5.79650 5.75069
#
# Compressibility (1/GPa) = 0.03686210
#
# Stress axis : x y z
#
# Youngs Moduli (GPa) = 72.00664 48.17082 54.64547
#
# Poissons Ratio (x) = 0.09986 0.00856
# Poissons Ratio (y) = 0.14927 0.31764
# Poissons Ratio (z) = 0.01127 0.28001
#
# Static dielectric constant tensor:
#      x y z
#    x 3.357550 0.000000 -0.041720 
#    y 0.000000 3.296060 0.000000 
#    z -0.041720 0.000000 3.463250 
# 
# 
# High freq. dielectric constant tensor:
#      x y z
#    x 1.710720 0.000000 0.000240 
#    y 0.000000 1.719120 0.000000 
#    z 0.000240 0.000000 1.711810 
# 
# From -- ./inp_files/26431.got.cif
#   From: 2010.03.12/outbox.cif.g09.slc.cpg/sg8_14_cif.got.tgz:26431.got - 2010.03.31 10:45:26.
