data_PCOD8053402
_publ_section_title
;
Structure prediction by ZEFSAII (Michael W. Deem and Ramdas Pophale) SiO2 
 PCOD8053402
Probable space group: C M
;
_chemical_formula_sum "Si O2"
_cell_formula_units_Z 32
_cell_length_a 15.137649
_cell_length_b 8.958123
_cell_length_c 19.507802
_cell_angle_alpha 90.000000
_cell_angle_beta 38.968288
_cell_angle_gamma 90.000000
_cell_volume 1663.637079
_symmetry_space_group_name_H-M "C M"
_symmetry_group_IT_number 8
_symmetry_cell_setting 'monoclinic'
loop_
_space_group_symop_operation_xyz
x,y,z
x,-y,z
1/2+x,1/2+y,z
1/2+x,1/2-y,z
loop_
_atom_site_type_symbol
_atom_site_label
_atom_site_fract_x
_atom_site_fract_y
_atom_site_fract_z
Si Si1 0.169650 0.177973 0.265910
Si Si2 0.941847 0.677556 0.019328
Si Si3 0.947845 0.324002 0.862058
Si Si4 0.386485 0.823424 0.405270
Si Si5 0.238055 0.670757 0.885884
Si Si6 0.679027 0.172360 0.621790
Si Si7 0.175434 0.829100 0.414740
Si Si8 0.978240 0.831746 0.646556
O O1 0.308109 0.232296 0.142715
O O2 0.179380 0.246040 0.337367
O O3 0.038190 0.249067 0.305870
O O4 0.153197 0.000000 0.274936
O O5 0.950897 0.500000 0.010716
O O6 0.933827 0.740953 0.947015
O O7 0.082589 0.739545 0.971188
O O8 0.926204 0.500000 0.872665
O O9 0.822918 0.255790 0.892798
O O10 0.104585 0.283825 0.738935
O O11 0.315754 0.769951 0.519883
O O12 0.291759 0.766130 0.398065
O O13 0.401654 0.000000 0.397337
O O14 0.229272 0.500000 0.914934
O O15 0.314176 0.682495 0.764749
O O16 0.559191 0.203566 0.638225
O O17 0.724228 0.000000 0.593111
O O18 0.017629 0.809676 0.542367
O O19 0.213365 0.000000 0.379376
O O20 0.032026 0.000000 0.635073
#
# Coordination Sequence:
#
# PCOD8053402 Si02
#       8
#     4   4   4   4   4   4   4   4
#     4  10  20  35  53  73  98 132 176 212 240 289
#     4   9  19  34  51  73 101 134 172 209 244 290
#     4   9  18  33  52  75 104 134 163 202 251 296
#     4  10  20  35  53  75 104 132 161 205 258 300
#     4   9  17  31  52  74  97 130 169 207 248 296
#     4   9  16  28  50  77 102 130 165 200 242 302
#     4   8  16  31  51  72  96 128 162 200 247 298
#     4   8  14  27  48  73 100 128 162 205 252 297
#
# _framework density 19.234964000000002
#
# number of rings (size 3 to 8) (size 9 to 14) (size 15 to 20)
#    0.000    3.000    0.000    1.500    0.000    2.500 
#    0.000   10.000    0.000    4.500    0.000    0.000 
#    0.000    0.000    0.000    0.000    0.000    0.000 
#
# Total GULP energy -198237.914529 kJ/mol
# GULP energy per Si atom -12389.869658 kJ/mol
# Density = 1.919118 g / cm^3
# Si number density = 19.234964 Si / 1000 Ang^3
#
#
#
# Elastic Constant Matrix: (Units=GPa)
#
#
# Indices 1 2 3 4 5 6 
#
# 1 63.9963 12.1826 33.2639 0.0000 0.9338 0.0000
# 2 12.1826 30.3023 21.0155 0.0000 -1.3473 0.0000
# 3 33.2639 21.0155 118.6110 0.0001 -3.4777 0.0000
# 4 0.0000 0.0000 0.0001 21.5038 0.0000 -5.2754
# 5 0.9338 -1.3473 -3.4777 0.0000 37.2739 0.0000
# 6 0.0000 0.0000 0.0000 -5.2754 0.0000 20.9585
#
#
#
# Elastic Compliance Matrix: (Units=1/GPa)
#
#
# Indices 1 2 3 4 5 6 
#
# 1 0.018846 -0.004488 -0.004521 0.000000 -0.001056 0.000000
# 2 -0.004488 0.038713 -0.005571 0.000000 0.000992 0.000000
# 3 -0.004521 -0.005571 0.010713 0.000000 0.000911 0.000000
# 4 0.000000 0.000000 0.000000 0.049564 0.000000 0.012476
# 5 -0.001056 0.000992 0.000911 0.000000 0.026976 0.000000
# 6 0.000000 0.000000 0.000000 0.012476 0.000000 0.050854
#
#
# Mechanical properties :
#
#
# Convention : Reuss Voigt Hill
#
# Bulk Modulus (GPa) = 25.56861 38.42596 31.99728
# Shear Modulus (GPa) = 21.02054 25.71041 23.36547
#
# Velocity S-wave (km/s) = 3.30938 3.65999 3.48909
# Velocity P-wave (km/s) = 5.28435 6.15477 5.73609
#
# Compressibility (1/GPa) = 0.03911046
#
# Stress axis : x y z
#
# Youngs Moduli (GPa) = 53.06289 25.83095 93.34745
#
# Poissons Ratio (x) = 0.11593 0.42202
# Poissons Ratio (y) = 0.23815 0.52008
# Poissons Ratio (z) = 0.23989 0.14392
#
# Static dielectric constant tensor:
#      x y z
#    x 3.407920 0.000000 0.104450 
#    y 0.000000 3.183760 0.000000 
#    z 0.104450 0.000000 3.862170 
# 
# 
# High freq. dielectric constant tensor:
#      x y z
#    x 1.728800 0.000000 0.000800 
#    y 0.000000 1.713500 0.000000 
#    z 0.000800 0.000000 1.759940 
# 
# From -- ./inp_files/21558.got.cif
#   From: 2010.03.12/outbox.cif.g09.slc.cpg/sg8_11_cif.got.tgz:21558.got - 2010.03.31 10:45:26.
