data_PCOD8053923
_publ_section_title
;
Structure prediction by ZEFSAII (Michael W. Deem and Ramdas Pophale) SiO2 
 PCOD8053923
Probable space group: C M
;
_chemical_formula_sum "Si O2"
_cell_formula_units_Z 32
_cell_length_a 9.837330
_cell_length_b 17.720237
_cell_length_c 11.758011
_cell_angle_alpha 90.000000
_cell_angle_beta 53.667924
_cell_angle_gamma 90.000000
_cell_volume 1651.194838
_symmetry_space_group_name_H-M "C M"
_symmetry_group_IT_number 8
_symmetry_cell_setting 'monoclinic'
loop_
_space_group_symop_operation_xyz
x,y,z
x,-y,z
1/2+x,1/2+y,z
1/2+x,1/2-y,z
loop_
_atom_site_type_symbol
_atom_site_label
_atom_site_fract_x
_atom_site_fract_y
_atom_site_fract_z
Si Si1 0.010150 0.857457 0.767250
Si Si2 0.520400 0.911389 0.179255
Si Si3 0.285032 0.828231 0.457815
Si Si4 0.152514 0.412622 0.875619
Si Si5 0.791473 0.087482 0.221670
Si Si6 0.584135 0.186857 0.479223
Si Si7 0.967883 0.679005 0.784736
Si Si8 0.138392 0.912023 0.944144
O O1 0.153116 0.873039 0.601862
O O2 0.077037 0.893223 0.849136
O O3 0.847416 0.903384 0.809563
O O4 0.968722 0.768720 0.803101
O O5 0.353345 0.879362 0.321490
O O6 0.688098 0.883634 0.162452
O O7 0.505661 0.000000 0.192422
O O8 0.537520 0.885939 0.039658
O O9 0.436105 0.797713 0.462126
O O10 0.187791 0.762139 0.444134
O O11 0.117511 0.500000 0.862277
O O12 0.112363 0.358384 0.790156
O O13 0.718891 0.125596 0.370503
O O14 0.760328 0.000000 0.254579
O O15 0.988103 0.105869 0.107066
O O16 0.503622 0.157898 0.636481
O O17 0.790052 0.642089 0.907617
O O18 0.192095 0.000000 0.924129
#
# Coordination Sequence:
#
# PCOD8053923 Si02
#       8
#     4   4   4   4   4   4   4   4
#     4  11  22  39  62  89 118 158 204 242 295 357
#     4   9  19  39  61  85 116 155 199 243 291 348
#     4  10  22  39  62  87 119 155 198 247 292 350
#     4  11  23  41  62  89 124 159 196 248 302 352
#     4   9  19  38  62  86 115 153 200 246 288 347
#     4  10  22  40  61  86 120 157 197 243 297 350
#     4  11  24  39  60  90 125 156 195 249 305 349
#     4  11  21  39  62  90 119 155 203 246 290 357
#
# _framework density 19.379904
#
# number of rings (size 3 to 8) (size 9 to 14) (size 15 to 20)
#    0.000    1.750    2.500    1.500    5.250    4.000 
#    2.250    0.000    0.000    0.000    0.000    0.000 
#    0.000    0.000    0.000    0.000    0.000    0.000 
#
# Total GULP energy -198412.347690 kJ/mol
# GULP energy per Si atom -12400.771731 kJ/mol
# Density = 1.933579 g / cm^3
# Si number density = 19.379904 Si / 1000 Ang^3
#
#
#
# Elastic Constant Matrix: (Units=GPa)
#
#
# Indices 1 2 3 4 5 6 
#
# 1 59.3926 3.4842 16.6628 0.0000 -3.6057 0.0000
# 2 3.4842 28.5429 22.7643 0.0000 -2.5535 0.0000
# 3 16.6628 22.7643 98.2563 0.0000 -13.0821 0.0000
# 4 0.0000 0.0000 0.0000 36.1136 0.0000 -6.8199
# 5 -3.6057 -2.5535 -13.0821 0.0000 29.4245 0.0000
# 6 0.0000 0.0000 0.0000 -6.8199 0.0000 15.7545
#
#
#
# Elastic Compliance Matrix: (Units=1/GPa)
#
#
# Indices 1 2 3 4 5 6 
#
# 1 0.017702 0.000268 -0.002947 0.000000 0.000882 0.000000
# 2 0.000268 0.042995 -0.010104 0.000000 -0.000728 0.000000
# 3 -0.002947 -0.010104 0.013662 0.000000 0.004836 0.000000
# 4 0.000000 0.000000 0.000000 0.030156 0.000000 0.013054
# 5 0.000882 -0.000728 0.004836 0.000000 0.036180 0.000000
# 6 0.000000 0.000000 0.000000 0.013054 0.000000 0.069125
#
#
# Mechanical properties :
#
#
# Convention : Reuss Voigt Hill
#
# Bulk Modulus (GPa) = 20.49409 30.22383 25.35896
# Shear Modulus (GPa) = 19.86897 25.81055 22.83976
#
# Velocity S-wave (km/s) = 3.20540 3.65337 3.43669
# Velocity P-wave (km/s) = 4.92924 5.78148 5.37228
#
# Compressibility (1/GPa) = 0.04879455
#
# Stress axis : x y z
#
# Youngs Moduli (GPa) = 56.49196 23.25843 73.19631
#
# Poissons Ratio (x) = -0.00624 0.21568
# Poissons Ratio (y) = -0.01515 0.73955
# Poissons Ratio (z) = 0.16646 0.23499
#
# Static dielectric constant tensor:
#      x y z
#    x 3.592250 0.000000 -0.082660 
#    y 0.000000 3.596180 0.000000 
#    z -0.082660 0.000000 3.889120 
# 
# 
# High freq. dielectric constant tensor:
#      x y z
#    x 1.752310 0.000000 -0.005870 
#    y 0.000000 1.749500 0.000000 
#    z -0.005870 0.000000 1.767290 
# 
# From -- ./inp_files/19255.got.cif
#   From: 2010.03.12/outbox.cif.g09.slc.cpg/sg8_10_cif.got.tgz:19255.got - 2010.03.31 10:45:26.
