data_PCOD8053216
_publ_section_title
;
Structure prediction by ZEFSAII (Michael W. Deem and Ramdas Pophale) SiO2 
 PCOD8053216
Probable space group: C M
;
_chemical_formula_sum "Si O2"
_cell_formula_units_Z 28
_cell_length_a 15.023257
_cell_length_b 9.591434
_cell_length_c 13.954822
_cell_angle_alpha 90.000000
_cell_angle_beta 45.277957
_cell_angle_gamma 90.000000
_cell_volume 1428.741410
_symmetry_space_group_name_H-M "C M"
_symmetry_group_IT_number 8
_symmetry_cell_setting 'monoclinic'
loop_
_space_group_symop_operation_xyz
x,y,z
x,-y,z
1/2+x,1/2+y,z
1/2+x,1/2-y,z
loop_
_atom_site_type_symbol
_atom_site_label
_atom_site_fract_x
_atom_site_fract_y
_atom_site_fract_z
Si Si1 0.465220 0.752826 0.213250
Si Si2 0.259351 0.657649 0.512274
Si Si3 0.218447 0.342042 0.085081
Si Si4 0.190209 0.157160 0.939028
Si Si5 0.577393 0.340084 0.535489
Si Si6 0.295935 0.338012 0.702887
Si Si7 0.258343 0.155116 0.232518
O O1 0.380925 0.669874 0.352769
O O2 0.565833 0.845894 0.196562
O O3 0.378766 0.846896 0.210630
O O4 0.545211 0.648732 0.084088
O O5 0.211869 0.500000 0.544947
O O6 0.143045 0.750486 0.567780
O O7 0.295958 0.701882 0.591548
O O8 0.270306 0.500000 0.040497
O O9 0.270084 0.270860 0.141992
O O10 0.269155 0.249721 0.956834
O O11 0.198050 0.238086 0.831797
O O12 0.243531 0.000000 0.890021
O O13 0.601767 0.500000 0.543660
O O14 0.431880 0.303599 0.642556
O O15 0.635819 0.307270 0.387163
O O16 0.259919 0.500000 0.746282
O O17 0.245113 0.000000 0.197135
#
# Coordination Sequence:
#
# PCOD8053216 Si02
#       7
#     4   4   4   4   4   4   4
#     4   9  21  37  61  86 118 148 191 234 289 335
#     4  10  20  37  62  88 113 149 193 238 285 339
#     4  10  21  36  56  84 115 149 191 234 286 339
#     4  10  22  39  60  84 116 154 195 238 286 342
#     4   9  20  37  57  85 117 151 189 235 286 341
#     4  10  21  39  60  81 115 157 192 233 288 343
#     4  10  19  35  60  88 118 150 189 234 292 345
#
# _framework density 19.597669
#
# number of rings (size 3 to 8) (size 9 to 14) (size 15 to 20)
#    0.857    1.429    0.000    2.571    0.000    5.714 
#    2.571    1.429    0.000    0.000    0.000    0.000 
#    0.000    0.000    0.000    0.000    0.000    0.000 
#
# Total GULP energy -173520.662023 kJ/mol
# GULP energy per Si atom -12394.333002 kJ/mol
# Density = 1.955306 g / cm^3
# Si number density = 19.597669 Si / 1000 Ang^3
#
#
#
# Elastic Constant Matrix: (Units=GPa)
#
#
# Indices 1 2 3 4 5 6 
#
# 1 91.4818 46.7924 41.9272 0.0000 16.2654 0.0000
# 2 46.7924 128.8589 49.7041 0.0000 21.3195 0.0000
# 3 41.9272 49.7041 100.5908 0.0000 19.4849 0.0000
# 4 0.0000 0.0000 0.0000 26.0389 0.0000 6.6870
# 5 16.2654 21.3195 19.4849 0.0000 20.3817 0.0000
# 6 0.0000 0.0000 0.0000 6.6870 0.0000 32.8545
#
#
#
# Elastic Compliance Matrix: (Units=1/GPa)
#
#
# Indices 1 2 3 4 5 6 
#
# 1 0.015219 -0.003223 -0.003745 0.000000 -0.005195 0.000000
# 2 -0.003223 0.011092 -0.002931 0.000000 -0.006228 0.000000
# 3 -0.003745 -0.002931 0.014454 0.000000 -0.007764 0.000000
# 4 0.000000 0.000000 0.000000 0.040522 0.000000 -0.008248
# 5 -0.005195 -0.006228 -0.007764 0.000000 0.067146 0.000000
# 6 0.000000 0.000000 0.000000 -0.008248 0.000000 0.032116
#
#
# Mechanical properties :
#
#
# Convention : Reuss Voigt Hill
#
# Bulk Modulus (GPa) = 47.69121 66.41987 57.05554
# Shear Modulus (GPa) = 24.11540 28.02221 26.06880
#
# Velocity S-wave (km/s) = 3.51169 3.78547 3.65115
# Velocity P-wave (km/s) = 6.38988 7.28503 6.85209
#
# Compressibility (1/GPa) = 0.02096823
#
# Stress axis : x y z
#
# Youngs Moduli (GPa) = 65.70531 90.15794 69.18307
#
# Poissons Ratio (x) = 0.29055 0.25909
# Poissons Ratio (y) = 0.21175 0.20277
# Poissons Ratio (z) = 0.24607 0.26425
#
# Static dielectric constant tensor:
#      x y z
#    x 3.376860 0.000000 0.042720 
#    y 0.000000 3.396570 0.000000 
#    z 0.042720 0.000000 3.504980 
# 
# 
# High freq. dielectric constant tensor:
#      x y z
#    x 1.753090 0.000000 0.009800 
#    y 0.000000 1.760210 0.000000 
#    z 0.009800 0.000000 1.752700 
# 
# From -- ./inp_files/26503.got.cif
#   From: 2010.03.12/outbox.cif.g09.slc.cpg/sg8_14_cif.got.tgz:26503.got - 2010.03.31 10:45:26.
