data_PCOD8053932
_publ_section_title
;
Structure prediction by ZEFSAII (Michael W. Deem and Ramdas Pophale) SiO2 
 PCOD8053932
Probable space group: C M
;
_chemical_formula_sum "Si O2"
_cell_formula_units_Z 32
_cell_length_a 20.663326
_cell_length_b 8.484085
_cell_length_c 12.177726
_cell_angle_alpha 90.000000
_cell_angle_beta 51.722101
_cell_angle_gamma 90.000000
_cell_volume 1675.905799
_symmetry_space_group_name_H-M "C M"
_symmetry_group_IT_number 8
_symmetry_cell_setting 'monoclinic'
loop_
_space_group_symop_operation_xyz
x,y,z
x,-y,z
1/2+x,1/2+y,z
1/2+x,1/2-y,z
loop_
_atom_site_type_symbol
_atom_site_label
_atom_site_fract_x
_atom_site_fract_y
_atom_site_fract_z
Si Si1 0.013920 0.816936 0.512880
Si Si2 0.367767 0.815293 0.789547
Si Si3 0.701847 0.684133 0.355717
Si Si4 0.615750 0.317014 0.065829
Si Si5 0.276525 0.814264 0.507310
Si Si6 0.964165 0.683275 0.335418
Si Si7 0.748180 0.184257 0.084600
Si Si8 0.232448 0.682587 0.776370
O O1 0.105546 0.774193 0.454798
O O2 0.953956 0.771591 0.676043
O O3 0.989811 0.714585 0.433186
O O4 0.005245 0.000000 0.491373
O O5 0.304843 0.784263 0.755852
O O6 0.383150 0.000000 0.784987
O O7 0.331734 0.747044 0.940877
O O8 0.717771 0.500000 0.320183
O O9 0.737988 0.741532 0.433315
O O10 0.750932 0.779102 0.210606
O O11 0.626615 0.500000 0.029481
O O12 0.520983 0.277821 0.190112
O O13 0.669165 0.272228 0.116669
O O14 0.646211 0.221027 0.927125
O O15 0.371262 0.759606 0.412631
O O16 0.225335 0.727605 0.656546
O O17 0.267668 0.000000 0.533686
O O18 0.974535 0.500000 0.299346
O O19 0.739082 0.000000 0.071269
O O20 0.254012 0.500000 0.768236
#
# Coordination Sequence:
#
# PCOD8053932 Si02
#       8
#     4   4   4   4   4   4   4   4
#     4  11  21  35  58  87 117 148 190 239 285 336
#     4  11  21  35  57  84 116 150 190 237 287 339
#     4  10  22  40  60  83 116 156 192 230 284 346
#     4  11  21  35  57  84 116 150 190 237 287 339
#     4  10  22  40  60  83 116 156 192 230 284 346
#     4  11  21  35  58  87 117 148 190 239 285 336
#     4  11  21  35  57  85 116 148 190 238 288 341
#     4  11  21  35  57  85 116 148 190 238 288 341
#
# _framework density 19.094152000000001
#
# number of rings (size 3 to 8) (size 9 to 14) (size 15 to 20)
#    0.000    1.250    2.500    6.750    0.000    1.500 
#    0.000    1.250    0.000    0.000    0.000    0.000 
#    0.000    0.000    0.000    0.000    0.000    0.000 
#
# Total GULP energy -198497.035403 kJ/mol
# GULP energy per Si atom -12406.064713 kJ/mol
# Density = 1.905069 g / cm^3
# Si number density = 19.094152 Si / 1000 Ang^3
#
#
#
# Elastic Constant Matrix: (Units=GPa)
#
#
# Indices 1 2 3 4 5 6 
#
# 1 98.0649 19.1922 58.0246 0.0000 6.3397 0.0000
# 2 19.1922 65.7757 24.6533 0.0000 3.7904 0.0000
# 3 58.0246 24.6533 149.5606 0.0000 5.0555 0.0000
# 4 0.0000 0.0000 0.0000 36.7563 0.0000 -0.7035
# 5 6.3397 3.7904 5.0555 0.0000 28.1760 0.0000
# 6 0.0000 0.0000 0.0000 -0.7035 0.0000 19.5407
#
#
#
# Elastic Compliance Matrix: (Units=1/GPa)
#
#
# Indices 1 2 3 4 5 6 
#
# 1 0.013605 -0.002031 -0.004879 0.000000 -0.001913 0.000000
# 2 -0.002031 0.016590 -0.001898 0.000000 -0.001434 0.000000
# 3 -0.004879 -0.001898 0.008900 0.000000 -0.000244 0.000000
# 4 0.000000 0.000000 0.000000 0.027225 0.000000 0.000980
# 5 -0.001913 -0.001434 -0.000244 0.000000 0.036158 0.000000
# 6 0.000000 0.000000 0.000000 0.000980 0.000000 0.051210
#
#
# Mechanical properties :
#
#
# Convention : Reuss Voigt Hill
#
# Bulk Modulus (GPa) = 46.55663 57.46015 52.00839
# Shear Modulus (GPa) = 28.01667 30.99667 29.50667
#
# Velocity S-wave (km/s) = 3.83468 4.03346 3.93533
# Velocity P-wave (km/s) = 6.63641 7.20071 6.92431
#
# Compressibility (1/GPa) = 0.02147922
#
# Stress axis : x y z
#
# Youngs Moduli (GPa) = 73.50064 60.27772 112.35596
#
# Poissons Ratio (x) = 0.12242 0.54818
# Poissons Ratio (y) = 0.14927 0.21328
# Poissons Ratio (z) = 0.35861 0.11442
#
# Static dielectric constant tensor:
#      x y z
#    x 3.262040 0.000000 -0.103400 
#    y 0.000000 3.471840 0.000000 
#    z -0.103400 0.000000 3.745980 
# 
# 
# High freq. dielectric constant tensor:
#      x y z
#    x 1.705230 0.000000 -0.006920 
#    y 0.000000 1.751760 0.000000 
#    z -0.006920 0.000000 1.761230 
# 
# From -- ./inp_files/23836.got.cif
#   From: 2010.03.12/outbox.cif.g09.slc.cpg/sg8_12_cif.got.tgz:23836.got - 2010.03.31 10:45:26.
