data_PCOD8053845
_publ_section_title
;
Structure prediction by ZEFSAII (Michael W. Deem and Ramdas Pophale) SiO2 
 PCOD8053845
Probable space group: C M
;
_chemical_formula_sum "Si O2"
_cell_formula_units_Z 32
_cell_length_a 19.599414
_cell_length_b 8.613673
_cell_length_c 12.142432
_cell_angle_alpha 90.000000
_cell_angle_beta 51.718140
_cell_angle_gamma 90.000000
_cell_volume 1609.131809
_symmetry_space_group_name_H-M "C M"
_symmetry_group_IT_number 8
_symmetry_cell_setting 'monoclinic'
loop_
_space_group_symop_operation_xyz
x,y,z
x,-y,z
1/2+x,1/2+y,z
1/2+x,1/2-y,z
loop_
_atom_site_type_symbol
_atom_site_label
_atom_site_fract_x
_atom_site_fract_y
_atom_site_fract_z
Si Si1 0.081550 0.816980 0.820660
Si Si2 0.227738 0.682799 0.828382
Si Si3 0.676527 0.183513 0.115550
Si Si4 0.250718 0.316568 0.266731
Si Si5 0.581550 0.182983 0.576648
Si Si6 0.935362 0.682799 0.120759
Si Si7 0.912382 0.316568 0.605067
Si Si8 0.986573 0.316487 0.305504
O O1 0.169428 0.758104 0.791332
O O2 0.081550 0.764712 0.694376
O O3 0.081550 0.000000 0.824758
O O4 0.993672 0.758104 0.967088
O O5 0.212355 0.500000 0.836351
O O6 0.328877 0.720567 0.722607
O O7 0.200475 0.754639 0.973435
O O8 0.739056 0.235207 0.151421
O O9 0.581550 0.242410 0.244183
O O10 0.678457 0.000000 0.102705
O O11 0.267099 0.500000 0.261186
O O12 0.167647 0.266823 0.422988
O O13 0.334223 0.220567 0.217260
O O14 0.495453 0.233178 0.595182
O O15 0.581550 0.000000 0.595184
O O16 0.950745 0.500000 0.097961
O O17 0.962625 0.754639 0.211284
O O18 0.896001 0.500000 0.632283
O O19 0.924044 0.264793 0.466433
O O20 0.984643 0.500000 0.296519
#
# Coordination Sequence:
#
# PCOD8053845 Si02
#       8
#     4   4   4   4   4   4   4   4
#     4  12  26  43  62  86 122 165 211 258 308 361
#     4  11  23  40  63  91 124 161 202 250 308 367
#     4   9  17  36  64  87 113 154 200 246 298 357
#     4  10  21  39  64  93 124 160 201 247 303 366
#     4  10  22  41  64  90 126 165 205 252 304 363
#     4  11  23  40  63  91 124 161 202 250 308 367
#     4  10  21  39  64  93 124 160 201 247 303 366
#     4   9  17  36  64  87 113 154 200 246 298 357
#
# _framework density 19.886500999999999
#
# number of rings (size 3 to 8) (size 9 to 14) (size 15 to 20)
#    0.000    1.750    2.500    1.875    3.500    1.000 
#    0.000    1.250    0.000    0.000    0.000    0.000 
#    0.000    0.000    0.000    0.000    0.000    0.000 
#
# Total GULP energy -198338.840024 kJ/mol
# GULP energy per Si atom -12396.177502 kJ/mol
# Density = 1.984124 g / cm^3
# Si number density = 19.886501 Si / 1000 Ang^3
#
#
#
# Elastic Constant Matrix: (Units=GPa)
#
#
# Indices 1 2 3 4 5 6 
#
# 1 112.5087 31.3713 53.1785 0.0000 3.6704 0.0000
# 2 31.3713 56.1557 34.5956 0.0000 5.8198 0.0000
# 3 53.1785 34.5956 120.5523 0.0000 10.8483 0.0000
# 4 0.0000 0.0000 0.0000 23.5774 0.0000 -8.0912
# 5 3.6704 5.8198 10.8483 0.0000 43.6374 0.0000
# 6 0.0000 0.0000 0.0000 -8.0912 0.0000 28.0603
#
#
#
# Elastic Compliance Matrix: (Units=1/GPa)
#
#
# Indices 1 2 3 4 5 6 
#
# 1 0.012000 -0.004216 -0.004136 0.000000 0.000581 0.000000
# 2 -0.004216 0.023194 -0.004654 0.000000 -0.001582 0.000000
# 3 -0.004136 -0.004654 0.011628 0.000000 -0.001922 0.000000
# 4 0.000000 0.000000 0.000000 0.047071 0.000000 0.013573
# 5 0.000581 -0.001582 -0.001922 0.000000 0.023556 0.000000
# 6 0.000000 0.000000 0.000000 0.013573 0.000000 0.039551
#
#
# Mechanical properties :
#
#
# Convention : Reuss Voigt Hill
#
# Bulk Modulus (GPa) = 48.05313 58.61195 53.33254
# Shear Modulus (GPa) = 26.32291 30.39309 28.35800
#
# Velocity S-wave (km/s) = 3.64216 3.91362 3.78033
# Velocity P-wave (km/s) = 6.47327 7.06818 6.77726
#
# Compressibility (1/GPa) = 0.02081030
#
# Stress axis : x y z
#
# Youngs Moduli (GPa) = 83.33623 43.11468 85.99853
#
# Poissons Ratio (x) = 0.18177 0.35567
# Poissons Ratio (y) = 0.35134 0.40024
# Poissons Ratio (z) = 0.34466 0.20066
#
# Static dielectric constant tensor:
#      x y z
#    x 3.807420 0.000000 0.183910 
#    y 0.000000 3.293650 0.000000 
#    z 0.183910 0.000000 3.909310 
# 
# 
# High freq. dielectric constant tensor:
#      x y z
#    x 1.790300 0.000000 0.004120 
#    y 0.000000 1.746890 0.000000 
#    z 0.004120 0.000000 1.792580 
# 
# From -- ./inp_files/23882.got.cif
#   From: 2010.03.12/outbox.cif.g09.slc.cpg/sg8_12_cif.got.tgz:23882.got - 2010.03.31 10:45:26.
