data_PCOD8053807
_publ_section_title
;
Structure prediction by ZEFSAII (Michael W. Deem and Ramdas Pophale) SiO2 
 PCOD8053807
Probable space group: C M
;
_chemical_formula_sum "Si O2"
_cell_formula_units_Z 32
_cell_length_a 22.513590
_cell_length_b 13.150003
_cell_length_c 16.338088
_cell_angle_alpha 90.000000
_cell_angle_beta 162.595404
_cell_angle_gamma 90.000000
_cell_volume 1446.816390
_symmetry_space_group_name_H-M "C M"
_symmetry_group_IT_number 8
_symmetry_cell_setting 'monoclinic'
loop_
_space_group_symop_operation_xyz
x,y,z
x,-y,z
1/2+x,1/2+y,z
1/2+x,1/2-y,z
loop_
_atom_site_type_symbol
_atom_site_label
_atom_site_fract_x
_atom_site_fract_y
_atom_site_fract_z
Si Si1 0.289010 0.619904 0.140110
Si Si2 0.106548 0.382679 0.550287
Si Si3 0.025384 0.116507 0.022629
Si Si4 0.213448 0.880824 0.955102
Si Si5 0.294670 0.379786 0.961700
Si Si6 0.211770 0.879669 0.769814
Si Si7 0.080739 0.757164 0.244393
Si Si8 0.015306 0.210679 0.840303
O O1 0.256768 0.500000 0.114067
O O2 0.518461 0.649184 0.461621
O O3 0.234372 0.650810 0.974479
O O4 0.131575 0.681487 0.988609
O O5 0.055127 0.500000 0.494458
O O6 0.291367 0.367712 0.732611
O O7 0.147856 0.337001 0.696032
O O8 0.913972 0.329756 0.256813
O O9 0.094417 0.150894 0.023550
O O10 0.088667 0.000000 0.116862
O O11 0.142963 0.183043 0.243738
O O12 0.176979 0.836420 0.816522
O O13 0.039746 0.854322 0.789525
O O14 0.235717 0.000000 0.974179
O O15 0.312576 0.500000 0.978138
O O16 0.508130 0.334483 0.219273
O O17 0.246912 0.000000 0.814440
O O18 0.414336 0.828192 0.002937
O O19 0.280662 0.713654 0.544947
#
# Coordination Sequence:
#
# PCOD8053807 Si02
#       8
#     4   4   4   4   4   4   4   4
#     4  10  24  43  64  91 129 173 218 266 317 384
#     4   8  16  34  63  92 119 158 206 260 311 373
#     4  10  23  43  64  94 132 168 209 264 329 389
#     4  10  21  38  62  93 127 165 210 264 324 381
#     4   9  19  39  67  94 120 161 216 267 319 381
#     4  10  23  43  66  89 126 175 223 266 310 382
#     4  11  24  39  66  96 128 168 215 269 324 388
#     4  12  26  37  63  97 133 170 208 266 329 394
#
# _framework density 22.117528
#
# number of rings (size 3 to 8) (size 9 to 14) (size 15 to 20)
#    0.000    2.000    0.000    3.000    7.000    4.000 
#    0.000    1.875    0.000    0.000    0.000    0.000 
#    0.000    0.000    0.000    0.000    0.000    0.000 
#
# Total GULP energy -198358.676023 kJ/mol
# GULP energy per Si atom -12397.417251 kJ/mol
# Density = 2.206719 g / cm^3
# Si number density = 22.117528 Si / 1000 Ang^3
#
#
#
# Elastic Constant Matrix: (Units=GPa)
#
#
# Indices 1 2 3 4 5 6 
#
# 1 118.7161 47.6620 15.7329 -0.0123 -21.0675 -0.0123
# 2 47.6620 53.3265 32.1393 -0.0193 -13.7491 -0.0245
# 3 15.7329 32.1393 77.5377 -0.0181 -2.0906 -0.0262
# 4 -0.0123 -0.0193 -0.0181 29.1713 -0.0113 -0.1971
# 5 -21.0675 -13.7491 -2.0906 -0.0113 28.1346 -0.0140
# 6 -0.0123 -0.0245 -0.0262 -0.1971 -0.0140 46.0543
#
#
#
# Elastic Compliance Matrix: (Units=1/GPa)
#
#
# Indices 1 2 3 4 5 6 
#
# 1 0.014098 -0.013096 0.002685 0.000001 0.004357 0.000000
# 2 -0.013096 0.041495 -0.014289 0.000017 0.009410 0.000013
# 3 0.002685 -0.014289 0.018177 0.000002 -0.003622 0.000002
# 4 0.000001 0.000017 0.000002 0.034281 0.000023 0.000147
# 5 0.004357 0.009410 -0.003622 0.000023 0.043135 0.000017
# 6 0.000000 0.000013 0.000002 0.000147 0.000017 0.021714
#
#
# Mechanical properties :
#
#
# Convention : Reuss Voigt Hill
#
# Bulk Modulus (GPa) = 41.03126 48.96096 44.99611
# Shear Modulus (GPa) = 21.69908 30.94179 26.32043
#
# Velocity S-wave (km/s) = 3.13562 3.74434 3.45342
# Velocity P-wave (km/s) = 5.63038 6.39361 6.02410
#
# Compressibility (1/GPa) = 0.02437166
#
# Stress axis : x y z
#
# Youngs Moduli (GPa) = 70.92970 24.09926 55.01401
#
# Poissons Ratio (x) = 0.31560 -0.14771
# Poissons Ratio (y) = 0.92888 0.78608
# Poissons Ratio (z) = -0.19045 0.34435
#
# Static dielectric constant tensor:
#      x y z
#    x 4.103510 0.000000 -0.361070 
#    y 0.000000 4.170690 0.000000 
#    z -0.361070 0.000000 3.969980 
# 
# 
# High freq. dielectric constant tensor:
#      x y z
#    x 1.865900 0.000000 -0.017730 
#    y 0.000000 1.894450 0.000000 
#    z -0.017730 0.000000 1.855600 
# 
# From -- ./inp_files/10762.got.cif
#   From: 2010.03.12/outbox.cif.g09.slc.cpg/sg8_6_cif.got.tgz:10762.got - 2010.03.31 10:45:26.
