data_PCOD8053599
_publ_section_title
;
Structure prediction by ZEFSAII (Michael W. Deem and Ramdas Pophale) SiO2 
 PCOD8053599
Probable space group: C M
;
_chemical_formula_sum "Si O2"
_cell_formula_units_Z 24
_cell_length_a 15.048262
_cell_length_b 8.442723
_cell_length_c 12.101581
_cell_angle_alpha 90.000000
_cell_angle_beta 129.642009
_cell_angle_gamma 90.000000
_cell_volume 1183.933979
_symmetry_space_group_name_H-M "C M"
_symmetry_group_IT_number 8
_symmetry_cell_setting 'monoclinic'
loop_
_space_group_symop_operation_xyz
x,y,z
x,-y,z
1/2+x,1/2+y,z
1/2+x,1/2-y,z
loop_
_atom_site_type_symbol
_atom_site_label
_atom_site_fract_x
_atom_site_fract_y
_atom_site_fract_z
Si Si1 0.314050 0.183803 0.616590
Si Si2 0.577067 0.815444 0.839705
Si Si3 0.249732 0.816412 0.812898
Si Si4 0.749287 0.315893 0.148854
Si Si5 0.669898 0.181400 0.308058
Si Si6 0.921658 0.184253 0.115510
O O1 0.445972 0.241578 0.725604
O O2 0.254153 0.214175 0.686469
O O3 0.248875 0.290078 0.476677
O O4 0.307011 0.000000 0.576857
O O5 0.642134 0.781384 0.776174
O O6 0.583723 0.000000 0.874580
O O7 0.637121 0.719054 0.985724
O O8 0.231973 0.000000 0.827284
O O9 0.369455 0.760435 0.962999
O O10 0.754742 0.500000 0.181244
O O11 0.743939 0.220390 0.258505
O O12 0.865437 0.264378 0.178483
O O13 0.558081 0.292256 0.225089
O O14 0.629834 0.000000 0.273812
O O15 0.891099 0.000000 0.093144
#
# Coordination Sequence:
#
# PCOD8053599 Si02
#       6
#     4   4   4   4   4   4
#     4  10  23  40  57  81 117 157 193 234 287 346
#     4  10  20  37  61  87 116 150 192 239 287 341
#     4  10  20  37  61  87 116 150 192 239 287 341
#     4  11  22  39  63  89 118 152 195 242 290 344
#     4  12  25  40  59  85 119 157 197 240 291 348
#     4  11  22  39  63  89 118 152 195 242 290 344
#
# _framework density 20.271401000000001
#
# number of rings (size 3 to 8) (size 9 to 14) (size 15 to 20)
#    0.000    1.333    0.000    8.500    0.000    5.333 
#    0.000    3.333    0.000    0.000    0.000    0.000 
#    0.000    0.000    0.000    0.000    0.000    0.000 
#
# Total GULP energy -148884.732810 kJ/mol
# GULP energy per Si atom -12407.061068 kJ/mol
# Density = 2.022526 g / cm^3
# Si number density = 20.271401 Si / 1000 Ang^3
#
#
#
# Elastic Constant Matrix: (Units=GPa)
#
#
# Indices 1 2 3 4 5 6 
#
# 1 63.3514 18.3129 28.9304 0.0000 -13.5598 0.0000
# 2 18.3129 71.7904 22.9433 0.0000 -8.5568 0.0000
# 3 28.9304 22.9433 80.4837 0.0000 -22.3223 0.0000
# 4 0.0000 0.0000 0.0000 31.4376 0.0000 4.9495
# 5 -13.5598 -8.5568 -22.3223 0.0000 22.2093 0.0000
# 6 0.0000 0.0000 0.0000 4.9495 0.0000 24.0516
#
#
#
# Elastic Compliance Matrix: (Units=1/GPa)
#
#
# Indices 1 2 3 4 5 6 
#
# 1 0.020119 -0.002883 -0.004591 0.000000 0.006558 0.000000
# 2 -0.002883 0.015810 -0.003146 0.000000 0.001168 0.000000
# 3 -0.004591 -0.003146 0.019215 0.000000 0.015297 0.000000
# 4 0.000000 0.000000 0.000000 0.032874 0.000000 -0.006765
# 5 0.006558 0.001168 0.015297 0.000000 0.064856 0.000000
# 6 0.000000 0.000000 0.000000 -0.006765 0.000000 0.042969
#
#
# Mechanical properties :
#
#
# Convention : Reuss Voigt Hill
#
# Bulk Modulus (GPa) = 29.49660 39.55539 34.52600
# Shear Modulus (GPa) = 21.89295 25.23563 23.56429
#
# Velocity S-wave (km/s) = 3.28989 3.53213 3.41316
# Velocity P-wave (km/s) = 5.38643 6.01580 5.70979
#
# Compressibility (1/GPa) = 0.03390221
#
# Stress axis : x y z
#
# Youngs Moduli (GPa) = 49.70510 63.25221 52.04319
#
# Poissons Ratio (x) = 0.18237 0.23893
# Poissons Ratio (y) = 0.14331 0.16375
# Poissons Ratio (z) = 0.22819 0.19902
#
# Static dielectric constant tensor:
#      x y z
#    x 3.789590 0.000000 -0.076160 
#    y 0.000000 3.685650 0.000000 
#    z -0.076160 0.000000 3.534580 
# 
# 
# High freq. dielectric constant tensor:
#      x y z
#    x 1.802410 0.000000 -0.005910 
#    y 0.000000 1.802430 0.000000 
#    z -0.005910 0.000000 1.783310 
# 
# From -- ./inp_files/22841.got.cif
#   From: 2010.03.12/outbox.cif.g09.slc.cpg/sg8_12_cif.got.tgz:22841.got - 2010.03.31 10:45:26.
