data_PCOD8053964
_publ_section_title
;
Structure prediction by ZEFSAII (Michael W. Deem and Ramdas Pophale) SiO2 
 PCOD8053964
Probable space group: C M
;
_chemical_formula_sum "Si O2"
_cell_formula_units_Z 32
_cell_length_a 15.267781
_cell_length_b 8.642797
_cell_length_c 26.061185
_cell_angle_alpha 90.000000
_cell_angle_beta 153.098770
_cell_angle_gamma 90.000000
_cell_volume 1555.960921
_symmetry_space_group_name_H-M "C M"
_symmetry_group_IT_number 8
_symmetry_cell_setting 'monoclinic'
loop_
_space_group_symop_operation_xyz
x,y,z
x,-y,z
1/2+x,1/2+y,z
1/2+x,1/2-y,z
loop_
_atom_site_type_symbol
_atom_site_label
_atom_site_fract_x
_atom_site_fract_y
_atom_site_fract_z
Si Si1 0.735820 0.680525 0.148430
Si Si2 0.374130 0.321753 0.505830
Si Si3 0.687735 0.322583 0.505447
Si Si4 0.349282 0.679828 0.888872
Si Si5 0.463252 0.677521 0.728766
Si Si6 0.244253 0.677559 0.261465
Si Si7 0.776637 0.823431 0.735560
Si Si8 0.600862 0.679678 0.284930
O O1 0.779914 0.500000 0.164400
O O2 0.701706 0.717729 0.190031
O O3 0.916299 0.777392 0.222438
O O4 0.548136 0.732643 0.018680
O O5 0.344898 0.500000 0.475832
O O6 0.257563 0.287369 0.496591
O O7 0.598645 0.288563 0.631471
O O8 0.293881 0.219242 0.417463
O O9 0.733392 0.500000 0.514606
O O10 0.800731 0.280464 0.616217
O O11 0.460892 0.296312 0.395729
O O12 0.307408 0.500000 0.876765
O O13 0.367291 0.718353 0.837983
O O14 0.177481 0.775197 0.824761
O O15 0.429159 0.500000 0.695366
O O16 0.440819 0.701999 0.778231
O O17 0.206468 0.500000 0.226969
O O18 0.097580 0.727900 0.229668
O O19 0.700671 0.000000 0.695702
O O20 0.599062 0.500000 0.271187
#
# Coordination Sequence:
#
# PCOD8053964 Si02
#       8
#     4   4   4   4   4   4   4   4
#     4  11  24  43  66  93 125 166 215 265 315 374
#     4  12  23  37  63  96 127 162 207 257 311 377
#     4  11  22  38  62  91 127 166 202 251 317 377
#     4  10  23  43  65  88 122 167 209 259 315 367
#     4  11  23  38  62  95 125 163 208 254 308 370
#     4  11  24  42  66  95 127 167 210 259 317 377
#     4  10  22  41  63  90 128 166 203 251 312 375
#     4  12  25  42  65  94 129 169 208 258 317 377
#
# _framework density 20.566068999999999
#
# number of rings (size 3 to 8) (size 9 to 14) (size 15 to 20)
#    0.000    1.000    2.500    4.500    0.000    6.500 
#    0.000    1.250    0.000    0.000    0.000    0.000 
#    0.000    0.000    0.000    0.000    0.000    0.000 
#
# Total GULP energy -198515.172803 kJ/mol
# GULP energy per Si atom -12407.198300 kJ/mol
# Density = 2.051926 g / cm^3
# Si number density = 20.566069 Si / 1000 Ang^3
#
#
#
# Elastic Constant Matrix: (Units=GPa)
#
#
# Indices 1 2 3 4 5 6 
#
# 1 114.3540 20.4148 28.2964 0.0000 -22.6185 0.0000
# 2 20.4148 75.9766 31.6733 0.0004 1.7469 0.0002
# 3 28.2964 31.6733 113.2361 0.0024 -17.1698 0.0001
# 4 0.0000 0.0004 0.0024 28.9584 0.0003 -1.3010
# 5 -22.6185 1.7469 -17.1698 0.0003 14.9174 0.0000
# 6 0.0000 0.0002 0.0001 -1.3010 0.0000 30.5342
#
#
#
# Elastic Compliance Matrix: (Units=1/GPa)
#
#
# Indices 1 2 3 4 5 6 
#
# 1 0.013846 -0.004841 0.001409 0.000000 0.023182 0.000000
# 2 -0.004841 0.017407 -0.006156 0.000000 -0.016464 0.000000
# 3 0.001409 -0.006156 0.012882 -0.000001 0.017685 0.000000
# 4 0.000000 0.000000 -0.000001 0.034599 -0.000002 0.001474
# 5 0.023182 -0.016464 0.017685 -0.000002 0.124470 0.000000
# 6 0.000000 0.000000 0.000000 0.001474 0.000000 0.032813
#
#
# Mechanical properties :
#
#
# Convention : Reuss Voigt Hill
#
# Bulk Modulus (GPa) = 40.06283 51.59283 45.82783
# Shear Modulus (GPa) = 18.97452 29.76081 24.36767
#
# Velocity S-wave (km/s) = 3.04075 3.80818 3.44590
# Velocity P-wave (km/s) = 5.64363 6.66912 6.17769
#
# Compressibility (1/GPa) = 0.02496079
#
# Stress axis : x y z
#
# Youngs Moduli (GPa) = 72.22537 57.44673 77.62565
#
# Poissons Ratio (x) = 0.27809 -0.10940
# Poissons Ratio (y) = 0.34963 0.47784
# Poissons Ratio (z) = -0.10179 0.35363
#
# Static dielectric constant tensor:
#      x y z
#    x 3.787230 0.000000 -0.107490 
#    y 0.000000 3.719000 0.000000 
#    z -0.107490 0.000000 3.711440 
# 
# 
# High freq. dielectric constant tensor:
#      x y z
#    x 1.815830 0.000000 -0.007540 
#    y 0.000000 1.809430 0.000000 
#    z -0.007540 0.000000 1.796940 
# 
# From -- ./inp_files/26530.got.cif
#   From: 2010.03.12/outbox.cif.g09.slc.cpg/sg8_14_cif.got.tgz:26530.got - 2010.03.31 10:45:26.
