data_PCOD8053071
_publ_section_title
;
Structure prediction by ZEFSAII (Michael W. Deem and Ramdas Pophale) SiO2 
 PCOD8053071
Probable space group: C M
;
_chemical_formula_sum "Si O2"
_cell_formula_units_Z 32
_cell_length_a 18.585564
_cell_length_b 8.481214
_cell_length_c 25.414013
_cell_angle_alpha 90.000000
_cell_angle_beta 156.079521
_cell_angle_gamma 90.000000
_cell_volume 1624.291464
_symmetry_space_group_name_H-M "C M"
_symmetry_group_IT_number 8
_symmetry_cell_setting 'monoclinic'
loop_
_space_group_symop_operation_xyz
x,y,z
x,-y,z
1/2+x,1/2+y,z
1/2+x,1/2-y,z
loop_
_atom_site_type_symbol
_atom_site_label
_atom_site_fract_x
_atom_site_fract_y
_atom_site_fract_z
Si Si1 0.976350 0.684805 0.239960
Si Si2 0.642177 0.814640 0.966399
Si Si3 0.590583 0.688005 0.730820
Si Si4 0.252374 0.814583 0.731575
Si Si5 0.196158 0.687631 0.486228
Si Si6 0.542625 0.815157 0.493695
Si Si7 0.312946 0.185046 0.978575
Si Si8 0.643305 0.316993 0.250171
O O1 0.936835 0.500000 0.216766
O O2 0.069022 0.749119 0.354693
O O3 0.106774 0.716585 0.278149
O O4 0.790688 0.776403 0.109377
O O5 0.453099 0.751377 0.860462
O O6 0.639758 0.000000 0.952859
O O7 0.683907 0.721833 0.940901
O O8 0.583464 0.500000 0.725272
O O9 0.662899 0.758158 0.724125
O O10 0.393560 0.755739 0.609265
O O11 0.720353 0.746946 0.863698
O O12 0.138098 0.771736 0.604829
O O13 0.257341 0.000000 0.741262
O O14 0.199235 0.500000 0.487605
O O15 0.121858 0.750225 0.492058
O O16 0.335119 0.773559 0.355823
O O17 0.576902 0.000000 0.522562
O O18 0.499902 0.274681 0.109539
O O19 0.350241 0.000000 0.001362
O O20 0.627400 0.500000 0.254268
#
# Coordination Sequence:
#
# PCOD8053071 Si02
#       8
#     4   4   4   4   4   4   4   4
#     4  10  19  33  56  79 100 135 179 212 245 302
#     4  10  20  34  52  76 109 139 164 208 264 306
#     4   9  18  33  53  76 102 132 170 216 257 296
#     4  10  21  36  54  77 104 136 172 211 258 306
#     4   9  18  33  53  76 102 132 170 216 257 296
#     4  10  21  36  54  77 104 136 172 211 258 306
#     4  10  19  33  56  79 100 135 179 212 245 302
#     4  10  20  34  52  76 109 139 164 208 264 306
#
# _framework density 19.700899
#
# number of rings (size 3 to 8) (size 9 to 14) (size 15 to 20)
#    0.000    2.250    0.000    4.500    0.000    5.000 
#    0.000    2.500    0.000    6.750    0.000    0.000 
#    0.000    0.000    0.000    0.000    0.000    0.000 
#
# Total GULP energy -198428.034375 kJ/mol
# GULP energy per Si atom -12401.752148 kJ/mol
# Density = 1.965606 g / cm^3
# Si number density = 19.700899 Si / 1000 Ang^3
#
#
#
# Elastic Constant Matrix: (Units=GPa)
#
#
# Indices 1 2 3 4 5 6 
#
# 1 143.8313 2.2630 96.3779 0.0058 3.5643 -0.0019
# 2 2.2630 19.8298 8.8795 0.0034 4.2101 -0.0006
# 3 96.3779 8.8795 158.3525 0.0339 -0.6244 -0.0067
# 4 0.0058 0.0034 0.0339 27.8128 -0.0016 -2.2727
# 5 3.5643 4.2101 -0.6244 -0.0016 46.8308 -0.0007
# 6 -0.0019 -0.0006 -0.0067 -2.2727 -0.0007 18.6958
#
#
#
# Elastic Compliance Matrix: (Units=1/GPa)
#
#
# Indices 1 2 3 4 5 6 
#
# 1 0.011877 0.002193 -0.007357 0.000006 -0.001199 -0.000001
# 2 0.002193 0.053184 -0.004337 -0.000002 -0.005006 0.000000
# 3 -0.007357 -0.004337 0.011040 -0.000011 0.001097 0.000002
# 4 0.000006 -0.000002 -0.000011 0.036315 0.000001 0.004415
# 5 -0.001199 -0.005006 0.001097 0.000001 0.021909 0.000001
# 6 -0.000001 0.000000 0.000002 0.004415 0.000001 0.054024
#
#
# Mechanical properties :
#
#
# Convention : Reuss Voigt Hill
#
# Bulk Modulus (GPa) = 17.51294 59.67270 38.59282
# Shear Modulus (GPa) = 22.08636 32.96742 27.52689
#
# Velocity S-wave (km/s) = 3.35189 4.09516 3.74202
# Velocity P-wave (km/s) = 4.88763 7.26054 6.18888
#
# Compressibility (1/GPa) = 0.05710063
#
# Stress axis : x y z
#
# Youngs Moduli (GPa) = 84.19457 18.80276 90.58012
#
# Poissons Ratio (x) = -0.04124 0.66636
# Poissons Ratio (y) = -0.18467 0.39284
# Poissons Ratio (z) = 0.61938 0.08155
#
# Static dielectric constant tensor:
#      x y z
#    x 3.748770 0.000000 0.065290 
#    y 0.000000 3.311670 -0.000060 
#    z 0.065290 -0.000060 3.829850 
# 
# 
# High freq. dielectric constant tensor:
#      x y z
#    x 1.768270 0.000000 0.001990 
#    y 0.000000 1.742890 0.000000 
#    z 0.001990 0.000000 1.784080 
# 
# From -- ./inp_files/33068.got.cif
#   From: 2010.03.12/outbox.cif.g09.slc.cpg/sg8_17_cif.got.tgz:33068.got - 2010.03.31 10:45:26.
