data_PCOD8053417
_publ_section_title
;
Structure prediction by ZEFSAII (Michael W. Deem and Ramdas Pophale) SiO2 
 PCOD8053417
Probable space group: C M
;
_chemical_formula_sum "Si O2"
_cell_formula_units_Z 32
_cell_length_a 14.502084
_cell_length_b 8.813574
_cell_length_c 22.773933
_cell_angle_alpha 90.000000
_cell_angle_beta 143.820017
_cell_angle_gamma 90.000000
_cell_volume 1718.346477
_symmetry_space_group_name_H-M "C M"
_symmetry_group_IT_number 8
_symmetry_cell_setting 'monoclinic'
loop_
_space_group_symop_operation_xyz
x,y,z
x,-y,z
1/2+x,1/2+y,z
1/2+x,1/2-y,z
loop_
_atom_site_type_symbol
_atom_site_label
_atom_site_fract_x
_atom_site_fract_y
_atom_site_fract_z
Si Si1 0.508910 0.820155 0.466130
Si Si2 0.047275 0.169998 0.803944
Si Si3 0.655732 0.820856 0.100110
Si Si4 0.111784 0.323606 0.949490
Si Si5 0.453128 0.824855 0.305074
Si Si6 0.362294 0.171657 0.016527
Si Si7 0.832052 0.320853 0.603917
Si Si8 0.807071 0.178939 0.466482
O O1 0.440857 0.777409 0.367132
O O2 0.681154 0.748961 0.558804
O O3 0.396867 0.751844 0.458001
O O4 0.522864 0.000000 0.481478
O O5 0.980513 0.281196 0.720324
O O6 0.003353 0.231764 0.847245
O O7 0.237289 0.170117 0.897681
O O8 0.979458 0.000000 0.761178
O O9 0.827210 0.763298 0.202403
O O10 0.665125 0.000000 0.102422
O O11 0.587239 0.763581 0.002749
O O12 0.530808 0.765677 0.083987
O O13 0.076198 0.500000 0.923581
O O14 0.295716 0.286331 0.031308
O O15 0.623024 0.785460 0.366014
O O16 0.415948 0.000000 0.279033
O O17 0.376740 0.000000 0.049049
O O18 0.811813 0.500000 0.587323
O O19 0.866264 0.250024 0.557799
O O20 0.839334 0.000000 0.484734
#
# Coordination Sequence:
#
# PCOD8053417 Si02
#       8
#     4   4   4   4   4   4   4   4
#     4  10  21  39  59  83 113 144 185 231 277 333
#     4   9  18  36  57  76 109 148 180 224 276 322
#     4  10  20  35  55  79 107 144 185 223 270 326
#     4   9  18  33  52  76 105 137 180 228 267 316
#     4   9  21  37  55  80 112 145 180 226 275 325
#     4   8  18  35  52  72 104 144 179 219 269 319
#     4  11  21  36  59  85 113 146 185 227 278 332
#     4  10  21  39  59  83 113 146 184 228 278 333
#
# _framework density 18.622554000000001
#
# number of rings (size 3 to 8) (size 9 to 14) (size 15 to 20)
#    0.750    1.750    0.000    3.000    0.000    5.500 
#    2.250    5.000    0.000    0.000    0.000    0.000 
#    0.000    0.000    0.000    0.000    0.000    0.000 
#
# Total GULP energy -198268.091834 kJ/mol
# GULP energy per Si atom -12391.755740 kJ/mol
# Density = 1.858017 g / cm^3
# Si number density = 18.622554 Si / 1000 Ang^3
#
#
#
# Elastic Constant Matrix: (Units=GPa)
#
#
# Indices 1 2 3 4 5 6 
#
# 1 90.3230 31.6322 11.0090 0.0000 -6.4098 0.0000
# 2 31.6322 80.0603 24.0197 0.0000 -4.8151 0.0000
# 3 11.0090 24.0197 57.9629 0.0000 -4.2243 0.0000
# 4 0.0000 0.0000 0.0000 33.0827 0.0000 -1.0148
# 5 -6.4098 -4.8151 -4.2243 0.0000 20.9795 0.0000
# 6 0.0000 0.0000 0.0000 -1.0148 0.0000 30.1258
#
#
#
# Elastic Compliance Matrix: (Units=1/GPa)
#
#
# Indices 1 2 3 4 5 6 
#
# 1 0.013016 -0.004903 -0.000236 0.000000 0.002804 0.000000
# 2 -0.004903 0.016204 -0.005706 0.000000 0.001072 0.000000
# 3 -0.000236 -0.005706 0.019852 0.000000 0.002616 0.000000
# 4 0.000000 0.000000 0.000000 0.030259 0.000000 0.001019
# 5 0.002804 0.001072 0.002616 0.000000 0.049295 0.000000
# 6 0.000000 0.000000 0.000000 0.001019 0.000000 0.033229
#
#
# Mechanical properties :
#
#
# Convention : Reuss Voigt Hill
#
# Bulk Modulus (GPa) = 36.51891 40.18533 38.35212
# Shear Modulus (GPa) = 25.95080 27.61661 26.78371
#
# Velocity S-wave (km/s) = 3.73703 3.85511 3.79653
# Velocity P-wave (km/s) = 6.18653 6.43751 6.31327
#
# Compressibility (1/GPa) = 0.02738307
#
# Stress axis : x y z
#
# Youngs Moduli (GPa) = 76.82655 61.71243 50.37219
#
# Poissons Ratio (x) = 0.30260 0.01188
# Poissons Ratio (y) = 0.37671 0.28740
# Poissons Ratio (z) = 0.01812 0.35210
#
# Static dielectric constant tensor:
#      x y z
#    x 3.416670 0.000000 -0.046530 
#    y 0.000000 3.387890 0.000000 
#    z -0.046530 0.000000 3.295600 
# 
# 
# High freq. dielectric constant tensor:
#      x y z
#    x 1.711950 0.000000 -0.004240 
#    y 0.000000 1.728210 0.000000 
#    z -0.004240 0.000000 1.714510 
# 
# From -- ./inp_files/30704.got.cif
#   From: 2010.03.12/outbox.cif.g09.slc.cpg/sg8_16_cif.got.tgz:30704.got - 2010.03.31 10:45:26.
