data_PCOD8053035
_publ_section_title
;
Structure prediction by ZEFSAII (Michael W. Deem and Ramdas Pophale) SiO2 
 PCOD8053035
Probable space group: C M
;
_chemical_formula_sum "Si O2"
_cell_formula_units_Z 32
_cell_length_a 15.919124
_cell_length_b 23.996100
_cell_length_c 10.874665
_cell_angle_alpha 90.000000
_cell_angle_beta 155.969599
_cell_angle_gamma 90.000000
_cell_volume 1691.633252
_symmetry_space_group_name_H-M "C M"
_symmetry_group_IT_number 8
_symmetry_cell_setting 'monoclinic'
loop_
_space_group_symop_operation_xyz
x,y,z
x,-y,z
1/2+x,1/2+y,z
1/2+x,1/2-y,z
loop_
_atom_site_type_symbol
_atom_site_label
_atom_site_fract_x
_atom_site_fract_y
_atom_site_fract_z
Si Si1 0.140280 0.261128 0.060820
Si Si2 0.607820 0.135769 0.847404
Si Si3 0.678515 0.133486 0.542931
Si Si4 0.816114 0.649341 0.236588
Si Si5 0.471543 0.649764 0.153642
Si Si6 0.780651 0.561150 0.499615
Si Si7 0.188114 0.261330 0.408100
Si Si8 0.008561 0.060844 0.893811
O O1 0.246160 0.212892 0.118023
O O2 0.229892 0.262694 0.318325
O O3 0.172285 0.319349 0.035240
O O4 0.902182 0.248970 0.761534
O O5 0.414917 0.154324 0.504796
O O6 0.519242 0.079748 0.793663
O O7 0.810048 0.125801 0.036527
O O8 0.478306 0.123078 0.358188
O O9 0.608679 0.178986 0.349109
O O10 0.768257 0.077974 0.596992
O O11 0.872137 0.151898 0.885511
O O12 0.618307 0.608794 0.959776
O O13 0.668265 0.608695 0.430533
O O14 0.537607 0.713701 0.261096
O O15 0.788966 0.500000 0.575519
O O16 0.645205 0.554579 0.197334
O O17 0.003565 0.000000 0.821397
#
# Coordination Sequence:
#
# PCOD8053035 Si02
#       8
#     4   4   4   4   4   4   4   4
#     4  12  20  35  56  77 108 142 172 212 264 312
#     4  10  20  33  52  78 107 138 174 216 261 310
#     4  10  20  33  52  78 107 138 174 216 261 310
#     4  10  19  33  52  78 108 137 173 217 261 309
#     4  10  19  33  52  78 108 137 173 217 261 309
#     4   9  17  31  51  76 106 138 173 217 262 305
#     4  12  20  35  56  77 108 142 172 212 264 312
#     4   9  17  31  51  76 106 138 173 217 262 305
#
# _framework density 18.916630000000001
#
# number of rings (size 3 to 8) (size 9 to 14) (size 15 to 20)
#    0.000    1.750    5.000    1.500    0.000    1.000 
#    0.000    5.000    0.000    0.750    0.000    1.750 
#    0.000    0.000    0.000    0.000    0.000    0.000 
#
# Total GULP energy -198241.814985 kJ/mol
# GULP energy per Si atom -12390.113437 kJ/mol
# Density = 1.887357 g / cm^3
# Si number density = 18.916630 Si / 1000 Ang^3
#
#
#
# Elastic Constant Matrix: (Units=GPa)
#
#
# Indices 1 2 3 4 5 6 
#
# 1 75.0418 45.4884 25.6029 0.0000 18.0234 0.0000
# 2 45.4884 141.4476 30.4525 0.0000 11.7074 0.0000
# 3 25.6029 30.4525 41.8270 -0.0001 18.4937 0.0000
# 4 0.0000 0.0000 -0.0001 14.3956 0.0000 8.1882
# 5 18.0234 11.7074 18.4937 0.0000 21.6481 0.0000
# 6 0.0000 0.0000 0.0000 8.1882 0.0000 16.8150
#
#
#
# Elastic Compliance Matrix: (Units=1/GPa)
#
#
# Indices 1 2 3 4 5 6 
#
# 1 0.020170 -0.004697 -0.004218 0.000000 -0.010649 0.000000
# 2 -0.004697 0.009494 -0.005618 0.000000 0.003575 0.000000
# 3 -0.004218 -0.005618 0.044488 0.000000 -0.031456 0.000000
# 4 0.000000 0.000000 0.000000 0.096077 0.000000 -0.046785
# 5 -0.010649 0.003575 -0.031456 0.000000 0.079998 0.000000
# 6 0.000000 0.000000 0.000000 -0.046785 0.000000 0.082253
#
#
# Mechanical properties :
#
#
# Convention : Reuss Voigt Hill
#
# Bulk Modulus (GPa) = 22.17991 51.26712 36.72351
# Shear Modulus (GPa) = 13.27760 21.02325 17.15043
#
# Velocity S-wave (km/s) = 2.65222 3.33733 3.01430
# Velocity P-wave (km/s) = 4.59669 6.48157 5.61873
#
# Compressibility (1/GPa) = 0.04508585
#
# Stress axis : x y z
#
# Youngs Moduli (GPa) = 49.57881 105.33197 22.47786
#
# Poissons Ratio (x) = 0.49474 0.09482
# Poissons Ratio (y) = 0.23287 0.12628
# Poissons Ratio (z) = 0.20913 0.59174
#
# Static dielectric constant tensor:
#      x y z
#    x 3.344740 0.000000 0.186380 
#    y 0.000000 3.758910 0.000000 
#    z 0.186380 0.000000 3.247260 
# 
# 
# High freq. dielectric constant tensor:
#      x y z
#    x 1.714040 0.000000 0.030130 
#    y 0.000000 1.734410 0.000000 
#    z 0.030130 0.000000 1.707500 
# 
# From -- ./inp_files/23466.got.cif
#   From: 2010.03.12/outbox.cif.g09.slc.cpg/sg8_12_cif.got.tgz:23466.got - 2010.03.31 10:45:26.
