data_PCOD8053892
_publ_section_title
;
Structure prediction by ZEFSAII (Michael W. Deem and Ramdas Pophale) SiO2 
 PCOD8053892
Probable space group: C M
;
_chemical_formula_sum "Si O2"
_cell_formula_units_Z 32
_cell_length_a 14.835109
_cell_length_b 17.587011
_cell_length_c 12.293683
_cell_angle_alpha 90.000000
_cell_angle_beta 152.117494
_cell_angle_gamma 90.000000
_cell_volume 1500.012817
_symmetry_space_group_name_H-M "C M"
_symmetry_group_IT_number 8
_symmetry_cell_setting 'monoclinic'
loop_
_space_group_symop_operation_xyz
x,y,z
x,-y,z
1/2+x,1/2+y,z
1/2+x,1/2-y,z
loop_
_atom_site_type_symbol
_atom_site_label
_atom_site_fract_x
_atom_site_fract_y
_atom_site_fract_z
Si Si1 0.145080 0.813984 0.116450
Si Si2 0.604515 0.830493 0.325784
Si Si3 0.660073 0.088297 0.964234
Si Si4 0.236460 0.803848 0.797500
Si Si5 0.874334 0.713418 0.706316
Si Si6 0.298875 0.362770 0.893103
Si Si7 0.494903 0.915965 0.417654
Si Si8 0.318871 0.652541 0.353582
O O1 0.300550 0.873949 0.243932
O O2 0.248860 0.739779 0.275198
O O3 0.020309 0.785011 0.879405
O O4 0.009730 0.853937 0.063481
O O5 0.693358 0.745962 0.445057
O O6 0.605674 0.875703 0.438080
O O7 0.726561 0.878447 0.367023
O O8 0.387352 0.823543 0.052237
O O9 0.755082 0.103670 0.182325
O O10 0.599100 0.000000 0.891676
O O11 0.473087 0.142854 0.747954
O O12 0.816024 0.110364 0.037145
O O13 0.321009 0.819092 0.768141
O O14 0.181935 0.715970 0.754741
O O15 0.047644 0.854689 0.609395
O O16 0.155950 0.422681 0.683495
O O17 0.430856 0.000000 0.315093
#
# Coordination Sequence:
#
# PCOD8053892 Si02
#       8
#     4   4   4   4   4   4   4   4
#     4  10  21  43  66 101 125 172 227 273 323 393
#     4  12  23  43  70 101 130 176 232 277 333 386
#     4  11  25  43  68 102 144 180 215 276 348 410
#     4  11  22  41  70 102 128 173 232 287 316 394
#     4  10  22  42  70  99 132 175 229 280 329 393
#     4  11  22  42  68  98 137 173 221 277 335 393
#     4  12  27  43  65 100 142 176 217 277 342 401
#     4  11  23  41  71 101 131 175 227 275 329 398
#
# _framework density 21.333151000000001
#
# number of rings (size 3 to 8) (size 9 to 14) (size 15 to 20)
#    0.000    1.000    7.500    1.125    7.000    1.500 
#    0.000    1.250    0.000    0.000    0.000    0.000 
#    0.000    0.000    0.000    0.000    0.000    0.000 
#
# Total GULP energy -198364.694931 kJ/mol
# GULP energy per Si atom -12397.793433 kJ/mol
# Density = 2.128460 g / cm^3
# Si number density = 21.333151 Si / 1000 Ang^3
#
#
#
# Elastic Constant Matrix: (Units=GPa)
#
#
# Indices 1 2 3 4 5 6 
#
# 1 142.6885 62.4264 42.2926 0.0000 0.7753 0.0000
# 2 62.4264 98.7949 16.0094 0.0000 13.6501 0.0000
# 3 42.2926 16.0094 92.1315 0.0000 12.8793 0.0000
# 4 0.0000 0.0000 0.0000 14.5007 0.0000 -0.0761
# 5 0.7753 13.6501 12.8793 0.0000 34.6238 0.0000
# 6 0.0000 0.0000 0.0000 -0.0761 0.0000 14.8180
#
#
#
# Elastic Compliance Matrix: (Units=1/GPa)
#
#
# Indices 1 2 3 4 5 6 
#
# 1 0.011449 -0.007073 -0.004621 0.000000 0.004251 0.000000
# 2 -0.007073 0.015234 0.001495 0.000000 -0.006404 0.000000
# 3 -0.004621 0.001495 0.013485 0.000000 -0.005502 0.000000
# 4 0.000000 0.000000 0.000000 0.068964 0.000000 0.000354
# 5 0.004251 -0.006404 -0.005502 0.000000 0.033358 0.000000
# 6 0.000000 0.000000 0.000000 0.000354 0.000000 0.067488
#
#
# Mechanical properties :
#
#
# Convention : Reuss Voigt Hill
#
# Bulk Modulus (GPa) = 50.58304 63.89685 57.23994
# Shear Modulus (GPa) = 21.10015 26.98094 24.04055
#
# Velocity S-wave (km/s) = 3.14837 3.56018 3.36059
# Velocity P-wave (km/s) = 6.08102 6.84958 6.47671
#
# Compressibility (1/GPa) = 0.01976947
#
# Stress axis : x y z
#
# Youngs Moduli (GPa) = 87.34138 65.64329 74.15853
#
# Poissons Ratio (x) = 0.46430 0.34268
# Poissons Ratio (y) = 0.61778 -0.11086
# Poissons Ratio (z) = 0.40360 -0.09813
#
# Static dielectric constant tensor:
#      x y z
#    x 4.054250 0.000000 -0.022190 
#    y 0.000000 3.521270 0.000000 
#    z -0.022190 0.000000 3.858710 
# 
# 
# High freq. dielectric constant tensor:
#      x y z
#    x 1.855220 0.000000 -0.002730 
#    y 0.000000 1.796790 0.000000 
#    z -0.002730 0.000000 1.838880 
# 
# From -- ./inp_files/22423.got.cif
#   From: 2010.03.12/outbox.cif.g09.slc.cpg/sg8_12_cif.got.tgz:22423.got - 2010.03.31 10:45:26.
