data_PCOD8053942
_publ_section_title
;
Structure prediction by ZEFSAII (Michael W. Deem and Ramdas Pophale) SiO2 
 PCOD8053942
Probable space group: C M
;
_chemical_formula_sum "Si O2"
_cell_formula_units_Z 32
_cell_length_a 23.733793
_cell_length_b 8.953565
_cell_length_c 19.120931
_cell_angle_alpha 90.000000
_cell_angle_beta 23.390653
_cell_angle_gamma 90.000000
_cell_volume 1613.097717
_symmetry_space_group_name_H-M "C M"
_symmetry_group_IT_number 8
_symmetry_cell_setting 'monoclinic'
loop_
_space_group_symop_operation_xyz
x,y,z
x,-y,z
1/2+x,1/2+y,z
1/2+x,1/2-y,z
loop_
_atom_site_type_symbol
_atom_site_label
_atom_site_fract_x
_atom_site_fract_y
_atom_site_fract_z
Si Si1 0.909270 0.827889 0.574290
Si Si2 0.331726 0.176447 0.430032
Si Si3 0.411697 0.824333 0.716814
Si Si4 0.849539 0.674732 0.124973
Si Si5 0.161773 0.669852 0.227192
Si Si6 0.153224 0.669880 0.078544
Si Si7 0.188270 0.175845 0.449904
Si Si8 0.672832 0.171325 0.736770
O O1 0.936200 0.723509 0.609533
O O2 0.757910 0.799543 0.711469
O O3 0.026756 0.778492 0.384686
O O4 0.930794 0.000000 0.571750
O O5 0.493190 0.234482 0.254802
O O6 0.271901 0.230556 0.423443
O O7 0.230781 0.234184 0.606372
O O8 0.331514 0.000000 0.436434
O O9 0.534721 0.753521 0.624474
O O10 0.421008 0.000000 0.713844
O O11 0.255694 0.770279 0.915412
O O12 0.823466 0.500000 0.140213
O O13 0.785637 0.771243 0.135411
O O14 0.780187 0.722658 0.277541
O O15 0.014320 0.716512 0.937913
O O16 0.121626 0.500000 0.293495
O O17 0.212838 0.676678 0.089232
O O18 0.157840 0.500000 0.044680
O O19 0.162617 0.000000 0.481050
O O20 0.685204 0.000000 0.699602
#
# Coordination Sequence:
#
# PCOD8053942 Si02
#       8
#     4   4   4   4   4   4   4   4
#     4  11  22  40  66  90 121 161 202 253 312 366
#     4  10  22  41  65  90 122 163 203 249 303 365
#     4  12  26  41  62  92 124 160 208 257 304 361
#     4  10  22  40  62  89 121 163 206 246 301 364
#     4  11  22  39  64  92 121 156 206 258 304 359
#     4  10  23  42  64  90 123 161 204 252 308 368
#     4  10  22  41  64  88 121 165 206 246 304 365
#     4  10  23  40  63  93 123 159 203 251 304 364
#
# _framework density 19.837606999999998
#
# number of rings (size 3 to 8) (size 9 to 14) (size 15 to 20)
#    0.000    1.500    2.500    1.875    3.500    3.000 
#    0.000    0.000    0.000    0.000    0.000    0.000 
#    0.000    0.000    0.000    0.000    0.000    0.000 
#
# Total GULP energy -198456.254242 kJ/mol
# GULP energy per Si atom -12403.515890 kJ/mol
# Density = 1.979246 g / cm^3
# Si number density = 19.837607 Si / 1000 Ang^3
#
#
#
# Elastic Constant Matrix: (Units=GPa)
#
#
# Indices 1 2 3 4 5 6 
#
# 1 103.4012 36.2582 29.3289 -0.0004 -14.6455 -0.0002
# 2 36.2582 55.1600 28.5330 -0.0028 -6.2068 0.0005
# 3 29.3289 28.5330 101.4337 -0.0016 -15.8225 0.0001
# 4 -0.0004 -0.0028 -0.0016 33.4522 0.0002 3.6663
# 5 -14.6455 -6.2068 -15.8225 0.0002 33.2522 0.0000
# 6 -0.0002 0.0005 0.0001 3.6663 0.0000 26.9808
#
#
#
# Elastic Compliance Matrix: (Units=1/GPa)
#
#
# Indices 1 2 3 4 5 6 
#
# 1 0.013223 -0.007713 -0.001048 -0.000001 0.003886 0.000000
# 2 -0.007713 0.025760 -0.005180 0.000002 -0.001054 -0.000001
# 3 -0.001048 -0.005180 0.012310 0.000000 0.004429 0.000000
# 4 -0.000001 0.000002 0.000000 0.030345 0.000000 -0.004123
# 5 0.003886 -0.001054 0.004429 0.000000 0.033695 0.000000
# 6 0.000000 -0.000001 0.000000 -0.004123 0.000000 0.037624
#
#
# Mechanical properties :
#
#
# Convention : Reuss Voigt Hill
#
# Bulk Modulus (GPa) = 42.71485 49.80390 46.25937
# Shear Modulus (GPa) = 26.50511 29.79537 28.15024
#
# Velocity S-wave (km/s) = 3.65924 3.87972 3.77109
# Velocity P-wave (km/s) = 6.27952 6.72532 6.50624
#
# Compressibility (1/GPa) = 0.02341106
#
# Stress axis : x y z
#
# Youngs Moduli (GPa) = 75.62508 38.81980 81.23675
#
# Poissons Ratio (x) = 0.29941 0.08511
# Poissons Ratio (y) = 0.58328 0.42085
# Poissons Ratio (z) = 0.07923 0.20111
#
# Static dielectric constant tensor:
#      x y z
#    x 3.734780 0.000000 -0.118640 
#    y 0.000000 3.527810 0.000000 
#    z -0.118640 0.000000 3.651640 
# 
# 
# High freq. dielectric constant tensor:
#      x y z
#    x 1.784350 0.000000 -0.005590 
#    y 0.000000 1.765380 0.000000 
#    z -0.005590 0.000000 1.780300 
# 
# From -- ./inp_files/31650.got.cif
#   From: 2010.03.12/outbox.cif.g09.slc.cpg/sg8_16_cif.got.tgz:31650.got - 2010.03.31 10:45:26.
