data_PCOD8053357
_publ_section_title
;
Structure prediction by ZEFSAII (Michael W. Deem and Ramdas Pophale) SiO2 
 PCOD8053357
Probable space group: C M
;
_chemical_formula_sum "Si O2"
_cell_formula_units_Z 32
_cell_length_a 27.787032
_cell_length_b 8.644605
_cell_length_c 21.843060
_cell_angle_alpha 90.000000
_cell_angle_beta 161.326676
_cell_angle_gamma 90.000000
_cell_volume 1679.902493
_symmetry_space_group_name_H-M "C M"
_symmetry_group_IT_number 8
_symmetry_cell_setting 'monoclinic'
loop_
_space_group_symop_operation_xyz
x,y,z
x,-y,z
1/2+x,1/2+y,z
1/2+x,1/2-y,z
loop_
_atom_site_type_symbol
_atom_site_label
_atom_site_fract_x
_atom_site_fract_y
_atom_site_fract_z
Si Si1 0.582710 0.679615 0.773510
Si Si2 0.101539 0.317831 0.053070
Si Si3 0.819267 0.681569 0.786192
Si Si4 0.012521 0.681280 0.132904
Si Si5 0.197559 0.820621 0.045850
Si Si6 0.494945 0.680689 0.362763
Si Si7 0.880387 0.178572 0.091680
Si Si8 0.770844 0.680763 0.365214
O O1 0.545419 0.500000 0.719208
O O2 0.444520 0.782484 0.585379
O O3 0.616043 0.720178 0.884204
O O4 0.727572 0.722035 0.907239
O O5 0.118719 0.500000 0.084473
O O6 0.114172 0.276775 0.997349
O O7 0.230622 0.233885 0.248017
O O8 0.939387 0.257493 0.881160
O O9 0.804232 0.500000 0.760009
O O10 0.655289 0.753119 0.576069
O O11 0.877037 0.725060 0.923473
O O12 0.016935 0.500000 0.151965
O O13 0.171294 0.729158 0.295189
O O14 0.986930 0.772756 0.164495
O O15 0.371320 0.772282 0.252551
O O16 0.186232 0.000000 0.048296
O O17 0.479758 0.500000 0.360565
O O18 0.475675 0.710938 0.267546
O O19 0.835521 0.000000 0.032191
O O20 0.741436 0.500000 0.337258
#
# Coordination Sequence:
#
# PCOD8053357 Si02
#       8
#     4   4   4   4   4   4   4   4
#     4  10  21  38  57  78 109 147 184 225 276 329
#     4  10  20  36  57  80 109 144 180 219 270 328
#     4   8  17  34  55  77 100 133 177 217 255 311
#     4  10  20  36  56  78 108 144 180 220 272 329
#     4  10  21  36  54  80 111 142 180 223 266 318
#     4   9  18  35  56  77 104 139 179 221 266 315
#     4  10  20  34  54  81 110 141 180 226 271 317
#     4  11  22  37  57  81 109 140 182 233 278 323
#
# _framework density 19.048722999999999
#
# number of rings (size 3 to 8) (size 9 to 14) (size 15 to 20)
#    0.000    2.250    0.000    3.750    0.000    4.000 
#    0.000    8.750    0.000    0.000    0.000    0.000 
#    0.000    0.000    0.000    0.000    0.000    0.000 
#
# Total GULP energy -198450.056661 kJ/mol
# GULP energy per Si atom -12403.128541 kJ/mol
# Density = 1.900537 g / cm^3
# Si number density = 19.048723 Si / 1000 Ang^3
#
#
#
# Elastic Constant Matrix: (Units=GPa)
#
#
# Indices 1 2 3 4 5 6 
#
# 1 59.5317 12.2970 -17.7794 0.0001 -0.2592 0.0001
# 2 12.2970 55.6396 16.1115 0.0001 -3.0072 0.0001
# 3 -17.7794 16.1115 71.8750 0.0002 4.0753 0.0001
# 4 0.0001 0.0001 0.0002 26.0108 0.0001 1.3539
# 5 -0.2592 -3.0072 4.0753 0.0001 13.1316 0.0001
# 6 0.0001 0.0001 0.0001 1.3539 0.0001 35.0523
#
#
#
# Elastic Compliance Matrix: (Units=1/GPa)
#
#
# Indices 1 2 3 4 5 6 
#
# 1 0.020109 -0.006531 0.006617 0.000000 -0.003152 0.000000
# 2 -0.006531 0.021792 -0.006897 0.000000 0.007002 0.000000
# 3 0.006617 -0.006897 0.017486 0.000000 -0.006876 0.000000
# 4 0.000000 0.000000 0.000000 0.038523 0.000000 -0.001488
# 5 -0.003152 0.007002 -0.006876 0.000000 0.079827 0.000000
# 6 0.000000 0.000000 0.000000 -0.001488 0.000000 0.028586
#
#
# Mechanical properties :
#
#
# Convention : Reuss Voigt Hill
#
# Bulk Modulus (GPa) = 21.85095 23.14495 22.49795
# Shear Modulus (GPa) = 21.25843 26.60009 23.92926
#
# Velocity S-wave (km/s) = 3.34429 3.74093 3.54816
# Velocity P-wave (km/s) = 5.13890 5.55303 5.34998
#
# Compressibility (1/GPa) = 0.04576461
#
# Stress axis : x y z
#
# Youngs Moduli (GPa) = 49.72829 45.88859 57.18913
#
# Poissons Ratio (x) = 0.29969 -0.37842
# Poissons Ratio (y) = 0.32477 0.39446
# Poissons Ratio (z) = -0.32905 0.31651
#
# Static dielectric constant tensor:
#      x y z
#    x 3.455700 0.000000 0.025510 
#    y 0.000000 3.394910 0.000000 
#    z 0.025510 0.000000 3.587350 
# 
# 
# High freq. dielectric constant tensor:
#      x y z
#    x 1.740870 0.000000 0.002840 
#    y 0.000000 1.738590 0.000000 
#    z 0.002840 0.000000 1.740030 
# 
# From -- ./inp_files/16789.got.cif
#   From: 2010.03.12/outbox.cif.g09.slc.cpg/sg8_9_cif.got.tgz:16789.got - 2010.03.31 10:45:26.
