data_PCOD8053084
_publ_section_title
;
Structure prediction by ZEFSAII (Michael W. Deem and Ramdas Pophale) SiO2 
 PCOD8053084
Probable space group: C M
;
_chemical_formula_sum "Si O2"
_cell_formula_units_Z 32
_cell_length_a 19.944437
_cell_length_b 18.143078
_cell_length_c 11.936574
_cell_angle_alpha 90.000000
_cell_angle_beta 23.220713
_cell_angle_gamma 90.000000
_cell_volume 1702.984752
_symmetry_space_group_name_H-M "C M"
_symmetry_group_IT_number 8
_symmetry_cell_setting 'monoclinic'
loop_
_space_group_symop_operation_xyz
x,y,z
x,-y,z
1/2+x,1/2+y,z
1/2+x,1/2-y,z
loop_
_atom_site_type_symbol
_atom_site_label
_atom_site_fract_x
_atom_site_fract_y
_atom_site_fract_z
Si Si1 0.396000 0.586850 0.172830
Si Si2 0.896595 0.671794 0.657501
Si Si3 0.287765 0.324745 0.552215
Si Si4 0.720758 0.913912 0.210613
Si Si5 0.884455 0.084739 0.737277
Si Si6 0.072173 0.813906 0.295319
Si Si7 0.252150 0.155628 0.640663
Si Si8 0.579817 0.914584 0.035958
O O1 0.375359 0.500000 0.235328
O O2 0.319422 0.641724 0.382099
O O3 0.297013 0.608191 0.212325
O O4 0.592682 0.605605 0.853117
O O5 0.786478 0.646254 0.720186
O O6 0.024394 0.609581 0.503981
O O7 0.014676 0.739485 0.442417
O O8 0.768216 0.691055 0.956342
O O9 0.461493 0.330712 0.355302
O O10 0.223275 0.240450 0.648629
O O11 0.141366 0.374800 0.829592
O O12 0.718680 0.000000 0.194390
O O13 0.842105 0.881785 0.925094
O O14 0.713668 0.098890 0.929043
O O15 0.044917 0.123564 0.431480
O O16 0.936219 0.000000 0.662639
O O17 0.406237 0.123665 0.334337
O O18 0.551350 0.000000 0.054031
#
# Coordination Sequence:
#
# PCOD8053084 Si02
#       8
#     4   4   4   4   4   4   4   4
#     4  11  23  41  60  87 124 162 199 245 300 358
#     4  11  21  37  60  87 119 150 201 244 298 350
#     4  10  21  37  58  88 122 152 195 245 304 345
#     4  10  22  40  60  83 123 164 196 243 300 355
#     4   9  18  35  56  84 118 153 192 239 295 347
#     4  10  21  35  61  90 116 152 192 256 294 352
#     4  11  21  36  62  89 115 154 198 251 289 358
#     4  10  19  33  57  86 115 149 193 243 294 345
#
# _framework density 18.79054
#
# number of rings (size 3 to 8) (size 9 to 14) (size 15 to 20)
#    0.000    1.750    2.500    2.250    7.000    1.500 
#    4.500    1.250    0.000    3.000    0.000    0.000 
#    0.000    0.000    0.000    0.000    0.000    0.000 
#
# Total GULP energy -198400.939707 kJ/mol
# GULP energy per Si atom -12400.058732 kJ/mol
# Density = 1.874777 g / cm^3
# Si number density = 18.790540 Si / 1000 Ang^3
#
#
#
# Elastic Constant Matrix: (Units=GPa)
#
#
# Indices 1 2 3 4 5 6 
#
# 1 76.3365 46.6717 44.3753 0.0057 15.5529 -0.0013
# 2 46.6717 73.8451 34.6017 0.0071 4.5624 -0.0048
# 3 44.3753 34.6017 137.4459 0.0074 17.8771 -0.0052
# 4 0.0057 0.0071 0.0074 32.7476 -0.0078 2.1819
# 5 15.5529 4.5624 17.8771 -0.0078 24.0217 0.0030
# 6 -0.0013 -0.0048 -0.0052 2.1819 0.0030 24.4679
#
#
#
# Elastic Compliance Matrix: (Units=1/GPa)
#
#
# Indices 1 2 3 4 5 6 
#
# 1 0.026122 -0.014226 -0.003326 -0.000003 -0.011736 0.000000
# 2 -0.014226 0.023101 -0.002048 -0.000001 0.006348 0.000003
# 3 -0.003326 -0.002048 0.009449 -0.000002 -0.004490 0.000002
# 4 -0.000003 -0.000001 -0.000002 0.030719 0.000014 -0.002739
# 5 -0.011736 0.006348 -0.004490 0.000014 0.051363 -0.000008
# 6 0.000000 0.000003 0.000002 -0.002739 -0.000008 0.041114
#
#
# Mechanical properties :
#
#
# Convention : Reuss Voigt Hill
#
# Bulk Modulus (GPa) = 51.35765 59.88054 55.61909
# Shear Modulus (GPa) = 21.97228 27.04600 24.50914
#
# Velocity S-wave (km/s) = 3.42325 3.79798 3.61547
# Velocity P-wave (km/s) = 6.55865 7.15328 6.86241
#
# Compressibility (1/GPa) = 0.01947130
#
# Stress axis : x y z
#
# Youngs Moduli (GPa) = 38.28153 43.28861 105.83230
#
# Poissons Ratio (x) = 0.61584 0.35198
# Poissons Ratio (y) = 0.54461 0.21676
# Poissons Ratio (z) = 0.12732 0.08866
#
# Static dielectric constant tensor:
#      x y z
#    x 3.361270 -0.000020 0.196430 
#    y -0.000020 3.625830 0.000040 
#    z 0.196430 0.000040 3.494160 
# 
# 
# High freq. dielectric constant tensor:
#      x y z
#    x 1.703850 0.000000 0.019030 
#    y 0.000000 1.737770 0.000000 
#    z 0.019030 0.000000 1.738550 
# 
# From -- ./inp_files/24188.got.cif
#   From: 2010.03.12/outbox.cif.g09.slc.cpg/sg8_13_cif.got.tgz:24188.got - 2010.03.31 10:45:26.
