data_PCOD8053672
_publ_section_title
;
Structure prediction by ZEFSAII (Michael W. Deem and Ramdas Pophale) SiO2 
 PCOD8053672
Probable space group: C M
;
_chemical_formula_sum "Si O2"
_cell_formula_units_Z 20
_cell_length_a 7.613515
_cell_length_b 24.718184
_cell_length_c 7.916763
_cell_angle_alpha 90.000000
_cell_angle_beta 144.771383
_cell_angle_gamma 90.000000
_cell_volume 859.419223
_symmetry_space_group_name_H-M "C M"
_symmetry_group_IT_number 8
_symmetry_cell_setting 'monoclinic'
loop_
_space_group_symop_operation_xyz
x,y,z
x,-y,z
1/2+x,1/2+y,z
1/2+x,1/2-y,z
loop_
_atom_site_type_symbol
_atom_site_label
_atom_site_fract_x
_atom_site_fract_y
_atom_site_fract_z
Si Si1 0.149440 0.792070 0.943030
Si Si2 0.733126 0.000000 0.795074
Si Si3 0.589201 0.500000 0.395792
Si Si4 0.798664 0.793555 0.349133
Si Si5 0.213284 0.885019 0.525769
Si Si6 0.372315 0.615032 0.928283
O O1 0.961697 0.764479 0.639624
O O2 0.921693 0.838046 0.831305
O O3 0.468573 0.818423 0.134307
O O4 0.241640 0.748088 0.153884
O O5 0.867336 0.056546 0.827565
O O6 0.371796 0.000000 0.484283
O O7 0.788250 0.000000 0.043137
O O8 0.614375 0.444260 0.523271
O O9 0.033595 0.840400 0.487944
O O10 0.576236 0.875514 0.816070
O O11 0.150872 0.882803 0.276476
#
# Coordination Sequence:
#
# PCOD8053672 Si02
#       6
#     4   2   2   4   4   4
#     4  12  26  43  62  89 124 166 209 257 310 364
#     4   8  16  32  60  90 118 154 197 240 297 366
#     4   8  16  32  60  90 118 154 197 240 297 366
#     4  12  26  43  62  89 124 166 209 257 310 364
#     4  10  20  39  64  91 121 159 203 249 299 365
#     4  10  20  39  64  91 121 159 203 249 299 365
#
# _framework density 23.271529999999998
#
# number of rings (size 3 to 8) (size 9 to 14) (size 15 to 20)
#    0.000    1.600    0.000    4.800    0.000    3.200 
#    0.000    2.000    0.000    0.000    0.000    0.000 
#    0.000    0.000    0.000    0.000    0.000    0.000 
#
# Total GULP energy -123913.921777 kJ/mol
# GULP energy per Si atom -12391.392178 kJ/mol
# Density = 2.321856 g / cm^3
# Si number density = 23.271530 Si / 1000 Ang^3
#
#
#
# Elastic Constant Matrix: (Units=GPa)
#
#
# Indices 1 2 3 4 5 6 
#
# 1 81.6808 58.1796 28.0351 0.0000 11.5431 0.0000
# 2 58.1796 158.6940 29.9511 0.0000 1.4488 0.0000
# 3 28.0351 29.9511 110.5452 0.0000 -4.5118 0.0000
# 4 0.0000 0.0000 0.0000 30.9029 0.0000 10.1354
# 5 11.5431 1.4488 -4.5118 0.0000 42.2124 0.0000
# 6 0.0000 0.0000 0.0000 10.1354 0.0000 22.7961
#
#
#
# Elastic Compliance Matrix: (Units=1/GPa)
#
#
# Indices 1 2 3 4 5 6 
#
# 1 0.018427 -0.006098 -0.003232 0.000000 -0.005175 0.000000
# 2 -0.006098 0.008667 -0.000749 0.000000 0.001290 0.000000
# 3 -0.003232 -0.000749 0.010150 0.000000 0.001994 0.000000
# 4 0.000000 0.000000 0.000000 0.037884 0.000000 -0.016843
# 5 -0.005175 0.001290 0.001994 0.000000 0.025274 0.000000
# 6 0.000000 0.000000 0.000000 -0.016843 0.000000 0.051356
#
#
# Mechanical properties :
#
#
# Convention : Reuss Voigt Hill
#
# Bulk Modulus (GPa) = 58.53068 64.80573 61.66821
# Shear Modulus (GPa) = 28.15127 34.83256 31.49192
#
# Velocity S-wave (km/s) = 3.48183 3.87303 3.68263
# Velocity P-wave (km/s) = 6.43195 6.92160 6.68126
#
# Compressibility (1/GPa) = 0.01708506
#
# Stress axis : x y z
#
# Youngs Moduli (GPa) = 54.26720 115.38300 98.52118
#
# Poissons Ratio (x) = 0.70366 0.31844
# Poissons Ratio (y) = 0.33095 0.07378
# Poissons Ratio (z) = 0.17540 0.08641
#
# Static dielectric constant tensor:
#      x y z
#    x 3.883580 0.000000 0.196410 
#    y 0.000000 4.415460 0.000000 
#    z 0.196410 0.000000 4.518300 
# 
# 
# High freq. dielectric constant tensor:
#      x y z
#    x 1.869820 0.000000 0.024050 
#    y 0.000000 1.928740 0.000000 
#    z 0.024050 0.000000 1.947670 
# 
# From -- ./inp_files/9009.got.cif
#   From: 2010.03.12/outbox.cif.g09.slc.cpg/sg8_5_cif.got.tgz:9009.got - 2010.03.31 10:45:26.
