data_PCOD8053641
_publ_section_title
;
Structure prediction by ZEFSAII (Michael W. Deem and Ramdas Pophale) SiO2 
 PCOD8053641
Probable space group: C M
;
_chemical_formula_sum "Si O2"
_cell_formula_units_Z 28
_cell_length_a 4.941034
_cell_length_b 33.646688
_cell_length_c 9.028317
_cell_angle_alpha 90.000000
_cell_angle_beta 116.688142
_cell_angle_gamma 90.000000
_cell_volume 1341.047610
_symmetry_space_group_name_H-M "C M"
_symmetry_group_IT_number 8
_symmetry_cell_setting 'monoclinic'
loop_
_space_group_symop_operation_xyz
x,y,z
x,-y,z
1/2+x,1/2+y,z
1/2+x,1/2-y,z
loop_
_atom_site_type_symbol
_atom_site_label
_atom_site_fract_x
_atom_site_fract_y
_atom_site_fract_z
Si Si1 0.884990 0.223722 0.306820
Si Si2 0.816001 0.914899 0.006324
Si Si3 0.934235 0.000000 0.014955
Si Si4 0.542376 0.851522 0.728815
Si Si5 0.527783 0.223762 0.930392
Si Si6 0.005159 0.585114 0.235750
Si Si7 0.377987 0.648342 0.510571
Si Si8 0.107834 0.500000 0.227700
O O1 0.714491 0.260930 0.339819
O O2 0.926215 0.188003 0.428873
O O3 0.706642 0.207988 0.118561
O O4 0.786300 0.958707 0.921046
O O5 0.577427 0.910283 0.079872
O O6 0.145673 0.908913 0.161212
O O7 0.751965 0.882596 0.866177
O O8 0.888944 0.000000 0.183202
O O9 0.287886 0.000000 0.059248
O O10 0.486671 0.811864 0.807838
O O11 0.716277 0.840063 0.622818
O O12 0.211266 0.870483 0.617271
O O13 0.198126 0.238974 0.897640
O O14 0.168624 0.617386 0.374697
O O15 0.110151 0.541226 0.321501
#
# Coordination Sequence:
#
# PCOD8053641 Si02
#       8
#     4   4   2   4   4   4   4   2
#     4  10  22  40  61  82 107 146 194 236 277 331
#     4  10  20  38  62  84 112 151 195 235 276 332
#     4   8  16  32  58  86 106 140 194 240 272 318
#     4  12  25  38  56  87 122 151 184 230 289 342
#     4  10  22  40  61  82 107 146 194 236 277 331
#     4  10  20  38  62  84 112 151 195 235 276 332
#     4  12  25  38  56  87 122 151 184 230 289 342
#     4   8  16  32  58  86 106 140 194 240 272 318
#
# _framework density 20.879200000000001
#
# number of rings (size 3 to 8) (size 9 to 14) (size 15 to 20)
#    0.000    1.714    0.000    4.286    0.000    6.857 
#    0.000    1.429    0.000    0.000    0.000    0.000 
#    0.000    0.000    0.000    0.000    0.000    0.000 
#
# Total GULP energy -173598.418365 kJ/mol
# GULP energy per Si atom -12399.887026 kJ/mol
# Density = 2.083168 g / cm^3
# Si number density = 20.879200 Si / 1000 Ang^3
#
#
#
# Elastic Constant Matrix: (Units=GPa)
#
#
# Indices 1 2 3 4 5 6 
#
# 1 89.9410 0.6085 20.0019 0.0000 -4.6343 0.0000
# 2 0.6085 94.3293 49.6939 0.0000 -5.0048 0.0000
# 3 20.0019 49.6939 76.0338 0.0000 -6.3375 0.0000
# 4 0.0000 0.0000 0.0000 -230.1193 0.0000 3.1609
# 5 -4.6343 -5.0048 -6.3375 0.0000 34.5284 0.0000
# 6 0.0000 0.0000 0.0000 3.1609 0.0000 19.2583
#
#
#
# Elastic Compliance Matrix: (Units=1/GPa)
#
#
# Indices 1 2 3 4 5 6 
#
# 1 0.012213 0.002477 -0.004738 0.000000 0.001129 0.000000
# 2 0.002477 0.016676 -0.011497 0.000000 0.000639 0.000000
# 3 -0.004738 -0.011497 0.022058 0.000000 0.001746 0.000000
# 4 0.000000 0.000000 0.000000 -0.004336 0.000000 0.000712
# 5 0.001129 0.000639 0.001746 0.000000 0.029526 0.000000
# 6 0.000000 0.000000 0.000000 0.000712 0.000000 0.051809
#
#
# Mechanical properties :
#
#
# Convention : Reuss Voigt Hill
#
# Bulk Modulus (GPa) = 42.67751 44.54586 43.61168
# Shear Modulus (GPa) = 30.62333 -22.59986 4.01174
#
# Velocity S-wave (km/s) = 3.83389 -3.29357 1.38765
# Velocity P-wave (km/s) = 6.33111 2.63019 4.84772
#
# Compressibility (1/GPa) = 0.02343154
#
# Stress axis : x y z
#
# Youngs Moduli (GPa) = 81.87705 59.96606 45.33421
#
# Poissons Ratio (x) = -0.14854 0.21478
# Poissons Ratio (y) = -0.20281 0.52123
# Poissons Ratio (z) = 0.38792 0.68946
#
# Static dielectric constant tensor:
#      x y z
#    x 4.029420 0.000000 -0.043240 
#    y 0.000000 3.927050 0.000000 
#    z -0.043240 0.000000 3.556110 
# 
# 
# High freq. dielectric constant tensor:
#      x y z
#    x 1.842480 0.000000 -0.003390 
#    y 0.000000 1.826100 0.000000 
#    z -0.003390 0.000000 1.783320 
# 
# From -- ./inp_files/7102.got.cif
#   From: 2010.03.12/outbox.cif.g09.slc.cpg/sg8_4_cif.got.tgz:7102.got - 2010.03.31 10:45:26.
