data_PCOD8053362
_publ_section_title
;
Structure prediction by ZEFSAII (Michael W. Deem and Ramdas Pophale) SiO2 
 PCOD8053362
Probable space group: C M
;
_chemical_formula_sum "Si O2"
_cell_formula_units_Z 32
_cell_length_a 25.093908
_cell_length_b 8.890987
_cell_length_c 23.691231
_cell_angle_alpha 90.000000
_cell_angle_beta 161.888724
_cell_angle_gamma 90.000000
_cell_volume 1643.143980
_symmetry_space_group_name_H-M "C M"
_symmetry_group_IT_number 8
_symmetry_cell_setting 'monoclinic'
loop_
_space_group_symop_operation_xyz
x,y,z
x,-y,z
1/2+x,1/2+y,z
1/2+x,1/2-y,z
loop_
_atom_site_type_symbol
_atom_site_label
_atom_site_fract_x
_atom_site_fract_y
_atom_site_fract_z
Si Si1 0.766240 0.675037 0.312970
Si Si2 0.148097 0.677264 0.301697
Si Si3 0.780376 0.324735 0.947511
Si Si4 0.115567 0.827627 0.667434
Si Si5 0.143576 0.174154 0.568226
Si Si6 0.961022 0.820354 0.694764
Si Si7 0.281141 0.178142 0.200468
Si Si8 0.467744 0.178435 0.821881
O O1 0.737824 0.500000 0.291562
O O2 0.644712 0.757405 0.235081
O O3 0.726627 0.726507 0.208955
O O4 0.960185 0.716400 0.522794
O O5 0.147750 0.500000 0.294337
O O6 0.308287 0.731604 0.499630
O O7 0.972161 0.731541 0.155512
O O8 0.763310 0.500000 0.940830
O O9 0.753427 0.288385 0.854111
O O10 0.636308 0.254824 0.843547
O O11 0.193661 0.799070 0.684138
O O12 0.050109 0.000000 0.607404
O O13 0.306526 0.233001 0.697097
O O14 0.972382 0.264171 0.378677
O O15 0.106605 0.000000 0.518421
O O16 0.930192 0.736373 0.721810
O O17 0.960714 0.000000 0.703406
O O18 0.281209 0.000000 0.192728
O O19 0.144899 0.249965 0.021118
O O20 0.486520 0.000000 0.842233
#
# Coordination Sequence:
#
# PCOD8053362 Si02
#       8
#     4   4   4   4   4   4   4   4
#     4  10  20  34  54  85 122 151 183 231 291 347
#     4  10  20  35  59  84 111 150 193 237 282 335
#     4   9  18  33  57  87 111 143 194 236 275 334
#     4   9  16  33  58  83 114 150 189 233 280 337
#     4   9  20  37  59  88 119 153 194 241 293 344
#     4  10  21  39  57  81 116 154 197 240 283 339
#     4  10  22  39  59  86 120 158 195 238 291 349
#     4  11  24  40  61  88 117 155 199 244 293 349
#
# _framework density 19.474861000000001
#
# number of rings (size 3 to 8) (size 9 to 14) (size 15 to 20)
#    0.000    2.250    1.250    1.125    1.750    4.000 
#    0.000    2.500    0.000    0.000    0.000    0.000 
#    0.000    0.000    0.000    0.000    0.000    0.000 
#
# Total GULP energy -198357.976283 kJ/mol
# GULP energy per Si atom -12397.373518 kJ/mol
# Density = 1.943054 g / cm^3
# Si number density = 19.474861 Si / 1000 Ang^3
#
#
#
# Elastic Constant Matrix: (Units=GPa)
#
#
# Indices 1 2 3 4 5 6 
#
# 1 114.7283 26.6651 49.9051 -0.0056 17.1800 -0.0013
# 2 26.6651 39.2483 28.7941 0.0265 0.4436 0.0077
# 3 49.9051 28.7941 99.3577 0.0074 17.7448 0.0048
# 4 -0.0056 0.0265 0.0074 11.1580 0.0107 -1.6696
# 5 17.1800 0.4436 17.7448 0.0107 28.8291 0.0025
# 6 -0.0013 0.0077 0.0048 -1.6696 0.0025 32.1650
#
#
#
# Elastic Compliance Matrix: (Units=1/GPa)
#
#
# Indices 1 2 3 4 5 6 
#
# 1 0.012386 -0.005655 -0.003685 0.000028 -0.005026 0.000004
# 2 -0.005655 0.035867 -0.009053 -0.000092 0.008390 -0.000013
# 3 -0.003685 -0.009053 0.015866 0.000016 -0.007431 0.000001
# 4 0.000028 -0.000092 0.000016 0.090324 -0.000059 0.004689
# 5 -0.005026 0.008390 -0.007431 -0.000059 0.042127 -0.000007
# 6 0.000004 -0.000013 0.000001 0.004689 -0.000007 0.031333
#
#
# Mechanical properties :
#
#
# Convention : Reuss Voigt Hill
#
# Bulk Modulus (GPa) = 36.58334 51.56253 44.07293
# Shear Modulus (GPa) = 18.26156 24.29508 21.27832
#
# Velocity S-wave (km/s) = 3.06551 3.53584 3.30904
# Velocity P-wave (km/s) = 5.59960 6.57294 6.10569
#
# Compressibility (1/GPa) = 0.02733485
#
# Stress axis : x y z
#
# Youngs Moduli (GPa) = 80.73621 27.88055 63.02814
#
# Poissons Ratio (x) = 0.15766 0.23224
# Poissons Ratio (y) = 0.45656 0.57056
# Poissons Ratio (z) = 0.29749 0.25239
#
# Static dielectric constant tensor:
#      x y z
#    x 3.685770 -0.000010 0.106700 
#    y -0.000010 3.349630 0.000000 
#    z 0.106700 0.000000 3.684320 
# 
# 
# High freq. dielectric constant tensor:
#      x y z
#    x 1.761290 0.000000 0.004570 
#    y 0.000000 1.737820 0.000000 
#    z 0.004570 0.000000 1.760680 
# 
# From -- ./inp_files/17257.got.cif
#   From: 2010.03.12/outbox.cif.g09.slc.cpg/sg8_9_cif.got.tgz:17257.got - 2010.03.31 10:45:26.
