data_PCOD8053696
_publ_section_title
;
Structure prediction by ZEFSAII (Michael W. Deem and Ramdas Pophale) SiO2 
 PCOD8053696
Probable space group: C M
;
_chemical_formula_sum "Si O2"
_cell_formula_units_Z 28
_cell_length_a 12.784227
_cell_length_b 13.492827
_cell_length_c 7.814368
_cell_angle_alpha 90.000000
_cell_angle_beta 110.286883
_cell_angle_gamma 90.000000
_cell_volume 1264.327146
_symmetry_space_group_name_H-M "C M"
_symmetry_group_IT_number 8
_symmetry_cell_setting 'monoclinic'
loop_
_space_group_symop_operation_xyz
x,y,z
x,-y,z
1/2+x,1/2+y,z
1/2+x,1/2-y,z
loop_
_atom_site_type_symbol
_atom_site_label
_atom_site_fract_x
_atom_site_fract_y
_atom_site_fract_z
Si Si1 0.664370 0.111932 0.891670
Si Si2 0.407961 0.109637 0.673635
Si Si3 0.581887 0.264796 0.357844
Si Si4 0.161872 0.808055 0.052612
Si Si5 0.294960 0.696199 0.655649
Si Si6 0.018991 0.885335 0.656065
Si Si7 0.391534 0.111243 0.270416
O O1 0.540505 0.125096 0.744891
O O2 0.754136 0.136999 0.797349
O O3 0.684209 0.000000 0.968845
O O4 0.681969 0.188721 0.056689
O O5 0.344381 0.195630 0.743080
O O6 0.366356 0.122086 0.456671
O O7 0.377265 0.000000 0.728977
O O8 0.598304 0.330118 0.194895
O O9 0.695511 0.207344 0.464431
O O10 0.551456 0.336588 0.495516
O O11 0.486518 0.185442 0.262307
O O12 0.277781 0.865835 0.106507
O O13 0.089140 0.838362 0.849158
O O14 0.388885 0.632115 0.615198
O O15 0.046632 0.000000 0.658806
O O16 0.430531 0.000000 0.246727
#
# Coordination Sequence:
#
# PCOD8053696 Si02
#       7
#     4   4   4   4   4   4   4
#     4  11  24  44  71  99 139 188 232 283 348 416
#     4  10  20  40  70 100 135 181 230 279 340 409
#     4  12  25  45  73  99 136 182 230 291 339 408
#     4  12  25  45  71 101 144 175 231 285 348 412
#     4  12  20  46  68 102 138 180 227 288 341 405
#     4  12  27  46  68 103 141 184 229 283 356 412
#     4  11  23  42  67 100 133 176 229 281 344 412
#
# _framework density 22.146166000000001
#
# number of rings (size 3 to 8) (size 9 to 14) (size 15 to 20)
#    0.000    0.571    7.143    0.857    2.000    2.857 
#    0.000    3.571    0.000    0.000    0.000    0.000 
#    0.000    0.000    0.000    0.000    0.000    0.000 
#
# Total GULP energy -173638.142746 kJ/mol
# GULP energy per Si atom -12402.724482 kJ/mol
# Density = 2.209576 g / cm^3
# Si number density = 22.146166 Si / 1000 Ang^3
#
#
#
# Elastic Constant Matrix: (Units=GPa)
#
#
# Indices 1 2 3 4 5 6 
#
# 1 112.1618 41.8255 41.3142 0.0000 3.1693 0.0000
# 2 41.8255 135.3952 31.7368 0.0000 4.7404 0.0000
# 3 41.3142 31.7368 64.7391 0.0000 -20.1713 0.0000
# 4 0.0000 0.0000 0.0000 16.0628 0.0000 4.2349
# 5 3.1693 4.7404 -20.1713 0.0000 25.6281 0.0000
# 6 0.0000 0.0000 0.0000 4.2349 0.0000 27.4611
#
#
#
# Elastic Compliance Matrix: (Units=1/GPa)
#
#
# Indices 1 2 3 4 5 6 
#
# 1 0.013952 -0.001211 -0.011630 0.000000 -0.010655 0.000000
# 2 -0.001211 0.009299 -0.005664 0.000000 -0.006028 0.000000
# 3 -0.011630 -0.005664 0.035004 0.000000 0.030037 0.000000
# 4 0.000000 0.000000 0.000000 0.064894 0.000000 -0.010008
# 5 -0.010655 -0.006028 0.030037 0.000000 0.065094 0.000000
# 6 0.000000 0.000000 0.000000 -0.010008 0.000000 0.037958
#
#
# Mechanical properties :
#
#
# Convention : Reuss Voigt Hill
#
# Bulk Modulus (GPa) = 47.07020 60.22767 53.64894
# Shear Modulus (GPa) = 18.49851 26.99171 22.74511
#
# Velocity S-wave (km/s) = 2.89328 3.49492 3.20823
# Velocity P-wave (km/s) = 5.69753 6.59852 6.16451
#
# Compressibility (1/GPa) = 0.02124486
#
# Stress axis : x y z
#
# Youngs Moduli (GPa) = 71.67318 107.54417 28.56823
#
# Poissons Ratio (x) = 0.13022 0.33225
# Poissons Ratio (y) = 0.08679 0.16181
# Poissons Ratio (z) = 0.83357 0.60911
#
# Static dielectric constant tensor:
#      x y z
#    x 4.078350 0.000000 0.090010 
#    y 0.000000 4.252350 0.000000 
#    z 0.090010 0.000000 3.832780 
# 
# 
# High freq. dielectric constant tensor:
#      x y z
#    x 1.880370 0.000000 0.006810 
#    y 0.000000 1.877580 0.000000 
#    z 0.006810 0.000000 1.861130 
# 
# From -- ./inp_files/10663.got.cif
#   From: 2010.03.12/outbox.cif.g09.slc.cpg/sg8_6_cif.got.tgz:10663.got - 2010.03.31 10:45:26.
