data_PCOD8053727
_publ_section_title
;
Structure prediction by ZEFSAII (Michael W. Deem and Ramdas Pophale) SiO2 
 PCOD8053727
Probable space group: C M
;
_chemical_formula_sum "Si O2"
_cell_formula_units_Z 24
_cell_length_a 24.051641
_cell_length_b 9.272655
_cell_length_c 18.093745
_cell_angle_alpha 90.000000
_cell_angle_beta 160.842285
_cell_angle_gamma 90.000000
_cell_volume 1324.267198
_symmetry_space_group_name_H-M "C M"
_symmetry_group_IT_number 8
_symmetry_cell_setting 'monoclinic'
loop_
_space_group_symop_operation_xyz
x,y,z
x,-y,z
1/2+x,1/2+y,z
1/2+x,1/2-y,z
loop_
_atom_site_type_symbol
_atom_site_label
_atom_site_fract_x
_atom_site_fract_y
_atom_site_fract_z
Si Si1 0.056820 0.329690 0.299840
Si Si2 0.546380 0.170087 0.456012
Si Si3 0.890049 0.829691 0.966296
Si Si4 0.567902 0.159802 0.072896
Si Si5 0.377175 0.840197 0.691448
Si Si6 0.248944 0.664861 0.158576
O O1 0.040354 0.500000 0.269995
O O2 0.043099 0.277676 0.367203
O O3 0.238169 0.278267 0.494436
O O4 0.908044 0.250000 0.067676
O O5 0.714158 0.222318 0.709320
O O6 0.383114 0.228548 0.292747
O O7 0.537661 0.000000 0.447285
O O8 0.900336 0.000000 0.989960
O O9 0.044905 0.778268 0.107907
O O10 0.731523 0.192747 0.225792
O O11 0.585656 0.000000 0.131113
O O12 0.402214 0.162359 0.811848
O O13 0.314002 0.000000 0.587812
O O14 0.562247 0.807250 0.887243
O O15 0.304682 0.500000 0.214311
#
# Coordination Sequence:
#
# PCOD8053727 Si02
#       6
#     4   4   4   4   4   4
#     4  11  22  36  55  82 110 142 183 225 269 320
#     4  10  21  36  54  78 112 144 179 222 268 320
#     4  11  22  36  55  82 110 142 183 225 269 320
#     4   8  16  33  55  80 105 135 177 218 263 317
#     4   8  16  33  55  80 105 135 177 218 263 317
#     4   8  17  32  56  82 106 140 179 216 268 324
#
# _framework density 18.12323
#
# number of rings (size 3 to 8) (size 9 to 14) (size 15 to 20)
#    1.000    1.667    1.667    1.000    0.000    4.000 
#    0.000    1.667    0.000    4.000    0.000    0.000 
#    0.000    0.000    0.000    0.000    0.000    0.000 
#
# Total GULP energy -148658.929815 kJ/mol
# GULP energy per Si atom -12388.244151 kJ/mol
# Density = 1.808198 g / cm^3
# Si number density = 18.123230 Si / 1000 Ang^3
#
#
#
# Elastic Constant Matrix: (Units=GPa)
#
#
# Indices 1 2 3 4 5 6 
#
# 1 82.2486 38.5090 61.7597 -0.0002 -2.6820 -0.0002
# 2 38.5090 60.4816 40.9974 -0.0002 -6.7841 -0.0002
# 3 61.7597 40.9974 86.1909 -0.0002 -8.0808 -0.0002
# 4 -0.0002 -0.0002 -0.0002 32.0318 -0.0003 2.8519
# 5 -2.6820 -6.7841 -8.0808 -0.0003 25.4497 -0.0002
# 6 -0.0002 -0.0002 -0.0002 2.8519 -0.0002 33.0775
#
#
#
# Elastic Compliance Matrix: (Units=1/GPa)
#
#
# Indices 1 2 3 4 5 6 
#
# 1 0.028264 -0.006610 -0.017515 0.000000 -0.004345 0.000000
# 2 -0.006610 0.026158 -0.007336 0.000000 0.003947 0.000000
# 3 -0.017515 -0.007336 0.028123 0.000000 0.005128 0.000000
# 4 0.000000 0.000000 0.000000 0.031461 0.000000 -0.002713
# 5 -0.004345 0.003947 0.005128 0.000000 0.041516 0.000000
# 6 0.000000 0.000000 0.000000 -0.002713 0.000000 0.030466
#
#
# Mechanical properties :
#
#
# Convention : Reuss Voigt Hill
#
# Bulk Modulus (GPa) = 50.96354 56.82816 53.89585
# Shear Modulus (GPa) = 19.57335 23.95547 21.76441
#
# Velocity S-wave (km/s) = 3.28992 3.63961 3.46918
# Velocity P-wave (km/s) = 6.52787 7.00621 6.77127
#
# Compressibility (1/GPa) = 0.01962187
#
# Stress axis : x y z
#
# Youngs Moduli (GPa) = 35.38126 38.22933 35.55842
#
# Poissons Ratio (x) = 0.25270 0.62282
# Poissons Ratio (y) = 0.23388 0.26084
# Poissons Ratio (z) = 0.61971 0.28044
#
# Static dielectric constant tensor:
#      x y z
#    x 3.171790 0.000000 -0.079190 
#    y 0.000000 3.177320 0.000000 
#    z -0.079190 0.000000 3.200810 
# 
# 
# High freq. dielectric constant tensor:
#      x y z
#    x 1.683740 0.000000 -0.001070 
#    y 0.000000 1.702280 0.000000 
#    z -0.001070 0.000000 1.684130 
# 
# From -- ./inp_files/14249.got.cif
#   From: 2010.03.12/outbox.cif.g09.slc.cpg/sg8_8_cif.got.tgz:14249.got - 2010.03.31 10:45:26.
