data_PCOD8053881
_publ_section_title
;
Structure prediction by ZEFSAII (Michael W. Deem and Ramdas Pophale) SiO2 
 PCOD8053881
Probable space group: C M
;
_chemical_formula_sum "Si O2"
_cell_formula_units_Z 24
_cell_length_a 11.984331
_cell_length_b 13.314028
_cell_length_c 13.990315
_cell_angle_alpha 90.000000
_cell_angle_beta 151.869432
_cell_angle_gamma 90.000000
_cell_volume 1052.485876
_symmetry_space_group_name_H-M "C M"
_symmetry_group_IT_number 8
_symmetry_cell_setting 'monoclinic'
loop_
_space_group_symop_operation_xyz
x,y,z
x,-y,z
1/2+x,1/2+y,z
1/2+x,1/2-y,z
loop_
_atom_site_type_symbol
_atom_site_label
_atom_site_fract_x
_atom_site_fract_y
_atom_site_fract_z
Si Si1 0.130640 0.815273 0.304090
Si Si2 0.373617 0.109713 0.951340
Si Si3 0.623654 0.760428 0.638830
Si Si4 0.464943 0.891390 0.229680
Si Si5 0.415006 0.384714 0.329243
Si Si6 0.523160 0.383023 0.018222
O O1 0.408858 0.837296 0.501081
O O2 0.000682 0.883837 0.283915
O O3 0.991823 0.831382 0.099024
O O4 0.145392 0.699389 0.351286
O O5 0.170536 0.179609 0.756678
O O6 0.356758 0.000000 0.890153
O O7 0.315161 0.101728 0.019094
O O8 0.642049 0.151198 0.133596
O O9 0.579217 0.695345 0.509487
O O10 0.853526 0.832366 0.810266
O O11 0.292405 0.867574 0.187427
O O12 0.593708 0.000000 0.343680
O O13 0.440373 0.500000 0.386115
O O14 0.461006 0.500000 0.980196
#
# Coordination Sequence:
#
# PCOD8053881 Si02
#       6
#     4   4   4   4   4   4
#     4  12  24  43  68  98 134 171 215 270 328 387
#     4  10  21  41  66  96 131 169 214 267 323 381
#     4  12  23  40  67 101 129 166 219 271 326 381
#     4  10  21  42  66  92 128 171 215 262 319 380
#     4  11  25  44  67  96 133 174 218 267 324 388
#     4  11  26  46  66  93 133 177 217 265 328 393
#
# _framework density 22.803156000000001
#
# number of rings (size 3 to 8) (size 9 to 14) (size 15 to 20)
#    0.000    1.000    3.333    3.000    2.333    3.333 
#    0.000    0.833    0.000    0.000    0.000    0.000 
#    0.000    0.000    0.000    0.000    0.000    0.000 
#
# Total GULP energy -148708.619841 kJ/mol
# GULP energy per Si atom -12392.384987 kJ/mol
# Density = 2.275125 g / cm^3
# Si number density = 22.803156 Si / 1000 Ang^3
#
#
#
# Elastic Constant Matrix: (Units=GPa)
#
#
# Indices 1 2 3 4 5 6 
#
# 1 116.4535 20.6939 22.6748 0.0037 -8.3151 0.0054
# 2 20.6939 93.3094 21.4585 0.0011 2.2039 0.0055
# 3 22.6748 21.4585 81.6652 -0.0011 -6.8496 0.0047
# 4 0.0037 0.0011 -0.0011 33.3402 0.0101 1.8138
# 5 -8.3151 2.2039 -6.8496 0.0101 21.5923 0.0082
# 6 0.0054 0.0055 0.0047 1.8138 0.0082 35.5689
#
#
#
# Elastic Compliance Matrix: (Units=1/GPa)
#
#
# Indices 1 2 3 4 5 6 
#
# 1 0.009499 -0.001744 -0.001908 -0.000002 0.003231 -0.000002
# 2 -0.001744 0.011827 -0.002857 0.000001 -0.002785 -0.000001
# 3 -0.001908 -0.002857 0.013857 0.000000 0.003953 -0.000002
# 4 -0.000002 0.000001 0.000000 0.030077 -0.000014 -0.001534
# 5 0.003231 -0.002785 0.003953 -0.000014 0.049095 -0.000011
# 6 -0.000002 -0.000001 -0.000002 -0.001534 -0.000011 0.028193
#
#
# Mechanical properties :
#
#
# Convention : Reuss Voigt Hill
#
# Bulk Modulus (GPa) = 45.11734 46.78693 45.95213
# Shear Modulus (GPa) = 30.68330 33.20699 31.94515
#
# Velocity S-wave (km/s) = 3.67218 3.82022 3.74693
# Velocity P-wave (km/s) = 6.14886 6.32622 6.23817
#
# Compressibility (1/GPa) = 0.02216443
#
# Stress axis : x y z
#
# Youngs Moduli (GPa) = 105.27079 84.55484 72.16492
#
# Poissons Ratio (x) = 0.14748 0.13771
# Poissons Ratio (y) = 0.18361 0.20617
# Poissons Ratio (z) = 0.20088 0.24156
#
# Static dielectric constant tensor:
#      x y z
#    x 4.018580 -0.000010 -0.085960 
#    y -0.000010 4.379170 -0.000010 
#    z -0.085960 -0.000010 3.724280 
# 
# 
# High freq. dielectric constant tensor:
#      x y z
#    x 1.895070 0.000000 -0.004820 
#    y 0.000000 1.922010 0.000000 
#    z -0.004820 0.000000 1.870110 
# 
# From -- ./inp_files/26148.got.cif
#   From: 2010.03.12/outbox.cif.g09.slc.cpg/sg8_14_cif.got.tgz:26148.got - 2010.03.31 10:45:26.
