data_PCOD8053210
_publ_section_title
;
Structure prediction by ZEFSAII (Michael W. Deem and Ramdas Pophale) SiO2 
 PCOD8053210
Probable space group: C M
;
_chemical_formula_sum "Si O2"
_cell_formula_units_Z 32
_cell_length_a 15.318735
_cell_length_b 8.725740
_cell_length_c 11.865029
_cell_angle_alpha 90.000000
_cell_angle_beta 92.557888
_cell_angle_gamma 90.000000
_cell_volume 1584.386185
_symmetry_space_group_name_H-M "C M"
_symmetry_group_IT_number 8
_symmetry_cell_setting 'monoclinic'
loop_
_space_group_symop_operation_xyz
x,y,z
x,-y,z
1/2+x,1/2+y,z
1/2+x,1/2-y,z
loop_
_atom_site_type_symbol
_atom_site_label
_atom_site_fract_x
_atom_site_fract_y
_atom_site_fract_z
Si Si1 0.742150 0.680856 0.989870
Si Si2 0.937867 0.681664 0.006038
Si Si3 0.173448 0.819073 0.744628
Si Si4 0.332716 0.681419 0.629414
Si Si5 0.994250 0.681325 0.768127
Si Si6 0.356550 0.319171 0.375299
Si Si7 0.198809 0.321093 0.215955
Si Si8 0.006626 0.321389 0.247327
O O1 0.743836 0.500000 0.999191
O O2 0.840027 0.749271 0.995767
O O3 0.695312 0.733802 0.872869
O O4 0.690145 0.745845 0.093150
O O5 0.933429 0.500000 0.005605
O O6 0.990835 0.735297 0.898610
O O7 0.983884 0.743623 0.121593
O O8 0.236506 0.730253 0.663009
O O9 0.074412 0.767877 0.712432
O O10 0.184574 0.000000 0.727827
O O11 0.345522 0.500000 0.643639
O O12 0.403847 0.771179 0.705985
O O13 0.342778 0.736649 0.501494
O O14 0.006696 0.500000 0.756920
O O15 0.352477 0.500000 0.369029
O O16 0.278991 0.250289 0.292382
O O17 0.450658 0.263656 0.338630
O O18 0.212086 0.500000 0.197228
O O19 0.108589 0.289219 0.277626
O O20 0.983854 0.500000 0.252597
#
# Coordination Sequence:
#
# PCOD8053210 Si02
#       8
#     4   4   4   4   4   4   4   4
#     4  10  19  35  59  87 120 154 190 236 289 350
#     4   9  17  33  57  86 119 151 187 236 293 353
#     4  11  23  40  61  90 124 158 198 244 296 359
#     4  11  24  42  61  84 118 161 206 252 298 350
#     4  11  22  40  64  90 121 156 196 248 303 357
#     4  10  23  41  58  82 117 151 194 248 294 339
#     4  10  21  37  58  87 118 151 192 239 289 347
#     4  10  20  36  60  86 115 152 193 233 286 351
#
# _framework density 20.197095999999998
#
# number of rings (size 3 to 8) (size 9 to 14) (size 15 to 20)
#    0.000    1.750    2.500    1.875    0.000    4.500 
#    0.000    2.500    0.000    0.000    0.000    0.000 
#    0.000    0.000    0.000    0.000    0.000    0.000 
#
# Total GULP energy -198444.668792 kJ/mol
# GULP energy per Si atom -12402.791799 kJ/mol
# Density = 2.015113 g / cm^3
# Si number density = 20.197096 Si / 1000 Ang^3
#
#
#
# Elastic Constant Matrix: (Units=GPa)
#
#
# Indices 1 2 3 4 5 6 
#
# 1 96.4580 8.1768 25.1115 0.0000 -23.0098 0.0000
# 2 8.1768 29.3697 25.6015 0.0000 -4.3064 0.0000
# 3 25.1115 25.6015 111.6410 0.0000 -28.2207 0.0000
# 4 0.0000 0.0000 0.0000 26.1578 0.0000 -4.9383
# 5 -23.0098 -4.3064 -28.2207 0.0000 26.3390 0.0000
# 6 0.0000 0.0000 0.0000 -4.9383 0.0000 31.8491
#
#
#
# Elastic Compliance Matrix: (Units=1/GPa)
#
#
# Indices 1 2 3 4 5 6 
#
# 1 0.013235 -0.002445 0.000556 0.000000 0.011758 0.000000
# 2 -0.002445 0.043454 -0.011190 0.000000 -0.007021 0.000000
# 3 0.000556 -0.011190 0.015166 0.000000 0.014906 0.000000
# 4 0.000000 0.000000 0.000000 0.039382 0.000000 0.006106
# 5 0.011758 -0.007021 0.014906 0.000000 0.063061 0.000000
# 6 0.000000 0.000000 0.000000 0.006106 0.000000 0.032345
#
#
# Mechanical properties :
#
#
# Convention : Reuss Voigt Hill
#
# Bulk Modulus (GPa) = 21.88328 39.47204 30.67766
# Shear Modulus (GPa) = 20.15861 28.77444 24.46653
#
# Velocity S-wave (km/s) = 3.16269 3.77859 3.48428
# Velocity P-wave (km/s) = 4.91886 6.21473 5.60438
#
# Compressibility (1/GPa) = 0.04569698
#
# Stress axis : x y z
#
# Youngs Moduli (GPa) = 75.56007 23.01287 65.93629
#
# Poissons Ratio (x) = 0.05627 -0.03666
# Poissons Ratio (y) = 0.18477 0.73780
# Poissons Ratio (z) = -0.04201 0.25750
#
# Static dielectric constant tensor:
#      x y z
#    x 3.757460 0.000000 0.023370 
#    y 0.000000 3.370880 0.000000 
#    z 0.023370 0.000000 3.773260 
# 
# 
# High freq. dielectric constant tensor:
#      x y z
#    x 1.802750 0.000000 -0.004880 
#    y 0.000000 1.768670 0.000000 
#    z -0.004880 0.000000 1.785860 
# 
# From -- ./inp_files/21532.got.cif
#   From: 2010.03.12/outbox.cif.g09.slc.cpg/sg8_11_cif.got.tgz:21532.got - 2010.03.31 10:45:26.
