data_PCOD8053250
_publ_section_title
;
Structure prediction by ZEFSAII (Michael W. Deem and Ramdas Pophale) SiO2 
 PCOD8053250
Probable space group: C M
;
_chemical_formula_sum "Si O2"
_cell_formula_units_Z 32
_cell_length_a 12.230768
_cell_length_b 17.041975
_cell_length_c 16.407005
_cell_angle_alpha 90.000000
_cell_angle_beta 26.630385
_cell_angle_gamma 90.000000
_cell_volume 1532.875894
_symmetry_space_group_name_H-M "C M"
_symmetry_group_IT_number 8
_symmetry_cell_setting 'monoclinic'
loop_
_space_group_symop_operation_xyz
x,y,z
x,-y,z
1/2+x,1/2+y,z
1/2+x,1/2-y,z
loop_
_atom_site_type_symbol
_atom_site_label
_atom_site_fract_x
_atom_site_fract_y
_atom_site_fract_z
Si Si1 0.511100 0.817238 0.485960
Si Si2 0.687691 0.639346 0.383688
Si Si3 0.242822 0.416506 0.603641
Si Si4 0.431818 0.856126 0.943674
Si Si5 0.627865 0.905093 0.979150
Si Si6 0.042997 0.337594 0.276447
Si Si7 0.916638 0.161066 0.332580
Si Si8 0.461356 0.325818 0.885824
O O1 0.561331 0.725141 0.462310
O O2 0.533422 0.847238 0.378718
O O3 0.717816 0.863497 0.397986
O O4 0.249684 0.843579 0.696429
O O5 0.466582 0.579614 0.518730
O O6 0.821013 0.616103 0.380055
O O7 0.880441 0.629318 0.182385
O O8 0.221043 0.500000 0.573063
O O9 0.298096 0.350843 0.499963
O O10 0.997973 0.402883 0.817737
O O11 0.624531 0.875230 0.887630
O O12 0.433434 0.767061 0.912183
O O13 0.165464 0.886878 0.150141
O O14 0.854648 0.862081 0.872806
O O15 0.645851 0.000000 0.973733
O O16 0.993517 0.250844 0.276351
O O17 0.308653 0.364087 0.063524
#
# Coordination Sequence:
#
# PCOD8053250 Si02
#       8
#     4   4   4   4   4   4   4   4
#     4  11  20  38  63  91 125 164 211 260 306 380
#     4  10  19  36  60  91 125 159 204 257 316 370
#     4  12  23  37  59  89 123 162 207 260 317 370
#     4  11  22  39  59  93 125 168 213 262 313 379
#     4  11  23  41  66  96 133 167 206 271 334 375
#     4   9  19  35  58  91 121 160 202 259 310 363
#     4  10  22  37  58  86 126 162 206 254 311 375
#     4  10  22  37  63  93 128 164 211 263 311 378
#
# _framework density 20.875793999999999
#
# number of rings (size 3 to 8) (size 9 to 14) (size 15 to 20)
#    0.000    1.500    3.750    2.250    1.750    2.500 
#    0.000    0.625    0.000    3.750    0.000    0.000 
#    0.000    0.000    0.000    0.000    0.000    0.000 
#
# Total GULP energy -198249.585783 kJ/mol
# GULP energy per Si atom -12390.599111 kJ/mol
# Density = 2.082828 g / cm^3
# Si number density = 20.875794 Si / 1000 Ang^3
#
#
#
# Elastic Constant Matrix: (Units=GPa)
#
#
# Indices 1 2 3 4 5 6 
#
# 1 140.9181 23.8413 67.6570 -0.1231 1.9248 0.0742
# 2 23.8413 51.9116 1.7665 -0.1010 -5.8555 0.0548
# 3 67.6570 1.7665 123.3213 -0.1459 2.0761 0.1118
# 4 -0.1231 -0.1010 -0.1459 7.6797 -0.0876 2.0863
# 5 1.9248 -5.8555 2.0761 -0.0876 30.9967 0.0225
# 6 0.0742 0.0548 0.1118 2.0863 0.0225 13.3267
#
#
#
# Elastic Compliance Matrix: (Units=1/GPa)
#
#
# Indices 1 2 3 4 5 6 
#
# 1 0.010713 -0.004858 -0.005788 -0.000020 -0.001195 0.000014
# 2 -0.004858 0.021902 0.002280 0.000341 0.004287 -0.000143
# 3 -0.005788 0.002280 0.011251 0.000178 0.000037 -0.000100
# 4 -0.000020 0.000341 0.000178 0.136011 0.000454 -0.021296
# 5 -0.001195 0.004287 0.000037 0.000454 0.033145 -0.000138
# 6 0.000014 -0.000143 -0.000100 -0.021296 -0.000138 0.078373
#
#
# Mechanical properties :
#
#
# Convention : Reuss Voigt Hill
#
# Bulk Modulus (GPa) = 36.85428 55.85339 46.35383
# Shear Modulus (GPa) = 15.76431 25.25970 20.51201
#
# Velocity S-wave (km/s) = 2.75098 3.48228 3.13800
# Velocity P-wave (km/s) = 5.27095 6.55603 5.94829
#
# Compressibility (1/GPa) = 0.02713389
#
# Stress axis : x y z
#
# Youngs Moduli (GPa) = 93.34029 45.65873 88.87826
#
# Poissons Ratio (x) = 0.22182 0.51443
# Poissons Ratio (y) = 0.45347 -0.20264
# Poissons Ratio (z) = 0.54025 -0.10410
#
# Static dielectric constant tensor:
#      x y z
#    x 3.950280 0.000070 -0.247700 
#    y 0.000070 3.456880 0.000070 
#    z -0.247700 0.000070 4.074580 
# 
# 
# High freq. dielectric constant tensor:
#      x y z
#    x 1.815310 -0.000010 -0.001460 
#    y -0.000010 1.777120 0.000020 
#    z -0.001460 0.000020 1.832800 
# 
# From -- ./inp_files/22401.got.cif
#   From: 2010.03.12/outbox.cif.g09.slc.cpg/sg8_12_cif.got.tgz:22401.got - 2010.03.31 10:45:26.
