data_PCOD8053323
_publ_section_title
;
Structure prediction by ZEFSAII (Michael W. Deem and Ramdas Pophale) SiO2 
 PCOD8053323
Probable space group: C M
;
_chemical_formula_sum "Si O2"
_cell_formula_units_Z 32
_cell_length_a 25.079337
_cell_length_b 9.404935
_cell_length_c 16.715538
_cell_angle_alpha 90.000000
_cell_angle_beta 26.349400
_cell_angle_gamma 90.000000
_cell_volume 1749.937480
_symmetry_space_group_name_H-M "C M"
_symmetry_group_IT_number 8
_symmetry_cell_setting 'monoclinic'
loop_
_space_group_symop_operation_xyz
x,y,z
x,-y,z
1/2+x,1/2+y,z
1/2+x,1/2-y,z
loop_
_atom_site_type_symbol
_atom_site_label
_atom_site_fract_x
_atom_site_fract_y
_atom_site_fract_z
Si Si1 0.165530 0.337048 0.935700
Si Si2 0.989423 0.668402 0.301816
Si Si3 0.589050 0.666114 0.575206
Si Si4 0.725126 0.669064 0.697283
Si Si5 0.079372 0.665805 0.345554
Si Si6 0.913202 0.841166 0.674613
Si Si7 0.265218 0.331946 0.226278
Si Si8 0.030224 0.168318 0.830670
O O1 0.151633 0.500000 0.924926
O O2 0.189024 0.237416 0.829408
O O3 0.269670 0.327091 0.863293
O O4 0.045836 0.279948 0.141849
O O5 0.983799 0.500000 0.307199
O O6 0.854811 0.727861 0.494668
O O7 0.077134 0.717781 0.256542
O O8 0.624152 0.500000 0.529960
O O9 0.465203 0.692864 0.692906
O O10 0.699943 0.750638 0.386532
O O11 0.565346 0.727469 0.695839
O O12 0.724774 0.500000 0.708499
O O13 0.630202 0.719512 0.758591
O O14 0.055874 0.500000 0.382064
O O15 0.201555 0.706871 0.227245
O O16 0.964529 0.733919 0.541262
O O17 0.954091 0.000000 0.595503
O O18 0.258900 0.500000 0.252477
O O19 0.401116 0.275163 0.034832
O O20 0.022423 0.000000 0.834933
#
# Coordination Sequence:
#
# PCOD8053323 Si02
#       8
#     4   4   4   4   4   4   4   4
#     4  10  20  33  51  77 103 131 167 208 253 296
#     4   9  18  31  50  74  98 130 168 204 245 294
#     4   9  18  33  52  76 103 133 166 203 250 299
#     4  10  20  37  54  71 101 136 171 207 245 295
#     4   9  16  29  51  74 100 132 165 202 245 295
#     4   9  17  29  49  75 106 131 157 204 255 297
#     4   9  18  32  51  76 103 130 166 208 248 292
#     4   9  19  34  54  75  98 135 174 204 241 298
#
# _framework density 18.286366999999998
#
# number of rings (size 3 to 8) (size 9 to 14) (size 15 to 20)
#    0.000    2.750    1.250    0.000    1.750    1.000 
#    0.000    4.375    0.000    0.000    0.000    0.000 
#    0.000    0.000    0.000    0.000    0.000    0.000 
#
# Total GULP energy -198310.884269 kJ/mol
# GULP energy per Si atom -12394.430267 kJ/mol
# Density = 1.824475 g / cm^3
# Si number density = 18.286367 Si / 1000 Ang^3
#
#
#
# Elastic Constant Matrix: (Units=GPa)
#
#
# Indices 1 2 3 4 5 6 
#
# 1 125.0341 28.6246 82.7456 -0.0001 4.9246 0.0000
# 2 28.6246 24.7120 30.8357 -0.0006 0.4028 0.0001
# 3 82.7456 30.8357 152.3603 -0.0003 5.6862 0.0001
# 4 -0.0001 -0.0006 -0.0003 23.8319 0.0000 5.2871
# 5 4.9246 0.4028 5.6862 0.0000 23.7652 0.0000
# 6 0.0000 0.0001 0.0001 5.2871 0.0000 18.9830
#
#
#
# Elastic Compliance Matrix: (Units=1/GPa)
#
#
# Indices 1 2 3 4 5 6 
#
# 1 0.013845 -0.008958 -0.005655 0.000000 -0.001364 0.000000
# 2 -0.008958 0.060004 -0.007376 0.000001 0.002604 -0.000001
# 3 -0.005655 -0.007376 0.011179 0.000000 -0.001378 0.000000
# 4 0.000000 0.000001 0.000000 0.044724 0.000000 -0.012456
# 5 -0.001364 0.002604 -0.001378 0.000000 0.042647 0.000000
# 6 0.000000 -0.000001 0.000000 -0.012456 0.000000 0.056148
#
#
# Mechanical properties :
#
#
# Convention : Reuss Voigt Hill
#
# Bulk Modulus (GPa) = 24.36105 65.16870 44.76488
# Shear Modulus (GPa) = 17.46979 23.97605 20.72292
#
# Velocity S-wave (km/s) = 3.09422 3.62490 3.37002
# Velocity P-wave (km/s) = 5.11043 7.29624 6.29887
#
# Compressibility (1/GPa) = 0.04104913
#
# Stress axis : x y z
#
# Youngs Moduli (GPa) = 72.22915 16.66548 89.45444
#
# Poissons Ratio (x) = 0.14929 0.50587
# Poissons Ratio (y) = 0.64704 0.65983
# Poissons Ratio (z) = 0.40846 0.12293
#
# Static dielectric constant tensor:
#      x y z
#    x 3.557610 0.000000 -0.070860 
#    y 0.000000 3.088640 0.000000 
#    z -0.070860 0.000000 3.507110 
# 
# 
# High freq. dielectric constant tensor:
#      x y z
#    x 1.713400 0.000000 -0.002280 
#    y 0.000000 1.673540 0.000000 
#    z -0.002280 0.000000 1.709690 
# 
# From -- ./inp_files/20215.got.cif
#   From: 2010.03.12/outbox.cif.g09.slc.cpg/sg8_11_cif.got.tgz:20215.got - 2010.03.31 10:45:26.
