data_PCOD8053305
_publ_section_title
;
Structure prediction by ZEFSAII (Michael W. Deem and Ramdas Pophale) SiO2 
 PCOD8053305
Probable space group: C M
;
_chemical_formula_sum "Si O2"
_cell_formula_units_Z 18
_cell_length_a 8.686640
_cell_length_b 10.891576
_cell_length_c 9.345874
_cell_angle_alpha 90.000000
_cell_angle_beta 48.277100
_cell_angle_gamma 90.000000
_cell_volume 659.960513
_symmetry_space_group_name_H-M "C M"
_symmetry_group_IT_number 8
_symmetry_cell_setting 'monoclinic'
loop_
_space_group_symop_operation_xyz
x,y,z
x,-y,z
1/2+x,1/2+y,z
1/2+x,1/2-y,z
loop_
_atom_site_type_symbol
_atom_site_label
_atom_site_fract_x
_atom_site_fract_y
_atom_site_fract_z
Si Si1 0.058560 0.257402 0.325900
Si Si2 0.496837 0.500000 0.436221
Si Si3 0.046495 0.500000 0.766361
Si Si4 0.144746 0.860326 0.682879
Si Si5 0.266756 0.211254 0.914136
Si Si6 0.206747 0.500000 0.371834
O O1 0.187485 0.375154 0.294837
O O2 0.121894 0.129723 0.373263
O O3 0.813685 0.273315 0.503198
O O4 0.093330 0.249291 0.134417
O O5 0.430232 0.500000 0.308050
O O6 0.287097 0.500000 0.662486
O O7 0.927689 0.619657 0.896583
O O8 0.025114 0.500000 0.604126
O O9 0.154936 0.851074 0.848787
O O10 0.915484 0.822814 0.772861
O O11 0.176577 0.000000 0.607255
#
# Coordination Sequence:
#
# PCOD8053305 Si02
#       6
#     4   2   2   4   4   2
#     4  12  24  43  76 106 139 190 241 289 362 423
#     4  10  23  43  74  96 146 190 229 292 362 418
#     4  10  19  47  69  98 142 194 235 277 365 434
#     4  12  26  50  73 103 147 191 236 297 358 428
#     4  12  26  42  79 104 137 192 240 288 357 427
#     4  10  22  46  73  98 142 188 236 291 351 432
#
# _framework density 27.274357999999999
#
# number of rings (size 3 to 8) (size 9 to 14) (size 15 to 20)
#    0.667    0.000    6.667    0.667    4.667    0.000 
#    4.000    1.111    4.889    0.000    0.000    0.000 
#    0.000    0.000    0.000    0.000    0.000    0.000 
#
# Total GULP energy -111570.344768 kJ/mol
# GULP energy per Si atom -12396.704974 kJ/mol
# Density = 2.721228 g / cm^3
# Si number density = 27.274358 Si / 1000 Ang^3
#
#
#
# Elastic Constant Matrix: (Units=GPa)
#
#
# Indices 1 2 3 4 5 6 
#
# 1 18.7603 18.4146 -12.8878 -0.0002 -12.8159 0.0001
# 2 18.4146 204.4239 27.5033 0.0000 -2.1949 0.0000
# 3 -12.8878 27.5033 129.7998 -0.0001 -1.1988 0.0001
# 4 -0.0002 0.0000 -0.0001 22.6861 0.0001 9.5937
# 5 -12.8159 -2.1949 -1.1988 0.0001 11.8250 -0.0001
# 6 0.0001 0.0000 0.0001 9.5937 -0.0001 41.7263
#
#
#
# Elastic Compliance Matrix: (Units=1/GPa)
#
#
# Indices 1 2 3 4 5 6 
#
# 1 0.669450 -0.064219 0.086749 0.000001 0.722423 0.000000
# 2 -0.064219 0.011204 -0.009383 0.000000 -0.068472 0.000000
# 3 0.086749 -0.009383 0.019176 0.000000 0.094221 0.000000
# 4 0.000001 0.000000 0.000000 0.048827 0.000000 -0.011226
# 5 0.722423 -0.068472 0.094221 0.000000 0.864370 0.000001
# 6 0.000000 0.000000 0.000000 -0.011226 0.000001 0.026547
#
#
# Mechanical properties :
#
#
# Convention : Reuss Voigt Hill
#
# Bulk Modulus (GPa) = 1.37718 46.56049 23.96883
# Shear Modulus (GPa) = 2.69495 36.57773 19.63634
#
# Velocity S-wave (km/s) = 0.99511 3.66608 2.68611
# Velocity P-wave (km/s) = 1.35142 5.91848 4.29271
#
# Compressibility (1/GPa) = 0.72612318
#
# Stress axis : x y z
#
# Youngs Moduli (GPa) = 1.49376 89.25504 52.14938
#
# Poissons Ratio (x) = 5.73187 -4.52389
# Poissons Ratio (y) = 0.09593 0.48930
# Poissons Ratio (z) = -0.12958 0.83745
#
# Static dielectric constant tensor:
#      x y z
#    x 4.448180 0.000000 0.001400 
#    y 0.000000 5.193550 0.000000 
#    z 0.001400 0.000000 4.673550 
# 
# 
# High freq. dielectric constant tensor:
#      x y z
#    x 2.074210 0.000000 0.002610 
#    y 0.000000 2.118650 0.000000 
#    z 0.002610 0.000000 2.087200 
# 
# From -- ./inp_files/10099.got.cif
#   From: 2010.03.12/outbox.cif.g09.slc.cpg/sg8_6_cif.got.tgz:10099.got - 2010.03.31 10:45:26.
