data_PCOD8053545
_publ_section_title
;
Structure prediction by ZEFSAII (Michael W. Deem and Ramdas Pophale) SiO2 
 PCOD8053545
Probable space group: C M
;
_chemical_formula_sum "Si O2"
_cell_formula_units_Z 32
_cell_length_a 15.424706
_cell_length_b 8.940787
_cell_length_c 22.762139
_cell_angle_alpha 90.000000
_cell_angle_beta 31.301186
_cell_angle_gamma 90.000000
_cell_volume 1630.880082
_symmetry_space_group_name_H-M "C M"
_symmetry_group_IT_number 8
_symmetry_cell_setting 'monoclinic'
loop_
_space_group_symop_operation_xyz
x,y,z
x,-y,z
1/2+x,1/2+y,z
1/2+x,1/2-y,z
loop_
_atom_site_type_symbol
_atom_site_label
_atom_site_fract_x
_atom_site_fract_y
_atom_site_fract_z
Si Si1 0.405630 0.175555 0.500000
Si Si2 0.684597 0.671370 0.265211
Si Si3 0.898949 0.822755 0.046794
Si Si4 0.905700 0.330826 0.249605
Si Si5 0.578098 0.675559 0.505567
Si Si6 0.045947 0.825812 0.658968
Si Si7 0.739693 0.675996 0.036109
Si Si8 0.245348 0.823046 0.899604
O O1 0.516180 0.255021 0.386579
O O2 0.445678 0.236402 0.541930
O O3 0.214735 0.212938 0.595761
O O4 0.442389 0.000000 0.476303
O O5 0.647522 0.500000 0.270189
O O6 0.743700 0.759426 0.173648
O O7 0.829518 0.683873 0.229170
O O8 0.882918 0.759646 0.990124
O O9 0.890191 0.000000 0.052038
O O10 0.073406 0.762776 0.971451
O O11 0.968391 0.500000 0.224879
O O12 0.766791 0.283667 0.377657
O O13 0.058740 0.217825 0.166738
O O14 0.546844 0.500000 0.513404
O O15 0.556666 0.725029 0.585045
O O16 0.898397 0.735848 0.773828
O O17 0.005229 0.000000 0.686415
O O18 0.765567 0.500000 0.026186
O O19 0.757698 0.734535 0.959196
O O20 0.247561 0.000000 0.896727
#
# Coordination Sequence:
#
# PCOD8053545 Si02
#       8
#     4   4   4   4   4   4   4   4
#     4  10  21  37  59  90 122 157 198 246 298 353
#     4  10  20  36  60  91 124 159 197 244 301 359
#     4  11  23  40  61  88 120 158 200 249 304 357
#     4   9  18  34  59  87 121 158 193 240 300 356
#     4   9  20  39  59  86 121 158 198 244 299 356
#     4  10  23  41  63  87 117 160 205 245 295 359
#     4  11  23  39  59  89 121 155 202 248 300 360
#     4  10  24  44  62  84 120 159 201 252 299 352
#
# _framework density 19.621307000000002
#
# number of rings (size 3 to 8) (size 9 to 14) (size 15 to 20)
#    0.000    2.000    1.250    2.250    1.750    6.500 
#    0.000    5.000    0.000    0.000    0.000    0.000 
#    0.000    0.000    0.000    0.000    0.000    0.000 
#
# Total GULP energy -198460.711549 kJ/mol
# GULP energy per Si atom -12403.794472 kJ/mol
# Density = 1.957665 g / cm^3
# Si number density = 19.621307 Si / 1000 Ang^3
#
#
#
# Elastic Constant Matrix: (Units=GPa)
#
#
# Indices 1 2 3 4 5 6 
#
# 1 135.7002 43.9503 62.4057 -0.0002 12.1923 0.0002
# 2 43.9503 68.0839 32.3563 -0.0002 -0.5731 0.0000
# 3 62.4057 32.3563 100.1776 -0.0013 10.5654 0.0005
# 4 -0.0002 -0.0002 -0.0013 37.0118 0.0009 0.8429
# 5 12.1923 -0.5731 10.5654 0.0009 21.9623 -0.0002
# 6 0.0002 0.0000 0.0005 0.8429 -0.0002 34.0231
#
#
#
# Elastic Compliance Matrix: (Units=1/GPa)
#
#
# Indices 1 2 3 4 5 6 
#
# 1 0.011842 -0.005178 -0.005264 0.000000 -0.004177 0.000000
# 2 -0.005178 0.019848 -0.003732 0.000000 0.005188 0.000000
# 3 -0.005264 -0.003732 0.014926 0.000001 -0.004356 0.000000
# 4 0.000000 0.000000 0.000001 0.027034 -0.000001 -0.000670
# 5 -0.004177 0.005188 -0.004356 -0.000001 0.050082 0.000000
# 6 0.000000 0.000000 0.000000 -0.000670 0.000000 0.029408
#
#
# Mechanical properties :
#
#
# Convention : Reuss Voigt Hill
#
# Bulk Modulus (GPa) = 54.74117 64.59846 59.66981
# Shear Modulus (GPa) = 26.65547 29.61607 28.13577
#
# Velocity S-wave (km/s) = 3.68978 3.88929 3.79085
# Velocity P-wave (km/s) = 6.79058 7.29129 7.04538
#
# Compressibility (1/GPa) = 0.01826779
#
# Stress axis : x y z
#
# Youngs Moduli (GPa) = 84.44195 50.38381 66.99525
#
# Poissons Ratio (x) = 0.26089 0.35268
# Poissons Ratio (y) = 0.43724 0.25003
# Poissons Ratio (z) = 0.44453 0.18804
#
# Static dielectric constant tensor:
#      x y z
#    x 3.844180 0.000000 0.021840 
#    y 0.000000 3.510290 0.000000 
#    z 0.021840 0.000000 3.458750 
# 
# 
# High freq. dielectric constant tensor:
#      x y z
#    x 1.776220 0.000000 0.001420 
#    y 0.000000 1.763490 0.000000 
#    z 0.001420 0.000000 1.757550 
# 
# From -- ./inp_files/21520.got.cif
#   From: 2010.03.12/outbox.cif.g09.slc.cpg/sg8_11_cif.got.tgz:21520.got - 2010.03.31 10:45:26.
