data_PCOD8053653
_publ_section_title
;
Structure prediction by ZEFSAII (Michael W. Deem and Ramdas Pophale) SiO2 
 PCOD8053653
Probable space group: C M
;
_chemical_formula_sum "Si O2"
_cell_formula_units_Z 18
_cell_length_a 14.746208
_cell_length_b 12.031415
_cell_length_c 10.432783
_cell_angle_alpha 90.000000
_cell_angle_beta 152.789985
_cell_angle_gamma 90.000000
_cell_volume 846.358122
_symmetry_space_group_name_H-M "C M"
_symmetry_group_IT_number 8
_symmetry_cell_setting 'monoclinic'
loop_
_space_group_symop_operation_xyz
x,y,z
x,-y,z
1/2+x,1/2+y,z
1/2+x,1/2-y,z
loop_
_atom_site_type_symbol
_atom_site_label
_atom_site_fract_x
_atom_site_fract_y
_atom_site_fract_z
Si Si1 0.897250 0.500000 0.798000
Si Si2 0.588028 0.623028 0.268439
Si Si3 0.781500 0.737852 0.043515
Si Si4 0.823255 0.000000 0.366376
Si Si5 0.763193 0.500000 0.903557
Si Si6 0.849374 0.240140 0.425431
O O1 0.778851 0.610041 0.602863
O O2 0.912160 0.500000 0.971127
O O3 0.123260 0.500000 0.026568
O O4 0.505219 0.500000 0.127658
O O5 0.668168 0.682694 0.241460
O O6 0.419140 0.695595 0.119130
O O7 0.799749 0.606764 0.038501
O O8 0.559597 0.783522 0.741798
O O9 0.852212 0.764102 0.275267
O O10 0.816008 0.885484 0.438870
O O11 0.036500 0.000000 0.560270
#
# Coordination Sequence:
#
# PCOD8053653 Si02
#       6
#     2   4   4   2   2   4
#     4  10  20  39  66  88 134 170 225 253 335 389
#     4  10  24  40  65  97 132 174 221 269 324 396
#     4  11  24  42  68  97 136 173 223 273 334 390
#     4  10  20  38  64  90 124 168 218 260 324 384
#     4  10  22  39  64  96 130 172 217 273 331 389
#     4  11  24  41  70  98 133 175 222 275 330 393
#
# _framework density 21.267593000000002
#
# number of rings (size 3 to 8) (size 9 to 14) (size 15 to 20)
#    0.667    0.889    0.000    5.333    3.111    2.667 
#    0.000    0.000    0.000    0.000    0.000    0.000 
#    0.000    0.000    0.000    0.000    0.000    0.000 
#
# Total GULP energy -111531.887339 kJ/mol
# GULP energy per Si atom -12392.431927 kJ/mol
# Density = 2.121919 g / cm^3
# Si number density = 21.267593 Si / 1000 Ang^3
#
#
#
# Elastic Constant Matrix: (Units=GPa)
#
#
# Indices 1 2 3 4 5 6 
#
# 1 89.8607 47.7570 14.6867 0.0000 15.3299 0.0000
# 2 47.7570 152.3551 34.2189 0.0000 25.8439 0.0000
# 3 14.6867 34.2189 99.9201 0.0000 16.9424 0.0000
# 4 0.0000 0.0000 0.0000 31.0776 0.0000 4.5084
# 5 15.3299 25.8439 16.9424 0.0000 33.3259 0.0000
# 6 0.0000 0.0000 0.0000 4.5084 0.0000 23.8908
#
#
#
# Elastic Compliance Matrix: (Units=1/GPa)
#
#
# Indices 1 2 3 4 5 6 
#
# 1 0.013686 -0.003681 -0.000183 0.000000 -0.003348 0.000000
# 2 -0.003681 0.008836 -0.001762 0.000000 -0.004263 0.000000
# 3 -0.000183 -0.001762 0.011373 0.000000 -0.004331 0.000000
# 4 0.000000 0.000000 0.000000 0.033083 0.000000 -0.006243
# 5 -0.003348 -0.004263 -0.004331 0.000000 0.037055 0.000000
# 6 0.000000 0.000000 0.000000 -0.006243 0.000000 0.043035
#
#
# Mechanical properties :
#
#
# Convention : Reuss Voigt Hill
#
# Bulk Modulus (GPa) = 44.16580 59.49569 51.83075
# Shear Modulus (GPa) = 30.14445 34.02374 32.08410
#
# Velocity S-wave (km/s) = 3.76891 4.00408 3.88827
# Velocity P-wave (km/s) = 6.30487 7.02940 6.67697
#
# Compressibility (1/GPa) = 0.02264195
#
# Stress axis : x y z
#
# Youngs Moduli (GPa) = 73.06949 113.16830 87.92936
#
# Poissons Ratio (x) = 0.41655 0.01613
# Poissons Ratio (y) = 0.26895 0.15495
# Poissons Ratio (z) = 0.01340 0.19943
#
# Static dielectric constant tensor:
#      x y z
#    x 3.481390 0.000000 0.240140 
#    y 0.000000 4.073290 0.000000 
#    z 0.240140 0.000000 3.805110 
# 
# 
# High freq. dielectric constant tensor:
#      x y z
#    x 1.813100 0.000000 0.025700 
#    y 0.000000 1.848290 0.000000 
#    z 0.025700 0.000000 1.830500 
# 
# From -- ./inp_files/7452.got.cif
#   From: 2010.03.12/outbox.cif.g09.slc.cpg/sg8_4_cif.got.tgz:7452.got - 2010.03.31 10:45:26.
