data_PCOD8053356
_publ_section_title
;
Structure prediction by ZEFSAII (Michael W. Deem and Ramdas Pophale) SiO2 
 PCOD8053356
Probable space group: C M
;
_chemical_formula_sum "Si O2"
_cell_formula_units_Z 32
_cell_length_a 20.464167
_cell_length_b 8.939931
_cell_length_c 9.148069
_cell_angle_alpha 90.000000
_cell_angle_beta 85.159978
_cell_angle_gamma 90.000000
_cell_volume 1667.655269
_symmetry_space_group_name_H-M "C M"
_symmetry_group_IT_number 8
_symmetry_cell_setting 'monoclinic'
loop_
_space_group_symop_operation_xyz
x,y,z
x,-y,z
1/2+x,1/2+y,z
1/2+x,1/2-y,z
loop_
_atom_site_type_symbol
_atom_site_label
_atom_site_fract_x
_atom_site_fract_y
_atom_site_fract_z
Si Si1 0.460830 0.172953 0.079970
Si Si2 0.260063 0.328033 0.814431
Si Si3 0.373804 0.676351 0.586553
Si Si4 0.982782 0.331851 0.734208
Si Si5 0.617305 0.168587 0.804941
Si Si6 0.588961 0.327943 0.097326
Si Si7 0.232757 0.175777 0.125377
Si Si8 0.345159 0.677599 0.268210
O O1 0.525986 0.228897 0.155094
O O2 0.398061 0.265238 0.142265
O O3 0.449971 0.000000 0.118144
O O4 0.468600 0.204457 0.906479
O O5 0.275187 0.500000 0.852416
O O6 0.317139 0.258354 0.703045
O O7 0.191931 0.316830 0.733793
O O8 0.255703 0.236643 0.964214
O O9 0.368601 0.500000 0.584675
O O10 0.444654 0.722221 0.633837
O O11 0.364440 0.738228 0.424988
O O12 0.960676 0.500000 0.701026
O O13 0.061347 0.309256 0.691216
O O14 0.606700 0.000000 0.874658
O O15 0.606793 0.295770 0.926588
O O16 0.568928 0.500000 0.119700
O O17 0.655752 0.290394 0.174052
O O18 0.273960 0.256371 0.243732
O O19 0.246806 0.000000 0.123830
O O20 0.341982 0.500000 0.262347
#
# Coordination Sequence:
#
# PCOD8053356 Si02
#       8
#     4   4   4   4   4   4   4   4
#     4  10  20  35  56  81 105 132 172 216 258 308
#     4   9  17  33  56  77 100 133 171 211 255 301
#     4  10  22  36  50  72 102 136 173 212 253 302
#     4   9  18  32  52  77 102 128 162 208 257 305
#     4   8  15  29  50  76 103 130 166 210 252 299
#     4   9  17  30  51  79 108 134 164 208 259 307
#     4  10  20  34  54  81 108 134 170 213 256 307
#     4  11  23  37  51  71 104 143 180 216 256 303
#
# _framework density 19.188618000000002
#
# number of rings (size 3 to 8) (size 9 to 14) (size 15 to 20)
#    0.000    2.500    0.000    3.000    0.000    7.500 
#    0.000    1.250    0.000    1.500    0.000    0.000 
#    0.000    0.000    0.000    0.000    0.000    0.000 
#
# Total GULP energy -198315.457367 kJ/mol
# GULP energy per Si atom -12394.716085 kJ/mol
# Density = 1.914494 g / cm^3
# Si number density = 19.188618 Si / 1000 Ang^3
#
#
#
# Elastic Constant Matrix: (Units=GPa)
#
#
# Indices 1 2 3 4 5 6 
#
# 1 116.1162 34.8975 30.4024 0.0000 33.9251 0.0000
# 2 34.8975 64.9061 23.3276 0.0000 13.2327 0.0000
# 3 30.4024 23.3276 56.1472 0.0000 23.3900 0.0000
# 4 0.0000 0.0000 0.0000 19.3187 0.0000 6.5723
# 5 33.9251 13.2327 23.3900 0.0000 21.7698 0.0000
# 6 0.0000 0.0000 0.0000 6.5723 0.0000 33.7144
#
#
#
# Elastic Compliance Matrix: (Units=1/GPa)
#
#
# Indices 1 2 3 4 5 6 
#
# 1 0.017448 -0.005169 0.004920 0.000000 -0.029334 0.000000
# 2 -0.005169 0.019986 -0.006878 0.000000 0.003296 0.000000
# 3 0.004920 -0.006878 0.035220 0.000000 -0.041328 0.000000
# 4 0.000000 0.000000 0.000000 0.055440 0.000000 -0.010808
# 5 -0.029334 0.003296 -0.041328 0.000000 0.134049 0.000000
# 6 0.000000 0.000000 0.000000 -0.010808 0.000000 0.031768
#
#
# Mechanical properties :
#
#
# Convention : Reuss Voigt Hill
#
# Bulk Modulus (GPa) = 17.12309 46.04715 31.58512
# Shear Modulus (GPa) = 15.26108 24.86338 20.06223
#
# Velocity S-wave (km/s) = 2.82320 3.60354 3.23697
# Velocity P-wave (km/s) = 4.42382 6.43142 5.51967
#
# Compressibility (1/GPa) = 0.05840067
#
# Stress axis : x y z
#
# Youngs Moduli (GPa) = 57.31421 50.03534 28.39259
#
# Poissons Ratio (x) = 0.25862 -0.13969
# Poissons Ratio (y) = 0.29624 0.19528
# Poissons Ratio (z) = -0.28199 0.34414
#
# Static dielectric constant tensor:
#      x y z
#    x 3.973410 0.000000 0.113080 
#    y 0.000000 3.451630 0.000000 
#    z 0.113080 0.000000 3.155220 
# 
# 
# High freq. dielectric constant tensor:
#      x y z
#    x 1.770520 0.000000 0.012060 
#    y 0.000000 1.746260 0.000000 
#    z 0.012060 0.000000 1.695650 
# 
# From -- ./inp_files/15809.got.cif
#   From: 2010.03.12/outbox.cif.g09.slc.cpg/sg8_8_cif.got.tgz:15809.got - 2010.03.31 10:45:26.
