data_PCOD8053018
_publ_section_title
;
Structure prediction by ZEFSAII (Michael W. Deem and Ramdas Pophale) SiO2 
 PCOD8053018
Probable space group: C M
;
_chemical_formula_sum "Si O2"
_cell_formula_units_Z 32
_cell_length_a 20.323576
_cell_length_b 9.136447
_cell_length_c 24.866186
_cell_angle_alpha 90.000000
_cell_angle_beta 157.560472
_cell_angle_gamma 90.000000
_cell_volume 1762.455038
_symmetry_space_group_name_H-M "C M"
_symmetry_group_IT_number 8
_symmetry_cell_setting 'monoclinic'
loop_
_space_group_symop_operation_xyz
x,y,z
x,-y,z
1/2+x,1/2+y,z
1/2+x,1/2-y,z
loop_
_atom_site_type_symbol
_atom_site_label
_atom_site_fract_x
_atom_site_fract_y
_atom_site_fract_z
Si Si1 0.851870 0.828807 0.183250
Si Si2 0.739225 0.331120 0.488285
Si Si3 0.333947 0.832583 0.059375
Si Si4 0.216416 0.333282 0.790811
Si Si5 0.106758 0.171156 0.079523
Si Si6 0.550333 0.667987 0.761570
Si Si7 0.155235 0.328815 0.227613
Si Si8 0.378705 0.832054 0.478155
O O1 0.848847 0.778620 0.119456
O O2 0.713632 0.737803 0.111594
O O3 0.040369 0.797492 0.350882
O O4 0.807815 0.000000 0.152184
O O5 0.784742 0.500000 0.530370
O O6 0.862517 0.243415 0.622291
O O7 0.779895 0.284388 0.457839
O O8 0.479088 0.791458 0.125430
O O9 0.358993 0.000000 0.098006
O O10 0.146304 0.811731 0.890887
O O11 0.201402 0.500000 0.800085
O O12 0.171864 0.231958 0.807195
O O13 0.083541 0.307962 0.641268
O O14 0.407556 0.297834 0.914681
O O15 0.159237 0.246815 0.174327
O O16 0.146767 0.000000 0.114393
O O17 0.520776 0.500000 0.725369
O O18 0.176234 0.500000 0.232515
O O19 0.318135 0.272931 0.384770
O O20 0.335525 0.000000 0.430849
#
# Coordination Sequence:
#
# PCOD8053018 Si02
#       8
#     4   4   4   4   4   4   4   4
#     4  11  23  39  59  82 113 151 189 231 279 334
#     4   9  19  35  54  80 113 147 183 226 278 333
#     4  10  21  36  55  84 117 145 184 233 277 327
#     4   9  19  35  55  80 112 147 183 227 279 333
#     4  11  23  39  59  82 113 152 188 228 283 338
#     4  10  19  32  55  85 113 143 182 231 277 323
#     4  11  21  35  56  85 116 145 185 234 276 325
#     4   9  17  33  55  82 111 142 184 228 277 331
#
# _framework density 18.156492
#
# number of rings (size 3 to 8) (size 9 to 14) (size 15 to 20)
#    0.000    2.000    2.500    2.250    0.000    5.000 
#    0.000    1.250    0.000    1.500    0.000    0.000 
#    0.000    0.000    0.000    0.000    0.000    0.000 
#
# Total GULP energy -198433.373102 kJ/mol
# GULP energy per Si atom -12402.085819 kJ/mol
# Density = 1.811517 g / cm^3
# Si number density = 18.156492 Si / 1000 Ang^3
#
#
#
# Elastic Constant Matrix: (Units=GPa)
#
#
# Indices 1 2 3 4 5 6 
#
# 1 44.9792 31.0025 20.5668 -0.0040 2.0038 0.0001
# 2 31.0025 92.0659 46.5516 -0.0026 -2.0931 0.0001
# 3 20.5668 46.5516 102.9448 0.0050 -0.6904 0.0007
# 4 -0.0040 -0.0026 0.0050 32.6303 0.0030 -1.9861
# 5 2.0038 -2.0931 -0.6904 0.0030 24.8931 0.0005
# 6 0.0001 0.0001 0.0007 -1.9861 0.0005 32.5368
#
#
#
# Elastic Compliance Matrix: (Units=1/GPa)
#
#
# Indices 1 2 3 4 5 6 
#
# 1 0.029457 -0.009082 -0.001800 0.000003 -0.003185 0.000000
# 2 -0.009082 0.016907 -0.005818 0.000001 0.001991 0.000000
# 3 -0.001800 -0.005818 0.012704 -0.000003 0.000008 0.000000
# 4 0.000003 0.000001 -0.000003 0.030761 -0.000004 0.001878
# 5 -0.003185 0.001991 0.000008 -0.000004 0.040596 -0.000001
# 6 0.000000 0.000000 0.000000 0.001878 -0.000001 0.030849
#
#
# Mechanical properties :
#
#
# Convention : Reuss Voigt Hill
#
# Bulk Modulus (GPa) = 38.95578 48.47019 43.71299
# Shear Modulus (GPa) = 24.60287 27.46998 26.03642
#
# Velocity S-wave (km/s) = 3.68509 3.89389 3.79093
# Velocity P-wave (km/s) = 6.29354 6.85349 6.57947
#
# Compressibility (1/GPa) = 0.02567013
#
# Stress axis : x y z
#
# Youngs Moduli (GPa) = 33.94767 59.14756 78.71416
#
# Poissons Ratio (x) = 0.53718 0.14165
# Poissons Ratio (y) = 0.30831 0.45792
# Poissons Ratio (z) = 0.06109 0.34409
#
# Static dielectric constant tensor:
#      x y z
#    x 3.030700 0.000000 0.019020 
#    y 0.000000 3.405530 0.000000 
#    z 0.019020 0.000000 3.607260 
# 
# 
# High freq. dielectric constant tensor:
#      x y z
#    x 1.670520 0.000000 -0.004710 
#    y 0.000000 1.712470 0.000000 
#    z -0.004710 0.000000 1.717610 
# 
# From -- ./inp_files/31629.got.cif
#   From: 2010.03.12/outbox.cif.g09.slc.cpg/sg8_16_cif.got.tgz:31629.got - 2010.03.31 10:45:26.
