data_PCOD8053366
_publ_section_title
;
Structure prediction by ZEFSAII (Michael W. Deem and Ramdas Pophale) SiO2 
 PCOD8053366
Probable space group: C M
;
_chemical_formula_sum "Si O2"
_cell_formula_units_Z 32
_cell_length_a 24.171694
_cell_length_b 9.084259
_cell_length_c 14.230530
_cell_angle_alpha 90.000000
_cell_angle_beta 31.385624
_cell_angle_gamma 90.000000
_cell_volume 1627.364560
_symmetry_space_group_name_H-M "C M"
_symmetry_group_IT_number 8
_symmetry_cell_setting 'monoclinic'
loop_
_space_group_symop_operation_xyz
x,y,z
x,-y,z
1/2+x,1/2+y,z
1/2+x,1/2-y,z
loop_
_atom_site_type_symbol
_atom_site_label
_atom_site_fract_x
_atom_site_fract_y
_atom_site_fract_z
Si Si1 0.781140 0.174331 0.047860
Si Si2 0.017746 0.176016 0.741171
Si Si3 0.150041 0.839671 0.711683
Si Si4 0.304366 0.825600 0.635025
Si Si5 0.351526 0.161189 0.286852
Si Si6 0.710966 0.669067 0.965224
Si Si7 0.205493 0.825758 0.336632
Si Si8 0.468775 0.329634 0.269638
O O1 0.737584 0.222856 0.010761
O O2 0.707377 0.243484 0.234722
O O3 0.776234 0.000000 0.061845
O O4 0.901025 0.234470 0.886519
O O5 0.055803 0.240710 0.788956
O O6 0.097773 0.229152 0.543643
O O7 0.022269 0.000000 0.741151
O O8 0.199067 0.760339 0.733031
O O9 0.246517 0.856863 0.499903
O O10 0.107939 0.000000 0.804526
O O11 0.410008 0.750744 0.441377
O O12 0.311876 0.000000 0.603745
O O13 0.292353 0.793233 0.762625
O O14 0.310776 0.219314 0.244260
O O15 0.434423 0.270913 0.216409
O O16 0.405658 0.000000 0.198339
O O17 0.723992 0.500000 0.978573
O O18 0.592835 0.699481 0.100573
O O19 0.203008 0.000000 0.323445
O O20 0.439172 0.500000 0.317639
#
# Coordination Sequence:
#
# PCOD8053366 Si02
#       8
#     4   4   4   4   4   4   4   4
#     4  11  23  36  53  79 106 135 179 231 268 298
#     4   8  16  32  54  78 104 136 170 206 256 316
#     4   7  11  25  51  78 100 126 164 204 247 309
#     4   9  18  35  58  79 102 137 176 213 260 319
#     4   8  15  30  54  81 108 140 173 205 253 319
#     4  10  23  40  54  72 103 145 186 218 259 319
#     4   9  18  36  59  79 106 144 176 206 257 324
#     4  10  20  34  55  82 109 137 172 219 268 310
#
# _framework density 19.663695000000001
#
# number of rings (size 3 to 8) (size 9 to 14) (size 15 to 20)
#    0.000    3.000    0.000    3.000    0.000    4.000 
#    0.000    7.500    0.000    9.000    0.000    0.000 
#    0.000    0.000    0.000    0.000    0.000    0.000 
#
# Total GULP energy -198260.618072 kJ/mol
# GULP energy per Si atom -12391.288629 kJ/mol
# Density = 1.961894 g / cm^3
# Si number density = 19.663695 Si / 1000 Ang^3
#
#
#
# Elastic Constant Matrix: (Units=GPa)
#
#
# Indices 1 2 3 4 5 6 
#
# 1 60.0147 18.6933 -2.2218 -0.0004 8.3924 0.0002
# 2 18.6933 49.9016 14.3416 -0.0004 1.1152 0.0001
# 3 -2.2218 14.3416 39.7828 -0.0005 2.8018 0.0002
# 4 -0.0004 -0.0004 -0.0005 19.1054 0.0002 -3.3174
# 5 8.3924 1.1152 2.8018 0.0002 31.2436 -0.0001
# 6 0.0002 0.0001 0.0002 -3.3174 -0.0001 25.3664
#
#
#
# Elastic Compliance Matrix: (Units=1/GPa)
#
#
# Indices 1 2 3 4 5 6 
#
# 1 0.020381 -0.008869 0.004729 0.000000 -0.005582 0.000000
# 2 -0.008869 0.026215 -0.010112 0.000000 0.002353 0.000000
# 3 0.004729 -0.010112 0.029295 0.000001 -0.003536 0.000000
# 4 0.000000 0.000000 0.000001 0.053558 -0.000001 0.007004
# 5 -0.005582 0.002353 -0.003536 -0.000001 0.033739 0.000000
# 6 0.000000 0.000000 0.000000 0.007004 0.000000 0.040338
#
#
# Mechanical properties :
#
#
# Convention : Reuss Voigt Hill
#
# Bulk Modulus (GPa) = 21.10288 23.48058 22.29173
# Shear Modulus (GPa) = 20.17553 23.06880 21.62217
#
# Velocity S-wave (km/s) = 3.20664 3.42887 3.31962
# Velocity P-wave (km/s) = 4.94624 5.25768 5.10434
#
# Compressibility (1/GPa) = 0.04738689
#
# Stress axis : x y z
#
# Youngs Moduli (GPa) = 49.06607 38.14582 34.13576
#
# Poissons Ratio (x) = 0.33831 -0.16141
# Poissons Ratio (y) = 0.43516 0.34517
# Poissons Ratio (z) = -0.23201 0.38571
#
# Static dielectric constant tensor:
#      x y z
#    x 3.839320 0.000000 0.017990 
#    y 0.000000 3.231500 0.000000 
#    z 0.017990 0.000000 3.437150 
# 
# 
# High freq. dielectric constant tensor:
#      x y z
#    x 1.774440 0.000000 0.004470 
#    y 0.000000 1.731620 0.000000 
#    z 0.004470 0.000000 1.756220 
# 
# From -- ./inp_files/26534.got.cif
#   From: 2010.03.12/outbox.cif.g09.slc.cpg/sg8_14_cif.got.tgz:26534.got - 2010.03.31 10:45:26.
