data_PCOD8053970
_publ_section_title
;
Structure prediction by ZEFSAII (Michael W. Deem and Ramdas Pophale) SiO2 
 PCOD8053970
Probable space group: C M
;
_chemical_formula_sum "Si O2"
_cell_formula_units_Z 32
_cell_length_a 24.575226
_cell_length_b 8.813730
_cell_length_c 23.589398
_cell_angle_alpha 90.000000
_cell_angle_beta 18.040201
_cell_angle_gamma 90.000000
_cell_volume 1582.315904
_symmetry_space_group_name_H-M "C M"
_symmetry_group_IT_number 8
_symmetry_cell_setting 'monoclinic'
loop_
_space_group_symop_operation_xyz
x,y,z
x,-y,z
1/2+x,1/2+y,z
1/2+x,1/2-y,z
loop_
_atom_site_type_symbol
_atom_site_label
_atom_site_fract_x
_atom_site_fract_y
_atom_site_fract_z
Si Si1 0.713980 0.822057 0.176850
Si Si2 0.868833 0.676858 0.786881
Si Si3 0.837438 0.829229 0.418762
Si Si4 0.244558 0.829261 0.030821
Si Si5 0.523529 0.820822 0.937130
Si Si6 0.720565 0.676384 0.424943
Si Si7 0.030519 0.178074 0.050565
Si Si8 0.339703 0.677932 0.544019
O O1 0.780887 0.780627 0.047484
O O2 0.518390 0.763294 0.382897
O O3 0.715863 0.000000 0.182295
O O4 0.842255 0.751796 0.096280
O O5 0.908088 0.500000 0.738640
O O6 0.021884 0.775680 0.606506
O O7 0.863729 0.715828 0.859125
O O8 0.686025 0.722840 0.939223
O O9 0.752097 0.712295 0.459788
O O10 0.779442 0.783439 0.539639
O O11 0.045837 0.819752 0.206447
O O12 0.773224 0.000000 0.467582
O O13 0.287554 0.000000 0.008885
O O14 0.685248 0.765929 0.737908
O O15 0.503386 0.000000 0.954692
O O16 0.565550 0.767727 0.958445
O O17 0.749126 0.500000 0.384501
O O18 0.847871 0.772534 0.259069
O O19 0.024352 0.000000 0.044159
O O20 0.379452 0.500000 0.510193
#
# Coordination Sequence:
#
# PCOD8053970 Si02
#       8
#     4   4   4   4   4   4   4   4
#     4  11  23  38  60  94 131 165 202 255 310 366
#     4  10  22  41  65  89 119 164 212 256 309 372
#     4   9  17  36  62  89 122 164 209 251 304 369
#     4   9  18  37  63  89 122 166 208 253 309 368
#     4  11  24  43  67  93 122 165 212 258 307 369
#     4  12  25  38  59  94 130 164 202 255 312 370
#     4  11  24  46  68  89 120 164 213 262 309 365
#     4   9  21  41  64  89 122 166 210 254 308 369
#
# _framework density 20.223521000000002
#
# number of rings (size 3 to 8) (size 9 to 14) (size 15 to 20)
#    0.000    1.750    1.250    3.750    1.750    5.500 
#    0.000    2.500    0.000    0.000    0.000    0.000 
#    0.000    0.000    0.000    0.000    0.000    0.000 
#
# Total GULP energy -198464.138152 kJ/mol
# GULP energy per Si atom -12404.008635 kJ/mol
# Density = 2.017749 g / cm^3
# Si number density = 20.223521 Si / 1000 Ang^3
#
#
#
# Elastic Constant Matrix: (Units=GPa)
#
#
# Indices 1 2 3 4 5 6 
#
# 1 76.8386 30.7525 29.4574 0.0061 13.6799 -0.0011
# 2 30.7525 79.4438 35.8635 0.0129 -3.5484 -0.0028
# 3 29.4574 35.8635 99.6142 0.0205 18.1614 -0.0035
# 4 0.0061 0.0129 0.0205 24.3069 -0.0001 1.5589
# 5 13.6799 -3.5484 18.1614 -0.0001 23.2224 -0.0005
# 6 -0.0011 -0.0028 -0.0035 1.5589 -0.0005 34.4260
#
#
#
# Elastic Compliance Matrix: (Units=1/GPa)
#
#
# Indices 1 2 3 4 5 6 
#
# 1 0.018181 -0.007210 -0.000732 0.000000 -0.011240 0.000000
# 2 -0.007210 0.019140 -0.007075 -0.000002 0.012705 0.000001
# 3 -0.000732 -0.007075 0.015069 -0.000009 -0.012435 0.000001
# 4 0.000000 -0.000002 -0.000009 0.041260 0.000007 -0.001868
# 5 -0.011240 0.012705 -0.012435 0.000007 0.061349 0.000000
# 6 0.000000 0.000001 0.000001 -0.001868 0.000000 0.029132
#
#
# Mechanical properties :
#
#
# Convention : Reuss Voigt Hill
#
# Bulk Modulus (GPa) = 44.72718 49.78257 47.25488
# Shear Modulus (GPa) = 22.56138 27.04596 24.80367
#
# Velocity S-wave (km/s) = 3.34368 3.66095 3.50591
# Velocity P-wave (km/s) = 6.08863 6.52225 6.30916
#
# Compressibility (1/GPa) = 0.02235777
#
# Stress axis : x y z
#
# Youngs Moduli (GPa) = 55.00168 52.24742 66.35945
#
# Poissons Ratio (x) = 0.37669 0.04855
# Poissons Ratio (y) = 0.39654 0.46950
# Poissons Ratio (z) = 0.04024 0.36965
#
# Static dielectric constant tensor:
#      x y z
#    x 3.696900 0.000000 0.082290 
#    y 0.000000 3.538460 0.000010 
#    z 0.082290 0.000010 3.754050 
# 
# 
# High freq. dielectric constant tensor:
#      x y z
#    x 1.787140 0.000000 0.000630 
#    y 0.000000 1.779670 0.000000 
#    z 0.000630 0.000000 1.799710 
# 
# From -- ./inp_files/32408.got.cif
#   From: 2010.03.12/outbox.cif.g09.slc.cpg/sg8_17_cif.got.tgz:32408.got - 2010.03.31 10:45:26.
