data_PCOD8053236
_publ_section_title
;
Structure prediction by ZEFSAII (Michael W. Deem and Ramdas Pophale) SiO2 
 PCOD8053236
Probable space group: C M
;
_chemical_formula_sum "Si O2"
_cell_formula_units_Z 32
_cell_length_a 12.427591
_cell_length_b 13.437749
_cell_length_c 11.241913
_cell_angle_alpha 90.000000
_cell_angle_beta 48.691958
_cell_angle_gamma 90.000000
_cell_volume 1410.239232
_symmetry_space_group_name_H-M "C M"
_symmetry_group_IT_number 8
_symmetry_cell_setting 'monoclinic'
loop_
_space_group_symop_operation_xyz
x,y,z
x,-y,z
1/2+x,1/2+y,z
1/2+x,1/2-y,z
loop_
_atom_site_type_symbol
_atom_site_label
_atom_site_fract_x
_atom_site_fract_y
_atom_site_fract_z
Si Si1 0.941390 0.887222 0.063890
Si Si2 0.933327 0.612299 0.845491
Si Si3 0.920416 0.825933 0.343054
Si Si4 0.665451 0.255361 0.771384
Si Si5 0.913062 0.389434 0.587940
Si Si6 0.725505 0.263978 0.150573
Si Si7 0.652146 0.262122 0.453283
Si Si8 0.900727 0.110306 0.622415
O O1 0.914404 0.890119 0.226088
O O2 0.805675 0.843046 0.089230
O O3 0.968505 0.000000 0.000752
O O4 0.075428 0.816554 0.934168
O O5 0.980699 0.500000 0.851681
O O6 0.876327 0.606257 0.754095
O O7 0.064214 0.692428 0.754760
O O8 0.801108 0.650146 0.019557
O O9 0.770559 0.765693 0.464908
O O10 0.925064 0.890135 0.460861
O O11 0.058847 0.753730 0.233880
O O12 0.780502 0.329955 0.623070
O O13 0.763330 0.172809 0.766699
O O14 0.926377 0.500000 0.523264
O O15 0.063366 0.332250 0.463393
O O16 0.737715 0.304833 0.277021
O O17 0.540558 0.343280 0.585810
O O18 0.880306 0.000000 0.684976
#
# Coordination Sequence:
#
# PCOD8053236 Si02
#       8
#     4   4   4   4   4   4   4   4
#     4  10  20  35  57  83 108 139 180 222 266 317
#     4  10  20  35  58  84 107 137 180 225 267 315
#     4  10  19  36  59  80 106 140 179 226 269 310
#     4  10  20  34  54  82 114 140 170 220 276 318
#     4  10  20  35  58  84 107 137 180 225 267 315
#     4   9  20  34  52  81 114 140 172 221 271 316
#     4   9  20  34  52  81 114 140 172 221 271 316
#     4  10  20  35  57  83 108 139 180 222 266 317
#
# _framework density 22.691184
#
# number of rings (size 3 to 8) (size 9 to 14) (size 15 to 20)
#    0.000    2.250    0.000    2.625    0.000    7.000 
#    0.000    0.625    0.000   57.750    0.000    0.000 
#    0.000    0.000    0.000    0.000    0.000    0.000 
#
# Total GULP energy -198233.027421 kJ/mol
# GULP energy per Si atom -12389.564214 kJ/mol
# Density = 2.263954 g / cm^3
# Si number density = 22.691184 Si / 1000 Ang^3
#
#
#
# Elastic Constant Matrix: (Units=GPa)
#
#
# Indices 1 2 3 4 5 6 
#
# 1 73.4233 37.6056 26.6734 0.0000 -32.8861 0.0000
# 2 37.6056 172.0886 43.7601 0.0000 -22.6650 0.0000
# 3 26.6734 43.7601 83.1509 0.0000 -29.6656 0.0000
# 4 0.0000 0.0000 0.0000 19.9806 0.0000 3.8098
# 5 -32.8861 -22.6650 -29.6656 0.0000 47.0219 0.0000
# 6 0.0000 0.0000 0.0000 3.8098 0.0000 18.7990
#
#
#
# Elastic Compliance Matrix: (Units=1/GPa)
#
#
# Indices 1 2 3 4 5 6 
#
# 1 0.021087 -0.002719 -0.000696 0.000000 0.012998 0.000000
# 2 -0.002719 0.007121 -0.003006 0.000000 -0.000366 0.000000
# 3 -0.000696 -0.003006 0.016958 0.000000 0.008763 0.000000
# 4 0.000000 0.000000 0.000000 0.052060 0.000000 -0.010550
# 5 0.012998 -0.000366 0.008763 0.000000 0.035709 0.000000
# 6 0.000000 0.000000 0.000000 -0.010550 0.000000 0.055332
#
#
# Mechanical properties :
#
#
# Convention : Reuss Voigt Hill
#
# Bulk Modulus (GPa) = 30.93685 60.52678 45.73181
# Shear Modulus (GPa) = 23.59768 31.86854 27.73311
#
# Velocity S-wave (km/s) = 3.22832 3.75166 3.49979
# Velocity P-wave (km/s) = 5.24972 6.74527 6.04393
#
# Compressibility (1/GPa) = 0.03232391
#
# Stress axis : x y z
#
# Youngs Moduli (GPa) = 47.42269 140.42204 58.96966
#
# Poissons Ratio (x) = 0.38182 0.04105
# Poissons Ratio (y) = 0.12895 0.17726
# Poissons Ratio (z) = 0.03301 0.42210
#
# Static dielectric constant tensor:
#      x y z
#    x 4.048040 0.000000 -0.225660 
#    y 0.000000 4.047470 0.000000 
#    z -0.225660 0.000000 4.169370 
# 
# 
# High freq. dielectric constant tensor:
#      x y z
#    x 1.885180 0.000000 -0.017450 
#    y 0.000000 1.874310 0.000000 
#    z -0.017450 0.000000 1.904650 
# 
# From -- ./inp_files/26813.got.cif
#   From: 2010.03.12/outbox.cif.g09.slc.cpg/sg8_14_cif.got.tgz:26813.got - 2010.03.31 10:45:26.
