data_PCOD8053330
_publ_section_title
;
Structure prediction by ZEFSAII (Michael W. Deem and Ramdas Pophale) SiO2 
 PCOD8053330
Probable space group: C M
;
_chemical_formula_sum "Si O2"
_cell_formula_units_Z 32
_cell_length_a 19.879827
_cell_length_b 8.873460
_cell_length_c 19.732099
_cell_angle_alpha 90.000000
_cell_angle_beta 149.595157
_cell_angle_gamma 90.000000
_cell_volume 1761.655326
_symmetry_space_group_name_H-M "C M"
_symmetry_group_IT_number 8
_symmetry_cell_setting 'monoclinic'
loop_
_space_group_symop_operation_xyz
x,y,z
x,-y,z
1/2+x,1/2+y,z
1/2+x,1/2-y,z
loop_
_atom_site_type_symbol
_atom_site_label
_atom_site_fract_x
_atom_site_fract_y
_atom_site_fract_z
Si Si1 0.391430 0.174171 0.066780
Si Si2 0.208926 0.173283 0.031158
Si Si3 0.165928 0.820890 0.269556
Si Si4 0.347276 0.828103 0.810670
Si Si5 0.901620 0.676906 0.566920
Si Si6 0.149325 0.674054 0.113915
Si Si7 0.694640 0.822484 0.789640
Si Si8 0.448563 0.824436 0.757002
O O1 0.338911 0.194635 0.097674
O O2 0.528964 0.260858 0.180528
O O3 0.414811 0.000000 0.068649
O O4 0.286007 0.238508 0.922622
O O5 0.229172 0.265448 0.118068
O O6 0.185223 0.000000 0.029437
O O7 0.083224 0.230575 0.879353
O O8 0.283383 0.754394 0.419122
O O9 0.195602 0.764673 0.219789
O O10 0.161005 0.000000 0.265283
O O11 0.243272 0.717419 0.756207
O O12 0.348753 0.787521 0.732057
O O13 0.302662 0.000000 0.783593
O O14 0.492892 0.800261 0.967927
O O15 0.901381 0.500000 0.555935
O O16 0.876852 0.718029 0.624338
O O17 0.044714 0.738793 0.667372
O O18 0.184663 0.500000 0.154265
O O19 0.704548 0.000000 0.811180
O O20 0.490137 0.000000 0.795828
#
# Coordination Sequence:
#
# PCOD8053330 Si02
#       8
#     4   4   4   4   4   4   4   4
#     4  11  22  36  54  82 115 143 183 234 277 322
#     4  10  20  33  54  83 112 141 181 231 276 325
#     4  11  22  37  58  81 111 151 189 227 275 333
#     4   9  18  31  52  80 111 140 174 227 276 318
#     4   9  20  37  56  81 110 144 187 229 275 329
#     4  10  20  35  55  80 113 146 181 228 279 329
#     4  11  20  33  57  82 108 143 183 228 274 327
#     4   9  17  34  56  77 108 146 180 222 276 325
#
# _framework density 18.164733999999999
#
# number of rings (size 3 to 8) (size 9 to 14) (size 15 to 20)
#    0.000    2.000    2.500    2.625    0.000    3.500 
#    0.000    5.000    0.000    3.000    0.000    0.000 
#    0.000    0.000    0.000    0.000    0.000    0.000 
#
# Total GULP energy -198416.204388 kJ/mol
# GULP energy per Si atom -12401.012774 kJ/mol
# Density = 1.812339 g / cm^3
# Si number density = 18.164734 Si / 1000 Ang^3
#
#
#
# Elastic Constant Matrix: (Units=GPa)
#
#
# Indices 1 2 3 4 5 6 
#
# 1 132.6298 47.3679 68.7692 0.0000 -11.9653 0.0000
# 2 47.3679 81.8879 40.0834 0.0000 -1.5891 0.0000
# 3 68.7692 40.0834 124.6192 0.0000 -9.0667 0.0000
# 4 0.0000 0.0000 0.0000 9.7048 0.0000 -4.3914
# 5 -11.9653 -1.5891 -9.0667 0.0000 21.6256 0.0000
# 6 0.0000 0.0000 0.0000 -4.3914 0.0000 31.9048
#
#
#
# Elastic Compliance Matrix: (Units=1/GPa)
#
#
# Indices 1 2 3 4 5 6 
#
# 1 0.012078 -0.004503 -0.004904 0.000000 0.004296 0.000000
# 2 -0.004503 0.016190 -0.002906 0.000000 -0.002520 0.000000
# 3 -0.004904 -0.002906 0.011813 0.000000 0.002026 0.000000
# 4 0.000000 0.000000 0.000000 0.109886 0.000000 0.015125
# 5 0.004296 -0.002520 0.002026 0.000000 0.049282 0.000000
# 6 0.000000 0.000000 0.000000 0.015125 0.000000 0.033425
#
#
# Mechanical properties :
#
#
# Convention : Reuss Voigt Hill
#
# Bulk Modulus (GPa) = 64.70419 72.39756 68.55088
# Shear Modulus (GPa) = 19.05102 24.84145 21.94623
#
# Velocity S-wave (km/s) = 3.24202 3.70207 3.47966
# Velocity P-wave (km/s) = 7.05070 7.62997 7.34605
#
# Compressibility (1/GPa) = 0.01545495
#
# Stress axis : x y z
#
# Youngs Moduli (GPa) = 82.79213 61.76664 84.65245
#
# Poissons Ratio (x) = 0.27812 0.41518
# Poissons Ratio (y) = 0.37279 0.24601
# Poissons Ratio (z) = 0.40605 0.17950
#
# Static dielectric constant tensor:
#      x y z
#    x 3.643570 0.000000 -0.070510 
#    y 0.000000 3.328200 0.000000 
#    z -0.070510 0.000000 3.292080 
# 
# 
# High freq. dielectric constant tensor:
#      x y z
#    x 1.721380 0.000000 -0.009410 
#    y 0.000000 1.702320 0.000000 
#    z -0.009410 0.000000 1.674010 
# 
# From -- ./inp_files/16860.got.cif
#   From: 2010.03.12/outbox.cif.g09.slc.cpg/sg8_9_cif.got.tgz:16860.got - 2010.03.31 10:45:26.
