data_PCOD8053098
_publ_section_title
;
Structure prediction by ZEFSAII (Michael W. Deem and Ramdas Pophale) SiO2 
 PCOD8053098
Probable space group: C M
;
_chemical_formula_sum "Si O2"
_cell_formula_units_Z 32
_cell_length_a 14.286825
_cell_length_b 9.033295
_cell_length_c 28.184771
_cell_angle_alpha 90.000000
_cell_angle_beta 150.960797
_cell_angle_gamma 90.000000
_cell_volume 1765.644659
_symmetry_space_group_name_H-M "C M"
_symmetry_group_IT_number 8
_symmetry_cell_setting 'monoclinic'
loop_
_space_group_symop_operation_xyz
x,y,z
x,-y,z
1/2+x,1/2+y,z
1/2+x,1/2-y,z
loop_
_atom_site_type_symbol
_atom_site_label
_atom_site_fract_x
_atom_site_fract_y
_atom_site_fract_z
Si Si1 0.516600 0.326666 0.489810
Si Si2 0.891453 0.826689 0.625902
Si Si3 0.524695 0.672345 0.789380
Si Si4 0.064510 0.665075 0.154218
Si Si5 0.661525 0.324484 0.285183
Si Si6 0.449291 0.175620 0.000405
Si Si7 0.154382 0.171943 0.655605
Si Si8 0.288418 0.165264 0.110444
O O1 0.492743 0.500000 0.468846
O O2 0.693175 0.264643 0.536909
O O3 0.324696 0.240340 0.391108
O O4 0.547783 0.293229 0.559081
O O5 0.003169 0.792268 0.724130
O O6 0.022757 0.770123 0.640543
O O7 0.841951 0.000000 0.598936
O O8 0.506785 0.500000 0.791638
O O9 0.732279 0.733939 0.897663
O O10 0.361217 0.749305 0.748527
O O11 0.156505 0.500000 0.193809
O O12 0.850435 0.656265 0.082672
O O13 0.197457 0.771431 0.246176
O O14 0.036977 0.728956 0.089514
O O15 0.659889 0.500000 0.287459
O O16 0.455883 0.258629 0.212343
O O17 0.456192 0.000000 0.997440
O O18 0.584328 0.251582 0.021150
O O19 0.195879 0.000000 0.680301
O O20 0.272949 0.000000 0.125493
#
# Coordination Sequence:
#
# PCOD8053098 Si02
#       8
#     4   4   4   4   4   4   4   4
#     4  10  19  34  54  77 104 136 172 214 261 310
#     4   9  18  35  54  77 106 137 171 212 256 308
#     4   9  19  33  53  78 108 138 170 212 259 305
#     4   8  18  35  51  71 105 139 172 214 259 303
#     4  10  19  35  56  77 103 138 174 217 267 310
#     4  10  19  34  54  78 107 142 177 215 260 307
#     4   9  19  35  54  76 105 137 173 213 255 307
#     4   9  19  35  52  74 104 139 175 217 257 302
#
# _framework density 18.123691999999998
#
# number of rings (size 3 to 8) (size 9 to 14) (size 15 to 20)
#    0.750    2.000    0.000    1.500    0.000    3.000 
#    2.250    0.000    0.000    0.000    0.000    0.000 
#    0.000    0.000    0.000    0.000    0.000    0.000 
#
# Total GULP energy -198315.337308 kJ/mol
# GULP energy per Si atom -12394.708582 kJ/mol
# Density = 1.808244 g / cm^3
# Si number density = 18.123692 Si / 1000 Ang^3
#
#
#
# Elastic Constant Matrix: (Units=GPa)
#
#
# Indices 1 2 3 4 5 6 
#
# 1 82.0650 25.2636 16.2081 -0.0001 11.9178 -0.0001
# 2 25.2636 78.5626 39.7080 -0.0001 8.3757 -0.0001
# 3 16.2081 39.7080 79.7279 -0.0004 14.4800 -0.0002
# 4 -0.0001 -0.0001 -0.0004 29.7209 -0.0001 9.0113
# 5 11.9178 8.3757 14.4800 -0.0001 23.7034 0.0000
# 6 -0.0001 -0.0001 -0.0002 9.0113 0.0000 24.8707
#
#
#
# Elastic Compliance Matrix: (Units=1/GPa)
#
#
# Indices 1 2 3 4 5 6 
#
# 1 0.014245 -0.004050 0.000182 0.000000 -0.005842 0.000000
# 2 -0.004050 0.018181 -0.008362 0.000000 0.000720 0.000000
# 3 0.000182 -0.008362 0.018166 0.000000 -0.008234 0.000000
# 4 0.000000 0.000000 0.000000 0.037799 0.000000 -0.013696
# 5 -0.005842 0.000720 -0.008234 0.000000 0.049901 0.000000
# 6 0.000000 0.000000 0.000000 -0.013696 0.000000 0.045170
#
#
# Mechanical properties :
#
#
# Convention : Reuss Voigt Hill
#
# Bulk Modulus (GPa) = 38.26824 44.74609 41.50717
# Shear Modulus (GPa) = 23.08061 26.27071 24.67566
#
# Velocity S-wave (km/s) = 3.57249 3.81139 3.69387
# Velocity P-wave (km/s) = 6.17882 6.64167 6.41442
#
# Compressibility (1/GPa) = 0.02613133
#
# Stress axis : x y z
#
# Youngs Moduli (GPa) = 70.20159 55.00286 55.04819
#
# Poissons Ratio (x) = 0.22276 -0.01004
# Poissons Ratio (y) = 0.28431 0.46033
# Poissons Ratio (z) = -0.01280 0.45996
#
# Static dielectric constant tensor:
#      x y z
#    x 3.270440 0.000000 0.027320 
#    y 0.000000 3.275560 0.000000 
#    z 0.027320 0.000000 3.252840 
# 
# 
# High freq. dielectric constant tensor:
#      x y z
#    x 1.691200 0.000000 0.003820 
#    y 0.000000 1.701640 0.000000 
#    z 0.003820 0.000000 1.692840 
# 
# From -- ./inp_files/33290.got.cif
#   From: 2010.03.12/outbox.cif.g09.slc.cpg/sg8_17_cif.got.tgz:33290.got - 2010.03.31 10:45:26.
