data_PCOD8053929
_publ_section_title
;
Structure prediction by ZEFSAII (Michael W. Deem and Ramdas Pophale) SiO2 
 PCOD8053929
Probable space group: C M
;
_chemical_formula_sum "Si O2"
_cell_formula_units_Z 32
_cell_length_a 12.831472
_cell_length_b 26.144874
_cell_length_c 9.171497
_cell_angle_alpha 90.000000
_cell_angle_beta 28.977935
_cell_angle_gamma 90.000000
_cell_volume 1490.639508
_symmetry_space_group_name_H-M "C M"
_symmetry_group_IT_number 8
_symmetry_cell_setting 'monoclinic'
loop_
_space_group_symop_operation_xyz
x,y,z
x,-y,z
1/2+x,1/2+y,z
1/2+x,1/2-y,z
loop_
_atom_site_type_symbol
_atom_site_label
_atom_site_fract_x
_atom_site_fract_y
_atom_site_fract_z
Si Si1 0.137490 0.442103 0.855760
Si Si2 0.064672 0.809237 0.385411
Si Si3 0.887490 0.276683 0.417964
Si Si4 0.220592 0.363985 0.001664
Si Si5 0.297806 0.372373 0.223993
Si Si6 0.459364 0.943139 0.782425
Si Si7 0.042749 0.099945 0.194198
Si Si8 0.417615 0.261920 0.072772
O O1 0.154894 0.500000 0.892060
O O2 0.335488 0.427389 0.511512
O O3 0.938118 0.435042 0.985555
O O4 0.122399 0.406184 0.013908
O O5 0.296786 0.787339 0.151608
O O6 0.923519 0.762214 0.504709
O O7 0.104970 0.848889 0.205782
O O8 0.925802 0.834489 0.684665
O O9 0.987798 0.254117 0.147819
O O10 0.015064 0.328950 0.293724
O O11 0.627256 0.280728 0.724085
O O12 0.311205 0.390400 0.038743
O O13 0.507690 0.386836 0.065214
O O14 0.261281 0.311044 0.270139
O O15 0.094340 0.398189 0.546082
O O16 0.557430 0.000000 0.634106
O O17 0.229593 0.941159 0.986051
#
# Coordination Sequence:
#
# PCOD8053929 Si02
#       8
#     4   4   4   4   4   4   4   4
#     4   9  21  44  69  94 127 167 219 279 336 397
#     4  11  24  42  62  95 131 181 222 267 325 400
#     4  12  25  41  63  94 137 178 226 268 330 393
#     4  11  24  44  65  98 137 176 223 276 337 397
#     4  11  24  40  63  95 132 170 214 272 330 395
#     4  10  23  43  69  95 124 168 221 278 336 404
#     4  10  22  39  69  97 127 169 222 269 332 400
#     4  12  26  39  65  94 138 177 222 275 330 390
#
# _framework density 21.467296000000001
#
# number of rings (size 3 to 8) (size 9 to 14) (size 15 to 20)
#    0.000    1.250    3.750    1.125    5.250    1.000 
#    0.000    0.000    0.000    0.000    0.000    0.000 
#    0.000    0.000    0.000    0.000    0.000    0.000 
#
# Total GULP energy -198325.261564 kJ/mol
# GULP energy per Si atom -12395.328848 kJ/mol
# Density = 2.141844 g / cm^3
# Si number density = 21.467296 Si / 1000 Ang^3
#
#
#
# Elastic Constant Matrix: (Units=GPa)
#
#
# Indices 1 2 3 4 5 6 
#
# 1 162.7699 47.4396 44.0287 0.0000 11.1398 0.0000
# 2 47.4396 102.5798 31.1250 0.0000 6.9317 0.0000
# 3 44.0287 31.1250 75.0619 0.0000 -4.5763 0.0000
# 4 0.0000 0.0000 0.0000 17.5403 0.0000 -3.0717
# 5 11.1398 6.9317 -4.5763 0.0000 30.5763 0.0000
# 6 0.0000 0.0000 0.0000 -3.0717 0.0000 36.2908
#
#
#
# Elastic Compliance Matrix: (Units=1/GPa)
#
#
# Indices 1 2 3 4 5 6 
#
# 1 0.008106 -0.002341 -0.003968 0.000000 -0.003016 0.000000
# 2 -0.002341 0.012157 -0.003819 0.000000 -0.002475 0.000000
# 3 -0.003968 -0.003819 0.017534 0.000000 0.004936 0.000000
# 4 0.000000 0.000000 0.000000 0.057869 0.000000 0.004898
# 5 -0.003016 -0.002475 0.004936 0.000000 0.035104 0.000000
# 6 0.000000 0.000000 0.000000 0.004898 0.000000 0.027970
#
#
# Mechanical properties :
#
#
# Convention : Reuss Voigt Hill
#
# Bulk Modulus (GPa) = 57.00628 65.06648 61.03638
# Shear Modulus (GPa) = 27.05023 31.40270 29.22647
#
# Velocity S-wave (km/s) = 3.55359 3.82883 3.69377
# Velocity P-wave (km/s) = 6.59166 7.06555 6.83271
#
# Compressibility (1/GPa) = 0.01754193
#
# Stress axis : x y z
#
# Youngs Moduli (GPa) = 123.37207 82.25704 57.03186
#
# Poissons Ratio (x) = 0.19255 0.22628
# Poissons Ratio (y) = 0.28879 0.21779
# Poissons Ratio (z) = 0.48950 0.31413
#
# Static dielectric constant tensor:
#      x y z
#    x 4.310610 0.000000 -0.073660 
#    y 0.000000 3.864810 0.000000 
#    z -0.073660 0.000000 3.498190 
# 
# 
# High freq. dielectric constant tensor:
#      x y z
#    x 1.864070 0.000000 -0.005990 
#    y 0.000000 1.840580 0.000000 
#    z -0.005990 0.000000 1.813330 
# 
# From -- ./inp_files/11703.got.cif
#   From: 2010.03.12/outbox.cif.g09.slc.cpg/sg8_6_cif.got.tgz:11703.got - 2010.03.31 10:45:26.
