data_PCOD8053217
_publ_section_title
;
Structure prediction by ZEFSAII (Michael W. Deem and Ramdas Pophale) SiO2 
 PCOD8053217
Probable space group: C M
;
_chemical_formula_sum "Si O2"
_cell_formula_units_Z 32
_cell_length_a 15.403988
_cell_length_b 8.843115
_cell_length_c 12.451928
_cell_angle_alpha 90.000000
_cell_angle_beta 108.564058
_cell_angle_gamma 90.000000
_cell_volume 1607.936390
_symmetry_space_group_name_H-M "C M"
_symmetry_group_IT_number 8
_symmetry_cell_setting 'monoclinic'
loop_
_space_group_symop_operation_xyz
x,y,z
x,-y,z
1/2+x,1/2+y,z
1/2+x,1/2-y,z
loop_
_atom_site_type_symbol
_atom_site_label
_atom_site_fract_x
_atom_site_fract_y
_atom_site_fract_z
Si Si1 0.742800 0.178871 0.121530
Si Si2 0.475805 0.673713 0.734953
Si Si3 0.486243 0.325407 0.495564
Si Si4 0.124330 0.675193 0.270209
Si Si5 0.427485 0.179463 0.263422
Si Si6 0.673067 0.175315 0.523946
Si Si7 0.804262 0.675620 0.732745
Si Si8 0.178898 0.175882 0.882409
O O1 0.678595 0.247677 0.191274
O O2 0.842876 0.252431 0.165622
O O3 0.753718 0.000000 0.136736
O O4 0.696063 0.220823 0.991733
O O5 0.460514 0.500000 0.761174
O O6 0.448667 0.701351 0.600261
O O7 0.410903 0.778108 0.783525
O O8 0.580432 0.720402 0.796361
O O9 0.480074 0.500000 0.460209
O O10 0.425862 0.230592 0.387342
O O11 0.591463 0.275643 0.538071
O O12 0.112534 0.500000 0.241218
O O13 0.184148 0.703396 0.400879
O O14 0.021573 0.741589 0.245688
O O15 0.422644 0.000000 0.257759
O O16 0.764912 0.225788 0.619184
O O17 0.651350 0.000000 0.537881
O O18 0.792649 0.500000 0.701532
O O19 0.754957 0.717188 0.824195
O O20 0.184460 0.000000 0.916613
#
# Coordination Sequence:
#
# PCOD8053217 Si02
#       8
#     4   4   4   4   4   4   4   4
#     4  11  23  40  63  89 116 157 207 250 295 357
#     4  10  22  40  61  86 120 160 200 247 306 360
#     4  10  19  36  60  88 125 162 196 246 304 357
#     4   8  19  38  58  83 119 156 191 238 298 351
#     4  10  21  39  60  88 122 160 198 243 301 360
#     4  10  19  35  60  88 122 161 198 243 303 363
#     4  11  23  39  60  89 121 157 202 249 303 362
#     4  10  23  45  62  81 121 163 198 248 306 356
#
# _framework density 19.901282999999999
#
# number of rings (size 3 to 8) (size 9 to 14) (size 15 to 20)
#    0.000    2.000    1.250    2.625    1.750    3.500 
#    0.000   10.625    0.000    0.000    0.000    0.000 
#    0.000    0.000    0.000    0.000    0.000    0.000 
#
# Total GULP energy -198427.177479 kJ/mol
# GULP energy per Si atom -12401.698592 kJ/mol
# Density = 1.985599 g / cm^3
# Si number density = 19.901283 Si / 1000 Ang^3
#
#
#
# Elastic Constant Matrix: (Units=GPa)
#
#
# Indices 1 2 3 4 5 6 
#
# 1 105.0377 35.4005 42.4382 0.0000 -16.3189 0.0000
# 2 35.4005 64.1060 39.8563 0.0000 -6.9132 0.0000
# 3 42.4382 39.8563 98.0272 0.0000 -8.5628 0.0000
# 4 0.0000 0.0000 0.0000 35.8961 0.0000 4.1894
# 5 -16.3189 -6.9132 -8.5628 0.0000 25.1334 0.0000
# 6 0.0000 0.0000 0.0000 4.1894 0.0000 32.8697
#
#
#
# Elastic Compliance Matrix: (Units=1/GPa)
#
#
# Indices 1 2 3 4 5 6 
#
# 1 0.013425 -0.004635 -0.003378 0.000000 0.006291 0.000000
# 2 -0.004635 0.022689 -0.007149 0.000000 0.000796 0.000000
# 3 -0.003378 -0.007149 0.014643 0.000000 0.000829 0.000000
# 4 0.000000 0.000000 0.000000 0.028279 0.000000 -0.003604
# 5 0.006291 0.000796 0.000829 0.000000 0.044374 0.000000
# 6 0.000000 0.000000 0.000000 -0.003604 0.000000 0.030883
#
#
# Mechanical properties :
#
#
# Convention : Reuss Voigt Hill
#
# Bulk Modulus (GPa) = 48.94022 55.84007 52.39015
# Shear Modulus (GPa) = 26.11981 28.74491 27.43236
#
# Velocity S-wave (km/s) = 3.62673 3.80462 3.71674
# Velocity P-wave (km/s) = 6.49480 6.88619 6.69336
#
# Compressibility (1/GPa) = 0.02043309
#
# Stress axis : x y z
#
# Youngs Moduli (GPa) = 74.49047 44.07397 68.29344
#
# Poissons Ratio (x) = 0.20427 0.23069
# Poissons Ratio (y) = 0.34525 0.48823
# Poissons Ratio (z) = 0.25162 0.31509
#
# Static dielectric constant tensor:
#      x y z
#    x 3.766700 0.000000 -0.056390 
#    y 0.000000 3.475320 0.000000 
#    z -0.056390 0.000000 3.530550 
# 
# 
# High freq. dielectric constant tensor:
#      x y z
#    x 1.782700 0.000000 0.000510 
#    y 0.000000 1.767490 0.000000 
#    z 0.000510 0.000000 1.770610 
# 
# From -- ./inp_files/21603.got.cif
#   From: 2010.03.12/outbox.cif.g09.slc.cpg/sg8_11_cif.got.tgz:21603.got - 2010.03.31 10:45:26.
