data_PCOD8053888
_publ_section_title
;
Structure prediction by ZEFSAII (Michael W. Deem and Ramdas Pophale) SiO2 
 PCOD8053888
Probable space group: C M
;
_chemical_formula_sum "Si O2"
_cell_formula_units_Z 28
_cell_length_a 13.404580
_cell_length_b 17.558931
_cell_length_c 7.926770
_cell_angle_alpha 90.000000
_cell_angle_beta 43.373778
_cell_angle_gamma 90.000000
_cell_volume 1281.295545
_symmetry_space_group_name_H-M "C M"
_symmetry_group_IT_number 8
_symmetry_cell_setting 'monoclinic'
loop_
_space_group_symop_operation_xyz
x,y,z
x,-y,z
1/2+x,1/2+y,z
1/2+x,1/2-y,z
loop_
_atom_site_type_symbol
_atom_site_label
_atom_site_fract_x
_atom_site_fract_y
_atom_site_fract_z
Si Si1 0.952150 0.854157 0.847830
Si Si2 0.630609 0.370851 0.305019
Si Si3 0.615661 0.199373 0.693658
Si Si4 0.110019 0.913599 0.968825
Si Si5 0.836819 0.318586 0.517787
Si Si6 0.649007 0.195074 0.281241
Si Si7 0.406913 0.086051 0.118635
O O1 0.021990 0.890292 0.593625
O O2 0.002416 0.768199 0.819594
O O3 0.990155 0.901425 0.970042
O O4 0.778864 0.851123 0.031801
O O5 0.681878 0.283966 0.250701
O O6 0.782376 0.417874 0.127659
O O7 0.549122 0.393081 0.230568
O O8 0.769666 0.233822 0.571552
O O9 0.635512 0.161492 0.486238
O O10 0.551069 0.133956 0.893923
O O11 0.248628 0.858560 0.776004
O O12 0.162564 0.000000 0.897308
O O13 0.819033 0.372110 0.376909
O O14 0.005071 0.315358 0.350569
O O15 0.455330 0.000000 0.106434
#
# Coordination Sequence:
#
# PCOD8053888 Si02
#       7
#     4   4   4   4   4   4   4
#     4  10  22  44  67  99 136 173 237 283 338 407
#     4  11  23  38  68 102 136 178 225 295 340 412
#     4  10  21  42  66 102 130 178 229 285 336 413
#     4  11  24  43  69  98 134 184 231 280 352 419
#     4  11  24  40  71 100 140 180 234 284 346 417
#     4  11  23  41  68 100 132 176 236 288 341 404
#     4  12  23  42  70 105 143 179 228 293 355 410
#
# _framework density 21.852882000000001
#
# number of rings (size 3 to 8) (size 9 to 14) (size 15 to 20)
#    0.000    1.143    5.714    1.714    8.000    0.571 
#    0.000    2.857    0.000    0.000    0.000    0.000 
#    0.000    0.000    0.000    0.000    0.000    0.000 
#
# Total GULP energy -173576.947331 kJ/mol
# GULP energy per Si atom -12398.353381 kJ/mol
# Density = 2.180314 g / cm^3
# Si number density = 21.852882 Si / 1000 Ang^3
#
#
#
# Elastic Constant Matrix: (Units=GPa)
#
#
# Indices 1 2 3 4 5 6 
#
# 1 126.3139 22.2876 73.3936 0.0001 -4.9948 -0.0001
# 2 22.2876 89.5130 40.5630 0.0000 4.1183 0.0000
# 3 73.3936 40.5630 111.0016 0.0001 0.8731 -0.0001
# 4 0.0001 0.0000 0.0001 21.5884 -0.0001 0.4779
# 5 -4.9948 4.1183 0.8731 -0.0001 49.8481 0.0001
# 6 -0.0001 0.0000 -0.0001 0.4779 0.0001 19.2082
#
#
#
# Elastic Compliance Matrix: (Units=1/GPa)
#
#
# Indices 1 2 3 4 5 6 
#
# 1 0.012998 0.000718 -0.008867 0.000000 0.001398 0.000000
# 2 0.000718 0.013480 -0.005393 0.000000 -0.000947 0.000000
# 3 -0.008867 -0.005393 0.016848 0.000000 -0.000738 0.000000
# 4 0.000000 0.000000 0.000000 0.046347 0.000000 -0.001153
# 5 0.001398 -0.000947 -0.000738 0.000000 0.020292 0.000000
# 6 0.000000 0.000000 0.000000 -0.001153 0.000000 0.052090
#
#
# Mechanical properties :
#
#
# Convention : Reuss Voigt Hill
#
# Bulk Modulus (GPa) = 61.57251 66.59078 64.08164
# Shear Modulus (GPa) = 25.69975 30.83455 28.26715
#
# Velocity S-wave (km/s) = 3.43306 3.76041 3.60046
# Velocity P-wave (km/s) = 6.62960 7.02800 6.83170
#
# Compressibility (1/GPa) = 0.01624101
#
# Stress axis : x y z
#
# Youngs Moduli (GPa) = 76.93677 74.18185 59.35263
#
# Poissons Ratio (x) = -0.05323 0.52629
# Poissons Ratio (y) = -0.05521 0.32010
# Poissons Ratio (z) = 0.68222 0.40007
#
# Static dielectric constant tensor:
#      x y z
#    x 3.887060 0.000000 0.201510 
#    y 0.000000 3.682230 0.000000 
#    z 0.201510 0.000000 4.016020 
# 
# 
# High freq. dielectric constant tensor:
#      x y z
#    x 1.856280 0.000000 0.010430 
#    y 0.000000 1.830370 0.000000 
#    z 0.010430 0.000000 1.861870 
# 
# From -- ./inp_files/13558.got.cif
#   From: 2010.03.12/outbox.cif.g09.slc.cpg/sg8_7_cif.got.tgz:13558.got - 2010.03.31 10:45:26.
