data_PCOD8053765
_publ_section_title
;
Structure prediction by ZEFSAII (Michael W. Deem and Ramdas Pophale) SiO2 
 PCOD8053765
Probable space group: C M
;
_chemical_formula_sum "Si O2"
_cell_formula_units_Z 32
_cell_length_a 13.988851
_cell_length_b 8.474390
_cell_length_c 19.825384
_cell_angle_alpha 90.000000
_cell_angle_beta 134.801492
_cell_angle_gamma 90.000000
_cell_volume 1667.617964
_symmetry_space_group_name_H-M "C M"
_symmetry_group_IT_number 8
_symmetry_cell_setting 'monoclinic'
loop_
_space_group_symop_operation_xyz
x,y,z
x,-y,z
1/2+x,1/2+y,z
1/2+x,1/2-y,z
loop_
_atom_site_type_symbol
_atom_site_label
_atom_site_fract_x
_atom_site_fract_y
_atom_site_fract_z
Si Si1 0.065690 0.818562 0.317600
Si Si2 0.554939 0.314788 0.802752
Si Si3 0.262364 0.681969 0.155674
Si Si4 0.268440 0.184315 0.661371
Si Si5 0.060462 0.682983 0.660268
Si Si6 0.562994 0.319479 0.160714
Si Si7 0.772407 0.816920 0.520782
Si Si8 0.774377 0.316842 0.020660
O O1 0.099732 0.786720 0.256510
O O2 0.158565 0.706513 0.408267
O O3 0.911149 0.770823 0.255390
O O4 0.092728 0.000000 0.350493
O O5 0.561270 0.500000 0.791296
O O6 0.405928 0.268370 0.753259
O O7 0.593277 0.222480 0.753956
O O8 0.658453 0.262761 0.911887
O O9 0.262869 0.500000 0.133837
O O10 0.156716 0.709056 0.162375
O O11 0.222042 0.783096 0.070143
O O12 0.217588 0.254493 0.565020
O O13 0.155298 0.212412 0.660554
O O14 0.296446 0.000000 0.666459
O O15 0.087940 0.500000 0.659666
O O16 0.906263 0.723141 0.566071
O O17 0.590182 0.500000 0.154669
O O18 0.407351 0.281862 0.069480
O O19 0.808835 0.000000 0.545188
O O20 0.808514 0.500000 0.029688
#
# Coordination Sequence:
#
# PCOD8053765 Si02
#       8
#     4   4   4   4   4   4   4   4
#     4   9  20  38  56  79 111 147 185 227 272 322
#     4  10  21  38  58  83 112 144 183 227 274 327
#     4  10  21  37  58  82 112 146 184 228 273 324
#     4  11  22  38  59  82 111 146 183 227 273 324
#     4  11  22  38  59  82 111 146 183 227 273 324
#     4  10  21  37  58  82 112 146 184 228 273 324
#     4  11  22  37  58  84 113 145 181 225 274 328
#     4  10  21  37  58  82 112 146 183 227 274 325
#
# _framework density 19.189048
#
# number of rings (size 3 to 8) (size 9 to 14) (size 15 to 20)
#    0.000    1.750    0.000    7.125    0.000    7.000 
#    0.000    2.500    0.000    0.000    0.000    0.000 
#    0.000    0.000    0.000    0.000    0.000    0.000 
#
# Total GULP energy -198486.946509 kJ/mol
# GULP energy per Si atom -12405.434157 kJ/mol
# Density = 1.914537 g / cm^3
# Si number density = 19.189048 Si / 1000 Ang^3
#
#
#
# Elastic Constant Matrix: (Units=GPa)
#
#
# Indices 1 2 3 4 5 6 
#
# 1 111.7039 6.4280 42.8150 0.0000 1.2877 0.0000
# 2 6.4280 72.4082 31.5478 0.0000 -1.7227 0.0000
# 3 42.8150 31.5478 140.8940 0.0000 -2.3244 0.0000
# 4 0.0000 0.0000 0.0000 30.3125 0.0000 -0.4441
# 5 1.2877 -1.7227 -2.3244 0.0000 11.6465 0.0000
# 6 0.0000 0.0000 0.0000 -0.4441 0.0000 33.4519
#
#
#
# Elastic Compliance Matrix: (Units=1/GPa)
#
#
# Indices 1 2 3 4 5 6 
#
# 1 0.010182 0.000461 -0.003225 0.000000 -0.001701 0.000000
# 2 0.000461 0.015354 -0.003553 0.000000 0.001511 0.000000
# 3 -0.003225 -0.003553 0.008900 0.000000 0.001607 0.000000
# 4 0.000000 0.000000 0.000000 0.032996 0.000000 0.000438
# 5 -0.001701 0.001511 0.001607 0.000000 0.086595 0.000000
# 6 0.000000 0.000000 0.000000 0.000438 0.000000 0.029899
#
#
# Mechanical properties :
#
#
# Convention : Reuss Voigt Hill
#
# Bulk Modulus (GPa) = 45.87118 54.06532 49.96825
# Shear Modulus (GPa) = 24.53065 31.36321 27.94693
#
# Velocity S-wave (km/s) = 3.57931 4.04720 3.82042
# Velocity P-wave (km/s) = 6.40614 7.07644 6.74962
#
# Compressibility (1/GPa) = 0.02180018
#
# Stress axis : x y z
#
# Youngs Moduli (GPa) = 98.21703 65.13109 112.36347
#
# Poissons Ratio (x) = -0.03002 0.36240
# Poissons Ratio (y) = -0.04527 0.39923
# Poissons Ratio (z) = 0.31677 0.23141
#
# Static dielectric constant tensor:
#      x y z
#    x 3.433210 0.000000 -0.001010 
#    y 0.000000 3.529840 0.000000 
#    z -0.001010 0.000000 3.483260 
# 
# 
# High freq. dielectric constant tensor:
#      x y z
#    x 1.746000 0.000000 0.000210 
#    y 0.000000 1.759690 0.000000 
#    z 0.000210 0.000000 1.746380 
# 
# From -- ./inp_files/30709.got.cif
#   From: 2010.03.12/outbox.cif.g09.slc.cpg/sg8_16_cif.got.tgz:30709.got - 2010.03.31 10:45:26.
