data_PCOD8053656
_publ_section_title
;
Structure prediction by ZEFSAII (Michael W. Deem and Ramdas Pophale) SiO2 
 PCOD8053656
Probable space group: C M
;
_chemical_formula_sum "Si O2"
_cell_formula_units_Z 20
_cell_length_a 13.054107
_cell_length_b 16.920875
_cell_length_c 10.801966
_cell_angle_alpha 90.000000
_cell_angle_beta 158.080946
_cell_angle_gamma 90.000000
_cell_volume 890.689840
_symmetry_space_group_name_H-M "C M"
_symmetry_group_IT_number 8
_symmetry_cell_setting 'monoclinic'
loop_
_space_group_symop_operation_xyz
x,y,z
x,-y,z
1/2+x,1/2+y,z
1/2+x,1/2-y,z
loop_
_atom_site_type_symbol
_atom_site_label
_atom_site_fract_x
_atom_site_fract_y
_atom_site_fract_z
Si Si1 0.072230 0.412549 0.239470
Si Si2 0.141113 0.000000 0.206235
Si Si3 0.737029 0.587577 0.541871
Si Si4 0.254266 0.311868 0.103245
Si Si5 0.558737 0.687410 0.681466
Si Si6 0.051678 0.500000 0.452565
O O1 0.064570 0.500000 0.168768
O O2 0.356642 0.371470 0.525543
O O3 0.055869 0.421629 0.370855
O O4 0.810060 0.361630 0.902782
O O5 0.230494 0.921947 0.384266
O O6 0.273078 0.000000 0.219087
O O7 0.812775 0.000000 0.833471
O O8 0.764721 0.500000 0.633784
O O9 0.451285 0.624347 0.262917
O O10 0.991188 0.642734 0.864054
O O11 0.403031 0.271896 0.389779
O O12 0.169751 0.249608 0.904686
#
# Coordination Sequence:
#
# PCOD8053656 Si02
#       6
#     4   2   4   4   4   2
#     4  10  24  43  69 103 131 174 241 286 339 402
#     4  10  20  38  65 100 137 170 219 280 344 400
#     4  10  24  43  69 103 131 174 241 286 339 402
#     4  12  26  45  68 100 142 187 226 283 347 412
#     4  12  26  45  68 100 142 187 226 283 347 412
#     4  10  20  38  65 100 137 170 219 280 344 400
#
# _framework density 22.454505999999999
#
# number of rings (size 3 to 8) (size 9 to 14) (size 15 to 20)
#    1.200    0.000    0.000    6.000    0.000    9.600 
#    0.000    0.000    0.000    0.000    0.000    0.000 
#    0.000    0.000    0.000    0.000    0.000    0.000 
#
# Total GULP energy -123958.016415 kJ/mol
# GULP energy per Si atom -12395.801641 kJ/mol
# Density = 2.240340 g / cm^3
# Si number density = 22.454506 Si / 1000 Ang^3
#
#
#
# Elastic Constant Matrix: (Units=GPa)
#
#
# Indices 1 2 3 4 5 6 
#
# 1 88.7600 16.6785 22.5295 -0.0004 -3.9497 0.0018
# 2 16.6785 96.6752 43.6116 -0.0013 -7.5530 0.0008
# 3 22.5295 43.6116 125.9162 -0.0039 -11.7604 0.0014
# 4 -0.0004 -0.0013 -0.0039 36.0220 -0.0010 8.1297
# 5 -3.9497 -7.5530 -11.7604 -0.0010 60.0196 0.0006
# 6 0.0018 0.0008 0.0014 8.1297 0.0006 27.9341
#
#
#
# Elastic Compliance Matrix: (Units=1/GPa)
#
#
# Indices 1 2 3 4 5 6 
#
# 1 0.011944 -0.001287 -0.001663 0.000000 0.000298 -0.000001
# 2 -0.001287 0.012429 -0.004010 0.000000 0.000694 0.000000
# 3 -0.001663 -0.004010 0.009749 0.000001 0.001296 -0.000001
# 4 0.000000 0.000000 0.000001 0.029712 0.000001 -0.008647
# 5 0.000298 0.000694 0.001296 0.000001 0.017022 -0.000001
# 6 -0.000001 0.000000 -0.000001 -0.008647 -0.000001 0.038315
#
#
# Mechanical properties :
#
#
# Convention : Reuss Voigt Hill
#
# Bulk Modulus (GPa) = 49.50065 52.99894 51.24980
# Shear Modulus (GPa) = 35.75881 40.03060 37.89471
#
# Velocity S-wave (km/s) = 3.99494 4.22683 4.11252
# Velocity P-wave (km/s) = 6.58575 6.89025 6.73972
#
# Compressibility (1/GPa) = 0.02020175
#
# Stress axis : x y z
#
# Youngs Moduli (GPa) = 83.72665 80.45703 102.57148
#
# Poissons Ratio (x) = 0.10353 0.17063
# Poissons Ratio (y) = 0.10774 0.41129
# Poissons Ratio (z) = 0.13928 0.32262
#
# Static dielectric constant tensor:
#      x y z
#    x 3.984230 0.000000 -0.077370 
#    y 0.000000 3.772310 0.000000 
#    z -0.077370 0.000000 4.112860 
# 
# 
# High freq. dielectric constant tensor:
#      x y z
#    x 1.898490 0.000000 -0.001130 
#    y 0.000000 1.857630 0.000000 
#    z -0.001130 0.000000 1.905420 
# 
# From -- ./inp_files/22370.got.cif
#   From: 2010.03.12/outbox.cif.g09.slc.cpg/sg8_12_cif.got.tgz:22370.got - 2010.03.31 10:45:26.
