data_PCOD8053007
_publ_section_title
;
Structure prediction by ZEFSAII (Michael W. Deem and Ramdas Pophale) SiO2 
 PCOD8053007
Probable space group: C M
;
_chemical_formula_sum "Si O2"
_cell_formula_units_Z 32
_cell_length_a 20.940577
_cell_length_b 8.714707
_cell_length_c 13.661526
_cell_angle_alpha 90.000000
_cell_angle_beta 137.146670
_cell_angle_gamma 90.000000
_cell_volume 1695.620733
_symmetry_space_group_name_H-M "C M"
_symmetry_group_IT_number 8
_symmetry_cell_setting 'monoclinic'
loop_
_space_group_symop_operation_xyz
x,y,z
x,-y,z
1/2+x,1/2+y,z
1/2+x,1/2-y,z
loop_
_atom_site_type_symbol
_atom_site_label
_atom_site_fract_x
_atom_site_fract_y
_atom_site_fract_z
Si Si1 0.250000 0.676670 0.939230
Si Si2 0.535185 0.817732 0.255709
Si Si3 0.897398 0.819440 0.725370
Si Si4 0.894857 0.823056 0.945218
Si Si5 0.104721 0.819934 0.894790
Si Si6 0.227542 0.818930 0.419041
Si Si7 0.390371 0.178202 0.240455
Si Si8 0.245715 0.817220 0.221710
O O1 0.263035 0.500000 0.986278
O O2 0.289691 0.697649 0.873179
O O3 0.142450 0.730431 0.839217
O O4 0.309104 0.793462 0.070752
O O5 0.638725 0.750773 0.374307
O O6 0.486264 0.753157 0.301847
O O7 0.539803 0.000000 0.260532
O O8 0.475160 0.766336 0.094452
O O9 0.892998 0.762084 0.832528
O O10 0.820901 0.726522 0.579778
O O11 0.996961 0.775680 0.790130
O O12 0.876671 0.000000 0.695676
O O13 0.926006 0.000000 0.982054
O O14 0.116667 0.000000 0.891133
O O15 0.161900 0.764020 0.055577
O O16 0.230489 0.749029 0.312422
O O17 0.217248 0.000000 0.404953
O O18 0.348053 0.243376 0.295455
O O19 0.406926 0.000000 0.271867
O O20 0.246930 0.000000 0.227530
#
# Coordination Sequence:
#
# PCOD8053007 Si02
#       8
#     4   4   4   4   4   4   4   4
#     4   9  16  27  48  78 104 123 153 202 251 293
#     4  10  19  32  54  80 103 129 164 206 249 298
#     4  10  21  37  53  70  98 137 176 209 245 293
#     4   9  18  34  55  76 100 132 168 206 248 294
#     4   9  17  32  54  74  96 129 165 202 246 298
#     4  11  22  35  51  72 102 136 169 209 252 294
#     4   8  15  30  51  73  97 127 163 200 241 293
#     4   8  15  31  54  75  94 125 166 200 240 295
#
# _framework density 18.872146000000001
#
# number of rings (size 3 to 8) (size 9 to 14) (size 15 to 20)
#    0.000    2.750    0.000    2.625    0.000    4.000 
#    0.000    8.750    0.000    6.000    0.000    0.000 
#    0.000    0.000    0.000    0.000    0.000    0.000 
#
# Total GULP energy -198220.479327 kJ/mol
# GULP energy per Si atom -12388.779958 kJ/mol
# Density = 1.882919 g / cm^3
# Si number density = 18.872146 Si / 1000 Ang^3
#
#
#
# Elastic Constant Matrix: (Units=GPa)
#
#
# Indices 1 2 3 4 5 6 
#
# 1 137.4050 23.9447 46.9651 0.0000 34.6212 0.0000
# 2 23.9447 25.7489 22.2747 0.0000 6.4736 0.0000
# 3 46.9651 22.2747 73.4620 0.0000 20.8470 0.0000
# 4 0.0000 0.0000 0.0000 24.4210 0.0000 2.8872
# 5 34.6212 6.4736 20.8470 0.0000 18.6067 0.0000
# 6 0.0000 0.0000 0.0000 2.8872 0.0000 25.4958
#
#
#
# Elastic Compliance Matrix: (Units=1/GPa)
#
#
# Indices 1 2 3 4 5 6 
#
# 1 0.014936 -0.007430 -0.000209 0.000000 -0.024972 0.000000
# 2 -0.007430 0.056347 -0.015681 0.000000 0.011790 0.000000
# 3 -0.000209 -0.015681 0.024693 0.000000 -0.021821 0.000000
# 4 0.000000 0.000000 0.000000 0.041504 0.000000 -0.004700
# 5 -0.024972 0.011790 -0.021821 0.000000 0.120555 0.000000
# 6 0.000000 0.000000 0.000000 -0.004700 0.000000 0.039754
#
#
# Mechanical properties :
#
#
# Convention : Reuss Voigt Hill
#
# Bulk Modulus (GPa) = 20.26924 46.99832 33.63378
# Shear Modulus (GPa) = 13.85515 23.26679 18.56097
#
# Velocity S-wave (km/s) = 2.71248 3.51503 3.13950
# Velocity P-wave (km/s) = 4.53582 6.43673 5.56799
#
# Compressibility (1/GPa) = 0.04933585
#
# Stress axis : x y z
#
# Youngs Moduli (GPa) = 66.95172 17.74716 40.49653
#
# Poissons Ratio (x) = 0.13187 0.00848
# Poissons Ratio (y) = 0.49747 0.63502
# Poissons Ratio (z) = 0.01402 0.27829
#
# Static dielectric constant tensor:
#      x y z
#    x 4.271340 0.000000 0.088740 
#    y 0.000000 3.267790 0.000000 
#    z 0.088740 0.000000 3.088020 
# 
# 
# High freq. dielectric constant tensor:
#      x y z
#    x 1.764860 0.000000 0.013770 
#    y 0.000000 1.715160 0.000000 
#    z 0.013770 0.000000 1.687000 
# 
# From -- ./inp_files/27687.got.cif
#   From: 2010.03.12/outbox.cif.g09.slc.cpg/sg8_14_cif.got.tgz:27687.got - 2010.03.31 10:45:26.
