data_PCOD8053603
_publ_section_title
;
Structure prediction by ZEFSAII (Michael W. Deem and Ramdas Pophale) SiO2 
 PCOD8053603
Probable space group: C M
;
_chemical_formula_sum "Si O2"
_cell_formula_units_Z 32
_cell_length_a 9.709220
_cell_length_b 15.374109
_cell_length_c 11.016153
_cell_angle_alpha 90.000000
_cell_angle_beta 76.528904
_cell_angle_gamma 90.000000
_cell_volume 1599.146723
_symmetry_space_group_name_H-M "C M"
_symmetry_group_IT_number 8
_symmetry_cell_setting 'monoclinic'
loop_
_space_group_symop_operation_xyz
x,y,z
x,-y,z
1/2+x,1/2+y,z
1/2+x,1/2-y,z
loop_
_atom_site_type_symbol
_atom_site_label
_atom_site_fract_x
_atom_site_fract_y
_atom_site_fract_z
Si Si1 0.607490 0.739780 0.592630
Si Si2 0.737052 0.402092 0.409628
Si Si3 0.089308 0.839906 0.213807
Si Si4 0.840328 0.098740 0.929226
Si Si5 0.661064 0.601216 0.931626
Si Si6 0.049095 0.331271 0.361223
Si Si7 0.301982 0.404124 0.202961
Si Si8 0.811310 0.752310 0.761283
O O1 0.632816 0.645716 0.525755
O O2 0.575209 0.810285 0.496179
O O3 0.746170 0.764410 0.640904
O O4 0.479747 0.740819 0.713722
O O5 0.760144 0.500000 0.451769
O O6 0.666157 0.404846 0.291673
O O7 0.886803 0.352885 0.370415
O O8 0.112321 0.742731 0.258603
O O9 0.919265 0.849482 0.251271
O O10 0.153786 0.858504 0.068308
O O11 0.766529 0.164657 0.850686
O O12 0.010269 0.107188 0.896779
O O13 0.795622 0.000000 0.904593
O O14 0.778114 0.129489 0.071201
O O15 0.712493 0.500000 0.925122
O O16 0.769713 0.660242 0.831569
O O17 0.153980 0.410134 0.305946
O O18 0.369010 0.500000 0.176573
#
# Coordination Sequence:
#
# PCOD8053603 Si02
#       8
#     4   4   4   4   4   4   4   4
#     4  11  25  41  60  86 118 158 209 249 300 356
#     4  11  23  40  62  89 122 159 200 251 306 367
#     4  10  20  38  63  91 121 152 198 242 297 368
#     4   9  20  39  64  90 120 158 200 245 306 371
#     4  10  21  39  64  92 122 162 203 247 305 368
#     4  11  22  39  60  88 122 157 193 246 309 354
#     4  10  20  37  61  91 119 148 192 245 297 355
#     4  12  22  43  63  87 120 160 210 255 298 359
#
# _framework density 20.010673000000001
#
# number of rings (size 3 to 8) (size 9 to 14) (size 15 to 20)
#    0.000    1.500    2.500    4.500    1.750    2.000 
#    2.250    1.875    0.000    0.000    0.000    0.000 
#    0.000    0.000    0.000    0.000    0.000    0.000 
#
# Total GULP energy -198372.113935 kJ/mol
# GULP energy per Si atom -12398.257121 kJ/mol
# Density = 1.996513 g / cm^3
# Si number density = 20.010673 Si / 1000 Ang^3
#
#
#
# Elastic Constant Matrix: (Units=GPa)
#
#
# Indices 1 2 3 4 5 6 
#
# 1 63.6732 23.4276 38.2233 0.0000 -11.7761 0.0000
# 2 23.4276 96.5871 47.5616 0.0000 1.3956 0.0000
# 3 38.2233 47.5616 106.9078 0.0000 7.6094 0.0000
# 4 0.0000 0.0000 0.0000 21.9470 0.0000 -3.5836
# 5 -11.7761 1.3956 7.6094 0.0000 40.0664 0.0000
# 6 0.0000 0.0000 0.0000 -3.5836 0.0000 26.5217
#
#
#
# Elastic Compliance Matrix: (Units=1/GPa)
#
#
# Indices 1 2 3 4 5 6 
#
# 1 0.022594 -0.001708 -0.007902 0.000000 0.008201 0.000000
# 2 -0.001708 0.013404 -0.005356 0.000000 0.000049 0.000000
# 3 -0.007902 -0.005356 0.014916 0.000000 -0.004969 0.000000
# 4 0.000000 0.000000 0.000000 0.046592 0.000000 0.006296
# 5 0.008201 0.000049 -0.004969 0.000000 0.028311 0.000000
# 6 0.000000 0.000000 0.000000 0.006296 0.000000 0.038556
#
#
# Mechanical properties :
#
#
# Convention : Reuss Voigt Hill
#
# Bulk Modulus (GPa) = 47.66003 53.95480 50.80742
# Shear Modulus (GPa) = 24.83865 28.23738 26.53802
#
# Velocity S-wave (km/s) = 3.52699 3.76056 3.64564
# Velocity P-wave (km/s) = 6.36044 6.77328 6.57010
#
# Compressibility (1/GPa) = 0.02098194
#
# Stress axis : x y z
#
# Youngs Moduli (GPa) = 44.25976 74.60231 67.04306
#
# Poissons Ratio (x) = 0.12739 0.52979
# Poissons Ratio (y) = 0.07557 0.35911
# Poissons Ratio (z) = 0.34975 0.39960
#
# Static dielectric constant tensor:
#      x y z
#    x 3.458650 0.000000 0.020830 
#    y 0.000000 3.549880 0.000000 
#    z 0.020830 0.000000 3.654630 
# 
# 
# High freq. dielectric constant tensor:
#      x y z
#    x 1.773200 0.000000 0.001730 
#    y 0.000000 1.779750 0.000000 
#    z 0.001730 0.000000 1.786640 
# 
# From -- ./inp_files/18887.got.cif
#   From: 2010.03.12/outbox.cif.g09.slc.cpg/sg8_10_cif.got.tgz:18887.got - 2010.03.31 10:45:26.
