data_PCOD8053878
_publ_section_title
;
Structure prediction by ZEFSAII (Michael W. Deem and Ramdas Pophale) SiO2 
 PCOD8053878
Probable space group: C M
;
_chemical_formula_sum "Si O2"
_cell_formula_units_Z 32
_cell_length_a 16.058723
_cell_length_b 9.060235
_cell_length_c 23.154362
_cell_angle_alpha 90.000000
_cell_angle_beta 29.817610
_cell_angle_gamma 90.000000
_cell_volume 1675.135380
_symmetry_space_group_name_H-M "C M"
_symmetry_group_IT_number 8
_symmetry_cell_setting 'monoclinic'
loop_
_space_group_symop_operation_xyz
x,y,z
x,-y,z
1/2+x,1/2+y,z
1/2+x,1/2-y,z
loop_
_atom_site_type_symbol
_atom_site_label
_atom_site_fract_x
_atom_site_fract_y
_atom_site_fract_z
Si Si1 0.389240 0.166487 0.551520
Si Si2 0.689115 0.667329 0.778456
Si Si3 0.570449 0.831493 0.952842
Si Si4 0.573986 0.830921 0.746818
Si Si5 0.203150 0.829010 0.975978
Si Si6 0.205655 0.825527 0.311557
Si Si7 0.046891 0.675215 0.169854
Si Si8 0.192663 0.169194 0.186802
O O1 0.364798 0.169395 0.636564
O O2 0.218555 0.237867 0.626004
O O3 0.550318 0.259177 0.439370
O O4 0.407145 0.000000 0.517551
O O5 0.623042 0.500000 0.824511
O O6 0.699962 0.741020 0.834705
O O7 0.558211 0.768218 0.821676
O O8 0.630666 0.000000 0.920189
O O9 0.574329 0.759854 0.013731
O O10 0.378641 0.819146 0.047644
O O11 0.632068 0.000000 0.712539
O O12 0.386516 0.813164 0.835508
O O13 0.193242 0.753610 0.044804
O O14 0.152463 0.000000 0.011665
O O15 0.371210 0.774622 0.246594
O O16 0.197949 0.770848 0.249697
O O17 0.193224 0.000000 0.320649
O O18 0.069138 0.500000 0.156019
O O19 0.064993 0.733682 0.224928
O O20 0.130666 0.000000 0.223199
#
# Coordination Sequence:
#
# PCOD8053878 Si02
#       8
#     4   4   4   4   4   4   4   4
#     4   9  20  36  59  86 113 151 199 250 296 350
#     4   9  19  34  53  82 112 145 191 239 290 348
#     4  11  21  35  56  83 120 159 199 246 300 361
#     4   9  18  34  55  80 109 150 193 233 291 351
#     4  11  22  35  55  85 121 158 199 247 300 360
#     4  10  21  41  63  85 121 161 202 247 298 361
#     4  11  23  39  60  90 122 159 202 248 300 359
#     4  10  22  40  59  87 122 159 199 246 303 360
#
# _framework density 19.102933
#
# number of rings (size 3 to 8) (size 9 to 14) (size 15 to 20)
#    0.750    1.250    1.250    2.625    0.000    7.500 
#    0.000    1.250    0.000    1.500    0.000    0.000 
#    0.000    0.000    0.000    0.000    0.000    0.000 
#
# Total GULP energy -198243.506139 kJ/mol
# GULP energy per Si atom -12390.219134 kJ/mol
# Density = 1.905945 g / cm^3
# Si number density = 19.102933 Si / 1000 Ang^3
#
#
#
# Elastic Constant Matrix: (Units=GPa)
#
#
# Indices 1 2 3 4 5 6 
#
# 1 105.7534 40.8066 31.4028 -0.0001 -1.6333 0.0000
# 2 40.8066 59.2472 26.7596 0.0008 -5.4263 0.0000
# 3 31.4028 26.7596 86.3019 0.0023 -2.7238 -0.0004
# 4 -0.0001 0.0008 0.0023 30.2850 -0.0003 3.0737
# 5 -1.6333 -5.4263 -2.7238 -0.0003 24.3703 0.0000
# 6 0.0000 0.0000 -0.0004 3.0737 0.0000 32.1634
#
#
#
# Elastic Compliance Matrix: (Units=1/GPa)
#
#
# Indices 1 2 3 4 5 6 
#
# 1 0.013300 -0.008218 -0.002329 0.000000 -0.001199 0.000000
# 2 -0.008218 0.025044 -0.004633 0.000000 0.004508 0.000000
# 3 -0.002329 -0.004633 0.013883 -0.000001 0.000364 0.000000
# 4 0.000000 0.000000 -0.000001 0.033343 0.000000 -0.003186
# 5 -0.001199 0.004508 0.000364 0.000000 0.041998 0.000000
# 6 0.000000 0.000000 0.000000 -0.003186 0.000000 0.031396
#
#
# Mechanical properties :
#
#
# Convention : Reuss Voigt Hill
#
# Bulk Modulus (GPa) = 45.73187 49.91561 47.82374
# Shear Modulus (GPa) = 25.43069 27.51932 26.47501
#
# Velocity S-wave (km/s) = 3.65258 3.79962 3.72682
# Velocity P-wave (km/s) = 6.46376 6.74062 6.60364
#
# Compressibility (1/GPa) = 0.02186659
#
# Stress axis : x y z
#
# Youngs Moduli (GPa) = 75.18640 39.92946 72.03213
#
# Poissons Ratio (x) = 0.32816 0.16777
# Poissons Ratio (y) = 0.61791 0.33370
# Poissons Ratio (z) = 0.17512 0.18498
#
# Static dielectric constant tensor:
#      x y z
#    x 3.309700 0.000000 0.033950 
#    y 0.000000 3.491590 0.000000 
#    z 0.033950 0.000000 3.250250 
# 
# 
# High freq. dielectric constant tensor:
#      x y z
#    x 1.722020 0.000000 0.003770 
#    y 0.000000 1.754040 0.000000 
#    z 0.003770 0.000000 1.728390 
# 
# From -- ./inp_files/31984.got.cif
#   From: 2010.03.12/outbox.cif.g09.slc.cpg/sg8_16_cif.got.tgz:31984.got - 2010.03.31 10:45:26.
