data_PCOD8053570
_publ_section_title
;
Structure prediction by ZEFSAII (Michael W. Deem and Ramdas Pophale) SiO2 
 PCOD8053570
Probable space group: C M
;
_chemical_formula_sum "Si O2"
_cell_formula_units_Z 32
_cell_length_a 13.101085
_cell_length_b 21.607015
_cell_length_c 11.774143
_cell_angle_alpha 90.000000
_cell_angle_beta 157.030308
_cell_angle_gamma 90.000000
_cell_volume 1300.671864
_symmetry_space_group_name_H-M "C M"
_symmetry_group_IT_number 8
_symmetry_cell_setting 'monoclinic'
loop_
_space_group_symop_operation_xyz
x,y,z
x,-y,z
1/2+x,1/2+y,z
1/2+x,1/2-y,z
loop_
_atom_site_type_symbol
_atom_site_label
_atom_site_fract_x
_atom_site_fract_y
_atom_site_fract_z
Si Si1 0.957210 0.571220 0.763510
Si Si2 0.600101 0.252747 0.892399
Si Si3 0.164919 0.148343 0.762668
Si Si4 0.615456 0.322123 0.455546
Si Si5 0.018510 0.132595 0.935672
Si Si6 0.150056 0.572196 0.213002
Si Si7 0.518705 0.932306 0.397601
Si Si8 0.791159 0.068112 0.899472
O O1 0.886738 0.500000 0.669593
O O2 0.677577 0.607678 0.473423
O O3 0.166994 0.596428 0.886589
O O4 0.099056 0.582875 0.027753
O O5 0.587749 0.295112 0.994073
O O6 0.824097 0.200936 0.131526
O O7 0.644155 0.295947 0.829527
O O8 0.321313 0.219854 0.597779
O O9 0.173728 0.180946 0.649038
O O10 0.927328 0.100689 0.528098
O O11 0.426124 0.107840 0.055157
O O12 0.233686 0.095056 0.083992
O O13 0.749907 0.114282 0.593320
O O14 0.001516 0.114210 0.052795
O O15 0.146289 0.500000 0.239955
O O16 0.548777 0.939432 0.564391
O O17 0.546534 0.000000 0.367346
O O18 0.918586 0.000000 0.050942
#
# Coordination Sequence:
#
# PCOD8053570 Si02
#       8
#     4   4   4   4   4   4   4   4
#     4   9  19  41  71 104 138 175 218 280 354 410
#     4  12  26  46  68  95 132 183 230 271 336 401
#     4  11  24  47  69  96 140 178 223 292 335 393
#     4  11  25  46  67  98 132 172 230 281 331 404
#     4  10  20  37  58  86 129 173 217 262 315 389
#     4  10  21  42  70 102 136 177 228 285 342 397
#     4   9  17  34  56  87 130 171 208 265 322 379
#     4   8  17  35  59  96 136 169 210 270 337 401
#
# _framework density 24.60267
#
# number of rings (size 3 to 8) (size 9 to 14) (size 15 to 20)
#    0.750    1.250    0.000    4.125    0.000    1.500 
#    9.000    5.625    0.000    0.000    0.000    0.000 
#    0.000    0.000    0.000    0.000    0.000    0.000 
#
# Total GULP energy -198295.624477 kJ/mol
# GULP energy per Si atom -12393.476530 kJ/mol
# Density = 2.454667 g / cm^3
# Si number density = 24.602670 Si / 1000 Ang^3
#
#
#
# Elastic Constant Matrix: (Units=GPa)
#
#
# Indices 1 2 3 4 5 6 
#
# 1 114.2146 47.0771 14.5749 -0.0010 29.8876 -0.0002
# 2 47.0771 135.1538 36.8151 -0.0031 13.2250 -0.0002
# 3 14.5749 36.8151 118.4476 -0.0040 32.9090 -0.0051
# 4 -0.0010 -0.0031 -0.0040 43.5049 -0.0015 18.5289
# 5 29.8876 13.2250 32.9090 -0.0015 25.6650 -0.0006
# 6 -0.0002 -0.0002 -0.0051 18.5289 -0.0006 22.3150
#
#
#
# Elastic Compliance Matrix: (Units=1/GPa)
#
#
# Indices 1 2 3 4 5 6 
#
# 1 0.016563 -0.005091 0.006485 -0.000001 -0.024980 0.000002
# 2 -0.005091 0.009684 -0.004108 0.000001 0.006206 -0.000002
# 3 0.006485 -0.004108 0.016204 -0.000001 -0.026213 0.000004
# 4 -0.000001 0.000001 -0.000001 0.035562 0.000004 -0.029528
# 5 -0.024980 0.006206 -0.026213 0.000004 0.098467 -0.000007
# 6 0.000002 -0.000002 0.000004 -0.029528 -0.000007 0.069331
#
#
# Mechanical properties :
#
#
# Convention : Reuss Voigt Hill
#
# Bulk Modulus (GPa) = 27.01056 62.75003 44.88029
# Shear Modulus (GPa) = 18.96947 36.25356 27.61152
#
# Velocity S-wave (km/s) = 2.77976 3.84286 3.35371
# Velocity P-wave (km/s) = 4.61577 6.72688 5.76872
#
# Compressibility (1/GPa) = 0.03702256
#
# Stress axis : x y z
#
# Youngs Moduli (GPa) = 60.37474 103.26223 61.71231
#
# Poissons Ratio (x) = 0.52575 -0.40018
# Poissons Ratio (y) = 0.30739 0.25350
# Poissons Ratio (z) = -0.39151 0.42417
#
# Static dielectric constant tensor:
#      x y z
#    x 4.511330 0.000000 0.150200 
#    y 0.000000 4.502660 -0.000010 
#    z 0.150200 -0.000010 4.207590 
# 
# 
# High freq. dielectric constant tensor:
#      x y z
#    x 1.984660 0.000000 0.013850 
#    y 0.000000 1.980660 0.000000 
#    z 0.013850 0.000000 1.973060 
# 
# From -- ./inp_files/27077.got.cif
#   From: 2010.03.12/outbox.cif.g09.slc.cpg/sg8_14_cif.got.tgz:27077.got - 2010.03.31 10:45:26.
