data_PCOD8053998
_publ_section_title
;
Structure prediction by ZEFSAII (Michael W. Deem and Ramdas Pophale) SiO2 
 PCOD8053998
Probable space group: C M
;
_chemical_formula_sum "Si O2"
_cell_formula_units_Z 32
_cell_length_a 14.051714
_cell_length_b 18.491371
_cell_length_c 10.895091
_cell_angle_alpha 90.000000
_cell_angle_beta 147.639209
_cell_angle_gamma 90.000000
_cell_volume 1515.252601
_symmetry_space_group_name_H-M "C M"
_symmetry_group_IT_number 8
_symmetry_cell_setting 'monoclinic'
loop_
_space_group_symop_operation_xyz
x,y,z
x,-y,z
1/2+x,1/2+y,z
1/2+x,1/2-y,z
loop_
_atom_site_type_symbol
_atom_site_label
_atom_site_fract_x
_atom_site_fract_y
_atom_site_fract_z
Si Si1 0.117270 0.194670 0.542130
Si Si2 0.053891 0.420915 0.957030
Si Si3 0.296621 0.669418 0.616347
Si Si4 0.652310 0.648290 0.138615
Si Si5 0.795561 0.577309 0.887391
Si Si6 0.275729 0.299773 0.306912
Si Si7 0.188990 0.917212 0.432775
Si Si8 0.457414 0.918382 0.323067
O O1 0.251582 0.253385 0.630166
O O2 0.194949 0.149543 0.740627
O O3 0.068613 0.135915 0.384396
O O4 0.947310 0.230850 0.420696
O O5 0.133224 0.500000 0.006312
O O6 0.978289 0.425359 0.011824
O O7 0.897435 0.399039 0.689954
O O8 0.204310 0.360048 0.132912
O O9 0.306760 0.672302 0.479252
O O10 0.149670 0.613810 0.503671
O O11 0.487006 0.638189 0.866541
O O12 0.645304 0.731494 0.175390
O O13 0.630954 0.595353 0.230662
O O14 0.845667 0.629022 0.296352
O O15 0.693708 0.500000 0.751554
O O16 0.835021 0.582913 0.071662
O O17 0.150662 0.000000 0.427329
O O18 0.483393 0.000000 0.401239
#
# Coordination Sequence:
#
# PCOD8053998 Si02
#       8
#     4   4   4   4   4   4   4   4
#     4  11  22  41  65  99 132 171 224 278 329 395
#     4   9  19  38  66  93 127 169 214 274 327 380
#     4  12  26  44  68  99 137 175 221 279 336 395
#     4  12  25  44  67  98 139 182 219 268 334 407
#     4   9  18  37  65  91 126 172 216 271 326 380
#     4  12  24  41  67 100 133 172 228 277 331 393
#     4  10  22  44  67  94 133 176 220 270 332 395
#     4  11  24  45  69  98 135 177 224 271 331 401
#
# _framework density 21.118592
#
# number of rings (size 3 to 8) (size 9 to 14) (size 15 to 20)
#    0.000    1.250    3.750    3.750    0.000    2.000 
#    4.500    0.000    0.000    0.000    0.000    0.000 
#    0.000    0.000    0.000    0.000    0.000    0.000 
#
# Total GULP energy -198237.746911 kJ/mol
# GULP energy per Si atom -12389.859182 kJ/mol
# Density = 2.107052 g / cm^3
# Si number density = 21.118592 Si / 1000 Ang^3
#
#
#
# Elastic Constant Matrix: (Units=GPa)
#
#
# Indices 1 2 3 4 5 6 
#
# 1 79.2399 19.0792 38.5154 0.0000 4.2642 0.0000
# 2 19.0792 117.1830 37.9848 0.0000 -2.7086 0.0000
# 3 38.5154 37.9848 84.1686 0.0000 -9.1420 0.0000
# 4 0.0000 0.0000 0.0000 32.4852 0.0000 -0.3753
# 5 4.2642 -2.7086 -9.1420 0.0000 29.2782 0.0000
# 6 0.0000 0.0000 0.0000 -0.3753 0.0000 28.8589
#
#
#
# Elastic Compliance Matrix: (Units=1/GPa)
#
#
# Indices 1 2 3 4 5 6 
#
# 1 0.016927 -0.000216 -0.008196 0.000000 -0.005045 0.000000
# 2 -0.000216 0.010006 -0.004464 0.000000 -0.000437 0.000000
# 3 -0.008196 -0.004464 0.018354 0.000000 0.006512 0.000000
# 4 0.000000 0.000000 0.000000 0.030788 0.000000 0.000400
# 5 -0.005045 -0.000437 0.006512 0.000000 0.036883 0.000000
# 6 0.000000 0.000000 0.000000 0.000400 0.000000 0.034657
#
#
# Mechanical properties :
#
#
# Convention : Reuss Voigt Hill
#
# Bulk Modulus (GPa) = 51.19364 52.41668 51.80516
# Shear Modulus (GPa) = 27.79662 30.45860 29.12761
#
# Velocity S-wave (km/s) = 3.63190 3.80184 3.71784
# Velocity P-wave (km/s) = 6.47158 6.64424 6.55848
#
# Compressibility (1/GPa) = 0.01953368
#
# Stress axis : x y z
#
# Youngs Moduli (GPa) = 59.07619 99.94228 54.48530
#
# Poissons Ratio (x) = 0.02156 0.44659
# Poissons Ratio (y) = 0.01275 0.24324
# Poissons Ratio (z) = 0.48422 0.44617
#
# Static dielectric constant tensor:
#      x y z
#    x 3.708760 0.000000 -0.080860 
#    y 0.000000 4.080800 0.000000 
#    z -0.080860 0.000000 3.590790 
# 
# 
# High freq. dielectric constant tensor:
#      x y z
#    x 1.819400 0.000000 -0.011430 
#    y 0.000000 1.844930 0.000000 
#    z -0.011430 0.000000 1.806520 
# 
# From -- ./inp_files/22424.got.cif
#   From: 2010.03.12/outbox.cif.g09.slc.cpg/sg8_12_cif.got.tgz:22424.got - 2010.03.31 10:45:26.
