data_PCOD8053950
_publ_section_title
;
Structure prediction by ZEFSAII (Michael W. Deem and Ramdas Pophale) SiO2 
 PCOD8053950
Probable space group: C M
;
_chemical_formula_sum "Si O2"
_cell_formula_units_Z 28
_cell_length_a 10.238343
_cell_length_b 14.342309
_cell_length_c 11.154116
_cell_angle_alpha 90.000000
_cell_angle_beta 123.425808
_cell_angle_gamma 90.000000
_cell_volume 1366.980108
_symmetry_space_group_name_H-M "C M"
_symmetry_group_IT_number 8
_symmetry_cell_setting 'monoclinic'
loop_
_space_group_symop_operation_xyz
x,y,z
x,-y,z
1/2+x,1/2+y,z
1/2+x,1/2-y,z
loop_
_atom_site_type_symbol
_atom_site_label
_atom_site_fract_x
_atom_site_fract_y
_atom_site_fract_z
Si Si1 0.702600 0.758997 0.747960
Si Si2 0.703325 0.601816 0.567968
Si Si3 0.849528 0.102182 0.398420
Si Si4 0.048609 0.221694 0.926627
Si Si5 0.815577 0.609941 0.180843
Si Si6 0.056863 0.396394 0.092274
Si Si7 0.897727 0.696878 0.472686
O O1 0.744842 0.663062 0.703471
O O2 0.625520 0.731897 0.835368
O O3 0.578661 0.815244 0.603769
O O4 0.867726 0.815353 0.836556
O O5 0.752597 0.500000 0.635247
O O6 0.523958 0.606591 0.434710
O O7 0.797111 0.626531 0.497480
O O8 0.733421 0.108546 0.228791
O O9 0.835466 0.196840 0.470744
O O10 0.823560 0.000000 0.452120
O O11 0.146327 0.149132 0.056384
O O12 0.042308 0.324940 0.977431
O O13 0.802576 0.500000 0.203773
O O14 0.880079 0.668506 0.325681
O O15 0.938564 0.630312 0.138435
O O16 0.019535 0.500000 0.024925
#
# Coordination Sequence:
#
# PCOD8053950 Si02
#       7
#     4   4   4   4   4   4   4
#     4  11  25  41  67  97 131 179 224 273 336 395
#     4  10  22  40  64  94 134 179 221 270 333 401
#     4   9  20  36  61  95 123 164 220 271 326 386
#     4  12  23  45  67  98 133 176 224 275 340 400
#     4  11  25  42  67  98 134 178 224 276 340 402
#     4  10  22  40  65  95 130 174 220 271 336 404
#     4  11  22  40  68  95 137 172 228 278 330 390
#
# _framework density 20.483107
#
# number of rings (size 3 to 8) (size 9 to 14) (size 15 to 20)
#    0.000    1.429    4.286    0.429    4.000    2.286 
#    0.000    3.571    0.000    0.857    0.000    0.000 
#    0.000    0.000    0.000    0.000    0.000    0.000 
#
# Total GULP energy -173513.039551 kJ/mol
# GULP energy per Si atom -12393.788539 kJ/mol
# Density = 2.043649 g / cm^3
# Si number density = 20.483107 Si / 1000 Ang^3
#
#
#
# Elastic Constant Matrix: (Units=GPa)
#
#
# Indices 1 2 3 4 5 6 
#
# 1 81.0520 17.2062 36.7523 0.0000 10.2547 0.0000
# 2 17.2062 79.7120 27.2754 0.0000 8.5702 0.0000
# 3 36.7523 27.2754 111.1582 0.0000 22.1968 0.0000
# 4 0.0000 0.0000 0.0000 19.1315 0.0000 -3.4509
# 5 10.2547 8.5702 22.1968 0.0000 39.2988 0.0000
# 6 0.0000 0.0000 0.0000 -3.4509 0.0000 28.9462
#
#
#
# Elastic Compliance Matrix: (Units=1/GPa)
#
#
# Indices 1 2 3 4 5 6 
#
# 1 0.014751 -0.001607 -0.004265 0.000000 -0.001090 0.000000
# 2 -0.001607 0.013923 -0.002663 0.000000 -0.001113 0.000000
# 3 -0.004265 -0.002663 0.012084 0.000000 -0.005132 0.000000
# 4 0.000000 0.000000 0.000000 0.053419 0.000000 0.006368
# 5 -0.001090 -0.001113 -0.005132 0.000000 0.028872 0.000000
# 6 0.000000 0.000000 0.000000 0.006368 0.000000 0.035306
#
#
# Mechanical properties :
#
#
# Convention : Reuss Voigt Hill
#
# Bulk Modulus (GPa) = 42.21575 48.26555 45.24065
# Shear Modulus (GPa) = 27.27461 30.18786 28.73123
#
# Velocity S-wave (km/s) = 3.65302 3.84317 3.74930
# Velocity P-wave (km/s) = 6.20061 6.58088 6.39357
#
# Compressibility (1/GPa) = 0.02368784
#
# Stress axis : x y z
#
# Youngs Moduli (GPa) = 67.79284 71.82422 82.75082
#
# Poissons Ratio (x) = 0.11546 0.35294
# Poissons Ratio (y) = 0.10898 0.22033
# Poissons Ratio (z) = 0.28914 0.19124
#
# Static dielectric constant tensor:
#      x y z
#    x 3.788400 0.000000 0.325990 
#    y 0.000000 3.996330 0.000000 
#    z 0.325990 0.000000 3.781380 
# 
# 
# High freq. dielectric constant tensor:
#      x y z
#    x 1.798550 0.000000 0.021220 
#    y 0.000000 1.800770 0.000000 
#    z 0.021220 0.000000 1.806280 
# 
# From -- ./inp_files/18830.got.cif
#   From: 2010.03.12/outbox.cif.g09.slc.cpg/sg8_10_cif.got.tgz:18830.got - 2010.03.31 10:45:26.
