data_PCOD8053669
_publ_section_title
;
Structure prediction by ZEFSAII (Michael W. Deem and Ramdas Pophale) SiO2 
 PCOD8053669
Probable space group: C M
;
_chemical_formula_sum "Si O2"
_cell_formula_units_Z 24
_cell_length_a 8.700232
_cell_length_b 13.968832
_cell_length_c 8.744564
_cell_angle_alpha 90.000000
_cell_angle_beta 89.353294
_cell_angle_gamma 90.000000
_cell_volume 1062.677348
_symmetry_space_group_name_H-M "C M"
_symmetry_group_IT_number 8
_symmetry_cell_setting 'monoclinic'
loop_
_space_group_symop_operation_xyz
x,y,z
x,-y,z
1/2+x,1/2+y,z
1/2+x,1/2-y,z
loop_
_atom_site_type_symbol
_atom_site_label
_atom_site_fract_x
_atom_site_fract_y
_atom_site_fract_z
Si Si1 0.315260 0.793506 0.222720
Si Si2 0.001944 0.321569 0.744494
Si Si3 0.760341 0.500000 0.225143
Si Si4 0.079495 0.000000 0.503936
Si Si5 0.509575 0.500000 0.014859
Si Si6 0.778367 0.500000 0.781775
Si Si7 0.541562 0.292216 0.435979
Si Si8 0.804440 0.822344 0.930745
O O1 0.467899 0.741905 0.277356
O O2 0.217369 0.795695 0.380295
O O3 0.348209 0.903748 0.169067
O O4 0.244242 0.737058 0.078657
O O5 0.883271 0.408301 0.751066
O O6 0.929090 0.235066 0.835306
O O7 0.030274 0.285391 0.571571
O O8 0.161340 0.351421 0.824837
O O9 0.740954 0.500000 0.408977
O O10 0.573730 0.500000 0.187581
O O11 0.128480 0.000000 0.678466
O O12 0.984065 0.099900 0.480944
O O13 0.686195 0.500000 0.942831
O O14 0.400747 0.412057 0.984678
#
# Coordination Sequence:
#
# PCOD8053669 Si02
#       8
#     4   4   2   2   2   2   4   4
#     4  11  23  41  65  94 129 171 216 266 325 391
#     4  12  24  42  66  98 133 172 220 274 328 391
#     4  10  20  39  63  89 122 167 212 258 318 383
#     4  10  20  39  63  89 122 167 212 258 318 383
#     4  12  25  43  67  93 127 173 222 274 331 389
#     4  12  25  43  67  93 127 173 222 274 331 389
#     4  11  23  41  65  94 129 171 216 266 325 391
#     4  12  24  42  66  98 133 172 220 274 328 391
#
# _framework density 22.584465999999999
#
# number of rings (size 3 to 8) (size 9 to 14) (size 15 to 20)
#    0.000    0.667    0.000   11.500    0.000    0.000 
#    0.000    6.667    0.000    0.000    0.000    0.000 
#    0.000    0.000    0.000    0.000    0.000    0.000 
#
# Total GULP energy -148700.650806 kJ/mol
# GULP energy per Si atom -12391.720900 kJ/mol
# Density = 2.253306 g / cm^3
# Si number density = 22.584466 Si / 1000 Ang^3
#
#
#
# Elastic Constant Matrix: (Units=GPa)
#
#
# Indices 1 2 3 4 5 6 
#
# 1 65.9093 28.0103 14.9941 0.0000 7.4730 0.0000
# 2 28.0103 154.2983 26.7654 0.0000 7.5415 0.0000
# 3 14.9941 26.7654 88.0539 0.0000 6.8421 0.0000
# 4 0.0000 0.0000 0.0000 36.2363 0.0000 2.7829
# 5 7.4730 7.5415 6.8421 0.0000 48.3345 0.0000
# 6 0.0000 0.0000 0.0000 2.7829 0.0000 46.6729
#
#
#
# Elastic Compliance Matrix: (Units=1/GPa)
#
#
# Indices 1 2 3 4 5 6 
#
# 1 0.016957 -0.002649 -0.001932 0.000000 -0.001935 0.000000
# 2 -0.002649 0.007285 -0.001726 0.000000 -0.000483 0.000000
# 3 -0.001932 -0.001726 0.012301 0.000000 -0.001173 0.000000
# 4 0.000000 0.000000 0.000000 0.027724 0.000000 -0.001653
# 5 -0.001935 -0.000483 -0.001173 0.000000 0.021230 0.000000
# 6 0.000000 0.000000 0.000000 -0.001653 0.000000 0.021524
#
#
# Mechanical properties :
#
#
# Convention : Reuss Voigt Hill
#
# Bulk Modulus (GPa) = 41.78804 49.75565 45.77184
# Shear Modulus (GPa) = 39.18185 42.14819 40.66502
#
# Velocity S-wave (km/s) = 4.16974 4.32469 4.24792
# Velocity P-wave (km/s) = 6.45952 6.85683 6.66114
#
# Compressibility (1/GPa) = 0.02393029
#
# Stress axis : x y z
#
# Youngs Moduli (GPa) = 58.97316 137.27381 81.29137
#
# Poissons Ratio (x) = 0.36357 0.15706
# Poissons Ratio (y) = 0.15619 0.14029
# Poissons Ratio (z) = 0.11394 0.23691
#
# Static dielectric constant tensor:
#      x y z
#    x 3.814880 0.000000 0.101120 
#    y 0.000000 4.093010 0.000000 
#    z 0.101120 0.000000 4.264320 
# 
# 
# High freq. dielectric constant tensor:
#      x y z
#    x 1.866040 0.000000 0.004840 
#    y 0.000000 1.906360 0.000000 
#    z 0.004840 0.000000 1.916730 
# 
# From -- ./inp_files/7917.got.cif
#   From: 2010.03.12/outbox.cif.g09.slc.cpg/sg8_4_cif.got.tgz:7917.got - 2010.03.31 10:45:26.
