data_PCOD8053659
_publ_section_title
;
Structure prediction by ZEFSAII (Michael W. Deem and Ramdas Pophale) SiO2 
 PCOD8053659
Probable space group: C M
;
_chemical_formula_sum "Si O2"
_cell_formula_units_Z 20
_cell_length_a 9.302686
_cell_length_b 22.507499
_cell_length_c 8.164654
_cell_angle_alpha 90.000000
_cell_angle_beta 30.955760
_cell_angle_gamma 90.000000
_cell_volume 879.334567
_symmetry_space_group_name_H-M "C M"
_symmetry_group_IT_number 8
_symmetry_cell_setting 'monoclinic'
loop_
_space_group_symop_operation_xyz
x,y,z
x,-y,z
1/2+x,1/2+y,z
1/2+x,1/2-y,z
loop_
_atom_site_type_symbol
_atom_site_label
_atom_site_fract_x
_atom_site_fract_y
_atom_site_fract_z
Si Si1 0.565990 0.808450 0.369250
Si Si2 0.283572 0.124855 0.153559
Si Si3 0.568487 0.372997 0.732939
Si Si4 0.480184 0.000000 0.026463
Si Si5 0.499358 0.500000 0.731999
Si Si6 0.788543 0.811257 0.514352
O O1 0.322598 0.858183 0.607224
O O2 0.685450 0.801171 0.432590
O O3 0.434125 0.747486 0.438457
O O4 0.814593 0.827217 0.004092
O O5 0.177988 0.132809 0.441404
O O6 0.021314 0.136605 0.289906
O O7 0.402335 0.058957 0.000118
O O8 0.527833 0.172611 0.884798
O O9 0.455638 0.439960 0.880120
O O10 0.317772 0.000000 0.357975
O O11 0.805981 0.000000 0.757617
#
# Coordination Sequence:
#
# PCOD8053659 Si02
#       6
#     4   4   4   2   2   4
#     4  12  26  44  64  94 133 175 217 270 328 385
#     4  11  23  43  69  98 129 170 219 268 319 386
#     4  11  23  43  69  98 129 170 219 268 319 386
#     4  10  20  38  67 100 129 166 215 264 317 386
#     4  10  20  38  67 100 129 166 215 264 317 386
#     4  12  26  44  64  94 133 175 217 270 328 385
#
# _framework density 22.74447
#
# number of rings (size 3 to 8) (size 9 to 14) (size 15 to 20)
#    0.000    0.800    0.000    9.600    0.000    3.200 
#    0.000    6.000    0.000    0.000    0.000    0.000 
#    0.000    0.000    0.000    0.000    0.000    0.000 
#
# Total GULP energy -124023.377633 kJ/mol
# GULP energy per Si atom -12402.337763 kJ/mol
# Density = 2.269270 g / cm^3
# Si number density = 22.744470 Si / 1000 Ang^3
#
#
#
# Elastic Constant Matrix: (Units=GPa)
#
#
# Indices 1 2 3 4 5 6 
#
# 1 146.2217 90.8196 39.5018 0.0000 -31.4115 0.0000
# 2 90.8196 151.4298 60.2906 0.0000 -1.1788 0.0000
# 3 39.5018 60.2906 133.4702 0.0000 -11.6165 0.0000
# 4 0.0000 0.0000 0.0000 33.6723 0.0000 -12.6714
# 5 -31.4115 -1.1788 -11.6165 0.0000 39.8524 0.0000
# 6 0.0000 0.0000 0.0000 -12.6714 0.0000 40.9048
#
#
#
# Elastic Compliance Matrix: (Units=1/GPa)
#
#
# Indices 1 2 3 4 5 6 
#
# 1 0.014742 -0.009041 0.000727 0.000000 0.011564 0.000000
# 2 -0.009041 0.013624 -0.004169 0.000000 -0.007939 0.000000
# 3 0.000727 -0.004169 0.009439 0.000000 0.003201 0.000000
# 4 0.000000 0.000000 0.000000 0.033617 0.000000 0.010414
# 5 0.011564 -0.007939 0.003201 0.000000 0.034906 0.000000
# 6 0.000000 0.000000 0.000000 0.010414 0.000000 0.027673
#
#
# Mechanical properties :
#
#
# Convention : Reuss Voigt Hill
#
# Bulk Modulus (GPa) = 77.88606 90.26064 84.07335
# Shear Modulus (GPa) = 30.62823 38.91987 34.77405
#
# Velocity S-wave (km/s) = 3.67362 4.14113 3.91436
# Velocity P-wave (km/s) = 7.23272 7.91429 7.58117
#
# Compressibility (1/GPa) = 0.01283927
#
# Stress axis : x y z
#
# Youngs Moduli (GPa) = 67.83188 73.39746 105.94278
#
# Poissons Ratio (x) = 0.66361 -0.07707
# Poissons Ratio (y) = 0.61329 0.44172
# Poissons Ratio (z) = -0.04935 0.30603
#
# Static dielectric constant tensor:
#      x y z
#    x 4.043430 0.000000 -0.460350 
#    y 0.000000 4.587830 0.000000 
#    z -0.460350 0.000000 4.413160 
# 
# 
# High freq. dielectric constant tensor:
#      x y z
#    x 1.876560 0.000000 -0.031220 
#    y 0.000000 1.911690 0.000000 
#    z -0.031220 0.000000 1.912140 
# 
# From -- ./inp_files/9015.got.cif
#   From: 2010.03.12/outbox.cif.g09.slc.cpg/sg8_5_cif.got.tgz:9015.got - 2010.03.31 10:45:26.
