data_PCOD8053308
_publ_section_title
;
Structure prediction by ZEFSAII (Michael W. Deem and Ramdas Pophale) SiO2 
 PCOD8053308
Probable space group: C M
;
_chemical_formula_sum "Si O2"
_cell_formula_units_Z 32
_cell_length_a 16.093864
_cell_length_b 15.015890
_cell_length_c 11.365058
_cell_angle_alpha 90.000000
_cell_angle_beta 29.995219
_cell_angle_gamma 90.000000
_cell_volume 1373.062454
_symmetry_space_group_name_H-M "C M"
_symmetry_group_IT_number 8
_symmetry_cell_setting 'monoclinic'
loop_
_space_group_symop_operation_xyz
x,y,z
x,-y,z
1/2+x,1/2+y,z
1/2+x,1/2-y,z
loop_
_atom_site_type_symbol
_atom_site_label
_atom_site_fract_x
_atom_site_fract_y
_atom_site_fract_z
Si Si1 0.713580 0.098664 0.681210
Si Si2 0.006272 0.281599 0.622088
Si Si3 0.053762 0.096286 0.795599
Si Si4 0.366419 0.900188 0.983721
Si Si5 0.784489 0.264111 0.465519
Si Si6 0.678715 0.898635 0.229486
Si Si7 0.575967 0.899532 0.092928
Si Si8 0.546703 0.595972 0.534522
O O1 0.524788 0.115228 0.872257
O O2 0.833095 0.173216 0.475865
O O3 0.776199 0.000000 0.565644
O O4 0.716099 0.107278 0.819490
O O5 0.178825 0.264622 0.480633
O O6 0.043170 0.339899 0.461973
O O7 0.933187 0.185657 0.668331
O O8 0.870927 0.330851 0.869613
O O9 0.175044 0.174642 0.692023
O O10 0.106917 0.084899 0.594285
O O11 0.081554 0.000000 0.824783
O O12 0.864304 0.128454 0.041258
O O13 0.368776 0.000000 0.928725
O O14 0.202686 0.883956 0.259845
O O15 0.944504 0.320723 0.232914
O O16 0.668921 0.885568 0.102002
O O17 0.644555 0.000000 0.307324
O O18 0.494932 0.000000 0.187988
O O19 0.460938 0.500000 0.603686
#
# Coordination Sequence:
#
# PCOD8053308 Si02
#       8
#     4   4   4   4   4   4   4   4
#     4   9  18  33  55  82 113 148 191 236 283 336
#     4  10  20  31  56  82 118 143 192 234 292 335
#     4   9  18  33  55  86 117 148 190 244 292 337
#     4   9  17  31  52  81 111 145 189 237 280 332
#     4  10  20  33  60  87 112 147 200 243 284 330
#     4  10  22  38  57  85 123 157 189 233 301 357
#     4  10  21  40  61  82 113 156 197 236 281 349
#     4   9  18  31  50  77 109 144 186 231 277 326
#
# _framework density 23.305567
#
# number of rings (size 3 to 8) (size 9 to 14) (size 15 to 20)
#    0.000    2.500    0.000    2.250    7.000    4.000 
#    4.500    0.000    0.000    0.000    0.000    0.000 
#    0.000    0.000    0.000    0.000    0.000    0.000 
#
# Total GULP energy -198222.067051 kJ/mol
# GULP energy per Si atom -12388.879191 kJ/mol
# Density = 2.325252 g / cm^3
# Si number density = 23.305567 Si / 1000 Ang^3
#
#
#
# Elastic Constant Matrix: (Units=GPa)
#
#
# Indices 1 2 3 4 5 6 
#
# 1 26.7534 21.1077 1.2990 0.0001 11.3446 -0.0003
# 2 21.1077 178.3432 56.2395 0.0003 17.3981 -0.0004
# 3 1.2990 56.2395 63.5938 0.0000 23.7367 -0.0005
# 4 0.0001 0.0003 0.0000 37.5056 0.0000 3.7946
# 5 11.3446 17.3981 23.7367 0.0000 26.1457 0.0002
# 6 -0.0003 -0.0004 -0.0005 3.7946 0.0002 15.2842
#
#
#
# Elastic Compliance Matrix: (Units=1/GPa)
#
#
# Indices 1 2 3 4 5 6 
#
# 1 0.062328 -0.010830 0.023760 0.000000 -0.041409 0.000002
# 2 -0.010830 0.009703 -0.011652 0.000000 0.008821 0.000000
# 3 0.023760 -0.011652 0.040079 0.000000 -0.038943 0.000002
# 4 0.000000 0.000000 0.000000 0.027350 0.000000 -0.006790
# 5 -0.041409 0.008821 -0.038943 0.000000 0.085699 -0.000003
# 6 0.000002 0.000000 0.000002 -0.006790 -0.000003 0.067113
#
#
# Mechanical properties :
#
#
# Convention : Reuss Voigt Hill
#
# Bulk Modulus (GPa) = 8.72085 47.33142 28.02613
# Shear Modulus (GPa) = 15.24678 28.45670 21.85174
#
# Velocity S-wave (km/s) = 2.56053 3.49811 3.06538
# Velocity P-wave (km/s) = 3.53438 6.05548 4.95786
#
# Compressibility (1/GPa) = 0.11466774
#
# Stress axis : x y z
#
# Youngs Moduli (GPa) = 16.04403 103.06306 24.95042
#
# Poissons Ratio (x) = 1.11617 -0.59283
# Poissons Ratio (y) = 0.17376 0.29072
# Poissons Ratio (z) = -0.38121 1.20089
#
# Static dielectric constant tensor:
#      x y z
#    x 3.674170 0.000000 0.173030 
#    y 0.000000 5.217490 0.000000 
#    z 0.173030 0.000000 3.834350 
# 
# 
# High freq. dielectric constant tensor:
#      x y z
#    x 1.872470 0.000000 0.009430 
#    y 0.000000 1.955790 0.000000 
#    z 0.009430 0.000000 1.899170 
# 
# From -- ./inp_files/23304.got.cif
#   From: 2010.03.12/outbox.cif.g09.slc.cpg/sg8_12_cif.got.tgz:23304.got - 2010.03.31 10:45:26.
