data_PCOD8053559
_publ_section_title
;
Structure prediction by ZEFSAII (Michael W. Deem and Ramdas Pophale) SiO2 
 PCOD8053559
Probable space group: C M
;
_chemical_formula_sum "Si O2"
_cell_formula_units_Z 26
_cell_length_a 22.060060
_cell_length_b 7.779058
_cell_length_c 7.238023
_cell_angle_alpha 90.000000
_cell_angle_beta 90.085697
_cell_angle_gamma 90.000000
_cell_volume 1242.090305
_symmetry_space_group_name_H-M "C M"
_symmetry_group_IT_number 8
_symmetry_cell_setting 'monoclinic'
loop_
_space_group_symop_operation_xyz
x,y,z
x,-y,z
1/2+x,1/2+y,z
1/2+x,1/2-y,z
loop_
_atom_site_type_symbol
_atom_site_label
_atom_site_fract_x
_atom_site_fract_y
_atom_site_fract_z
Si Si1 0.483550 0.805970 0.947580
Si Si2 0.118561 0.691608 0.894758
Si Si3 0.185861 0.000000 0.427169
Si Si4 0.102678 0.689822 0.459401
Si Si5 0.475757 0.300987 0.537373
Si Si6 0.797269 0.500000 0.155146
Si Si7 0.701358 0.500000 0.864669
Si Si8 0.387004 0.309272 0.218191
O O1 0.554057 0.758979 0.986565
O O2 0.467502 0.793518 0.731266
O O3 0.470613 0.000000 0.010437
O O4 0.440251 0.684706 0.066033
O O5 0.139235 0.500000 0.957559
O O6 0.109639 0.696125 0.677454
O O7 0.168256 0.832232 0.949456
O O8 0.147199 0.831066 0.370687
O O9 0.247239 0.000000 0.313926
O O10 0.203471 0.000000 0.643620
O O11 0.119447 0.500000 0.381328
O O12 0.032221 0.728414 0.417869
O O13 0.488189 0.500000 0.577691
O O14 0.415343 0.268149 0.418651
O O15 0.836257 0.671542 0.172131
O O16 0.768585 0.500000 0.949684
O O17 0.357642 0.500000 0.219744
#
# Coordination Sequence:
#
# PCOD8053559 Si02
#       8
#     4   4   2   4   4   2   2   4
#     4  10  20  36  64  96 126 158 192 250 320 372
#     4   8  17  33  58  95 123 146 190 243 307 375
#     4  10  22  42  62  86 124 158 201 256 300 362
#     4   9  17  33  61  95 123 150 191 246 311 374
#     4  10  20  36  62  95 128 159 193 249 318 372
#     4  12  28  44  58  86 118 168 228 248 284 360
#     4  10  22  40  64  86 118 164 197 250 306 350
#     4  11  26  43  59  86 124 164 213 258 293 359
#
# _framework density 20.932452000000001
#
# number of rings (size 3 to 8) (size 9 to 14) (size 15 to 20)
#    0.000    2.154    1.538    1.846    6.462    3.692 
#    0.000    1.538    0.000    0.000    0.000    0.000 
#    0.000    0.000    0.000    0.000    0.000    0.000 
#
# Total GULP energy -161190.680060 kJ/mol
# GULP energy per Si atom -12399.283082 kJ/mol
# Density = 2.088481 g / cm^3
# Si number density = 20.932452 Si / 1000 Ang^3
#
#
#
# Elastic Constant Matrix: (Units=GPa)
#
#
# Indices 1 2 3 4 5 6 
#
# 1 81.9241 55.6096 -3.7775 0.0000 1.4444 0.0000
# 2 55.6096 140.8536 -4.4169 0.0000 8.1751 0.0000
# 3 -3.7775 -4.4169 19.3272 0.0000 -6.6678 0.0000
# 4 0.0000 0.0000 0.0000 11.4676 0.0000 7.6812
# 5 1.4444 8.1751 -6.6678 0.0000 35.3053 0.0000
# 6 0.0000 0.0000 0.0000 7.6812 0.0000 30.5848
#
#
#
# Elastic Compliance Matrix: (Units=1/GPa)
#
#
# Indices 1 2 3 4 5 6 
#
# 1 0.016788 -0.006632 0.002202 0.000000 0.001265 0.000000
# 2 -0.006632 0.009840 0.000278 0.000000 -0.001955 0.000000
# 3 0.002202 0.000278 0.055818 0.000000 0.010387 0.000000
# 4 0.000000 0.000000 0.000000 0.104837 0.000000 -0.026329
# 5 0.001265 -0.001955 0.010387 0.000000 0.030687 0.000000
# 6 0.000000 0.000000 0.000000 -0.026329 0.000000 0.039308
#
#
# Mechanical properties :
#
#
# Convention : Reuss Voigt Hill
#
# Bulk Modulus (GPa) = 13.48776 37.43728 25.46252
# Shear Modulus (GPa) = 17.22376 28.45085 22.83730
#
# Velocity S-wave (km/s) = 2.87161 3.69070 3.30661
# Velocity P-wave (km/s) = 4.17759 6.00710 5.17386
#
# Compressibility (1/GPa) = 0.07414128
#
# Stress axis : x y z
#
# Youngs Moduli (GPa) = 59.56811 101.62452 17.91535
#
# Poissons Ratio (x) = 0.67399 -0.03945
# Poissons Ratio (y) = 0.39506 -0.00498
# Poissons Ratio (z) = -0.13115 -0.02827
#
# Static dielectric constant tensor:
#      x y z
#    x 3.603000 0.000000 0.027590 
#    y 0.000000 4.128510 0.000000 
#    z 0.027590 0.000000 3.593170 
# 
# 
# High freq. dielectric constant tensor:
#      x y z
#    x 1.792450 0.000000 0.003270 
#    y 0.000000 1.836530 0.000000 
#    z 0.003270 0.000000 1.818500 
# 
# From -- ./inp_files/14485.got.cif
#   From: 2010.03.12/outbox.cif.g09.slc.cpg/sg8_8_cif.got.tgz:14485.got - 2010.03.31 10:45:26.
