data_PCOD8053740
_publ_section_title
;
Structure prediction by ZEFSAII (Michael W. Deem and Ramdas Pophale) SiO2 
 PCOD8053740
Probable space group: C M
;
_chemical_formula_sum "Si O2"
_cell_formula_units_Z 24
_cell_length_a 15.030288
_cell_length_b 8.829340
_cell_length_c 14.735885
_cell_angle_alpha 90.000000
_cell_angle_beta 139.722105
_cell_angle_gamma 90.000000
_cell_volume 1264.262530
_symmetry_space_group_name_H-M "C M"
_symmetry_group_IT_number 8
_symmetry_cell_setting 'monoclinic'
loop_
_space_group_symop_operation_xyz
x,y,z
x,-y,z
1/2+x,1/2+y,z
1/2+x,1/2-y,z
loop_
_atom_site_type_symbol
_atom_site_label
_atom_site_fract_x
_atom_site_fract_y
_atom_site_fract_z
Si Si1 0.037450 0.321913 0.299570
Si Si2 0.041092 0.325665 0.511722
Si Si3 0.310767 0.822058 0.794770
Si Si4 0.321841 0.175655 0.491014
Si Si5 0.487342 0.679468 0.782702
Si Si6 0.790771 0.320748 0.983939
O O1 0.058097 0.500000 0.300427
O O2 0.013611 0.282391 0.386224
O O3 0.168360 0.237179 0.359758
O O4 0.904889 0.259270 0.142374
O O5 0.088942 0.500000 0.557873
O O6 0.159323 0.218966 0.642307
O O7 0.901563 0.295693 0.458868
O O8 0.428134 0.734993 0.831748
O O9 0.328523 0.768646 0.912047
O O10 0.331662 0.000000 0.799144
O O11 0.393828 0.262991 0.628440
O O12 0.318067 0.000000 0.513876
O O13 0.485033 0.500000 0.777623
O O14 0.641339 0.745822 0.893634
O O15 0.782543 0.500000 0.982979
#
# Coordination Sequence:
#
# PCOD8053740 Si02
#       6
#     4   4   4   4   4   4
#     4  10  21  40  61  83 116 157 194 233 288 348
#     4  10  21  36  58  85 115 152 194 235 285 342
#     4  11  21  36  59  87 117 149 194 243 284 337
#     4  11  22  36  57  89 119 149 194 243 286 336
#     4  11  21  37  60  86 114 154 197 236 288 345
#     4   9  21  39  59  84 117 155 193 234 287 346
#
# _framework density 18.9834
#
# number of rings (size 3 to 8) (size 9 to 14) (size 15 to 20)
#    0.000    1.667    3.333    1.500    0.000    2.000 
#    0.000    5.000    0.000    0.000    0.000    0.000 
#    0.000    0.000    0.000    0.000    0.000    0.000 
#
# Total GULP energy -148844.436215 kJ/mol
# GULP energy per Si atom -12403.703018 kJ/mol
# Density = 1.894019 g / cm^3
# Si number density = 18.983400 Si / 1000 Ang^3
#
#
#
# Elastic Constant Matrix: (Units=GPa)
#
#
# Indices 1 2 3 4 5 6 
#
# 1 128.5028 31.8004 56.1400 0.0000 6.3300 0.0000
# 2 31.8004 59.2925 28.1663 0.0000 2.0515 0.0000
# 3 56.1400 28.1663 136.4109 0.0000 0.1377 0.0000
# 4 0.0000 0.0000 0.0000 18.1040 0.0000 2.9542
# 5 6.3300 2.0515 0.1377 0.0000 35.0365 0.0000
# 6 0.0000 0.0000 0.0000 2.9542 0.0000 31.0938
#
#
#
# Elastic Compliance Matrix: (Units=1/GPa)
#
#
# Indices 1 2 3 4 5 6 
#
# 1 0.010321 -0.003839 -0.003453 0.000000 -0.001626 0.000000
# 2 -0.003839 0.020168 -0.002584 0.000000 -0.000477 0.000000
# 3 -0.003453 -0.002584 0.009285 0.000000 0.000739 0.000000
# 4 0.000000 0.000000 0.000000 0.056106 0.000000 -0.005331
# 5 -0.001626 -0.000477 0.000739 0.000000 0.028861 0.000000
# 6 0.000000 0.000000 0.000000 -0.005331 0.000000 0.032667
#
#
# Mechanical properties :
#
#
# Convention : Reuss Voigt Hill
#
# Bulk Modulus (GPa) = 49.94530 61.82440 55.88485
# Shear Modulus (GPa) = 27.19851 30.72016 28.95933
#
# Velocity S-wave (km/s) = 3.78928 4.02713 3.91001
# Velocity P-wave (km/s) = 6.74625 7.36628 7.06307
#
# Compressibility (1/GPa) = 0.02002190
#
# Stress axis : x y z
#
# Youngs Moduli (GPa) = 96.89356 49.58259 107.70293
#
# Poissons Ratio (x) = 0.19033 0.37192
# Poissons Ratio (y) = 0.37193 0.27832
# Poissons Ratio (z) = 0.33459 0.12813
#
# Static dielectric constant tensor:
#      x y z
#    x 3.835380 0.000000 0.019600 
#    y 0.000000 3.361480 0.000000 
#    z 0.019600 0.000000 3.568870 
# 
# 
# High freq. dielectric constant tensor:
#      x y z
#    x 1.756440 0.000000 0.000620 
#    y 0.000000 1.726780 0.000000 
#    z 0.000620 0.000000 1.734790 
# 
# From -- ./inp_files/12055.got.cif
#   From: 2010.03.12/outbox.cif.g09.slc.cpg/sg8_7_cif.got.tgz:12055.got - 2010.03.31 10:45:26.
