data_PCOD8053307
_publ_section_title
;
Structure prediction by ZEFSAII (Michael W. Deem and Ramdas Pophale) SiO2 
 PCOD8053307
Probable space group: C M
;
_chemical_formula_sum "Si O2"
_cell_formula_units_Z 32
_cell_length_a 16.649728
_cell_length_b 14.151746
_cell_length_c 8.703991
_cell_angle_alpha 90.000000
_cell_angle_beta 58.138655
_cell_angle_gamma 90.000000
_cell_volume 1741.851183
_symmetry_space_group_name_H-M "C M"
_symmetry_group_IT_number 8
_symmetry_cell_setting 'monoclinic'
loop_
_space_group_symop_operation_xyz
x,y,z
x,-y,z
1/2+x,1/2+y,z
1/2+x,1/2-y,z
loop_
_atom_site_type_symbol
_atom_site_label
_atom_site_fract_x
_atom_site_fract_y
_atom_site_fract_z
Si Si1 0.091590 0.280206 0.067490
Si Si2 0.382143 0.767824 0.756305
Si Si3 0.384186 0.391826 0.165734
Si Si4 0.539601 0.715749 0.811935
Si Si5 0.388201 0.230201 0.389766
Si Si6 0.711948 0.605378 0.943801
Si Si7 0.763355 0.107190 0.002874
Si Si8 0.212905 0.104929 0.578276
O O1 0.986573 0.306787 0.223644
O O2 0.095157 0.283933 0.876553
O O3 0.126862 0.174642 0.084546
O O4 0.157283 0.358510 0.078658
O O5 0.478782 0.778004 0.754713
O O6 0.401512 0.772431 0.557505
O O7 0.312374 0.849150 0.891511
O O8 0.336514 0.665453 0.826547
O O9 0.404193 0.500000 0.190738
O O10 0.367439 0.333677 0.339664
O O11 0.474600 0.354048 0.979789
O O12 0.290214 0.382089 0.155708
O O13 0.615183 0.657611 0.632812
O O14 0.303635 0.161095 0.422301
O O15 0.699756 0.500000 0.027903
O O16 0.714497 0.598804 0.759153
O O17 0.772750 0.000000 0.938997
O O18 0.214031 0.000000 0.504314
#
# Coordination Sequence:
#
# PCOD8053307 Si02
#       8
#     4   4   4   4   4   4   4   4
#     4   9  18  31  49  73  97 127 164 200 240 289
#     4   9  18  32  51  75 100 125 157 203 251 290
#     4   9  18  33  53  73  93 125 166 205 247 293
#     4   9  17  32  53  71  96 131 165 197 237 297
#     4  10  20  31  48  74 102 126 157 208 253 283
#     4   8  15  31  53  72  92 125 166 198 232 289
#     4   9  18  34  53  69  93 132 169 197 236 296
#     4   9  17  30  49  71  95 127 165 200 237 285
#
# _framework density 18.371259999999999
#
# number of rings (size 3 to 8) (size 9 to 14) (size 15 to 20)
#    0.000    3.000    0.000    1.125    0.000    5.500 
#    0.000    0.625    0.000   16.500    0.000    0.000 
#    0.000    0.000    0.000    0.000    0.000    0.000 
#
# Total GULP energy -198296.136826 kJ/mol
# GULP energy per Si atom -12393.508552 kJ/mol
# Density = 1.832945 g / cm^3
# Si number density = 18.371260 Si / 1000 Ang^3
#
#
#
# Elastic Constant Matrix: (Units=GPa)
#
#
# Indices 1 2 3 4 5 6 
#
# 1 111.4744 26.5944 17.8629 0.0000 -13.5107 0.0000
# 2 26.5944 62.9271 12.2442 0.0000 -9.1673 0.0000
# 3 17.8629 12.2442 51.4730 0.0000 -12.7763 0.0000
# 4 0.0000 0.0000 0.0000 18.9427 0.0000 1.3801
# 5 -13.5107 -9.1673 -12.7763 0.0000 29.0453 0.0000
# 6 0.0000 0.0000 0.0000 1.3801 0.0000 23.6126
#
#
#
# Elastic Compliance Matrix: (Units=1/GPa)
#
#
# Indices 1 2 3 4 5 6 
#
# 1 0.010512 -0.003625 -0.002084 0.000000 0.002829 0.000000
# 2 -0.003625 0.018326 -0.002340 0.000000 0.003069 0.000000
# 3 -0.002084 -0.002340 0.022769 0.000000 0.008308 0.000000
# 4 0.000000 0.000000 0.000000 0.053017 0.000000 -0.003099
# 5 0.002829 0.003069 0.008308 0.000000 0.040368 0.000000
# 6 0.000000 0.000000 0.000000 -0.003099 0.000000 0.042531
#
#
# Mechanical properties :
#
#
# Convention : Reuss Voigt Hill
#
# Bulk Modulus (GPa) = 28.16027 37.69748 32.92887
# Shear Modulus (GPa) = 23.20650 25.59833 24.40242
#
# Velocity S-wave (km/s) = 3.55800 3.73686 3.64853
# Velocity P-wave (km/s) = 5.67811 6.25965 5.97596
#
# Compressibility (1/GPa) = 0.03551102
#
# Stress axis : x y z
#
# Youngs Moduli (GPa) = 95.12674 54.56810 43.91852
#
# Poissons Ratio (x) = 0.19782 0.09151
# Poissons Ratio (y) = 0.34485 0.10275
# Poissons Ratio (z) = 0.19820 0.12766
#
# Static dielectric constant tensor:
#      x y z
#    x 3.679130 0.000000 -0.068240 
#    y 0.000000 3.489220 0.000000 
#    z -0.068240 0.000000 3.052100 
# 
# 
# High freq. dielectric constant tensor:
#      x y z
#    x 1.725400 0.000000 -0.011200 
#    y 0.000000 1.699140 0.000000 
#    z -0.011200 0.000000 1.678130 
# 
# From -- ./inp_files/13241.got.cif
#   From: 2010.03.12/outbox.cif.g09.slc.cpg/sg8_7_cif.got.tgz:13241.got - 2010.03.31 10:45:26.
