data_PCOD8053620
_publ_section_title
;
Structure prediction by ZEFSAII (Michael W. Deem and Ramdas Pophale) SiO2 
 PCOD8053620
Probable space group: C M
;
_chemical_formula_sum "Si O2"
_cell_formula_units_Z 32
_cell_length_a 26.175553
_cell_length_b 13.033480
_cell_length_c 8.448349
_cell_angle_alpha 90.000000
_cell_angle_beta 31.754118
_cell_angle_gamma 90.000000
_cell_volume 1516.843846
_symmetry_space_group_name_H-M "C M"
_symmetry_group_IT_number 8
_symmetry_cell_setting 'monoclinic'
loop_
_space_group_symop_operation_xyz
x,y,z
x,-y,z
1/2+x,1/2+y,z
1/2+x,1/2-y,z
loop_
_atom_site_type_symbol
_atom_site_label
_atom_site_fract_x
_atom_site_fract_y
_atom_site_fract_z
Si Si1 0.078710 0.192804 0.038440
Si Si2 0.300176 0.748459 0.069536
Si Si3 0.595198 0.792464 0.505860
Si Si4 0.093546 0.387081 0.188195
Si Si5 0.389366 0.892143 0.622339
Si Si6 0.452004 0.810191 0.147402
Si Si7 0.282859 0.881195 0.408350
Si Si8 0.487319 0.619904 0.601879
O O1 0.123623 0.302165 0.978831
O O2 0.000158 0.208013 0.101387
O O3 0.025158 0.136235 0.323870
O O4 0.167813 0.125521 0.742437
O O5 0.189369 0.714184 0.369506
O O6 0.311756 0.843632 0.158195
O O7 0.319143 0.796436 0.843248
O O8 0.375294 0.657100 0.909707
O O9 0.630326 0.862114 0.267501
O O10 0.553669 0.683236 0.551413
O O11 0.516688 0.846415 0.827779
O O12 0.132096 0.500000 0.035580
O O13 0.976703 0.385039 0.519141
O O14 0.444524 0.891689 0.308790
O O15 0.332025 0.000000 0.786896
O O16 0.340840 0.805324 0.376857
O O17 0.314225 0.000000 0.346025
O O18 0.492276 0.500000 0.633595
#
# Coordination Sequence:
#
# PCOD8053620 Si02
#       8
#     4   4   4   4   4   4   4   4
#     4  10  22  43  65  96 134 165 209 267 320 379
#     4  12  23  42  64  93 131 168 213 267 314 379
#     4  11  23  40  66  92 128 171 214 265 311 378
#     4   9  19  38  64  90 124 167 206 252 318 379
#     4  10  20  37  64  94 124 159 203 261 322 371
#     4  11  21  41  62  94 134 162 204 265 324 370
#     4  12  25  41  68  99 126 166 220 268 317 375
#     4  11  24  46  66  90 131 176 212 257 321 389
#
# _framework density 21.096437000000002
#
# number of rings (size 3 to 8) (size 9 to 14) (size 15 to 20)
#    0.000    1.250    6.250    1.125    3.500    4.000 
#    0.000    0.625    0.000    0.000    0.000    0.000 
#    0.000    0.000    0.000    0.000    0.000    0.000 
#
# Total GULP energy -198209.124784 kJ/mol
# GULP energy per Si atom -12388.070299 kJ/mol
# Density = 2.104842 g / cm^3
# Si number density = 21.096437 Si / 1000 Ang^3
#
#
#
# Elastic Constant Matrix: (Units=GPa)
#
#
# Indices 1 2 3 4 5 6 
#
# 1 96.4464 19.4590 29.2767 0.0000 -8.7793 0.0000
# 2 19.4590 100.7263 28.5197 0.0000 -1.5496 0.0000
# 3 29.2767 28.5197 83.1845 0.0000 -9.4862 0.0000
# 4 0.0000 0.0000 0.0000 25.6127 0.0000 1.5742
# 5 -8.7793 -1.5496 -9.4862 0.0000 38.7355 0.0000
# 6 0.0000 0.0000 0.0000 1.5742 0.0000 12.4884
#
#
#
# Elastic Compliance Matrix: (Units=1/GPa)
#
#
# Indices 1 2 3 4 5 6 
#
# 1 0.011858 -0.001262 -0.003539 0.000000 0.001771 0.000000
# 2 -0.001262 0.011139 -0.003453 0.000000 -0.000686 0.000000
# 3 -0.003539 -0.003453 0.014756 0.000000 0.002673 0.000000
# 4 0.000000 0.000000 0.000000 0.039348 0.000000 -0.004960
# 5 0.001771 -0.000686 0.002673 0.000000 0.026845 0.000000
# 6 0.000000 0.000000 0.000000 -0.004960 0.000000 0.080700
#
#
# Mechanical properties :
#
#
# Convention : Reuss Voigt Hill
#
# Bulk Modulus (GPa) = 47.06909 48.31867 47.69388
# Shear Modulus (GPa) = 24.01133 28.90742 26.45937
#
# Velocity S-wave (km/s) = 3.37734 3.70571 3.54533
# Velocity P-wave (km/s) = 6.12930 6.42364 6.27820
#
# Compressibility (1/GPa) = 0.02124537
#
# Stress axis : x y z
#
# Youngs Moduli (GPa) = 84.32787 89.77637 67.76975
#
# Poissons Ratio (x) = 0.11326 0.23985
# Poissons Ratio (y) = 0.10639 0.23402
# Poissons Ratio (z) = 0.29845 0.31001
#
# Static dielectric constant tensor:
#      x y z
#    x 3.987630 0.000000 0.014520 
#    y 0.000000 3.666500 0.000000 
#    z 0.014520 0.000000 3.684520 
# 
# 
# High freq. dielectric constant tensor:
#      x y z
#    x 1.832810 0.000000 0.007710 
#    y 0.000000 1.801080 0.000000 
#    z 0.007710 0.000000 1.820530 
# 
# From -- ./inp_files/17590.got.cif
#   From: 2010.03.12/outbox.cif.g09.slc.cpg/sg8_9_cif.got.tgz:17590.got - 2010.03.31 10:45:26.
