data_PCOD8053886
_publ_section_title
;
Structure prediction by ZEFSAII (Michael W. Deem and Ramdas Pophale) SiO2 
 PCOD8053886
Probable space group: C M
;
_chemical_formula_sum "Si O2"
_cell_formula_units_Z 32
_cell_length_a 11.203455
_cell_length_b 30.416799
_cell_length_c 7.839302
_cell_angle_alpha 90.000000
_cell_angle_beta 35.170226
_cell_angle_gamma 90.000000
_cell_volume 1538.760733
_symmetry_space_group_name_H-M "C M"
_symmetry_group_IT_number 8
_symmetry_cell_setting 'monoclinic'
loop_
_space_group_symop_operation_xyz
x,y,z
x,-y,z
1/2+x,1/2+y,z
1/2+x,1/2-y,z
loop_
_atom_site_type_symbol
_atom_site_label
_atom_site_fract_x
_atom_site_fract_y
_atom_site_fract_z
Si Si1 0.930180 0.948996 0.757140
Si Si2 0.438755 0.858358 0.009308
Si Si3 0.874577 0.836808 0.376759
Si Si4 0.718471 0.548144 0.736187
Si Si5 0.038941 0.387919 0.242247
Si Si6 0.745710 0.283337 0.054796
Si Si7 0.125671 0.694739 0.360654
Si Si8 0.648101 0.417344 0.164773
O O1 0.041567 0.938908 0.807152
O O2 0.073549 0.939786 0.426116
O O3 0.855923 0.000000 0.838318
O O4 0.745828 0.914351 0.956990
O O5 0.402206 0.881249 0.232455
O O6 0.291684 0.815884 0.159470
O O7 0.371232 0.894066 0.943229
O O8 0.674354 0.841384 0.730540
O O9 0.794280 0.830012 0.279168
O O10 0.016473 0.794625 0.253443
O O11 0.000482 0.881084 0.252980
O O12 0.801701 0.500000 0.587619
O O13 0.903940 0.582645 0.525387
O O14 0.649085 0.546148 0.015237
O O15 0.065206 0.339907 0.288302
O O16 0.741272 0.234204 0.129822
O O17 0.924596 0.288963 0.701950
#
# Coordination Sequence:
#
# PCOD8053886 Si02
#       8
#     4   4   4   4   4   4   4   4
#     4  11  24  42  67 101 133 176 229 276 338 398
#     4  10  22  40  67  95 128 172 221 265 333 398
#     4  10  21  42  63  92 130 168 221 268 323 404
#     4  11  24  42  65  97 135 171 224 280 329 399
#     4  12  23  43  67  95 132 178 219 276 336 398
#     4  10  25  43  62  97 129 172 221 275 332 394
#     4  11  26  41  66  95 131 172 225 272 337 399
#     4  11  21  43  68  96 132 179 221 274 334 394
#
# _framework density 20.795957000000001
#
# number of rings (size 3 to 8) (size 9 to 14) (size 15 to 20)
#    0.000    1.250    2.500    3.750    3.500    1.000 
#    2.250    0.000    0.000    0.000    0.000    0.000 
#    0.000    0.000    0.000    0.000    0.000    0.000 
#
# Total GULP energy -198323.948672 kJ/mol
# GULP energy per Si atom -12395.246792 kJ/mol
# Density = 2.074862 g / cm^3
# Si number density = 20.795957 Si / 1000 Ang^3
#
#
#
# Elastic Constant Matrix: (Units=GPa)
#
#
# Indices 1 2 3 4 5 6 
#
# 1 136.5810 46.3368 43.9042 0.0000 8.0713 0.0000
# 2 46.3368 116.8769 33.9815 0.0000 5.5333 0.0000
# 3 43.9042 33.9815 86.5657 0.0000 0.7278 0.0000
# 4 0.0000 0.0000 0.0000 43.3279 0.0000 -2.0330
# 5 8.0713 5.5333 0.7278 0.0000 32.0942 0.0000
# 6 0.0000 0.0000 0.0000 -2.0330 0.0000 35.3118
#
#
#
# Elastic Compliance Matrix: (Units=1/GPa)
#
#
# Indices 1 2 3 4 5 6 
#
# 1 0.009532 -0.002585 -0.003804 0.000000 -0.001865 0.000000
# 2 -0.002585 0.010440 -0.002778 0.000000 -0.001087 0.000000
# 3 -0.003804 -0.002778 0.014562 0.000000 0.001105 0.000000
# 4 0.000000 0.000000 0.000000 0.023142 0.000000 0.001332
# 5 -0.001865 -0.001087 0.001105 0.000000 0.031790 0.000000
# 6 0.000000 0.000000 0.000000 0.001332 0.000000 0.028396
#
#
# Mechanical properties :
#
#
# Convention : Reuss Voigt Hill
#
# Bulk Modulus (GPa) = 61.72655 65.38539 63.55597
# Shear Modulus (GPa) = 35.31189 36.53351 35.92270
#
# Velocity S-wave (km/s) = 4.12517 4.19592 4.16070
# Velocity P-wave (km/s) = 7.24126 7.41512 7.32870
#
# Compressibility (1/GPa) = 0.01620048
#
# Stress axis : x y z
#
# Youngs Moduli (GPa) = 104.91524 95.78637 68.66957
#
# Poissons Ratio (x) = 0.24757 0.26121
# Poissons Ratio (y) = 0.27116 0.19078
# Poissons Ratio (z) = 0.39909 0.26612
#
# Static dielectric constant tensor:
#      x y z
#    x 3.954980 0.000000 -0.052980 
#    y 0.000000 3.782700 0.000000 
#    z -0.052980 0.000000 3.626920 
# 
# 
# High freq. dielectric constant tensor:
#      x y z
#    x 1.829690 0.000000 -0.001440 
#    y 0.000000 1.822050 0.000000 
#    z -0.001440 0.000000 1.801430 
# 
# From -- ./inp_files/11698.got.cif
#   From: 2010.03.12/outbox.cif.g09.slc.cpg/sg8_6_cif.got.tgz:11698.got - 2010.03.31 10:45:26.
