data_PCOD8053800
_publ_section_title
;
Structure prediction by ZEFSAII (Michael W. Deem and Ramdas Pophale) SiO2 
 PCOD8053800
Probable space group: C M
;
_chemical_formula_sum "Si O2"
_cell_formula_units_Z 28
_cell_length_a 7.690108
_cell_length_b 21.830987
_cell_length_c 8.726414
_cell_angle_alpha 90.000000
_cell_angle_beta 107.483672
_cell_angle_gamma 90.000000
_cell_volume 1397.333683
_symmetry_space_group_name_H-M "C M"
_symmetry_group_IT_number 8
_symmetry_cell_setting 'monoclinic'
loop_
_space_group_symop_operation_xyz
x,y,z
x,-y,z
1/2+x,1/2+y,z
1/2+x,1/2-y,z
loop_
_atom_site_type_symbol
_atom_site_label
_atom_site_fract_x
_atom_site_fract_y
_atom_site_fract_z
Si Si1 0.168940 0.173648 0.184570
Si Si2 0.114389 0.930787 0.392304
Si Si3 0.326729 0.376339 0.533873
Si Si4 0.572918 0.193091 0.244038
Si Si5 0.459176 0.697242 0.846323
Si Si6 0.083159 0.328990 0.900744
Si Si7 0.502706 0.070194 0.645190
O O1 0.079649 0.114376 0.240333
O O2 0.383987 0.174107 0.272921
O O3 0.075345 0.233630 0.231918
O O4 0.133794 0.173982 0.991241
O O5 0.313827 0.917132 0.510509
O O6 0.961220 0.922065 0.481584
O O7 0.100208 0.000000 0.326866
O O8 0.237675 0.328700 0.393113
O O9 0.451068 0.337478 0.683443
O O10 0.171260 0.414718 0.578430
O O11 0.584925 0.160355 0.082631
O O12 0.288720 0.682297 0.906494
O O13 0.464547 0.770087 0.818189
O O14 0.003494 0.388865 0.798009
O O15 0.518826 0.000000 0.701942
#
# Coordination Sequence:
#
# PCOD8053800 Si02
#       7
#     4   4   4   4   4   4   4
#     4  11  22  41  60  93 127 161 207 254 305 378
#     4  11  24  41  64  89 126 168 207 252 301 367
#     4  11  23  40  65  93 119 163 205 262 306 358
#     4  11  22  38  65  92 126 159 203 261 314 357
#     4  10  22  36  62  93 123 155 203 253 315 359
#     4  10  21  38  60  90 124 161 199 254 307 368
#     4  10  23  42  60  90 126 163 208 252 298 367
#
# _framework density 20.038163000000001
#
# number of rings (size 3 to 8) (size 9 to 14) (size 15 to 20)
#    0.000    1.429    1.429    5.571    6.000    1.143 
#    0.000    8.571    0.000    0.000    0.000    0.000 
#    0.000    0.000    0.000    0.000    0.000    0.000 
#
# Total GULP energy -173653.538604 kJ/mol
# GULP energy per Si atom -12403.824186 kJ/mol
# Density = 1.999256 g / cm^3
# Si number density = 20.038163 Si / 1000 Ang^3
#
#
#
# Elastic Constant Matrix: (Units=GPa)
#
#
# Indices 1 2 3 4 5 6 
#
# 1 71.0546 30.9636 26.2154 0.0000 -2.2929 0.0000
# 2 30.9636 141.7382 78.0271 0.0000 0.1940 0.0000
# 3 26.2154 78.0271 108.6738 0.0000 1.1411 0.0000
# 4 0.0000 0.0000 0.0000 30.0030 0.0000 -0.2087
# 5 -2.2929 0.1940 1.1411 0.0000 31.5679 0.0000
# 6 0.0000 0.0000 0.0000 -0.2087 0.0000 30.9078
#
#
#
# Elastic Compliance Matrix: (Units=1/GPa)
#
#
# Indices 1 2 3 4 5 6 
#
# 1 0.015920 -0.002246 -0.002241 0.000000 0.001251 0.000000
# 2 -0.002246 0.011985 -0.008064 0.000000 0.000055 0.000000
# 3 -0.002241 -0.008064 0.015539 0.000000 -0.000675 0.000000
# 4 0.000000 0.000000 0.000000 0.033332 0.000000 0.000225
# 5 0.001251 0.000055 -0.000675 0.000000 0.031793 0.000000
# 6 0.000000 0.000000 0.000000 0.000225 0.000000 0.032356
#
#
# Mechanical properties :
#
#
# Convention : Reuss Voigt Hill
#
# Bulk Modulus (GPa) = 54.51822 65.76433 60.14127
# Shear Modulus (GPa) = 29.04619 30.91311 29.97965
#
# Velocity S-wave (km/s) = 3.81142 3.93200 3.87218
# Velocity P-wave (km/s) = 6.82902 7.31471 7.07603
#
# Compressibility (1/GPa) = 0.01834249
#
# Stress axis : x y z
#
# Youngs Moduli (GPa) = 62.81603 83.43736 64.35246
#
# Poissons Ratio (x) = 0.18738 0.14421
# Poissons Ratio (y) = 0.14107 0.51894
# Poissons Ratio (z) = 0.14077 0.67284
#
# Static dielectric constant tensor:
#      x y z
#    x 3.719860 0.000000 0.075440 
#    y 0.000000 3.601090 0.000000 
#    z 0.075440 0.000000 3.663660 
# 
# 
# High freq. dielectric constant tensor:
#      x y z
#    x 1.797490 0.000000 0.003390 
#    y 0.000000 1.772980 0.000000 
#    z 0.003390 0.000000 1.780110 
# 
# From -- ./inp_files/8583.got.cif
#   From: 2010.03.12/outbox.cif.g09.slc.cpg/sg8_5_cif.got.tgz:8583.got - 2010.03.31 10:45:26.
