data_PCOD8053630
_publ_section_title
;
Structure prediction by ZEFSAII (Michael W. Deem and Ramdas Pophale) SiO2 
 PCOD8053630
Probable space group: C M
;
_chemical_formula_sum "Si O2"
_cell_formula_units_Z 28
_cell_length_a 9.140280
_cell_length_b 9.553592
_cell_length_c 22.921772
_cell_angle_alpha 90.000000
_cell_angle_beta 140.359894
_cell_angle_gamma 90.000000
_cell_volume 1276.938531
_symmetry_space_group_name_H-M "C M"
_symmetry_group_IT_number 8
_symmetry_cell_setting 'monoclinic'
loop_
_space_group_symop_operation_xyz
x,y,z
x,-y,z
1/2+x,1/2+y,z
1/2+x,1/2-y,z
loop_
_atom_site_type_symbol
_atom_site_label
_atom_site_fract_x
_atom_site_fract_y
_atom_site_fract_z
Si Si1 0.486470 0.339294 0.218700
Si Si2 0.562414 0.339301 0.110424
Si Si3 0.077331 0.651713 0.925459
Si Si4 0.626348 0.150697 0.681989
Si Si5 0.276916 0.656048 0.513784
Si Si6 0.839198 0.842980 0.397341
Si Si7 0.095742 0.727291 0.803270
O O1 0.461663 0.500000 0.233452
O O2 0.608855 0.337539 0.193828
O O3 0.241374 0.265499 0.135760
O O4 0.633568 0.249049 0.309040
O O5 0.590808 0.500000 0.095976
O O6 0.313798 0.273465 0.017379
O O7 0.092833 0.500000 0.958906
O O8 0.057436 0.633878 0.849149
O O9 0.854860 0.718181 0.886316
O O10 0.502031 0.281099 0.613595
O O11 0.574884 0.147803 0.735505
O O12 0.896359 0.155867 0.748249
O O13 0.536774 0.000000 0.631145
O O14 0.228863 0.500000 0.525360
O O15 0.314148 0.639093 0.457661
O O16 0.073799 0.763176 0.460067
O O17 0.842007 0.000000 0.370002
#
# Coordination Sequence:
#
# PCOD8053630 Si02
#       7
#     4   4   4   4   4   4   4
#     4  11  23  39  61  90 122 156 197 243 293 351
#     4  10  22  39  60  88 121 157 199 245 293 349
#     4  10  20  38  60  83 117 158 197 242 295 346
#     4  11  23  39  60  88 120 155 198 245 295 352
#     4  11  25  42  62  89 120 155 197 244 294 352
#     4  11  24  42  64  90 120 155 197 243 293 352
#     4  10  22  37  59  88 118 154 199 246 293 348
#
# _framework density 21.927446
#
# number of rings (size 3 to 8) (size 9 to 14) (size 15 to 20)
#    0.000    1.429    0.000    4.714    0.000   12.571 
#    0.000    3.571    0.000    0.000    0.000    0.000 
#    0.000    0.000    0.000    0.000    0.000    0.000 
#
# Total GULP energy -173509.443146 kJ/mol
# GULP energy per Si atom -12393.531653 kJ/mol
# Density = 2.187754 g / cm^3
# Si number density = 21.927446 Si / 1000 Ang^3
#
#
#
# Elastic Constant Matrix: (Units=GPa)
#
#
# Indices 1 2 3 4 5 6 
#
# 1 80.8600 30.4334 10.9978 0.0000 13.6508 0.0000
# 2 30.4334 158.7933 43.0426 0.0000 17.0603 0.0000
# 3 10.9978 43.0426 101.7067 0.0000 12.8854 0.0000
# 4 0.0000 0.0000 0.0000 31.6842 0.0000 2.5800
# 5 13.6508 17.0603 12.8854 0.0000 40.7265 0.0000
# 6 0.0000 0.0000 0.0000 2.5800 0.0000 18.5260
#
#
#
# Elastic Compliance Matrix: (Units=1/GPa)
#
#
# Indices 1 2 3 4 5 6 
#
# 1 0.013840 -0.002235 -0.000085 0.000000 -0.003676 0.000000
# 2 -0.002235 0.007653 -0.002798 0.000000 -0.001572 0.000000
# 3 -0.000085 -0.002798 0.011327 0.000000 -0.002383 0.000000
# 4 0.000000 0.000000 0.000000 0.031924 0.000000 -0.004446
# 5 -0.003676 -0.001572 -0.002383 0.000000 0.027199 0.000000
# 6 0.000000 0.000000 0.000000 -0.004446 0.000000 0.054597
#
#
# Mechanical properties :
#
#
# Convention : Reuss Voigt Hill
#
# Bulk Modulus (GPa) = 44.27671 56.70083 50.48877
# Shear Modulus (GPa) = 30.43136 35.31307 32.87221
#
# Velocity S-wave (km/s) = 3.72939 4.01740 3.87607
# Velocity P-wave (km/s) = 6.22741 6.88722 6.56561
#
# Compressibility (1/GPa) = 0.02258524
#
# Stress axis : x y z
#
# Youngs Moduli (GPa) = 72.25309 130.66698 88.28074
#
# Poissons Ratio (x) = 0.29198 0.00752
# Poissons Ratio (y) = 0.16145 0.24702
# Poissons Ratio (z) = 0.00616 0.36561
#
# Static dielectric constant tensor:
#      x y z
#    x 3.902260 0.000000 0.080230 
#    y 0.000000 4.169130 0.000000 
#    z 0.080230 0.000000 4.066200 
# 
# 
# High freq. dielectric constant tensor:
#      x y z
#    x 1.863540 0.000000 0.003960 
#    y 0.000000 1.861970 0.000000 
#    z 0.003960 0.000000 1.871610 
# 
# From -- ./inp_files/32747.got.cif
#   From: 2010.03.12/outbox.cif.g09.slc.cpg/sg8_17_cif.got.tgz:32747.got - 2010.03.31 10:45:26.
