data_PCOD8053425
_publ_section_title
;
Structure prediction by ZEFSAII (Michael W. Deem and Ramdas Pophale) SiO2 
 PCOD8053425
Probable space group: C M
;
_chemical_formula_sum "Si O2"
_cell_formula_units_Z 32
_cell_length_a 25.209583
_cell_length_b 9.310676
_cell_length_c 16.665466
_cell_angle_alpha 90.000000
_cell_angle_beta 154.196335
_cell_angle_gamma 90.000000
_cell_volume 1702.714050
_symmetry_space_group_name_H-M "C M"
_symmetry_group_IT_number 8
_symmetry_cell_setting 'monoclinic'
loop_
_space_group_symop_operation_xyz
x,y,z
x,-y,z
1/2+x,1/2+y,z
1/2+x,1/2-y,z
loop_
_atom_site_type_symbol
_atom_site_label
_atom_site_fract_x
_atom_site_fract_y
_atom_site_fract_z
Si Si1 0.187080 0.330979 0.264850
Si Si2 0.645170 0.833132 0.025656
Si Si3 0.556289 0.170177 0.391835
Si Si4 0.436586 0.170015 0.619294
Si Si5 0.600000 0.337289 0.727194
Si Si6 0.491381 0.169967 0.128330
Si Si7 0.721998 0.668963 0.729028
Si Si8 0.310393 0.837372 0.139671
O O1 0.215009 0.500000 0.310609
O O2 0.306747 0.244250 0.453112
O O3 0.081635 0.279510 0.181207
O O4 0.138587 0.291596 0.110072
O O5 0.520752 0.786819 0.810560
O O6 0.667356 0.000000 0.043148
O O7 0.763209 0.756812 0.149245
O O8 0.538708 0.228537 0.277821
O O9 0.675234 0.248694 0.587117
O O10 0.441957 0.217032 0.290765
O O11 0.574970 0.000000 0.418905
O O12 0.498145 0.228889 0.621638
O O13 0.419946 0.000000 0.589220
O O14 0.548861 0.500000 0.662916
O O15 0.632420 0.294473 0.680807
O O16 0.723940 0.323218 0.945326
O O17 0.483112 0.000000 0.121440
O O18 0.356663 0.230718 0.928683
O O19 0.725112 0.500000 0.716054
O O20 0.315865 0.000000 0.178147
#
# Coordination Sequence:
#
# PCOD8053425 Si02
#       8
#     4   4   4   4   4   4   4   4
#     4  10  21  38  60  80 104 148 193 224 261 322
#     4   9  20  36  53  78 110 142 179 223 270 319
#     4  10  20  35  55  82 111 142 180 225 276 324
#     4  10  21  36  54  81 115 144 175 226 282 321
#     4   9  17  33  56  80 110 146 184 220 262 328
#     4   9  19  39  60  77 107 149 189 223 264 324
#     4  10  20  35  57  83 108 143 185 225 269 324
#     4   9  17  32  55  79 109 144 177 218 270 324
#
# _framework density 18.793524999999999
#
# number of rings (size 3 to 8) (size 9 to 14) (size 15 to 20)
#    0.000    2.500    1.250    0.375    1.750    3.000 
#    0.000    3.125    0.000    0.000    0.000    0.000 
#    0.000    0.000    0.000    0.000    0.000    0.000 
#
# Total GULP energy -198418.693508 kJ/mol
# GULP energy per Si atom -12401.168344 kJ/mol
# Density = 1.875075 g / cm^3
# Si number density = 18.793525 Si / 1000 Ang^3
#
#
#
# Elastic Constant Matrix: (Units=GPa)
#
#
# Indices 1 2 3 4 5 6 
#
# 1 141.0465 49.9259 80.7753 0.0000 -7.7100 0.0000
# 2 49.9259 48.1589 43.3437 0.0000 -1.5054 0.0000
# 3 80.7753 43.3437 121.4774 0.0000 -7.7699 0.0000
# 4 0.0000 0.0000 0.0000 32.0786 0.0000 -0.4841
# 5 -7.7100 -1.5054 -7.7699 0.0000 24.9637 0.0000
# 6 0.0000 0.0000 0.0000 -0.4841 0.0000 19.8278
#
#
#
# Elastic Compliance Matrix: (Units=1/GPa)
#
#
# Indices 1 2 3 4 5 6 
#
# 1 0.013652 -0.008886 -0.005787 0.000000 0.001879 0.000000
# 2 -0.008886 0.036432 -0.007270 0.000000 -0.002810 0.000000
# 3 -0.005787 -0.007270 0.014827 0.000000 0.002389 0.000000
# 4 0.000000 0.000000 0.000000 0.031185 0.000000 0.000761
# 5 0.001879 -0.002810 0.002389 0.000000 0.041213 0.000000
# 6 0.000000 0.000000 0.000000 0.000761 0.000000 0.050453
#
#
# Mechanical properties :
#
#
# Convention : Reuss Voigt Hill
#
# Bulk Modulus (GPa) = 47.56341 73.19697 60.38019
# Shear Modulus (GPa) = 20.95064 24.48322 22.71693
#
# Velocity S-wave (km/s) = 3.34245 3.61327 3.48050
# Velocity P-wave (km/s) = 6.34502 7.51267 6.95340
#
# Compressibility (1/GPa) = 0.02102457
#
# Stress axis : x y z
#
# Youngs Moduli (GPa) = 73.24897 27.44841 67.44445
#
# Poissons Ratio (x) = 0.24390 0.39031
# Poissons Ratio (y) = 0.65087 0.49035
# Poissons Ratio (z) = 0.42390 0.19956
#
# Static dielectric constant tensor:
#      x y z
#    x 3.495820 0.000000 -0.036000 
#    y 0.000000 3.227100 0.000000 
#    z -0.036000 0.000000 3.510080 
# 
# 
# High freq. dielectric constant tensor:
#      x y z
#    x 1.728280 0.000000 -0.003440 
#    y 0.000000 1.708290 0.000000 
#    z -0.003440 0.000000 1.736980 
# 
# From -- ./inp_files/24401.got.cif
#   From: 2010.03.12/outbox.cif.g09.slc.cpg/sg8_13_cif.got.tgz:24401.got - 2010.03.31 10:45:26.
