data_PCOD8053654
_publ_section_title
;
Structure prediction by ZEFSAII (Michael W. Deem and Ramdas Pophale) SiO2 
 PCOD8053654
Probable space group: C M
;
_chemical_formula_sum "Si O2"
_cell_formula_units_Z 32
_cell_length_a 15.270982
_cell_length_b 8.593903
_cell_length_c 11.793863
_cell_angle_alpha 90.000000
_cell_angle_beta 89.012485
_cell_angle_gamma 90.000000
_cell_volume 1547.565298
_symmetry_space_group_name_H-M "C M"
_symmetry_group_IT_number 8
_symmetry_cell_setting 'monoclinic'
loop_
_space_group_symop_operation_xyz
x,y,z
x,-y,z
1/2+x,1/2+y,z
1/2+x,1/2-y,z
loop_
_atom_site_type_symbol
_atom_site_label
_atom_site_fract_x
_atom_site_fract_y
_atom_site_fract_z
Si Si1 0.167420 0.180647 0.460040
Si Si2 0.978543 0.678059 0.915618
Si Si3 0.217882 0.320287 0.692077
Si Si4 0.317161 0.679809 0.047225
Si Si5 0.404288 0.821020 0.675310
Si Si6 0.823445 0.318602 0.290403
Si Si7 0.489073 0.180704 0.437716
Si Si8 0.658907 0.679697 0.921574
O O1 0.173907 0.280013 0.573963
O O2 0.244461 0.230835 0.374028
O O3 0.074497 0.218970 0.403712
O O4 0.175756 0.000000 0.490120
O O5 0.001380 0.500000 0.941258
O O6 0.966071 0.704132 0.781835
O O7 0.058953 0.782190 0.957552
O O8 0.890617 0.719927 0.983368
O O9 0.200456 0.500000 0.720332
O O10 0.321009 0.289373 0.687546
O O11 0.172796 0.217830 0.789661
O O12 0.337354 0.500000 0.025541
O O13 0.316813 0.714601 0.179808
O O14 0.222789 0.719924 0.998397
O O15 0.457916 0.771021 0.563703
O O16 0.372067 0.000000 0.665787
O O17 0.817238 0.500000 0.258403
O O18 0.914397 0.278310 0.349283
O O19 0.513558 0.000000 0.432455
O O20 0.678336 0.500000 0.944403
#
# Coordination Sequence:
#
# PCOD8053654 Si02
#       8
#     4   4   4   4   4   4   4   4
#     4  11  23  41  65  94 128 166 211 260 316 376
#     4  11  23  41  68  98 131 167 208 260 320 384
#     4  12  23  37  63  96 131 167 209 257 316 385
#     4  12  26  44  66  94 128 168 217 267 319 380
#     4  10  20  38  64  93 128 168 202 249 317 384
#     4  10  23  44  66  88 124 171 214 264 320 372
#     4  10  21  40  65  94 128 164 207 256 314 379
#     4  12  25  43  67  95 130 169 214 265 318 378
#
# _framework density 20.677641999999999
#
# number of rings (size 3 to 8) (size 9 to 14) (size 15 to 20)
#    0.000    1.000    2.500    4.875    0.000    4.500 
#    0.000    2.500    0.000    0.000    0.000    0.000 
#    0.000    0.000    0.000    0.000    0.000    0.000 
#
# Total GULP energy -198528.327531 kJ/mol
# GULP energy per Si atom -12408.020471 kJ/mol
# Density = 2.063058 g / cm^3
# Si number density = 20.677642 Si / 1000 Ang^3
#
#
#
# Elastic Constant Matrix: (Units=GPa)
#
#
# Indices 1 2 3 4 5 6 
#
# 1 108.2398 22.2928 19.8278 0.0000 19.4146 0.0000
# 2 22.2928 68.4768 26.3586 0.0000 0.3691 0.0000
# 3 19.8278 26.3586 92.7868 0.0000 17.1242 0.0000
# 4 0.0000 0.0000 0.0000 10.4705 0.0000 7.3626
# 5 19.4146 0.3691 17.1242 0.0000 10.0242 0.0000
# 6 0.0000 0.0000 0.0000 7.3626 0.0000 35.6676
#
#
#
# Elastic Compliance Matrix: (Units=1/GPa)
#
#
# Indices 1 2 3 4 5 6 
#
# 1 0.018084 -0.008405 0.007200 0.000000 -0.047014 0.000000
# 2 -0.008405 0.021135 -0.010323 0.000000 0.033135 0.000000
# 3 0.007200 -0.010323 0.021431 0.000000 -0.050175 0.000000
# 4 0.000000 0.000000 0.000000 0.111723 0.000000 -0.023062
# 5 -0.047014 0.033135 -0.050175 0.000000 0.275306 0.000000
# 6 0.000000 0.000000 0.000000 -0.023062 0.000000 0.032797
#
#
# Mechanical properties :
#
#
# Convention : Reuss Voigt Hill
#
# Bulk Modulus (GPa) = 26.60048 45.16240 35.88144
# Shear Modulus (GPa) = 9.68871 24.63408 17.16140
#
# Velocity S-wave (km/s) = 2.16697 3.45532 2.88401
# Velocity P-wave (km/s) = 4.37645 6.14879 5.33671
#
# Compressibility (1/GPa) = 0.03759331
#
# Stress axis : x y z
#
# Youngs Moduli (GPa) = 55.29847 47.31515 46.66051
#
# Poissons Ratio (x) = 0.39770 -0.33596
# Poissons Ratio (y) = 0.46480 0.48168
# Poissons Ratio (z) = -0.39815 0.48844
#
# Static dielectric constant tensor:
#      x y z
#    x 3.818210 0.000000 0.023820 
#    y 0.000000 3.770840 0.000000 
#    z 0.023820 0.000000 3.709210 
# 
# 
# High freq. dielectric constant tensor:
#      x y z
#    x 1.823250 0.000000 0.003340 
#    y 0.000000 1.807550 0.000000 
#    z 0.003340 0.000000 1.805890 
# 
# From -- ./inp_files/21547.got.cif
#   From: 2010.03.12/outbox.cif.g09.slc.cpg/sg8_11_cif.got.tgz:21547.got - 2010.03.31 10:45:26.
