data_PCOD8053849
_publ_section_title
;
Structure prediction by ZEFSAII (Michael W. Deem and Ramdas Pophale) SiO2 
 PCOD8053849
Probable space group: C M
;
_chemical_formula_sum "Si O2"
_cell_formula_units_Z 28
_cell_length_a 5.611538
_cell_length_b 29.039688
_cell_length_c 7.933459
_cell_angle_alpha 90.000000
_cell_angle_beta 118.559584
_cell_angle_gamma 90.000000
_cell_volume 1135.505957
_symmetry_space_group_name_H-M "C M"
_symmetry_group_IT_number 8
_symmetry_cell_setting 'monoclinic'
loop_
_space_group_symop_operation_xyz
x,y,z
x,-y,z
1/2+x,1/2+y,z
1/2+x,1/2-y,z
loop_
_atom_site_type_symbol
_atom_site_label
_atom_site_fract_x
_atom_site_fract_y
_atom_site_fract_z
Si Si1 0.106020 0.865874 0.439950
Si Si2 0.653897 0.264747 0.366345
Si Si3 0.565051 0.900844 0.125965
Si Si4 0.531934 0.368549 0.810339
Si Si5 0.890216 0.769765 0.788910
Si Si6 0.301879 0.449284 0.916785
Si Si7 0.820880 0.550605 0.329507
O O1 0.231112 0.818618 0.411454
O O2 0.086529 0.862039 0.632758
O O3 0.294348 0.910413 0.464666
O O4 0.823732 0.868964 0.243201
O O5 0.322365 0.254706 0.258980
O O6 0.751258 0.237011 0.562407
O O7 0.562201 0.935429 0.284783
O O8 0.298810 0.869586 0.018868
O O9 0.559622 0.930108 0.950371
O O10 0.374873 0.323996 0.826847
O O11 0.354654 0.414863 0.778587
O O12 0.709573 0.746102 0.877100
O O13 0.233386 0.500000 0.821126
O O14 0.552980 0.451417 0.127581
O O15 0.878785 0.500000 0.429021
#
# Coordination Sequence:
#
# PCOD8053849 Si02
#       7
#     4   4   4   4   4   4   4
#     4  11  23  40  67  95 131 172 223 278 334 402
#     4  10  21  39  66  96 132 178 224 274 345 400
#     4  10  23  40  64  94 132 174 222 270 337 398
#     4  11  23  40  67  95 131 172 223 278 334 402
#     4  10  21  39  66  96 132 178 224 274 345 400
#     4   9  20  40  65  94 132 172 217 273 337 400
#     4   9  20  40  65  94 132 172 217 273 337 400
#
# _framework density 24.658608999999998
#
# number of rings (size 3 to 8) (size 9 to 14) (size 15 to 20)
#    0.000    2.000    2.857    0.429    4.000    2.857 
#    0.000    2.857    0.000    0.000    0.000    0.000 
#    0.000    0.000    0.000    0.000    0.000    0.000 
#
# Total GULP energy -173489.552473 kJ/mol
# GULP energy per Si atom -12392.110891 kJ/mol
# Density = 2.460248 g / cm^3
# Si number density = 24.658609 Si / 1000 Ang^3
#
#
#
# Elastic Constant Matrix: (Units=GPa)
#
#
# Indices 1 2 3 4 5 6 
#
# 1 128.3240 31.1607 14.0738 0.0000 -2.6772 0.0000
# 2 31.1607 168.9698 18.4118 0.0000 -1.0591 0.0000
# 3 14.0738 18.4118 46.9995 0.0000 -10.2254 0.0000
# 4 0.0000 0.0000 0.0000 25.8121 0.0000 -14.6385
# 5 -2.6772 -1.0591 -10.2254 0.0000 24.7696 0.0000
# 6 0.0000 0.0000 0.0000 -14.6385 0.0000 74.8198
#
#
#
# Elastic Compliance Matrix: (Units=1/GPa)
#
#
# Indices 1 2 3 4 5 6 
#
# 1 0.008330 -0.001321 -0.001970 0.000000 0.000031 0.000000
# 2 -0.001321 0.006406 -0.002291 0.000000 -0.000815 0.000000
# 3 -0.001970 -0.002291 0.024936 0.000000 0.009983 0.000000
# 4 0.000000 0.000000 0.000000 0.043577 0.000000 0.008526
# 5 0.000031 -0.000815 0.009983 0.000000 0.044462 0.000000
# 6 0.000000 0.000000 0.000000 0.008526 0.000000 0.015034
#
#
# Mechanical properties :
#
#
# Convention : Reuss Voigt Hill
#
# Bulk Modulus (GPa) = 35.07846 52.39842 43.73844
# Shear Modulus (GPa) = 30.59719 43.79010 37.19364
#
# Velocity S-wave (km/s) = 3.52637 4.21866 3.88795
# Velocity P-wave (km/s) = 5.55310 6.71008 6.15882
#
# Compressibility (1/GPa) = 0.02850752
#
# Stress axis : x y z
#
# Youngs Moduli (GPa) = 120.04290 156.09237 40.10197
#
# Poissons Ratio (x) = 0.20626 0.07901
# Poissons Ratio (y) = 0.15862 0.09189
# Poissons Ratio (z) = 0.23651 0.35765
#
# Static dielectric constant tensor:
#      x y z
#    x 5.254060 0.000000 0.031740 
#    y 0.000000 4.726150 0.000000 
#    z 0.031740 0.000000 3.927880 
# 
# 
# High freq. dielectric constant tensor:
#      x y z
#    x 1.986470 0.000000 -0.000290 
#    y 0.000000 1.988200 0.000000 
#    z -0.000290 0.000000 1.952570 
# 
# From -- ./inp_files/7123.got.cif
#   From: 2010.03.12/outbox.cif.g09.slc.cpg/sg8_4_cif.got.tgz:7123.got - 2010.03.31 10:45:26.
