data_PCOD8053364
_publ_section_title
;
Structure prediction by ZEFSAII (Michael W. Deem and Ramdas Pophale) SiO2 
 PCOD8053364
Probable space group: C M
;
_chemical_formula_sum "Si O2"
_cell_formula_units_Z 32
_cell_length_a 14.775887
_cell_length_b 9.460637
_cell_length_c 25.267770
_cell_angle_alpha 90.000000
_cell_angle_beta 28.724424
_cell_angle_gamma 90.000000
_cell_volume 1697.548686
_symmetry_space_group_name_H-M "C M"
_symmetry_group_IT_number 8
_symmetry_cell_setting 'monoclinic'
loop_
_space_group_symop_operation_xyz
x,y,z
x,-y,z
1/2+x,1/2+y,z
1/2+x,1/2-y,z
loop_
_atom_site_type_symbol
_atom_site_label
_atom_site_fract_x
_atom_site_fract_y
_atom_site_fract_z
Si Si1 0.627340 0.337553 0.479710
Si Si2 0.989506 0.167104 0.324770
Si Si3 0.757421 0.834160 0.734112
Si Si4 0.308120 0.656572 0.117607
Si Si5 0.691545 0.338963 0.328291
Si Si6 0.506817 0.343502 0.128453
Si Si7 0.865219 0.667795 0.889957
Si Si8 0.690069 0.333318 0.871786
O O1 0.685087 0.500000 0.461245
O O2 0.786921 0.235507 0.420284
O O3 0.434688 0.296830 0.607092
O O4 0.590323 0.313557 0.436235
O O5 0.137480 0.231092 0.206212
O O6 0.052799 0.207948 0.352047
O O7 0.977196 0.000000 0.322306
O O8 0.572976 0.779311 0.797667
O O9 0.776188 0.750186 0.778691
O O10 0.742990 0.000000 0.753858
O O11 0.227760 0.500000 0.145340
O O12 0.408025 0.650596 0.122590
O O13 0.467386 0.701626 0.993313
O O14 0.749605 0.500000 0.289698
O O15 0.887936 0.254046 0.228792
O O16 0.514486 0.500000 0.149817
O O17 0.716513 0.279969 0.011276
O O18 0.849093 0.500000 0.896598
O O19 0.808299 0.724467 0.861338
O O20 0.719414 0.500000 0.848171
#
# Coordination Sequence:
#
# PCOD8053364 Si02
#       8
#     4   4   4   4   4   4   4   4
#     4  10  22  38  52  70 102 142 177 209 255 311
#     4  10  20  34  55  81 104 130 170 218 257 293
#     4  10  21  36  53  74 101 136 178 217 252 297
#     4   8  15  30  52  78 108 138 164 196 252 319
#     4   9  19  35  53  75 103 134 168 207 254 306
#     4   8  14  28  52  79 103 129 164 204 249 305
#     4   8  16  33  55  76 101 135 169 201 249 312
#     4   9  18  34  56  79 104 136 170 206 252 305
#
# _framework density 18.850711
#
# number of rings (size 3 to 8) (size 9 to 14) (size 15 to 20)
#    0.000    3.000    0.000    1.875    0.000    4.000 
#    0.000    8.125    0.000    0.000    0.000    0.000 
#    0.000    0.000    0.000    0.000    0.000    0.000 
#
# Total GULP energy -198351.782822 kJ/mol
# GULP energy per Si atom -12396.986426 kJ/mol
# Density = 1.880781 g / cm^3
# Si number density = 18.850711 Si / 1000 Ang^3
#
#
#
# Elastic Constant Matrix: (Units=GPa)
#
#
# Indices 1 2 3 4 5 6 
#
# 1 56.2044 22.6548 25.9748 0.0014 -5.8144 -0.0002
# 2 22.6548 58.5117 38.4992 0.0016 -3.6945 -0.0003
# 3 25.9748 38.4992 111.4158 -0.0018 -2.2544 -0.0002
# 4 0.0014 0.0016 -0.0018 17.8164 -0.0005 8.0643
# 5 -5.8144 -3.6945 -2.2544 -0.0005 33.1744 0.0003
# 6 -0.0002 -0.0003 -0.0002 8.0643 0.0003 21.7760
#
#
#
# Elastic Compliance Matrix: (Units=1/GPa)
#
#
# Indices 1 2 3 4 5 6 
#
# 1 0.022017 -0.006472 -0.002837 -0.000002 0.002945 0.000001
# 2 -0.006472 0.024148 -0.006813 -0.000003 0.001092 0.000001
# 3 -0.002837 -0.006813 0.011982 0.000002 -0.000442 -0.000001
# 4 -0.000002 -0.000003 0.000002 0.067431 0.000001 -0.024972
# 5 0.002945 0.001092 -0.000442 0.000001 0.030752 -0.000001
# 6 0.000001 0.000001 -0.000001 -0.024972 -0.000001 0.055170
#
#
# Mechanical properties :
#
#
# Convention : Reuss Voigt Hill
#
# Bulk Modulus (GPa) = 38.60595 44.48772 41.54684
# Shear Modulus (GPa) = 19.81149 23.82022 21.81585
#
# Velocity S-wave (km/s) = 3.24538 3.55861 3.40560
# Velocity P-wave (km/s) = 5.87942 6.36680 6.12796
#
# Compressibility (1/GPa) = 0.02590274
#
# Stress axis : x y z
#
# Youngs Moduli (GPa) = 45.42012 41.41051 83.45727
#
# Poissons Ratio (x) = 0.26801 0.23676
# Poissons Ratio (y) = 0.29396 0.56863
# Poissons Ratio (z) = 0.12885 0.28215
#
# Static dielectric constant tensor:
#      x y z
#    x 3.396790 0.000000 -0.056700 
#    y 0.000000 3.400720 0.000000 
#    z -0.056700 0.000000 3.579780 
# 
# 
# High freq. dielectric constant tensor:
#      x y z
#    x 1.725200 0.000000 0.000460 
#    y 0.000000 1.714910 0.000000 
#    z 0.000460 0.000000 1.732600 
# 
# From -- ./inp_files/26536.got.cif
#   From: 2010.03.12/outbox.cif.g09.slc.cpg/sg8_14_cif.got.tgz:26536.got - 2010.03.31 10:45:26.
