data_PCOD8053247
_publ_section_title
;
Structure prediction by ZEFSAII (Michael W. Deem and Ramdas Pophale) SiO2 
 PCOD8053247
Probable space group: C M
;
_chemical_formula_sum "Si O2"
_cell_formula_units_Z 32
_cell_length_a 35.104020
_cell_length_b 8.553650
_cell_length_c 5.067745
_cell_angle_alpha 90.000000
_cell_angle_beta 90.208126
_cell_angle_gamma 90.000000
_cell_volume 1521.669086
_symmetry_space_group_name_H-M "C M"
_symmetry_group_IT_number 8
_symmetry_cell_setting 'monoclinic'
loop_
_space_group_symop_operation_xyz
x,y,z
x,-y,z
1/2+x,1/2+y,z
1/2+x,1/2-y,z
loop_
_atom_site_type_symbol
_atom_site_label
_atom_site_fract_x
_atom_site_fract_y
_atom_site_fract_z
Si Si1 0.854890 0.680972 0.574980
Si Si2 0.025048 0.183915 0.651300
Si Si3 0.893093 0.815948 0.075681
Si Si4 0.644471 0.319577 0.142233
Si Si5 0.725072 0.819993 0.064317
Si Si6 0.107032 0.681388 0.640813
Si Si7 0.274346 0.679960 0.563462
Si Si8 0.978131 0.182895 0.140162
O O1 0.863552 0.500000 0.621716
O O2 0.865327 0.729997 0.278680
O O3 0.810342 0.711372 0.619643
O O4 0.879846 0.781402 0.778877
O O5 0.063278 0.276643 0.591331
O O6 0.994534 0.223350 0.425348
O O7 0.034594 0.000000 0.663307
O O8 0.006659 0.250382 0.919543
O O9 0.935719 0.747479 0.114385
O O10 0.891244 0.000000 0.129921
O O11 0.635378 0.500000 0.094265
O O12 0.688928 0.289734 0.100777
O O13 0.633641 0.274871 0.439488
O O14 0.618830 0.221894 0.938762
O O15 0.757071 0.778065 0.279298
O O16 0.712090 0.000000 0.093587
O O17 0.742089 0.785573 0.778201
O O18 0.113563 0.500000 0.589212
O O19 0.287748 0.500000 0.577171
O O20 0.975155 0.000000 0.086496
#
# Coordination Sequence:
#
# PCOD8053247 Si02
#       8
#     4   4   4   4   4   4   4   4
#     4  12  25  40  60  92 129 161 199 256 313 353
#     4  10  19  36  60  88 119 153 199 252 303 355
#     4  11  22  41  66  90 119 163 212 249 296 369
#     4  12  25  42  65  93 124 162 205 250 303 361
#     4  10  21  38  61  89 120 154 197 250 303 355
#     4  12  25  42  63  91 126 164 205 250 303 361
#     4  10  21  38  61  87 118 160 203 242 295 365
#     4   9  19  35  60  88 115 153 202 251 296 355
#
# _framework density 21.029540000000001
#
# number of rings (size 3 to 8) (size 9 to 14) (size 15 to 20)
#    0.000    1.250    0.000    6.750    0.000    6.000 
#    0.000    3.750    0.000    0.000    0.000    0.000 
#    0.000    0.000    0.000    0.000    0.000    0.000 
#
# Total GULP energy -198526.892796 kJ/mol
# GULP energy per Si atom -12407.930800 kJ/mol
# Density = 2.098168 g / cm^3
# Si number density = 21.029540 Si / 1000 Ang^3
#
#
#
# Elastic Constant Matrix: (Units=GPa)
#
#
# Indices 1 2 3 4 5 6 
#
# 1 94.6244 37.7493 6.0525 0.0000 -3.1572 0.0000
# 2 37.7493 69.7602 15.8429 0.0000 -2.2175 0.0000
# 3 6.0525 15.8429 83.0884 0.0000 -5.5138 0.0000
# 4 0.0000 0.0000 0.0000 24.9524 0.0000 -1.5438
# 5 -3.1572 -2.2175 -5.5138 0.0000 32.7871 0.0000
# 6 0.0000 0.0000 0.0000 -1.5438 0.0000 27.5286
#
#
#
# Elastic Compliance Matrix: (Units=1/GPa)
#
#
# Indices 1 2 3 4 5 6 
#
# 1 0.013517 -0.007397 0.000484 0.000000 0.000883 0.000000
# 2 -0.007397 0.019040 -0.003088 0.000000 0.000056 0.000000
# 3 0.000484 -0.003088 0.012720 0.000000 0.001977 0.000000
# 4 0.000000 0.000000 0.000000 0.040216 0.000000 0.002255
# 5 0.000883 0.000056 0.001977 0.000000 0.030921 0.000000
# 6 0.000000 0.000000 0.000000 0.002255 0.000000 0.036452
#
#
# Mechanical properties :
#
#
# Convention : Reuss Voigt Hill
#
# Bulk Modulus (GPa) = 39.56124 40.75136 40.15630
# Shear Modulus (GPa) = 27.57960 29.57551 28.57755
#
# Velocity S-wave (km/s) = 3.62535 3.75424 3.69036
# Velocity P-wave (km/s) = 6.03136 6.18164 6.10696
#
# Compressibility (1/GPa) = 0.02527727
#
# Stress axis : x y z
#
# Youngs Moduli (GPa) = 73.97902 52.51992 78.61573
#
# Poissons Ratio (x) = 0.38847 -0.03807
# Poissons Ratio (y) = 0.54719 0.24277
# Poissons Ratio (z) = -0.03583 0.16218
#
# Static dielectric constant tensor:
#      x y z
#    x 3.810910 0.000000 -0.038500 
#    y 0.000000 3.622080 0.000000 
#    z -0.038500 0.000000 3.915710 
# 
# 
# High freq. dielectric constant tensor:
#      x y z
#    x 1.835910 0.000000 -0.001020 
#    y 0.000000 1.803500 0.000000 
#    z -0.001020 0.000000 1.840330 
# 
# From -- ./inp_files/6423.got.cif
#   From: 2010.03.12/outbox.cif.g09.slc.cpg/sg8_4_cif.got.tgz:6423.got - 2010.03.31 10:45:26.
