data_PCOD8053441
_publ_section_title
;
Structure prediction by ZEFSAII (Michael W. Deem and Ramdas Pophale) SiO2 
 PCOD8053441
Probable space group: C M
;
_chemical_formula_sum "Si O2"
_cell_formula_units_Z 32
_cell_length_a 14.504053
_cell_length_b 8.936141
_cell_length_c 22.463600
_cell_angle_alpha 90.000000
_cell_angle_beta 142.906379
_cell_angle_gamma 90.000000
_cell_volume 1755.989407
_symmetry_space_group_name_H-M "C M"
_symmetry_group_IT_number 8
_symmetry_cell_setting 'monoclinic'
loop_
_space_group_symop_operation_xyz
x,y,z
x,-y,z
1/2+x,1/2+y,z
1/2+x,1/2-y,z
loop_
_atom_site_type_symbol
_atom_site_label
_atom_site_fract_x
_atom_site_fract_y
_atom_site_fract_z
Si Si1 0.578760 0.177631 0.059480
Si Si2 0.492417 0.168943 0.140954
Si Si3 0.987223 0.328183 0.546001
Si Si4 0.201859 0.665887 0.350922
Si Si5 0.534068 0.176848 0.705405
Si Si6 0.334871 0.678035 0.707077
Si Si7 0.408005 0.325447 0.205688
Si Si8 0.851657 0.678882 0.840992
O O1 0.495703 0.234677 0.076264
O O2 0.752042 0.238229 0.153373
O O3 0.586277 0.000000 0.063864
O O4 0.488610 0.230808 0.954849
O O5 0.661926 0.165982 0.259544
O O6 0.388629 0.282174 0.125687
O O7 0.424684 0.000000 0.107052
O O8 0.958305 0.500000 0.518133
O O9 0.964059 0.293159 0.603993
O O10 0.155441 0.281945 0.609787
O O11 0.864623 0.240590 0.444161
O O12 0.211634 0.500000 0.382418
O O13 0.059650 0.747844 0.311784
O O14 0.423703 0.249642 0.697585
O O15 0.698758 0.255248 0.791964
O O16 0.552727 0.000000 0.726932
O O17 0.361903 0.500000 0.722530
O O18 0.393410 0.749389 0.798921
O O19 0.428361 0.500000 0.224732
O O20 0.836553 0.500000 0.827549
#
# Coordination Sequence:
#
# PCOD8053441 Si02
#       8
#     4   4   4   4   4   4   4   4
#     4   9  18  34  55  77 104 141 179 213 260 314
#     4   8  17  34  50  71 103 137 173 214 255 308
#     4   9  19  36  56  77 106 138 174 218 265 317
#     4   9  18  33  54  76 105 140 173 214 262 310
#     4  10  21  38  57  81 109 141 180 222 269 326
#     4  10  21  38  57  81 110 141 177 223 272 324
#     4   9  17  32  52  73 101 136 175 217 256 302
#     4  10  20  35  57  82 110 144 179 223 271 317
#
# _framework density 18.223345999999999
#
# number of rings (size 3 to 8) (size 9 to 14) (size 15 to 20)
#    0.750    2.000    0.000    2.250    0.000    4.000 
#    2.250    7.500    0.000    0.000    0.000    0.000 
#    0.000    0.000    0.000    0.000    0.000    0.000 
#
# Total GULP energy -198225.327520 kJ/mol
# GULP energy per Si atom -12389.082970 kJ/mol
# Density = 1.818187 g / cm^3
# Si number density = 18.223346 Si / 1000 Ang^3
#
#
#
# Elastic Constant Matrix: (Units=GPa)
#
#
# Indices 1 2 3 4 5 6 
#
# 1 85.2884 24.8616 7.6977 0.0000 -2.9927 0.0000
# 2 24.8616 71.3496 22.7584 0.0000 3.1550 0.0000
# 3 7.6977 22.7584 50.3978 0.0000 4.6805 0.0000
# 4 0.0000 0.0000 0.0000 27.4987 0.0000 -0.3078
# 5 -2.9927 3.1550 4.6805 0.0000 22.3737 0.0000
# 6 0.0000 0.0000 0.0000 -0.3078 0.0000 26.5760
#
#
#
# Elastic Compliance Matrix: (Units=1/GPa)
#
#
# Indices 1 2 3 4 5 6 
#
# 1 0.013181 -0.004657 -0.000138 0.000000 0.002449 0.000000
# 2 -0.004657 0.018033 -0.007279 0.000000 -0.001643 0.000000
# 3 -0.000138 -0.007279 0.023513 0.000000 -0.003911 0.000000
# 4 0.000000 0.000000 0.000000 0.036370 0.000000 0.000421
# 5 0.002449 -0.001643 -0.003911 0.000000 0.046073 0.000000
# 6 0.000000 0.000000 0.000000 0.000421 0.000000 0.037633
#
#
# Mechanical properties :
#
#
# Convention : Reuss Voigt Hill
#
# Bulk Modulus (GPa) = 32.70207 35.29681 33.99944
# Shear Modulus (GPa) = 23.90700 25.40422 24.65561
#
# Velocity S-wave (km/s) = 3.62593 3.73775 3.68226
# Velocity P-wave (km/s) = 5.95936 6.16755 6.06435
#
# Compressibility (1/GPa) = 0.03057911
#
# Stress axis : x y z
#
# Youngs Moduli (GPa) = 75.86766 55.45445 42.52879
#
# Poissons Ratio (x) = 0.25827 0.00585
# Poissons Ratio (y) = 0.35333 0.30958
# Poissons Ratio (z) = 0.01043 0.40367
#
# Static dielectric constant tensor:
#      x y z
#    x 3.339050 0.000000 0.015330 
#    y 0.000000 3.317220 0.000000 
#    z 0.015330 0.000000 3.289920 
# 
# 
# High freq. dielectric constant tensor:
#      x y z
#    x 1.697500 0.000000 0.003410 
#    y 0.000000 1.706420 0.000000 
#    z 0.003410 0.000000 1.697980 
# 
# From -- ./inp_files/28206.got.cif
#   From: 2010.03.12/outbox.cif.g09.slc.cpg/sg8_15_cif.got.tgz:28206.got - 2010.03.31 10:45:26.
