data_PCOD8053561
_publ_section_title
;
Structure prediction by ZEFSAII (Michael W. Deem and Ramdas Pophale) SiO2 
 PCOD8053561
Probable space group: C M
;
_chemical_formula_sum "Si O2"
_cell_formula_units_Z 28
_cell_length_a 8.903648
_cell_length_b 12.389547
_cell_length_c 14.490686
_cell_angle_alpha 90.000000
_cell_angle_beta 63.023083
_cell_angle_gamma 90.000000
_cell_volume 1424.565245
_symmetry_space_group_name_H-M "C M"
_symmetry_group_IT_number 8
_symmetry_cell_setting 'monoclinic'
loop_
_space_group_symop_operation_xyz
x,y,z
x,-y,z
1/2+x,1/2+y,z
1/2+x,1/2-y,z
loop_
_atom_site_type_symbol
_atom_site_label
_atom_site_fract_x
_atom_site_fract_y
_atom_site_fract_z
Si Si1 0.254060 0.733640 0.195100
Si Si2 0.268188 0.624046 0.554310
Si Si3 0.461059 0.125192 0.021435
Si Si4 0.602990 0.379114 0.783976
Si Si5 0.811222 0.183577 0.982755
Si Si6 0.425666 0.375430 0.311374
Si Si7 0.432651 0.750803 0.671228
O O1 0.395993 0.826937 0.137951
O O2 0.291255 0.657894 0.271250
O O3 0.080815 0.795083 0.259752
O O4 0.255343 0.655817 0.103764
O O5 0.273906 0.500000 0.582841
O O6 0.338510 0.642136 0.433075
O O7 0.386750 0.690451 0.589848
O O8 0.075465 0.661829 0.609787
O O9 0.422239 0.000000 0.022224
O O10 0.659824 0.151181 0.956650
O O11 0.359620 0.187506 0.967362
O O12 0.660486 0.500000 0.744700
O O13 0.479617 0.380384 0.907136
O O14 0.497250 0.334342 0.727482
O O15 0.768765 0.309471 0.758510
O O16 0.481153 0.500000 0.281964
#
# Coordination Sequence:
#
# PCOD8053561 Si02
#       7
#     4   4   4   4   4   4   4
#     4  10  20  39  54  83 118 146 190 229 272 335
#     4  10  21  39  60  85 113 147 188 238 290 335
#     4  10  20  37  55  75 114 152 182 228 272 317
#     4  11  22  38  60  85 114 151 190 232 284 339
#     4  10  21  37  56  84 115 148 191 228 274 334
#     4  11  22  37  60  84 114 152 190 232 284 337
#     4  10  22  39  61  84 114 146 189 241 286 337
#
# _framework density 19.65512
#
# number of rings (size 3 to 8) (size 9 to 14) (size 15 to 20)
#    0.857    0.857    1.429    3.429    0.000    1.143 
#    0.000    6.429    0.000    6.000    0.000    0.000 
#    0.000    0.000    0.000    0.000    0.000    0.000 
#
# Total GULP energy -173515.376371 kJ/mol
# GULP energy per Si atom -12393.955455 kJ/mol
# Density = 1.961038 g / cm^3
# Si number density = 19.655120 Si / 1000 Ang^3
#
#
#
# Elastic Constant Matrix: (Units=GPa)
#
#
# Indices 1 2 3 4 5 6 
#
# 1 63.5963 8.6550 17.0911 0.0000 -4.8181 0.0000
# 2 8.6550 77.5371 18.9817 0.0000 5.7119 0.0000
# 3 17.0911 18.9817 78.0822 0.0000 -10.6297 0.0000
# 4 0.0000 0.0000 0.0000 25.9618 0.0000 0.8352
# 5 -4.8181 5.7119 -10.6297 0.0000 25.0316 0.0000
# 6 0.0000 0.0000 0.0000 0.8352 0.0000 22.6710
#
#
#
# Elastic Compliance Matrix: (Units=1/GPa)
#
#
# Indices 1 2 3 4 5 6 
#
# 1 0.016898 -0.001298 -0.003078 0.000000 0.002242 0.000000
# 2 -0.001298 0.014384 -0.003920 0.000000 -0.005197 0.000000
# 3 -0.003078 -0.003920 0.015363 0.000000 0.006826 0.000000
# 4 0.000000 0.000000 0.000000 0.038564 0.000000 -0.001421
# 5 0.002242 -0.005197 0.006826 0.000000 0.044465 0.000000
# 6 0.000000 0.000000 0.000000 -0.001421 0.000000 0.044162
#
#
# Mechanical properties :
#
#
# Convention : Reuss Voigt Hill
#
# Bulk Modulus (GPa) = 33.27442 34.29680 33.78561
# Shear Modulus (GPa) = 24.94437 26.36541 25.65489
#
# Velocity S-wave (km/s) = 3.56631 3.66649 3.61675
# Velocity P-wave (km/s) = 5.82443 5.95074 5.88793
#
# Compressibility (1/GPa) = 0.03005312
#
# Stress axis : x y z
#
# Youngs Moduli (GPa) = 59.17915 69.51948 65.09140
#
# Poissons Ratio (x) = 0.09022 0.20035
# Poissons Ratio (y) = 0.07680 0.25517
# Poissons Ratio (z) = 0.18216 0.27253
#
# Static dielectric constant tensor:
#      x y z
#    x 3.502250 0.000000 -0.087860 
#    y 0.000000 3.473110 0.000000 
#    z -0.087860 0.000000 3.636430 
# 
# 
# High freq. dielectric constant tensor:
#      x y z
#    x 1.768380 0.000000 -0.010740 
#    y 0.000000 1.761110 0.000000 
#    z -0.010740 0.000000 1.766580 
# 
# From -- ./inp_files/25127.got.cif
#   From: 2010.03.12/outbox.cif.g09.slc.cpg/sg8_13_cif.got.tgz:25127.got - 2010.03.31 10:45:26.
