data_PCOD8053673
_publ_section_title
;
Structure prediction by ZEFSAII (Michael W. Deem and Ramdas Pophale) SiO2 
 PCOD8053673
Probable space group: C M
;
_chemical_formula_sum "Si O2"
_cell_formula_units_Z 28
_cell_length_a 31.134473
_cell_length_b 8.130572
_cell_length_c 5.036510
_cell_angle_alpha 90.000000
_cell_angle_beta 118.743880
_cell_angle_gamma 90.000000
_cell_volume 1117.846127
_symmetry_space_group_name_H-M "C M"
_symmetry_group_IT_number 8
_symmetry_cell_setting 'monoclinic'
loop_
_space_group_symop_operation_xyz
x,y,z
x,-y,z
1/2+x,1/2+y,z
1/2+x,1/2-y,z
loop_
_atom_site_type_symbol
_atom_site_label
_atom_site_fract_x
_atom_site_fract_y
_atom_site_fract_z
Si Si1 0.343630 0.000000 0.844220
Si Si2 0.600537 0.195772 0.645972
Si Si3 0.249567 0.318544 0.280371
Si Si4 0.656615 0.190809 0.313570
Si Si5 0.276732 0.000000 0.132160
Si Si6 0.436238 0.807899 0.536361
Si Si7 0.363427 0.321524 0.716230
Si Si8 0.492959 0.310855 0.197193
O O1 0.376489 0.168681 0.958824
O O2 0.320271 0.000000 0.478799
O O3 0.298951 0.000000 0.908583
O O4 0.639146 0.263962 0.541561
O O5 0.547190 0.266604 0.443403
O O6 0.597012 0.000000 0.635466
O O7 0.622126 0.267900 0.982603
O O8 0.234512 0.500000 0.112503
O O9 0.214115 0.277462 0.423950
O O10 0.305029 0.329769 0.540787
O O11 0.244253 0.166935 0.058948
O O12 0.645213 0.000000 0.283866
O O13 0.386752 0.717186 0.497037
O O14 0.455792 0.722025 0.328669
O O15 0.424090 0.000000 0.447682
O O16 0.476844 0.793695 0.891702
O O17 0.383154 0.500000 0.874364
O O18 0.489972 0.500000 0.106161
#
# Coordination Sequence:
#
# PCOD8053673 Si02
#       8
#     2   4   4   4   2   4   4   4
#     4  10  22  40  58  88 126 166 214 262 320 378
#     4  10  20  39  64  91 126 170 217 269 332 399
#     4   9  20  40  64  95 133 176 221 269 326 388
#     4   9  19  36  62  92 125 167 218 267 322 396
#     4  10  22  38  60  86 124 168 214 264 314 378
#     4  12  25  45  71  99 134 181 231 279 343 417
#     4  10  21  41  67  97 134 176 223 273 330 392
#     4  12  26  45  68 101 138 172 224 288 350 411
#
# _framework density 25.048171
#
# number of rings (size 3 to 8) (size 9 to 14) (size 15 to 20)
#    0.000    1.714    0.714    3.429    0.000    6.286 
#    2.571    7.143    0.000    0.000    0.000    0.000 
#    0.000    0.000    0.000    0.000    0.000    0.000 
#
# Total GULP energy -173489.361251 kJ/mol
# GULP energy per Si atom -12392.097232 kJ/mol
# Density = 2.499116 g / cm^3
# Si number density = 25.048171 Si / 1000 Ang^3
#
#
#
# Elastic Constant Matrix: (Units=GPa)
#
#
# Indices 1 2 3 4 5 6 
#
# 1 124.8409 37.4834 -13.9199 0.0000 4.4369 0.0000
# 2 37.4834 190.7534 5.9666 0.0000 -25.6281 0.0000
# 3 -13.9199 5.9666 23.2600 0.0000 -2.3079 0.0000
# 4 0.0000 0.0000 0.0000 17.9175 0.0000 -9.3077
# 5 4.4369 -25.6281 -2.3079 0.0000 47.4446 0.0000
# 6 0.0000 0.0000 0.0000 -9.3077 0.0000 30.8301
#
#
#
# Elastic Compliance Matrix: (Units=1/GPa)
#
#
# Indices 1 2 3 4 5 6 
#
# 1 0.009437 -0.002289 0.006054 0.000000 -0.001824 0.000000
# 2 -0.002289 0.006239 -0.002627 0.000000 0.003456 0.000000
# 3 0.006054 -0.002627 0.047320 0.000000 0.000317 0.000000
# 4 0.000000 0.000000 0.000000 0.066192 0.000000 0.019984
# 5 -0.001824 0.003456 0.000317 0.000000 0.023130 0.000000
# 6 0.000000 0.000000 0.000000 0.019984 0.000000 0.038469
#
#
# Mechanical properties :
#
#
# Convention : Reuss Voigt Hill
#
# Bulk Modulus (GPa) = 15.32056 44.21272 29.76664
# Shear Modulus (GPa) = 23.77898 39.86006 31.81952
#
# Velocity S-wave (km/s) = 3.08446 3.99348 3.56804
# Velocity P-wave (km/s) = 4.33762 6.24126 5.37439
#
# Compressibility (1/GPa) = 0.06527178
#
# Stress axis : x y z
#
# Youngs Moduli (GPa) = 105.96262 160.29057 21.13254
#
# Poissons Ratio (x) = 0.36689 -0.12793
# Poissons Ratio (y) = 0.24254 0.05552
# Poissons Ratio (z) = -0.64148 0.42111
#
# Static dielectric constant tensor:
#      x y z
#    x 4.786010 0.000000 -0.132100 
#    y 0.000000 5.711160 0.000000 
#    z -0.132100 0.000000 4.503080 
# 
# 
# High freq. dielectric constant tensor:
#      x y z
#    x 2.015220 0.000000 0.001180 
#    y 0.000000 2.001820 0.000000 
#    z 0.001180 0.000000 1.986040 
# 
# From -- ./inp_files/6358.got.cif
#   From: 2010.03.12/outbox.cif.g09.slc.cpg/sg8_4_cif.got.tgz:6358.got - 2010.03.31 10:45:26.
