data_PCOD8053082
_publ_section_title
;
Structure prediction by ZEFSAII (Michael W. Deem and Ramdas Pophale) SiO2 
 PCOD8053082
Probable space group: C M
;
_chemical_formula_sum "Si O2"
_cell_formula_units_Z 32
_cell_length_a 20.011265
_cell_length_b 8.712150
_cell_length_c 24.815386
_cell_angle_alpha 90.000000
_cell_angle_beta 156.749989
_cell_angle_gamma 90.000000
_cell_volume 1707.797982
_symmetry_space_group_name_H-M "C M"
_symmetry_group_IT_number 8
_symmetry_cell_setting 'monoclinic'
loop_
_space_group_symop_operation_xyz
x,y,z
x,-y,z
1/2+x,1/2+y,z
1/2+x,1/2-y,z
loop_
_atom_site_type_symbol
_atom_site_label
_atom_site_fract_x
_atom_site_fract_y
_atom_site_fract_z
Si Si1 0.424350 0.679951 0.292590
Si Si2 0.356256 0.178828 0.017322
Si Si3 0.501555 0.179176 0.733748
Si Si4 0.695241 0.179504 0.217291
Si Si5 0.707612 0.180391 0.576299
Si Si6 0.503516 0.177719 0.242943
Si Si7 0.505793 0.682262 0.518042
Si Si8 0.369928 0.180567 0.519132
O O1 0.464827 0.500000 0.324338
O O2 0.251654 0.717301 0.197682
O O3 0.584447 0.763252 0.437554
O O4 0.401698 0.735808 0.214845
O O5 0.510413 0.245115 0.094612
O O6 0.399531 0.205800 0.111701
O O7 0.320056 0.000000 0.978746
O O8 0.197386 0.280200 0.883733
O O9 0.398237 0.274085 0.701860
O O10 0.437055 0.228220 0.627197
O O11 0.474065 0.000000 0.723675
O O12 0.837997 0.244743 0.363227
O O13 0.686928 0.000000 0.222061
O O14 0.666556 0.260733 0.602878
O O15 0.691417 0.000000 0.571335
O O16 0.691608 0.240492 0.375244
O O17 0.515466 0.000000 0.266572
O O18 0.511782 0.500000 0.527252
O O19 0.507697 0.757412 0.578471
O O20 0.347745 0.000000 0.496980
#
# Coordination Sequence:
#
# PCOD8053082 Si02
#       8
#     4   4   4   4   4   4   4   4
#     4  10  19  33  56  85 116 149 188 240 288 339
#     4  10  21  39  59  82 112 153 197 237 286 348
#     4  11  24  40  57  83 118 157 196 239 289 344
#     4   8  16  33  55  80 111 146 183 227 282 337
#     4  11  21  35  57  85 116 152 193 238 289 345
#     4  11  21  35  58  86 115 149 193 242 290 343
#     4  10  19  35  59  86 117 148 186 240 291 344
#     4  11  22  36  57  85 117 150 194 245 287 340
#
# _framework density 18.737579
#
# number of rings (size 3 to 8) (size 9 to 14) (size 15 to 20)
#    0.000    1.750    2.500    3.750    0.000    2.500 
#    0.000    2.500    0.000    6.000    0.000    0.000 
#    0.000    0.000    0.000    0.000    0.000    0.000 
#
# Total GULP energy -198428.067112 kJ/mol
# GULP energy per Si atom -12401.754194 kJ/mol
# Density = 1.869493 g / cm^3
# Si number density = 18.737579 Si / 1000 Ang^3
#
#
#
# Elastic Constant Matrix: (Units=GPa)
#
#
# Indices 1 2 3 4 5 6 
#
# 1 106.4964 -6.3751 29.6172 -0.0340 18.3383 0.0030
# 2 -6.3751 -7.3598 26.1889 -0.0300 -4.9683 -0.0028
# 3 29.6172 26.1889 67.8794 -0.0355 14.7511 0.0083
# 4 -0.0340 -0.0300 -0.0355 26.5485 0.0008 1.9373
# 5 18.3383 -4.9683 14.7511 0.0008 26.5558 0.0021
# 6 0.0030 -0.0028 0.0083 1.9373 0.0021 34.7385
#
#
#
# Elastic Compliance Matrix: (Units=1/GPa)
#
#
# Indices 1 2 3 4 5 6 
#
# 1 0.010598 -0.005870 -0.000603 0.000006 -0.008082 -0.000001
# 2 -0.005870 -0.041531 0.022055 -0.000024 -0.015967 -0.000006
# 3 -0.000603 0.022055 0.006254 0.000033 0.001069 -0.000002
# 4 0.000006 -0.000024 0.000033 0.037821 -0.000028 -0.002109
# 5 -0.008082 -0.015967 0.001069 -0.000028 0.039656 -0.000002
# 6 -0.000001 -0.000006 -0.000002 -0.002109 -0.000002 0.028904
#
#
# Mechanical properties :
#
#
# Convention : Reuss Voigt Hill
#
# Bulk Modulus (GPa) = 154.24501 29.54199 91.89350
# Shear Modulus (GPa) = 94.87611 25.40758 60.14185
#
# Velocity S-wave (km/s) = 7.12349 3.68634 5.67156
# Velocity P-wave (km/s) = 12.25382 5.82402 9.59362
#
# Compressibility (1/GPa) = 0.00648319
#
# Stress axis : x y z
#
# Youngs Moduli (GPa) = 94.35788 -24.07818 159.89928
#
# Poissons Ratio (x) = -0.14134 0.09643
# Poissons Ratio (y) = 0.55389 -3.52650
# Poissons Ratio (z) = 0.05690 0.53103
#
# Static dielectric constant tensor:
#      x y z
#    x 3.769130 -0.000010 0.162500 
#    y -0.000010 3.370100 -0.000010 
#    z 0.162500 -0.000010 3.202280 
# 
# 
# High freq. dielectric constant tensor:
#      x y z
#    x 1.746120 0.000000 0.014460 
#    y 0.000000 1.727970 0.000000 
#    z 0.014460 0.000000 1.695550 
# 
# From -- ./inp_files/33048.got.cif
#   From: 2010.03.12/outbox.cif.g09.slc.cpg/sg8_17_cif.got.tgz:33048.got - 2010.03.31 10:45:26.
