data_PCOD8053560
_publ_section_title
;
Structure prediction by ZEFSAII (Michael W. Deem and Ramdas Pophale) SiO2 
 PCOD8053560
Probable space group: C M
;
_chemical_formula_sum "Si O2"
_cell_formula_units_Z 32
_cell_length_a 14.732947
_cell_length_b 17.565530
_cell_length_c 12.297088
_cell_angle_alpha 90.000000
_cell_angle_beta 28.006191
_cell_angle_gamma 90.000000
_cell_volume 1494.344405
_symmetry_space_group_name_H-M "C M"
_symmetry_group_IT_number 8
_symmetry_cell_setting 'monoclinic'
loop_
_space_group_symop_operation_xyz
x,y,z
x,-y,z
1/2+x,1/2+y,z
1/2+x,1/2-y,z
loop_
_atom_site_type_symbol
_atom_site_label
_atom_site_fract_x
_atom_site_fract_y
_atom_site_fract_z
Si Si1 0.216760 0.912686 0.378830
Si Si2 0.476558 0.690940 0.028689
Si Si3 0.546359 0.790162 0.557790
Si Si4 0.253072 0.912814 0.880651
Si Si5 0.064096 0.913295 0.308193
Si Si6 0.293011 0.311106 0.680105
Si Si7 0.921261 0.161865 0.843872
Si Si8 0.621575 0.909763 0.033657
O O1 0.168834 0.882072 0.308129
O O2 0.412286 0.876717 0.222023
O O3 0.051673 0.899235 0.642047
O O4 0.262081 0.000000 0.316667
O O5 0.276950 0.710841 0.300658
O O6 0.595879 0.633869 0.978416
O O7 0.590169 0.768788 0.879816
O O8 0.444485 0.651008 0.947352
O O9 0.466264 0.876438 0.643940
O O10 0.449726 0.748537 0.558099
O O11 0.479750 0.746039 0.738457
O O12 0.258143 0.000000 0.834359
O O13 0.207245 0.907681 0.056361
O O14 0.884236 0.853948 0.477729
O O15 0.989681 0.000000 0.400249
O O16 0.271460 0.384534 0.781616
O O17 0.696869 0.138061 0.059090
O O18 0.628364 0.000000 0.047075
#
# Coordination Sequence:
#
# PCOD8053560 Si02
#       8
#     4   4   4   4   4   4   4   4
#     4  10  20  37  63  98 131 163 208 270 336 385
#     4  11  26  43  64  96 129 177 219 267 327 395
#     4  10  23  42  63  90 127 172 214 273 326 383
#     4  10  25  46  65  94 131 179 228 265 320 397
#     4  10  20  40  68  97 138 174 215 279 330 385
#     4  10  21  37  62  94 128 163 212 267 322 390
#     4  11  23  39  63  95 130 165 212 267 327 391
#     4  10  20  36  62  96 128 161 204 260 328 386
#
# _framework density 21.414072999999998
#
# number of rings (size 3 to 8) (size 9 to 14) (size 15 to 20)
#    0.000    1.750    2.500    1.500    3.500    3.500 
#    0.000    1.250    0.000    0.000    0.000    0.000 
#    0.000    0.000    0.000    0.000    0.000    0.000 
#
# Total GULP energy -198249.095947 kJ/mol
# GULP energy per Si atom -12390.568497 kJ/mol
# Density = 2.136533 g / cm^3
# Si number density = 21.414073 Si / 1000 Ang^3
#
#
#
# Elastic Constant Matrix: (Units=GPa)
#
#
# Indices 1 2 3 4 5 6 
#
# 1 107.9793 36.3353 45.2551 -0.0433 -3.6954 0.0451
# 2 36.3353 103.0684 60.8532 -0.0375 -13.5785 0.0423
# 3 45.2551 60.8532 91.2535 -0.0575 -21.8116 0.0430
# 4 -0.0433 -0.0375 -0.0575 37.0955 0.0457 -5.6544
# 5 -3.6954 -13.5785 -21.8116 0.0457 36.3542 -0.0551
# 6 0.0451 0.0423 0.0430 -5.6544 -0.0551 21.7558
#
#
#
# Elastic Compliance Matrix: (Units=1/GPa)
#
#
# Indices 1 2 3 4 5 6 
#
# 1 0.011999 -0.001140 -0.005837 0.000005 -0.002709 -0.000017
# 2 -0.001140 0.016119 -0.010241 -0.000002 -0.000240 -0.000010
# 3 -0.005837 -0.010241 0.022912 0.000009 0.009328 0.000013
# 4 0.000005 -0.000002 0.000009 0.028070 -0.000019 0.007295
# 5 -0.002709 -0.000240 0.009328 -0.000019 0.032739 0.000066
# 6 -0.000017 -0.000010 0.000013 0.007295 0.000066 0.047861
#
#
# Mechanical properties :
#
#
# Convention : Reuss Voigt Hill
#
# Bulk Modulus (GPa) = 60.26712 65.24314 62.75513
# Shear Modulus (GPa) = 25.04154 29.69827 27.36991
#
# Velocity S-wave (km/s) = 3.42335 3.72809 3.57897
# Velocity P-wave (km/s) = 6.62047 7.00465 6.81527
#
# Compressibility (1/GPa) = 0.01659279
#
# Stress axis : x y z
#
# Youngs Moduli (GPa) = 83.34335 62.03801 43.64448
#
# Poissons Ratio (x) = 0.07074 0.25477
# Poissons Ratio (y) = 0.09503 0.44696
# Poissons Ratio (z) = 0.48651 0.63533
#
# Static dielectric constant tensor:
#      x y z
#    x 3.956030 -0.000030 -0.275050 
#    y -0.000030 3.946440 0.000040 
#    z -0.275050 0.000040 3.831990 
# 
# 
# High freq. dielectric constant tensor:
#      x y z
#    x 1.830840 0.000000 -0.014730 
#    y 0.000000 1.845510 0.000010 
#    z -0.014730 0.000010 1.834030 
# 
# From -- ./inp_files/22385.got.cif
#   From: 2010.03.12/outbox.cif.g09.slc.cpg/sg8_12_cif.got.tgz:22385.got - 2010.03.31 10:45:26.
