data_PCOD8053093
_publ_section_title
;
Structure prediction by ZEFSAII (Michael W. Deem and Ramdas Pophale) SiO2 
 PCOD8053093
Probable space group: C M
;
_chemical_formula_sum "Si O2"
_cell_formula_units_Z 32
_cell_length_a 28.338084
_cell_length_b 9.285770
_cell_length_c 14.317748
_cell_angle_alpha 90.000000
_cell_angle_beta 29.308505
_cell_angle_gamma 90.000000
_cell_volume 1844.277937
_symmetry_space_group_name_H-M "C M"
_symmetry_group_IT_number 8
_symmetry_cell_setting 'monoclinic'
loop_
_space_group_symop_operation_xyz
x,y,z
x,-y,z
1/2+x,1/2+y,z
1/2+x,1/2-y,z
loop_
_atom_site_type_symbol
_atom_site_label
_atom_site_fract_x
_atom_site_fract_y
_atom_site_fract_z
Si Si1 0.604250 0.658788 0.006650
Si Si2 0.144021 0.331094 0.771003
Si Si3 0.989125 0.831066 0.573097
Si Si4 0.387314 0.831201 0.907272
Si Si5 0.965969 0.832462 0.402326
Si Si6 0.581639 0.833381 0.673278
Si Si7 0.298549 0.161502 0.595333
Si Si8 0.183285 0.168580 0.341241
O O1 0.565188 0.500000 0.044935
O O2 0.565182 0.699546 0.176146
O O3 0.575201 0.771335 0.973990
O O4 0.720562 0.655123 0.814388
O O5 0.160726 0.500000 0.755354
O O6 0.093116 0.293402 0.761664
O O7 0.247876 0.248995 0.597089
O O8 0.909652 0.749901 0.772150
O O9 0.977172 0.775384 0.487956
O O10 0.098117 0.793311 0.415610
O O11 0.969536 0.000000 0.615966
O O12 0.472147 0.793530 0.834172
O O13 0.382406 0.000000 0.893855
O O14 0.285293 0.775965 0.124237
O O15 0.889183 0.744963 0.476408
O O16 0.937766 0.000000 0.451390
O O17 0.660623 0.746024 0.477953
O O18 0.602773 0.000000 0.617901
O O19 0.326974 0.000000 0.513308
O O20 0.188883 0.000000 0.352321
#
# Coordination Sequence:
#
# PCOD8053093 Si02
#       8
#     4   4   4   4   4   4   4   4
#     4   8  18  34  50  71 101 134 169 209 247 295
#     4   9  17  33  53  72 103 139 167 208 258 297
#     4   9  19  33  51  75 102 133 167 205 249 299
#     4   9  18  34  53  75 102 132 166 206 249 296
#     4  10  19  34  53  73 103 138 170 209 256 299
#     4   9  18  33  52  74 103 133 165 206 252 297
#     4   9  19  34  51  73  99 130 172 213 250 298
#     4   9  18  33  53  75 101 133 168 204 247 299
#
# _framework density 17.350964000000001
#
# number of rings (size 3 to 8) (size 9 to 14) (size 15 to 20)
#    0.750    2.250    0.000    0.375    0.000    3.500 
#    2.250    2.500    0.000    0.000    0.000    0.000 
#    0.000    0.000    0.000    0.000    0.000    0.000 
#
# Total GULP energy -198268.737119 kJ/mol
# GULP energy per Si atom -12391.796070 kJ/mol
# Density = 1.731147 g / cm^3
# Si number density = 17.350964 Si / 1000 Ang^3
#
#
#
# Elastic Constant Matrix: (Units=GPa)
#
#
# Indices 1 2 3 4 5 6 
#
# 1 40.2492 15.7050 -0.7205 0.0000 5.4839 0.0000
# 2 15.7050 46.9284 16.8491 0.0000 3.3043 0.0000
# 3 -0.7205 16.8491 79.4581 0.0000 -0.5591 0.0000
# 4 0.0000 0.0000 0.0000 27.4175 0.0000 3.3040
# 5 5.4839 3.3043 -0.5591 0.0000 24.3739 0.0000
# 6 0.0000 0.0000 0.0000 3.3040 0.0000 22.6286
#
#
#
# Elastic Compliance Matrix: (Units=1/GPa)
#
#
# Indices 1 2 3 4 5 6 
#
# 1 0.029673 -0.010442 0.002447 0.000000 -0.005204 0.000000
# 2 -0.010442 0.026998 -0.005830 0.000000 -0.001445 0.000000
# 3 0.002447 -0.005830 0.013848 0.000000 0.000558 0.000000
# 4 0.000000 0.000000 0.000000 0.037126 0.000000 -0.005421
# 5 -0.005204 -0.001445 0.000558 0.000000 0.042407 0.000000
# 6 0.000000 0.000000 0.000000 -0.005421 0.000000 0.044983
#
#
# Mechanical properties :
#
#
# Convention : Reuss Voigt Hill
#
# Bulk Modulus (GPa) = 23.32748 25.58921 24.45835
# Shear Modulus (GPa) = 21.09926 23.87083 22.48504
#
# Velocity S-wave (km/s) = 3.49094 3.71315 3.60376
# Velocity P-wave (km/s) = 5.45184 5.75876 5.60740
#
# Compressibility (1/GPa) = 0.04286789
#
# Stress axis : x y z
#
# Youngs Moduli (GPa) = 33.70121 37.03913 72.21478
#
# Poissons Ratio (x) = 0.38677 -0.17669
# Poissons Ratio (y) = 0.35191 0.42100
# Poissons Ratio (z) = -0.08246 0.21593
#
# Static dielectric constant tensor:
#      x y z
#    x 3.127470 0.000000 0.049320 
#    y 0.000000 3.241860 0.000000 
#    z 0.049320 0.000000 3.243810 
# 
# 
# High freq. dielectric constant tensor:
#      x y z
#    x 1.657490 0.000000 0.001810 
#    y 0.000000 1.671350 0.000000 
#    z 0.001810 0.000000 1.662130 
# 
# From -- ./inp_files/28373.got.cif
#   From: 2010.03.12/outbox.cif.g09.slc.cpg/sg8_15_cif.got.tgz:28373.got - 2010.03.31 10:45:26.
