data_PCOD8053535
_publ_section_title
;
Structure prediction by ZEFSAII (Michael W. Deem and Ramdas Pophale) SiO2 
 PCOD8053535
Probable space group: C M
;
_chemical_formula_sum "Si O2"
_cell_formula_units_Z 32
_cell_length_a 23.852064
_cell_length_b 9.090128
_cell_length_c 19.583174
_cell_angle_alpha 90.000000
_cell_angle_beta 23.021980
_cell_angle_gamma 90.000000
_cell_volume 1660.540024
_symmetry_space_group_name_H-M "C M"
_symmetry_group_IT_number 8
_symmetry_cell_setting 'monoclinic'
loop_
_space_group_symop_operation_xyz
x,y,z
x,-y,z
1/2+x,1/2+y,z
1/2+x,1/2-y,z
loop_
_atom_site_type_symbol
_atom_site_label
_atom_site_fract_x
_atom_site_fract_y
_atom_site_fract_z
Si Si1 0.596540 0.330326 0.590810
Si Si2 0.588701 0.668721 0.098893
Si Si3 0.610159 0.670472 0.923304
Si Si4 0.816341 0.675156 0.953299
Si Si5 0.865499 0.675236 0.547593
Si Si6 0.788355 0.173531 0.262583
Si Si7 0.330411 0.166460 0.435380
Si Si8 0.683492 0.172344 0.227901
O O1 0.562801 0.500000 0.610345
O O2 0.454197 0.237339 0.760554
O O3 0.689311 0.260894 0.426246
O O4 0.674934 0.320859 0.576158
O O5 0.553794 0.500000 0.149853
O O6 0.660163 0.695555 0.945191
O O7 0.438028 0.749933 0.265351
O O8 0.686725 0.727718 0.050078
O O9 0.601226 0.500000 0.914282
O O10 0.451583 0.734791 0.085473
O O11 0.736726 0.744749 0.737047
O O12 0.829457 0.500000 0.943773
O O13 0.790873 0.743028 0.056510
O O14 0.860327 0.500000 0.557830
O O15 0.834279 0.735337 0.506665
O O16 0.020643 0.730175 0.399876
O O17 0.731335 0.207696 0.250865
O O18 0.779926 0.000000 0.289077
O O19 0.383915 0.000000 0.380151
O O20 0.695803 0.000000 0.197582
#
# Coordination Sequence:
#
# PCOD8053535 Si02
#       8
#     4   4   4   4   4   4   4   4
#     4  11  24  39  59  86 119 156 197 242 291 347
#     4  10  20  36  60  85 112 147 191 240 288 344
#     4   9  18  33  56  84 112 144 186 236 283 334
#     4  11  24  39  59  86 119 156 197 242 291 347
#     4   9  18  33  56  84 112 144 186 236 283 334
#     4  10  21  37  60  86 116 154 195 237 287 348
#     4  10  20  36  60  85 112 147 191 240 288 344
#     4  10  21  37  60  86 116 154 195 237 287 348
#
# _framework density 19.270838999999999
#
# number of rings (size 3 to 8) (size 9 to 14) (size 15 to 20)
#    0.000    2.000    2.500    0.750    3.500    1.500 
#    0.000    0.000    0.000    1.500    0.000    0.000 
#    0.000    0.000    0.000    0.000    0.000    0.000 
#
# Total GULP energy -198381.247199 kJ/mol
# GULP energy per Si atom -12398.827950 kJ/mol
# Density = 1.922698 g / cm^3
# Si number density = 19.270839 Si / 1000 Ang^3
#
#
#
# Elastic Constant Matrix: (Units=GPa)
#
#
# Indices 1 2 3 4 5 6 
#
# 1 104.3254 33.7558 32.1246 -0.0026 6.0873 0.0008
# 2 33.7558 49.6676 38.7734 -0.0059 3.5505 0.0019
# 3 32.1246 38.7734 129.3219 -0.0054 10.7405 0.0023
# 4 -0.0026 -0.0059 -0.0054 30.3456 0.0009 3.4419
# 5 6.0873 3.5505 10.7405 0.0009 24.9432 0.0000
# 6 0.0008 0.0019 0.0023 3.4419 0.0000 19.7601
#
#
#
# Elastic Compliance Matrix: (Units=1/GPa)
#
#
# Indices 1 2 3 4 5 6 
#
# 1 0.012404 -0.007851 -0.000590 -0.000001 -0.001656 0.000000
# 2 -0.007851 0.031259 -0.007479 0.000004 0.000687 -0.000003
# 3 -0.000590 -0.007479 0.010393 0.000000 -0.003267 -0.000001
# 4 -0.000001 0.000004 0.000000 0.033618 -0.000002 -0.005856
# 5 -0.001656 0.000687 -0.003267 -0.000002 0.041804 0.000001
# 6 0.000000 -0.000003 -0.000001 -0.005856 0.000001 0.051627
#
#
# Mechanical properties :
#
#
# Convention : Reuss Voigt Hill
#
# Bulk Modulus (GPa) = 45.01272 54.73584 49.87428
# Shear Modulus (GPa) = 22.69113 26.92051 24.80582
#
# Velocity S-wave (km/s) = 3.43517 3.74164 3.59168
# Velocity P-wave (km/s) = 6.25640 6.86525 6.56788
#
# Compressibility (1/GPa) = 0.02221594
#
# Stress axis : x y z
#
# Youngs Moduli (GPa) = 80.61883 31.99045 96.22083
#
# Poissons Ratio (x) = 0.25117 0.05674
# Poissons Ratio (y) = 0.63298 0.71962
# Poissons Ratio (z) = 0.04754 0.23925
#
# Static dielectric constant tensor:
#      x y z
#    x 3.683090 0.000000 -0.041440 
#    y 0.000000 3.233680 0.000000 
#    z -0.041440 0.000000 3.609920 
# 
# 
# High freq. dielectric constant tensor:
#      x y z
#    x 1.763700 0.000000 0.001770 
#    y 0.000000 1.717230 0.000000 
#    z 0.001770 0.000000 1.757510 
# 
# From -- ./inp_files/31648.got.cif
#   From: 2010.03.12/outbox.cif.g09.slc.cpg/sg8_16_cif.got.tgz:31648.got - 2010.03.31 10:45:26.
