data_PCOD8053466
_publ_section_title
;
Structure prediction by ZEFSAII (Michael W. Deem and Ramdas Pophale) SiO2 
 PCOD8053466
Probable space group: C M
;
_chemical_formula_sum "Si O2"
_cell_formula_units_Z 32
_cell_length_a 15.352295
_cell_length_b 8.845351
_cell_length_c 22.642767
_cell_angle_alpha 90.000000
_cell_angle_beta 31.871635
_cell_angle_gamma 90.000000
_cell_volume 1623.553423
_symmetry_space_group_name_H-M "C M"
_symmetry_group_IT_number 8
_symmetry_cell_setting 'monoclinic'
loop_
_space_group_symop_operation_xyz
x,y,z
x,-y,z
1/2+x,1/2+y,z
1/2+x,1/2-y,z
loop_
_atom_site_type_symbol
_atom_site_label
_atom_site_fract_x
_atom_site_fract_y
_atom_site_fract_z
Si Si1 0.117850 0.820590 0.334940
Si Si2 0.458466 0.820859 0.191152
Si Si3 0.462378 0.322567 0.737433
Si Si4 0.292773 0.677784 0.588112
Si Si5 0.176085 0.825393 0.970017
Si Si6 0.249688 0.324314 0.748102
Si Si7 0.126166 0.821487 0.196956
Si Si8 0.462832 0.673917 0.977668
O O1 0.284999 0.755982 0.267461
O O2 0.107861 0.759996 0.273956
O O3 0.961604 0.762403 0.461843
O O4 0.124744 0.000000 0.331338
O O5 0.479912 0.757229 0.244682
O O6 0.460985 0.000000 0.189961
O O7 0.610186 0.762152 0.064681
O O8 0.456659 0.500000 0.752180
O O9 0.647095 0.262922 0.637971
O O10 0.352168 0.242182 0.850636
O O11 0.395860 0.282316 0.709944
O O12 0.267725 0.500000 0.592778
O O13 0.305436 0.718039 0.650049
O O14 0.046381 0.800556 0.992613
O O15 0.200450 0.000000 0.972074
O O16 0.204022 0.500000 0.780399
O O17 0.086373 0.228129 0.855480
O O18 0.107133 0.000000 0.204371
O O19 0.300478 0.774802 0.068673
O O20 0.416204 0.500000 0.993497
#
# Coordination Sequence:
#
# PCOD8053466 Si02
#       8
#     4   4   4   4   4   4   4   4
#     4   9  21  41  62  83 116 158 199 243 294 352
#     4  11  22  38  60  88 117 154 198 245 296 353
#     4  10  21  37  57  87 120 154 193 242 296 348
#     4  10  21  40  63  85 113 157 204 242 288 351
#     4  10  20  36  59  87 120 157 194 242 298 353
#     4   9  20  37  58  83 116 155 193 236 292 352
#     4  11  22  38  59  86 118 156 198 241 298 355
#     4  10  20  35  58  87 120 153 193 243 294 348
#
# _framework density 19.709852000000001
#
# number of rings (size 3 to 8) (size 9 to 14) (size 15 to 20)
#    0.000    2.000    1.250    1.875    1.750    3.000 
#    0.000    3.750    0.000    0.000    0.000    0.000 
#    0.000    0.000    0.000    0.000    0.000    0.000 
#
# Total GULP energy -198464.459834 kJ/mol
# GULP energy per Si atom -12404.028740 kJ/mol
# Density = 1.966499 g / cm^3
# Si number density = 19.709852 Si / 1000 Ang^3
#
#
#
# Elastic Constant Matrix: (Units=GPa)
#
#
# Indices 1 2 3 4 5 6 
#
# 1 136.0561 41.5358 76.0266 0.0007 3.9027 -0.0008
# 2 41.5358 73.4693 36.6791 0.0007 1.4724 -0.0009
# 3 76.0266 36.6791 132.6265 0.0005 3.8853 0.0000
# 4 0.0007 0.0007 0.0005 23.4874 -0.0004 -4.4450
# 5 3.9027 1.4724 3.8853 -0.0004 24.1193 0.0005
# 6 -0.0008 -0.0009 0.0000 -4.4450 0.0005 32.3269
#
#
#
# Elastic Compliance Matrix: (Units=1/GPa)
#
#
# Indices 1 2 3 4 5 6 
#
# 1 0.011664 -0.003773 -0.005621 0.000000 -0.000752 0.000000
# 2 -0.003773 0.017014 -0.002542 0.000000 -0.000019 0.000000
# 3 -0.005621 -0.002542 0.011488 0.000000 -0.000786 0.000000
# 4 0.000000 0.000000 0.000000 0.043714 0.000001 0.006011
# 5 -0.000752 -0.000019 -0.000786 0.000001 0.041710 -0.000001
# 6 0.000000 0.000000 0.000000 0.006011 -0.000001 0.031760
#
#
# Mechanical properties :
#
#
# Convention : Reuss Voigt Hill
#
# Bulk Modulus (GPa) = 61.37129 72.29277 66.83203
# Shear Modulus (GPa) = 26.78768 28.51408 27.65088
#
# Velocity S-wave (km/s) = 3.69060 3.80767 3.74959
# Velocity P-wave (km/s) = 7.02607 7.48927 7.26137
#
# Compressibility (1/GPa) = 0.01629426
#
# Stress axis : x y z
#
# Youngs Moduli (GPa) = 85.73226 58.77644 87.04681
#
# Poissons Ratio (x) = 0.22177 0.48928
# Poissons Ratio (y) = 0.32348 0.22126
# Poissons Ratio (z) = 0.48189 0.14940
#
# Static dielectric constant tensor:
#      x y z
#    x 3.799880 0.000000 -0.010550 
#    y 0.000000 3.464910 0.000000 
#    z -0.010550 0.000000 3.581590 
# 
# 
# High freq. dielectric constant tensor:
#      x y z
#    x 1.780090 0.000000 -0.001350 
#    y 0.000000 1.759880 0.000000 
#    z -0.001350 0.000000 1.761800 
# 
# From -- ./inp_files/28184.got.cif
#   From: 2010.03.12/outbox.cif.g09.slc.cpg/sg8_15_cif.got.tgz:28184.got - 2010.03.31 10:45:26.
