data_PCOD8053947
_publ_section_title
;
Structure prediction by ZEFSAII (Michael W. Deem and Ramdas Pophale) SiO2 
 PCOD8053947
Probable space group: C M
;
_chemical_formula_sum "Si O2"
_cell_formula_units_Z 32
_cell_length_a 9.147233
_cell_length_b 22.234254
_cell_length_c 14.571982
_cell_angle_alpha 90.000000
_cell_angle_beta 149.073797
_cell_angle_gamma 90.000000
_cell_volume 1523.133450
_symmetry_space_group_name_H-M "C M"
_symmetry_group_IT_number 8
_symmetry_cell_setting 'monoclinic'
loop_
_space_group_symop_operation_xyz
x,y,z
x,-y,z
1/2+x,1/2+y,z
1/2+x,1/2-y,z
loop_
_atom_site_type_symbol
_atom_site_label
_atom_site_fract_x
_atom_site_fract_y
_atom_site_fract_z
Si Si1 0.305000 0.929317 0.137370
Si Si2 0.743359 0.358607 0.926069
Si Si3 0.805581 0.778789 0.951430
Si Si4 0.155609 0.668580 0.677352
Si Si5 0.355936 0.865005 0.788315
Si Si6 0.836806 0.727220 0.345760
Si Si7 0.720809 0.827824 0.411299
Si Si8 0.646389 0.066745 0.797180
O O1 0.514849 0.886168 0.307241
O O2 0.387078 0.000000 0.191234
O O3 0.343951 0.907184 0.054255
O O4 0.979323 0.918171 0.994111
O O5 0.842945 0.290635 0.994892
O O6 0.399992 0.354779 0.740018
O O7 0.891221 0.381755 0.913247
O O8 0.791576 0.790369 0.833603
O O9 0.524866 0.805424 0.847625
O O10 0.084362 0.806404 0.152847
O O11 0.015040 0.610400 0.649576
O O12 0.909968 0.699048 0.485142
O O13 0.471738 0.922910 0.796353
O O14 0.028077 0.852073 0.599083
O O15 0.742762 0.795486 0.322882
O O16 0.113617 0.721661 0.429113
O O17 0.603801 0.000000 0.738022
#
# Coordination Sequence:
#
# PCOD8053947 Si02
#       8
#     4   4   4   4   4   4   4   4
#     4  10  23  46  70  92 129 180 229 274 329 397
#     4  11  19  39  61  95 130 169 217 270 332 392
#     4  11  23  40  63  95 139 177 211 267 338 402
#     4  10  22  40  63  94 134 174 218 271 331 400
#     4  11  24  37  65  97 134 172 217 280 333 393
#     4  12  25  40  64  99 139 174 221 266 336 403
#     4  12  25  42  63 102 137 177 217 277 332 403
#     4   9  21  44  69  90 126 181 228 271 333 396
#
# _framework density 21.009322999999998
#
# number of rings (size 3 to 8) (size 9 to 14) (size 15 to 20)
#    0.000    1.250    2.500    4.500    5.250    1.000 
#    0.000    0.625    0.000    3.000    0.000    0.000 
#    0.000    0.000    0.000    0.000    0.000    0.000 
#
# Total GULP energy -198234.124240 kJ/mol
# GULP energy per Si atom -12389.632765 kJ/mol
# Density = 2.096150 g / cm^3
# Si number density = 21.009323 Si / 1000 Ang^3
#
#
#
# Elastic Constant Matrix: (Units=GPa)
#
#
# Indices 1 2 3 4 5 6 
#
# 1 129.0419 26.2884 32.3962 0.0042 6.4823 0.0058
# 2 26.2884 92.9653 25.1965 0.0014 4.5647 0.0016
# 3 32.3962 25.1965 105.2964 0.0120 -5.9644 0.0076
# 4 0.0042 0.0014 0.0120 30.5443 0.0030 16.1480
# 5 6.4823 4.5647 -5.9644 0.0030 29.2244 0.0024
# 6 0.0058 0.0016 0.0076 16.1480 0.0024 49.7298
#
#
#
# Elastic Compliance Matrix: (Units=1/GPa)
#
#
# Indices 1 2 3 4 5 6 
#
# 1 0.008820 -0.001730 -0.002423 0.000000 -0.002181 -0.000001
# 2 -0.001730 0.012009 -0.002454 0.000001 -0.001993 0.000000
# 3 -0.002423 -0.002454 0.011009 -0.000004 0.003168 0.000000
# 4 0.000000 0.000001 -0.000004 0.039524 -0.000004 -0.012834
# 5 -0.002181 -0.001993 0.003168 -0.000004 0.035659 -0.000001
# 6 -0.000001 0.000000 0.000000 -0.012834 -0.000001 0.024276
#
#
# Mechanical properties :
#
#
# Convention : Reuss Voigt Hill
#
# Bulk Modulus (GPa) = 53.69702 55.00731 54.35217
# Shear Modulus (GPa) = 33.17404 38.12789 35.65097
#
# Velocity S-wave (km/s) = 3.97799 4.26468 4.12383
# Velocity P-wave (km/s) = 6.83472 7.10557 6.97146
#
# Compressibility (1/GPa) = 0.01862301
#
# Stress axis : x y z
#
# Youngs Moduli (GPa) = 113.38189 83.27099 90.83330
#
# Poissons Ratio (x) = 0.14408 0.22009
# Poissons Ratio (y) = 0.19618 0.22292
# Poissons Ratio (z) = 0.27473 0.20436
#
# Static dielectric constant tensor:
#      x y z
#    x 4.093610 0.000020 0.038240 
#    y 0.000020 3.655180 0.000000 
#    z 0.038240 0.000000 3.653250 
# 
# 
# High freq. dielectric constant tensor:
#      x y z
#    x 1.835060 0.000000 0.005490 
#    y 0.000000 1.803740 0.000000 
#    z 0.005490 0.000000 1.813510 
# 
# From -- ./inp_files/25671.got.cif
#   From: 2010.03.12/outbox.cif.g09.slc.cpg/sg8_13_cif.got.tgz:25671.got - 2010.03.31 10:45:26.
