data_PCOD8053172
_publ_section_title
;
Structure prediction by ZEFSAII (Michael W. Deem and Ramdas Pophale) SiO2 
 PCOD8053172
Probable space group: C M
;
_chemical_formula_sum "Si O2"
_cell_formula_units_Z 32
_cell_length_a 13.166771
_cell_length_b 17.338909
_cell_length_c 13.053829
_cell_angle_alpha 90.000000
_cell_angle_beta 32.456013
_cell_angle_gamma 90.000000
_cell_volume 1599.306460
_symmetry_space_group_name_H-M "C M"
_symmetry_group_IT_number 8
_symmetry_cell_setting 'monoclinic'
loop_
_space_group_symop_operation_xyz
x,y,z
x,-y,z
1/2+x,1/2+y,z
1/2+x,1/2-y,z
loop_
_atom_site_type_symbol
_atom_site_label
_atom_site_fract_x
_atom_site_fract_y
_atom_site_fract_z
Si Si1 0.465590 0.410756 0.591230
Si Si2 0.221180 0.794968 0.115256
Si Si3 0.783267 0.320318 0.745981
Si Si4 0.072423 0.089245 0.078178
Si Si5 0.839638 0.669910 0.228317
Si Si6 0.754714 0.820324 0.923476
Si Si7 0.698432 0.830038 0.441043
Si Si8 0.816965 0.205060 0.554033
O O1 0.423263 0.500000 0.611003
O O2 0.688340 0.395753 0.385822
O O3 0.402739 0.385593 0.760279
O O4 0.339813 0.364189 0.615995
O O5 0.198264 0.864208 0.053350
O O6 0.362289 0.821198 0.085544
O O7 0.019079 0.774444 0.334643
O O8 0.299685 0.715675 0.997086
O O9 0.768780 0.250002 0.834904
O O10 0.738424 0.284343 0.672236
O O11 0.996875 0.354285 0.566486
O O12 0.635339 0.385637 0.909062
O O13 0.849689 0.104292 0.283553
O O14 0.114618 0.000000 0.058567
O O15 0.769025 0.749976 0.334679
O O16 0.041148 0.645645 0.102980
O O17 0.675824 0.821147 0.583777
#
# Coordination Sequence:
#
# PCOD8053172 Si02
#       8
#     4   4   4   4   4   4   4   4
#     4  10  22  37  54  84 120 143 176 229 284 330
#     4   9  18  33  58  85 107 142 188 228 272 320
#     4  10  19  35  55  84 110 143 186 227 269 324
#     4  10  22  37  54  84 120 143 176 229 284 330
#     4  11  19  35  58  85 108 146 188 225 274 322
#     4  10  19  35  55  84 110 143 186 227 269 324
#     4  11  19  35  58  85 108 146 188 225 274 322
#     4   9  18  33  58  85 107 142 188 228 272 320
#
# _framework density 20.008673000000002
#
# number of rings (size 3 to 8) (size 9 to 14) (size 15 to 20)
#    0.000    2.000    7.500    0.000    0.000    9.500 
#    0.000    1.250    0.000    3.750    0.000    0.000 
#    0.000    0.000    0.000    0.000    0.000    0.000 
#
# Total GULP energy -198314.078781 kJ/mol
# GULP energy per Si atom -12394.629924 kJ/mol
# Density = 1.996313 g / cm^3
# Si number density = 20.008673 Si / 1000 Ang^3
#
#
#
# Elastic Constant Matrix: (Units=GPa)
#
#
# Indices 1 2 3 4 5 6 
#
# 1 46.2952 41.9316 39.3371 0.0069 6.4705 -0.0049
# 2 41.9316 104.0857 41.5215 0.0061 20.9721 -0.0123
# 3 39.3371 41.5215 89.5749 -0.0002 9.4350 -0.0187
# 4 0.0069 0.0061 -0.0002 28.9884 -0.0067 0.5440
# 5 6.4705 20.9721 9.4350 -0.0067 31.8583 0.0124
# 6 -0.0049 -0.0123 -0.0187 0.5440 0.0124 14.7528
#
#
#
# Elastic Compliance Matrix: (Units=1/GPa)
#
#
# Indices 1 2 3 4 5 6 
#
# 1 0.045029 -0.013314 -0.014000 -0.000007 0.003765 -0.000017
# 2 -0.013314 0.017110 -0.001221 -0.000003 -0.008198 0.000015
# 3 -0.014000 -0.001221 0.018057 0.000003 -0.001701 0.000019
# 4 -0.000007 -0.000003 0.000003 0.034520 0.000010 -0.001273
# 5 0.003765 -0.008198 -0.001701 0.000010 0.036524 -0.000039
# 6 -0.000017 0.000015 0.000019 -0.001273 -0.000039 0.067831
#
#
# Mechanical properties :
#
#
# Convention : Reuss Voigt Hill
#
# Bulk Modulus (GPa) = 43.23995 53.94846 48.59421
# Shear Modulus (GPa) = 17.61501 22.93094 20.27298
#
# Velocity S-wave (km/s) = 2.97032 3.38901 3.18655
# Velocity P-wave (km/s) = 5.78111 6.50653 6.15452
#
# Compressibility (1/GPa) = 0.02312676
#
# Stress axis : x y z
#
# Youngs Moduli (GPa) = 22.20800 58.44597 55.38102
#
# Poissons Ratio (x) = 0.77816 0.77531
# Poissons Ratio (y) = 0.29568 0.06760
# Poissons Ratio (z) = 0.31090 0.07134
#
# Static dielectric constant tensor:
#      x y z
#    x 4.259950 -0.000010 0.158300 
#    y -0.000010 3.379540 0.000140 
#    z 0.158300 0.000140 5.324680 
# 
# 
# High freq. dielectric constant tensor:
#      x y z
#    x 1.762170 0.000000 0.010410 
#    y 0.000000 1.735040 0.000000 
#    z 0.010410 0.000000 1.801280 
# 
# From -- ./inp_files/27000.got.cif
#   From: 2010.03.12/outbox.cif.g09.slc.cpg/sg8_14_cif.got.tgz:27000.got - 2010.03.31 10:45:26.
