data_PCOD8053283
_publ_section_title
;
Structure prediction by ZEFSAII (Michael W. Deem and Ramdas Pophale) SiO2 
 PCOD8053283
Probable space group: C M
;
_chemical_formula_sum "Si O2"
_cell_formula_units_Z 32
_cell_length_a 24.164968
_cell_length_b 8.809637
_cell_length_c 19.477761
_cell_angle_alpha 90.000000
_cell_angle_beta 23.059971
_cell_angle_gamma 90.000000
_cell_volume 1624.166812
_symmetry_space_group_name_H-M "C M"
_symmetry_group_IT_number 8
_symmetry_cell_setting 'monoclinic'
loop_
_space_group_symop_operation_xyz
x,y,z
x,-y,z
1/2+x,1/2+y,z
1/2+x,1/2-y,z
loop_
_atom_site_type_symbol
_atom_site_label
_atom_site_fract_x
_atom_site_fract_y
_atom_site_fract_z
Si Si1 0.122910 0.180187 0.399780
Si Si2 0.087540 0.177292 0.778210
Si Si3 0.665834 0.320774 0.076539
Si Si4 0.305802 0.831163 0.315128
Si Si5 0.309184 0.320069 0.783373
Si Si6 0.797335 0.680206 0.070547
Si Si7 0.099896 0.331359 0.905948
Si Si8 0.848814 0.177644 0.406247
O O1 0.190299 0.235621 0.394437
O O2 0.206405 0.246324 0.238396
O O3 0.962316 0.237777 0.584141
O O4 0.131006 0.000000 0.386425
O O5 0.091895 0.214510 0.853299
O O6 0.235236 0.231775 0.579399
O O7 0.070266 0.000000 0.786763
O O8 0.956232 0.257001 0.890396
O O9 0.673625 0.500000 0.059882
O O10 0.720406 0.266823 0.088642
O O11 0.504570 0.265058 0.250525
O O12 0.767849 0.250050 0.903266
O O13 0.322524 0.711655 0.356642
O O14 0.263198 0.000000 0.391457
O O15 0.447679 0.847429 0.111368
O O16 0.303142 0.500000 0.798672
O O17 0.203955 0.263340 0.844378
O O18 0.807354 0.500000 0.063146
O O19 0.150338 0.500000 0.823751
O O20 0.830997 0.000000 0.440396
#
# Coordination Sequence:
#
# PCOD8053283 Si02
#       8
#     4   4   4   4   4   4   4   4
#     4   9  19  36  61  88 115 154 200 242 290 352
#     4  12  26  41  61  90 122 159 205 255 305 359
#     4  10  23  40  62  89 122 160 200 249 300 357
#     4  10  19  37  62  88 118 155 200 249 297 353
#     4  10  21  37  62  90 120 159 199 242 296 359
#     4  10  21  42  64  86 120 162 204 246 300 361
#     4  10  20  38  64  88 117 158 201 248 302 358
#     4  11  24  41  62  89 122 161 203 249 304 363
#
# _framework density 19.702408999999999
#
# number of rings (size 3 to 8) (size 9 to 14) (size 15 to 20)
#    0.000    1.750    2.500    1.500    3.500    2.000 
#    0.000    0.625    0.000    0.000    0.000    0.000 
#    0.000    0.000    0.000    0.000    0.000    0.000 
#
# Total GULP energy -198424.388547 kJ/mol
# GULP energy per Si atom -12401.524284 kJ/mol
# Density = 1.965757 g / cm^3
# Si number density = 19.702409 Si / 1000 Ang^3
#
#
#
# Elastic Constant Matrix: (Units=GPa)
#
#
# Indices 1 2 3 4 5 6 
#
# 1 129.2738 27.1596 35.8262 0.0023 -4.1585 -0.0004
# 2 27.1596 35.3703 18.8906 -0.0003 4.5810 0.0003
# 3 35.8262 18.8906 102.0658 0.0017 -0.3496 -0.0001
# 4 0.0023 -0.0003 0.0017 38.4129 -0.0012 11.1323
# 5 -4.1585 4.5810 -0.3496 -0.0012 34.2377 0.0002
# 6 -0.0004 0.0003 -0.0001 11.1323 0.0002 32.8664
#
#
#
# Elastic Compliance Matrix: (Units=1/GPa)
#
#
# Indices 1 2 3 4 5 6 
#
# 1 0.009803 -0.006613 -0.002210 -0.000001 0.002053 0.000000
# 2 -0.006613 0.036468 -0.004448 0.000001 -0.005728 -0.000001
# 3 -0.002210 -0.004448 0.011398 0.000000 0.000443 0.000000
# 4 -0.000001 0.000001 0.000000 0.028867 0.000001 -0.009778
# 5 0.002053 -0.005728 0.000443 0.000001 0.030228 0.000000
# 6 0.000000 -0.000001 0.000000 -0.009778 0.000000 0.033738
#
#
# Mechanical properties :
#
#
# Convention : Reuss Voigt Hill
#
# Bulk Modulus (GPa) = 32.12650 47.82917 39.97784
# Shear Modulus (GPa) = 26.67809 33.42563 30.05186
#
# Velocity S-wave (km/s) = 3.68374 4.12336 3.90973
# Velocity P-wave (km/s) = 5.86809 6.85550 6.38093
#
# Compressibility (1/GPa) = 0.03112695
#
# Stress axis : x y z
#
# Youngs Moduli (GPa) = 102.00497 27.42150 87.73389
#
# Poissons Ratio (x) = 0.18134 0.19390
# Poissons Ratio (y) = 0.67458 0.39023
# Poissons Ratio (z) = 0.22544 0.12197
#
# Static dielectric constant tensor:
#      x y z
#    x 3.718890 0.000000 -0.160310 
#    y 0.000000 3.446590 0.000000 
#    z -0.160310 0.000000 3.708990 
# 
# 
# High freq. dielectric constant tensor:
#      x y z
#    x 1.782380 0.000000 -0.005360 
#    y 0.000000 1.741350 0.000000 
#    z -0.005360 0.000000 1.778150 
# 
# From -- ./inp_files/31646.got.cif
#   From: 2010.03.12/outbox.cif.g09.slc.cpg/sg8_16_cif.got.tgz:31646.got - 2010.03.31 10:45:26.
