data_PCOD8053418
_publ_section_title
;
Structure prediction by ZEFSAII (Michael W. Deem and Ramdas Pophale) SiO2 
 PCOD8053418
Probable space group: C M
;
_chemical_formula_sum "Si O2"
_cell_formula_units_Z 32
_cell_length_a 8.667494
_cell_length_b 19.644903
_cell_length_c 16.442538
_cell_angle_alpha 90.000000
_cell_angle_beta 37.748558
_cell_angle_gamma 90.000000
_cell_volume 1713.972144
_symmetry_space_group_name_H-M "C M"
_symmetry_group_IT_number 8
_symmetry_cell_setting 'monoclinic'
loop_
_space_group_symop_operation_xyz
x,y,z
x,-y,z
1/2+x,1/2+y,z
1/2+x,1/2-y,z
loop_
_atom_site_type_symbol
_atom_site_label
_atom_site_fract_x
_atom_site_fract_y
_atom_site_fract_z
Si Si1 0.785130 0.677574 0.747190
Si Si2 0.045073 0.420843 0.237757
Si Si3 0.188564 0.920842 0.237753
Si Si4 0.273080 0.921920 0.514445
Si Si5 0.130506 0.421919 0.514434
Si Si6 0.420215 0.677577 0.747196
Si Si7 0.361866 0.177774 0.028443
Si Si8 0.499706 0.677771 0.028447
O O1 0.000336 0.622711 0.638418
O O2 0.585063 0.682963 0.758933
O O3 0.918153 0.749998 0.703542
O O4 0.639240 0.653895 0.888499
O O5 0.116963 0.500000 0.214246
O O6 0.904098 0.403777 0.212902
O O7 0.864455 0.399877 0.387282
O O8 0.300286 0.378813 0.136997
O O9 0.235654 0.878814 0.136982
O O10 0.920607 0.899867 0.387272
O O11 0.187185 0.000000 0.214251
O O12 0.502324 0.909052 0.480750
O O13 0.031322 0.877288 0.638423
O O14 0.184584 0.000000 0.552917
O O15 0.103627 0.500000 0.552891
O O16 0.142174 0.653901 0.888502
O O17 0.362246 0.250002 0.074137
O O18 0.205554 0.186304 0.011932
#
# Coordination Sequence:
#
# PCOD8053418 Si02
#       8
#     4   4   4   4   4   4   4   4
#     4  10  20  35  55  79 108 141 177 220 268 318
#     4  10  21  37  57  81 110 143 180 223 269 319
#     4  10  21  37  57  81 110 143 180 223 269 319
#     4   9  19  36  56  78 106 141 180 221 265 314
#     4   9  19  36  56  78 106 141 180 221 265 314
#     4  10  20  35  55  79 108 141 177 220 268 318
#     4  11  22  37  57  80 109 143 181 225 270 320
#     4  11  22  37  57  80 109 143 181 225 270 320
#
# _framework density 18.670081
#
# number of rings (size 3 to 8) (size 9 to 14) (size 15 to 20)
#    0.000    2.000    0.000    5.250    0.000    5.500 
#    0.000    5.000    0.000    0.000    0.000    0.000 
#    0.000    0.000    0.000    0.000    0.000    0.000 
#
# Total GULP energy -198471.998292 kJ/mol
# GULP energy per Si atom -12404.499893 kJ/mol
# Density = 1.862759 g / cm^3
# Si number density = 18.670081 Si / 1000 Ang^3
#
#
#
# Elastic Constant Matrix: (Units=GPa)
#
#
# Indices 1 2 3 4 5 6 
#
# 1 95.5533 40.7970 47.9962 0.0030 -2.4253 -0.0011
# 2 40.7970 91.9653 82.8959 0.0043 -4.2535 -0.0005
# 3 47.9962 82.8959 126.6474 -0.1400 -0.7283 0.0131
# 4 0.0030 0.0043 -0.1400 38.4648 0.0265 -0.7759
# 5 -2.4253 -4.2535 -0.7283 0.0265 35.6103 -0.0035
# 6 -0.0011 -0.0005 0.0131 -0.7759 -0.0035 30.7708
#
#
#
# Elastic Compliance Matrix: (Units=1/GPa)
#
#
# Indices 1 2 3 4 5 6 
#
# 1 0.013335 -0.003272 -0.002909 -0.000012 0.000458 0.000001
# 2 -0.003272 0.027608 -0.016815 -0.000066 0.002731 0.000006
# 3 -0.002909 -0.016815 0.019995 0.000076 -0.001798 -0.000007
# 4 -0.000012 -0.000066 0.000076 0.026011 -0.000026 0.000656
# 5 0.000458 0.002731 -0.001798 -0.000026 0.028402 0.000003
# 6 0.000001 0.000006 -0.000007 0.000656 0.000003 0.032515
#
#
# Mechanical properties :
#
#
# Convention : Reuss Voigt Hill
#
# Bulk Modulus (GPa) = 66.91218 73.06045 69.98632
# Shear Modulus (GPa) = 25.14559 30.46762 27.80660
#
# Velocity S-wave (km/s) = 3.67391 4.04406 3.86342
# Velocity P-wave (km/s) = 7.34261 7.81173 7.58080
#
# Compressibility (1/GPa) = 0.01494496
#
# Stress axis : x y z
#
# Youngs Moduli (GPa) = 74.98820 36.22088 50.01369
#
# Poissons Ratio (x) = 0.11852 0.14551
# Poissons Ratio (y) = 0.24536 0.84099
# Poissons Ratio (z) = 0.21818 0.60906
#
# Static dielectric constant tensor:
#      x y z
#    x 3.490670 0.000010 0.002660 
#    y 0.000010 3.485310 0.000060 
#    z 0.002660 0.000060 3.464840 
# 
# 
# High freq. dielectric constant tensor:
#      x y z
#    x 1.736580 0.000000 0.000690 
#    y 0.000000 1.723690 0.000000 
#    z 0.000690 0.000000 1.729750 
# 
# From -- ./inp_files/25594.got.cif
#   From: 2010.03.12/outbox.cif.g09.slc.cpg/sg8_13_cif.got.tgz:25594.got - 2010.03.31 10:45:26.
