data_PCOD8053132
_publ_section_title
;
Structure prediction by ZEFSAII (Michael W. Deem and Ramdas Pophale) SiO2 
 PCOD8053132
Probable space group: C M
;
_chemical_formula_sum "Si O2"
_cell_formula_units_Z 32
_cell_length_a 19.947366
_cell_length_b 9.019611
_cell_length_c 24.648312
_cell_angle_alpha 90.000000
_cell_angle_beta 156.962843
_cell_angle_gamma 90.000000
_cell_volume 1735.407520
_symmetry_space_group_name_H-M "C M"
_symmetry_group_IT_number 8
_symmetry_cell_setting 'monoclinic'
loop_
_space_group_symop_operation_xyz
x,y,z
x,-y,z
1/2+x,1/2+y,z
1/2+x,1/2-y,z
loop_
_atom_site_type_symbol
_atom_site_label
_atom_site_fract_x
_atom_site_fract_y
_atom_site_fract_z
Si Si1 0.401410 0.673729 0.273200
Si Si2 0.752379 0.674878 0.347412
Si Si3 0.882223 0.171760 0.768183
Si Si4 0.532888 0.326352 0.489771
Si Si5 0.545144 0.824977 0.280963
Si Si6 0.229754 0.173181 0.970905
Si Si7 0.432623 0.328177 0.036406
Si Si8 0.045260 0.828820 0.003126
O O1 0.414500 0.500000 0.271419
O O2 0.450789 0.714797 0.371063
O O3 0.534609 0.758370 0.333368
O O4 0.209927 0.726902 0.118678
O O5 0.768023 0.500000 0.367324
O O6 0.705348 0.750714 0.369534
O O7 0.610304 0.719480 0.197010
O O8 0.933375 0.738498 0.462594
O O9 0.728528 0.275486 0.635359
O O10 0.045193 0.224884 0.854491
O O11 0.918430 0.196594 0.858679
O O12 0.839011 0.000000 0.724539
O O13 0.521296 0.500000 0.493143
O O14 0.573360 0.000000 0.304860
O O15 0.370246 0.779989 0.120037
O O16 0.234391 0.000000 0.965206
O O17 0.272066 0.246515 0.944496
O O18 0.399046 0.500000 0.019563
O O19 0.441882 0.283778 0.980244
O O20 0.107552 0.000000 0.052285
#
# Coordination Sequence:
#
# PCOD8053132 Si02
#       8
#     4   4   4   4   4   4   4   4
#     4  11  22  35  55  84 114 146 190 237 278 327
#     4  10  19  34  57  84 113 147 186 229 280 337
#     4  10  21  38  58  80 109 150 191 229 279 337
#     4  11  24  39  55  81 116 153 191 232 278 332
#     4  10  19  34  57  84 115 145 181 235 283 330
#     4   9  18  33  54  80 111 143 178 223 277 330
#     4   9  18  31  54  84 111 139 177 226 277 327
#     4  10  19  36  58  83 111 143 188 233 280 332
#
# _framework density 18.439473
#
# number of rings (size 3 to 8) (size 9 to 14) (size 15 to 20)
#    0.000    2.000    2.500    1.500    0.000    4.000 
#    0.000    1.250    0.000    4.500    0.000    0.000 
#    0.000    0.000    0.000    0.000    0.000    0.000 
#
# Total GULP energy -198460.682165 kJ/mol
# GULP energy per Si atom -12403.792635 kJ/mol
# Density = 1.839750 g / cm^3
# Si number density = 18.439473 Si / 1000 Ang^3
#
#
#
# Elastic Constant Matrix: (Units=GPa)
#
#
# Indices 1 2 3 4 5 6 
#
# 1 122.7016 50.1296 25.9384 -0.0004 24.7044 0.0004
# 2 50.1296 71.3208 28.8888 -0.0122 9.2128 -0.0004
# 3 25.9384 28.8888 54.4988 -0.0147 15.8399 -0.0002
# 4 -0.0004 -0.0122 -0.0147 28.0315 -0.0037 6.7682
# 5 24.7044 9.2128 15.8399 -0.0037 26.6647 0.0002
# 6 0.0004 -0.0004 -0.0002 6.7682 0.0002 36.8874
#
#
#
# Elastic Compliance Matrix: (Units=1/GPa)
#
#
# Indices 1 2 3 4 5 6 
#
# 1 0.013482 -0.008609 0.001103 -0.000004 -0.010171 0.000001
# 2 -0.008609 0.023362 -0.009982 0.000006 0.005834 -0.000001
# 3 0.001103 -0.009982 0.027087 0.000008 -0.013664 -0.000001
# 4 -0.000004 0.000006 0.000008 0.037328 0.000002 -0.006849
# 5 -0.010171 0.005834 -0.013664 0.000002 0.053028 -0.000001
# 6 0.000001 -0.000001 -0.000001 -0.006849 -0.000001 0.028366
#
#
# Mechanical properties :
#
#
# Convention : Reuss Voigt Hill
#
# Bulk Modulus (GPa) = 34.53672 50.93720 42.73696
# Shear Modulus (GPa) = 21.99943 27.88767 24.94355
#
# Velocity S-wave (km/s) = 3.45782 3.89316 3.68193
# Velocity P-wave (km/s) = 5.89173 6.92047 6.42672
#
# Compressibility (1/GPa) = 0.02895469
#
# Stress axis : x y z
#
# Youngs Moduli (GPa) = 74.17454 42.80494 36.91866
#
# Poissons Ratio (x) = 0.36850 -0.04073
# Poissons Ratio (y) = 0.63856 0.36852
# Poissons Ratio (z) = -0.08183 0.42728
#
# Static dielectric constant tensor:
#      x y z
#    x 3.635110 0.000000 0.082020 
#    y 0.000000 3.340050 0.000000 
#    z 0.082020 0.000000 3.102100 
# 
# 
# High freq. dielectric constant tensor:
#      x y z
#    x 1.730290 0.000000 0.012250 
#    y 0.000000 1.717980 0.000000 
#    z 0.012250 0.000000 1.683310 
# 
# From -- ./inp_files/16861.got.cif
#   From: 2010.03.12/outbox.cif.g09.slc.cpg/sg8_9_cif.got.tgz:16861.got - 2010.03.31 10:45:26.
