data_PCOD8053626
_publ_section_title
;
Structure prediction by ZEFSAII (Michael W. Deem and Ramdas Pophale) SiO2 
 PCOD8053626
Probable space group: C M
;
_chemical_formula_sum "Si O2"
_cell_formula_units_Z 26
_cell_length_a 14.021673
_cell_length_b 7.570568
_cell_length_c 22.089037
_cell_angle_alpha 90.000000
_cell_angle_beta 36.681341
_cell_angle_gamma 90.000000
_cell_volume 1400.696793
_symmetry_space_group_name_H-M "C M"
_symmetry_group_IT_number 8
_symmetry_cell_setting 'monoclinic'
loop_
_space_group_symop_operation_xyz
x,y,z
x,-y,z
1/2+x,1/2+y,z
1/2+x,1/2-y,z
loop_
_atom_site_type_symbol
_atom_site_label
_atom_site_fract_x
_atom_site_fract_y
_atom_site_fract_z
Si Si1 0.127050 0.200155 0.468670
Si Si2 0.081096 0.291376 0.623067
Si Si3 0.659213 0.500000 0.150777
Si Si4 0.858237 0.500000 0.161546
Si Si5 0.512439 0.000000 0.962386
Si Si6 0.773722 0.789235 0.639977
Si Si7 0.218834 0.799004 0.799243
Si Si8 0.917580 0.697356 0.245388
O O1 0.164147 0.211503 0.521210
O O2 0.269762 0.287584 0.357206
O O3 0.954262 0.288310 0.543587
O O4 0.119242 0.000000 0.450146
O O5 0.091845 0.500000 0.612975
O O6 0.175934 0.218182 0.632492
O O7 0.897819 0.230083 0.721666
O O8 0.692387 0.500000 0.207085
O O9 0.568215 0.323868 0.176680
O O10 0.830562 0.500000 0.029400
O O11 0.869886 0.674923 0.198470
O O12 0.007065 0.500000 0.038634
O O13 0.597600 0.177090 0.897125
O O14 0.687297 0.713957 0.743477
O O15 0.775581 0.000000 0.643171
O O16 0.193635 0.000000 0.833971
O O17 0.959580 0.500000 0.250008
#
# Coordination Sequence:
#
# PCOD8053626 Si02
#       8
#     4   4   2   2   2   4   4   4
#     4   9  18  32  56  79 119 156 184 239 293 346
#     4   9  19  32  53  87 117 154 194 228 288 365
#     4  10  22  42  67  84 117 166 201 262 313 358
#     4   8  22  44  60  90 122 150 210 262 308 357
#     4  10  22  44  57  84 115 156 205 252 315 349
#     4   9  17  34  55  83 122 156 186 236 287 359
#     4  10  20  38  57  82 118 154 192 247 296 349
#     4   9  20  42  60  90 124 155 207 256 306 362
#
# _framework density 18.562190000000001
#
# number of rings (size 3 to 8) (size 9 to 14) (size 15 to 20)
#    0.923    1.846    0.769    0.000    2.154    2.462 
#    5.538    0.000    0.000    0.000    0.000    0.000 
#    0.000    0.000    0.000    0.000    0.000    0.000 
#
# Total GULP energy -161107.309293 kJ/mol
# GULP energy per Si atom -12392.869946 kJ/mol
# Density = 1.851994 g / cm^3
# Si number density = 18.562190 Si / 1000 Ang^3
#
#
#
# Elastic Constant Matrix: (Units=GPa)
#
#
# Indices 1 2 3 4 5 6 
#
# 1 140.1911 25.7614 48.3887 0.0000 6.5915 0.0002
# 2 25.7614 66.8539 38.4877 -0.0001 -1.0426 0.0006
# 3 48.3887 38.4877 134.0818 0.0000 12.2652 0.0000
# 4 0.0000 -0.0001 0.0000 24.0319 0.0000 -2.7952
# 5 6.5915 -1.0426 12.2652 0.0000 22.1226 -0.0001
# 6 0.0002 0.0006 0.0000 -2.7952 -0.0001 24.1595
#
#
#
# Elastic Compliance Matrix: (Units=1/GPa)
#
#
# Indices 1 2 3 4 5 6 
#
# 1 0.008352 -0.001881 -0.002358 0.000000 -0.001270 0.000000
# 2 -0.001881 0.018667 -0.005068 0.000000 0.004250 0.000000
# 3 -0.002358 -0.005068 0.010241 0.000000 -0.005214 0.000000
# 4 0.000000 0.000000 0.000000 0.042179 0.000000 0.004880
# 5 -0.001270 0.004250 -0.005214 0.000000 0.048672 0.000000
# 6 0.000000 0.000000 0.000000 0.004880 0.000000 0.041956
#
#
# Mechanical properties :
#
#
# Convention : Reuss Voigt Hill
#
# Bulk Modulus (GPa) = 53.63170 62.93362 58.28266
# Shear Modulus (GPa) = 25.65455 29.29540 27.47497
#
# Velocity S-wave (km/s) = 3.72168 3.97700 3.85146
# Velocity P-wave (km/s) = 6.88647 7.42068 7.15856
#
# Compressibility (1/GPa) = 0.01864569
#
# Stress axis : x y z
#
# Youngs Moduli (GPa) = 119.72599 53.57114 97.64642
#
# Poissons Ratio (x) = 0.10075 0.23028
# Poissons Ratio (y) = 0.22516 0.49490
# Poissons Ratio (z) = 0.28235 0.27152
#
# Static dielectric constant tensor:
#      x y z
#    x 3.436310 0.000000 -0.031500 
#    y 0.000000 3.183440 0.000000 
#    z -0.031500 0.000000 3.365390 
# 
# 
# High freq. dielectric constant tensor:
#      x y z
#    x 1.711420 0.000000 0.002090 
#    y 0.000000 1.711650 0.000000 
#    z 0.002090 0.000000 1.711920 
# 
# From -- ./inp_files/21182.got.cif
#   From: 2010.03.12/outbox.cif.g09.slc.cpg/sg8_11_cif.got.tgz:21182.got - 2010.03.31 10:45:26.
