data_PCOD8053685
_publ_section_title
;
Structure prediction by ZEFSAII (Michael W. Deem and Ramdas Pophale) SiO2 
 PCOD8053685
Probable space group: C M
;
_chemical_formula_sum "Si O2"
_cell_formula_units_Z 24
_cell_length_a 14.742259
_cell_length_b 10.820748
_cell_length_c 7.533336
_cell_angle_alpha 90.000000
_cell_angle_beta 101.676136
_cell_angle_gamma 90.000000
_cell_volume 1176.867582
_symmetry_space_group_name_H-M "C M"
_symmetry_group_IT_number 8
_symmetry_cell_setting 'monoclinic'
loop_
_space_group_symop_operation_xyz
x,y,z
x,-y,z
1/2+x,1/2+y,z
1/2+x,1/2-y,z
loop_
_atom_site_type_symbol
_atom_site_label
_atom_site_fract_x
_atom_site_fract_y
_atom_site_fract_z
Si Si1 0.927200 0.750278 0.802390
Si Si2 0.476338 0.362496 0.473556
Si Si3 0.238559 0.644645 0.808772
Si Si4 0.098963 0.644179 0.049093
Si Si5 0.665409 0.738188 0.426394
Si Si6 0.859710 0.636361 0.443833
O O1 0.969500 0.854359 0.685746
O O2 0.840296 0.800385 0.878621
O O3 0.893081 0.636753 0.663274
O O4 0.001332 0.710398 0.977252
O O5 0.441305 0.500000 0.401941
O O6 0.582000 0.349736 0.453538
O O7 0.412647 0.250878 0.364520
O O8 0.245917 0.500000 0.830158
O O9 0.198478 0.676321 0.600171
O O10 0.172135 0.698025 0.935551
O O11 0.084878 0.500000 0.015574
O O12 0.132628 0.670089 0.259914
O O13 0.749319 0.653991 0.388909
O O14 0.884364 0.500000 0.373923
#
# Coordination Sequence:
#
# PCOD8053685 Si02
#       6
#     4   4   4   4   4   4
#     4   9  20  36  65  89 124 161 210 250 311 362
#     4  10  21  38  64  92 124 162 209 253 309 371
#     4  10  20  40  62  87 125 166 207 256 307 368
#     4  11  23  39  61  95 128 164 210 258 310 373
#     4  11  22  37  63  90 126 161 212 250 320 362
#     4   9  20  38  63  89 122 164 209 253 310 368
#
# _framework density 20.393118000000001
#
# number of rings (size 3 to 8) (size 9 to 14) (size 15 to 20)
#    1.000    1.000    1.667    2.000    0.000    3.333 
#    0.000    5.000    0.000    0.000    0.000    0.000 
#    0.000    0.000    0.000    0.000    0.000    0.000 
#
# Total GULP energy -148712.047079 kJ/mol
# GULP energy per Si atom -12392.670590 kJ/mol
# Density = 2.034670 g / cm^3
# Si number density = 20.393118 Si / 1000 Ang^3
#
#
#
# Elastic Constant Matrix: (Units=GPa)
#
#
# Indices 1 2 3 4 5 6 
#
# 1 152.3623 65.3410 45.7041 0.0000 19.4581 0.0000
# 2 65.3410 129.0849 14.2719 0.0000 10.9940 0.0000
# 3 45.7041 14.2719 81.1075 0.0000 3.6163 0.0000
# 4 0.0000 0.0000 0.0000 15.8125 0.0000 -0.9224
# 5 19.4581 10.9940 3.6163 0.0000 15.3735 0.0000
# 6 0.0000 0.0000 0.0000 -0.9224 0.0000 22.3134
#
#
#
# Elastic Compliance Matrix: (Units=1/GPa)
#
#
# Indices 1 2 3 4 5 6 
#
# 1 0.011188 -0.004253 -0.005114 0.000000 -0.009916 0.000000
# 2 -0.004253 0.009984 0.000726 0.000000 -0.001927 0.000000
# 3 -0.005114 0.000726 0.014975 0.000000 0.002431 0.000000
# 4 0.000000 0.000000 0.000000 0.063394 0.000000 0.002620
# 5 -0.009916 -0.001927 0.002431 0.000000 0.078404 0.000000
# 6 0.000000 0.000000 0.000000 0.002620 0.000000 0.044924
#
#
# Mechanical properties :
#
#
# Convention : Reuss Voigt Hill
#
# Bulk Modulus (GPa) = 53.01116 68.13206 60.57161
# Shear Modulus (GPa) = 20.28912 26.51574 23.40243
#
# Velocity S-wave (km/s) = 3.15763 3.60978 3.39125
# Velocity P-wave (km/s) = 6.27257 7.13133 6.71569
#
# Compressibility (1/GPa) = 0.01886395
#
# Stress axis : x y z
#
# Youngs Moduli (GPa) = 89.38545 100.16444 66.77898
#
# Poissons Ratio (x) = 0.42601 0.34149
# Poissons Ratio (y) = 0.38016 -0.04847
# Poissons Ratio (z) = 0.45709 -0.07270
#
# Static dielectric constant tensor:
#      x y z
#    x 3.940860 0.000000 -0.018480 
#    y 0.000000 3.406720 0.000000 
#    z -0.018480 0.000000 3.352840 
# 
# 
# High freq. dielectric constant tensor:
#      x y z
#    x 1.813610 0.000000 0.002840 
#    y 0.000000 1.783810 0.000000 
#    z 0.002840 0.000000 1.767310 
# 
# From -- ./inp_files/12532.got.cif
#   From: 2010.03.12/outbox.cif.g09.slc.cpg/sg8_7_cif.got.tgz:12532.got - 2010.03.31 10:45:26.
