data_PCOD8053254
_publ_section_title
;
Structure prediction by ZEFSAII (Michael W. Deem and Ramdas Pophale) SiO2 
 PCOD8053254
Probable space group: C M
;
_chemical_formula_sum "Si O2"
_cell_formula_units_Z 32
_cell_length_a 33.180700
_cell_length_b 8.488400
_cell_length_c 12.625566
_cell_angle_alpha 90.000000
_cell_angle_beta 26.253456
_cell_angle_gamma 90.000000
_cell_volume 1572.972708
_symmetry_space_group_name_H-M "C M"
_symmetry_group_IT_number 8
_symmetry_cell_setting 'monoclinic'
loop_
_space_group_symop_operation_xyz
x,y,z
x,-y,z
1/2+x,1/2+y,z
1/2+x,1/2-y,z
loop_
_atom_site_type_symbol
_atom_site_label
_atom_site_fract_x
_atom_site_fract_y
_atom_site_fract_z
Si Si1 0.909040 0.314495 0.236290
Si Si2 0.412406 0.823025 0.457603
Si Si3 0.599501 0.815853 0.710754
Si Si4 0.216171 0.181597 0.620084
Si Si5 0.168849 0.686162 0.322958
Si Si6 0.616425 0.821456 0.046271
Si Si7 0.549754 0.684415 0.416009
Si Si8 0.359081 0.812504 0.807830
O O1 0.924781 0.500000 0.217870
O O2 0.889825 0.238549 0.398691
O O3 0.824335 0.283190 0.358360
O O4 0.000227 0.240102 0.969802
O O5 0.366366 0.744068 0.669810
O O6 0.374982 0.000000 0.543649
O O7 0.520673 0.819271 0.212900
O O8 0.668617 0.785023 0.643304
O O9 0.638456 0.747997 0.509344
O O10 0.588124 0.000000 0.723838
O O11 0.186286 0.225993 0.808949
O O12 0.194058 0.000000 0.650314
O O13 0.155325 0.500000 0.342335
O O14 0.106392 0.775946 0.386709
O O15 0.274867 0.728334 0.061794
O O16 0.650773 0.000000 0.981303
O O17 0.610950 0.738610 0.172817
O O18 0.531272 0.500000 0.452242
O O19 0.452526 0.772580 0.649045
O O20 0.346427 0.000000 0.839247
#
# Coordination Sequence:
#
# PCOD8053254 Si02
#       8
#     4   4   4   4   4   4   4   4
#     4   9  18  35  58  85 115 154 197 240 296 362
#     4   8  15  31  58  84 113 153 195 235 293 363
#     4  10  22  43  64  81 116 164 206 249 302 365
#     4  11  22  34  58  93 122 152 200 255 308 364
#     4  11  24  41  63  91 120 164 217 259 307 372
#     4  10  19  36  61  87 122 163 201 246 304 371
#     4  11  23  40  62  91 126 162 203 259 316 369
#     4  10  21  38  62  92 124 164 203 251 312 372
#
# _framework density 20.343644999999999
#
# number of rings (size 3 to 8) (size 9 to 14) (size 15 to 20)
#    0.000    2.000    1.250    3.375    1.750    2.000 
#    0.000    2.500    0.000    0.000    0.000    0.000 
#    0.000    0.000    0.000    0.000    0.000    0.000 
#
# Total GULP energy -198372.536450 kJ/mol
# GULP energy per Si atom -12398.283528 kJ/mol
# Density = 2.029734 g / cm^3
# Si number density = 20.343645 Si / 1000 Ang^3
#
#
#
# Elastic Constant Matrix: (Units=GPa)
#
#
# Indices 1 2 3 4 5 6 
#
# 1 107.1121 5.1306 65.3038 0.0000 8.5567 0.0000
# 2 5.1306 42.2778 8.9122 0.0000 2.8095 0.0000
# 3 65.3038 8.9122 129.1885 0.0000 9.6277 0.0000
# 4 0.0000 0.0000 0.0000 26.9745 0.0000 -2.0966
# 5 8.5567 2.8095 9.6277 0.0000 29.1488 0.0000
# 6 0.0000 0.0000 0.0000 -2.0966 0.0000 26.8963
#
#
#
# Elastic Compliance Matrix: (Units=1/GPa)
#
#
# Indices 1 2 3 4 5 6 
#
# 1 0.013583 -0.000114 -0.006728 0.000000 -0.001754 0.000000
# 2 -0.000114 0.024097 -0.001471 0.000000 -0.001803 0.000000
# 3 -0.006728 -0.001471 0.011365 0.000000 -0.001637 0.000000
# 4 0.000000 0.000000 0.000000 0.037298 0.000000 0.002907
# 5 -0.001754 -0.001803 -0.001637 0.000000 0.035536 0.000000
# 6 0.000000 0.000000 0.000000 0.002907 0.000000 0.037406
#
#
# Mechanical properties :
#
#
# Convention : Reuss Voigt Hill
#
# Bulk Modulus (GPa) = 30.84394 48.58574 39.71484
# Shear Modulus (GPa) = 26.77858 29.88603 28.33231
#
# Velocity S-wave (km/s) = 3.63204 3.83699 3.73592
# Velocity P-wave (km/s) = 5.72567 6.60033 6.17850
#
# Compressibility (1/GPa) = 0.03242128
#
# Stress axis : x y z
#
# Youngs Moduli (GPa) = 73.61975 41.49944 87.99043
#
# Poissons Ratio (x) = 0.00471 0.59197
# Poissons Ratio (y) = 0.00836 0.12939
# Poissons Ratio (z) = 0.49529 0.06103
#
# Static dielectric constant tensor:
#      x y z
#    x 3.668440 0.000000 0.167160 
#    y 0.000000 3.443300 0.000000 
#    z 0.167160 0.000000 3.901280 
# 
# 
# High freq. dielectric constant tensor:
#      x y z
#    x 1.796190 0.000000 0.000090 
#    y 0.000000 1.771400 0.000000 
#    z 0.000090 0.000000 1.801160 
# 
# From -- ./inp_files/24814.got.cif
#   From: 2010.03.12/outbox.cif.g09.slc.cpg/sg8_13_cif.got.tgz:24814.got - 2010.03.31 10:45:26.
