data_PCOD8053135
_publ_section_title
;
Structure prediction by ZEFSAII (Michael W. Deem and Ramdas Pophale) SiO2 
 PCOD8053135
Probable space group: C M
;
_chemical_formula_sum "Si O2"
_cell_formula_units_Z 32
_cell_length_a 20.109223
_cell_length_b 8.994825
_cell_length_c 12.066824
_cell_angle_alpha 90.000000
_cell_angle_beta 127.275503
_cell_angle_gamma 90.000000
_cell_volume 1736.793093
_symmetry_space_group_name_H-M "C M"
_symmetry_group_IT_number 8
_symmetry_cell_setting 'monoclinic'
loop_
_space_group_symop_operation_xyz
x,y,z
x,-y,z
1/2+x,1/2+y,z
1/2+x,1/2-y,z
loop_
_atom_site_type_symbol
_atom_site_label
_atom_site_fract_x
_atom_site_fract_y
_atom_site_fract_z
Si Si1 0.798770 0.675190 0.593620
Si Si2 0.541152 0.171836 0.325315
Si Si3 0.691814 0.829305 0.318412
Si Si4 0.110646 0.326773 0.010748
Si Si5 0.648663 0.674134 0.599849
Si Si6 0.692989 0.671950 0.890157
Si Si7 0.382249 0.172307 0.032525
Si Si8 0.434992 0.323710 0.864463
O O1 0.813844 0.500000 0.608738
O O2 0.766881 0.727201 0.440382
O O3 0.730554 0.727092 0.615633
O O4 0.885256 0.756752 0.709352
O O5 0.605370 0.211717 0.292210
O O6 0.565320 0.255706 0.462851
O O7 0.449726 0.222679 0.192359
O O8 0.542160 0.000000 0.355812
O O9 0.715916 0.000000 0.364608
O O10 0.678931 0.796631 0.175615
O O11 0.086182 0.500000 0.982107
O O12 0.150341 0.277688 0.935719
O O13 0.029278 0.231931 0.955203
O O14 0.640208 0.500000 0.580431
O O15 0.657201 0.723134 0.735399
O O16 0.670964 0.500000 0.891830
O O17 0.792043 0.697092 0.994800
O O18 0.395832 0.000000 0.011664
O O19 0.390645 0.270619 0.931820
O O20 0.433431 0.500000 0.856509
#
# Coordination Sequence:
#
# PCOD8053135 Si02
#       8
#     4   4   4   4   4   4   4   4
#     4  10  19  34  57  84 114 147 186 232 286 337
#     4   9  17  31  55  82 109 142 184 232 279 330
#     4   9  18  34  55  81 112 146 187 234 283 333
#     4  11  23  40  59  81 116 155 191 232 285 341
#     4   9  18  33  54  80 113 148 182 227 280 331
#     4  10  21  38  58  81 113 152 192 232 280 336
#     4  10  19  37  59  82 114 150 187 233 285 331
#     4  12  23  35  57  87 115 146 193 240 280 333
#
# _framework density 18.424762999999999
#
# number of rings (size 3 to 8) (size 9 to 14) (size 15 to 20)
#    0.000    2.000    2.500    1.875    0.000    3.000 
#    0.000    1.250    0.000    6.000    0.000    0.000 
#    0.000    0.000    0.000    0.000    0.000    0.000 
#
# Total GULP energy -198440.832981 kJ/mol
# GULP energy per Si atom -12402.552061 kJ/mol
# Density = 1.838283 g / cm^3
# Si number density = 18.424763 Si / 1000 Ang^3
#
#
#
# Elastic Constant Matrix: (Units=GPa)
#
#
# Indices 1 2 3 4 5 6 
#
# 1 39.2059 23.1034 19.5248 0.0000 -6.3554 0.0000
# 2 23.1034 81.1355 47.3614 0.0000 0.8493 0.0000
# 3 19.5248 47.3614 126.1233 0.0000 0.1514 0.0000
# 4 0.0000 0.0000 0.0000 36.4746 0.0000 -0.9125
# 5 -6.3554 0.8493 0.1514 0.0000 26.1638 0.0000
# 6 0.0000 0.0000 0.0000 -0.9125 0.0000 27.6705
#
#
#
# Elastic Compliance Matrix: (Units=1/GPa)
#
#
# Indices 1 2 3 4 5 6 
#
# 1 0.032676 -0.008238 -0.001975 0.000000 0.008216 0.000000
# 2 -0.008238 0.017868 -0.005431 0.000000 -0.002550 0.000000
# 3 -0.001975 -0.005431 0.010274 0.000000 -0.000363 0.000000
# 4 0.000000 0.000000 0.000000 0.027439 0.000000 0.000905
# 5 0.008216 -0.002550 -0.000363 0.000000 0.040301 0.000000
# 6 0.000000 0.000000 0.000000 0.000905 0.000000 0.036169
#
#
# Mechanical properties :
#
#
# Convention : Reuss Voigt Hill
#
# Bulk Modulus (GPa) = 33.86337 47.38267 40.62302
# Shear Modulus (GPa) = 24.28835 28.49344 26.39090
#
# Velocity S-wave (km/s) = 3.63470 3.93679 3.78876
# Velocity P-wave (km/s) = 6.00283 6.81448 6.42149
#
# Compressibility (1/GPa) = 0.02953043
#
# Stress axis : x y z
#
# Youngs Moduli (GPa) = 30.60336 55.96618 97.32834
#
# Poissons Ratio (x) = 0.46103 0.19222
# Poissons Ratio (y) = 0.25210 0.52863
# Poissons Ratio (z) = 0.06044 0.30397
#
# Static dielectric constant tensor:
#      x y z
#    x 3.130260 0.000000 0.086540 
#    y 0.000000 3.340830 0.000000 
#    z 0.086540 0.000000 3.670880 
# 
# 
# High freq. dielectric constant tensor:
#      x y z
#    x 1.680470 0.000000 0.006870 
#    y 0.000000 1.712900 0.000000 
#    z 0.006870 0.000000 1.732400 
# 
# From -- ./inp_files/23825.got.cif
#   From: 2010.03.12/outbox.cif.g09.slc.cpg/sg8_12_cif.got.tgz:23825.got - 2010.03.31 10:45:26.
