data_PCOD8053101
_publ_section_title
;
Structure prediction by ZEFSAII (Michael W. Deem and Ramdas Pophale) SiO2 
 PCOD8053101
Probable space group: C M
;
_chemical_formula_sum "Si O2"
_cell_formula_units_Z 32
_cell_length_a 14.766693
_cell_length_b 8.568894
_cell_length_c 29.421555
_cell_angle_alpha 90.000000
_cell_angle_beta 152.019818
_cell_angle_gamma 90.000000
_cell_volume 1746.627499
_symmetry_space_group_name_H-M "C M"
_symmetry_group_IT_number 8
_symmetry_cell_setting 'monoclinic'
loop_
_space_group_symop_operation_xyz
x,y,z
x,-y,z
1/2+x,1/2+y,z
1/2+x,1/2-y,z
loop_
_atom_site_type_symbol
_atom_site_label
_atom_site_fract_x
_atom_site_fract_y
_atom_site_fract_z
Si Si1 0.016700 0.180989 0.855040
Si Si2 0.464573 0.821527 0.736988
Si Si3 0.093467 0.185272 0.242379
Si Si4 0.601410 0.818077 0.529697
Si Si5 0.196768 0.184332 0.387110
Si Si6 0.734504 0.823196 0.026604
Si Si7 0.311581 0.822351 0.840963
Si Si8 0.991229 0.184603 0.387253
O O1 0.004198 0.290921 0.806641
O O2 0.828856 0.233669 0.800369
O O3 0.011800 0.000000 0.839196
O O4 0.212220 0.220184 0.970548
O O5 0.295741 0.713244 0.643099
O O6 0.666475 0.781703 0.804184
O O7 0.408035 0.000000 0.703261
O O8 0.090127 0.242249 0.293518
O O9 0.274549 0.250256 0.294442
O O10 0.898286 0.247782 0.131964
O O11 0.106313 0.000000 0.246983
O O12 0.420488 0.761798 0.480664
O O13 0.610108 0.732231 0.484891
O O14 0.579123 0.000000 0.509226
O O15 0.097304 0.254029 0.388763
O O16 0.185307 0.000000 0.385951
O O17 0.788817 0.000000 0.036691
O O18 0.525098 0.821940 0.959259
O O19 0.236472 0.000000 0.801846
O O20 0.981932 0.000000 0.380074
#
# Coordination Sequence:
#
# PCOD8053101 Si02
#       8
#     4   4   4   4   4   4   4   4
#     4  10  20  36  56  79 110 147 186 229 276 329
#     4  12  23  37  57  83 112 146 185 232 283 337
#     4   9  17  35  57  78 109 148 181 218 272 329
#     4  10  21  38  57  77 105 144 184 224 277 338
#     4   8  17  34  56  78 105 140 177 216 267 327
#     4   8  17  35  57  78 111 148 185 230 276 325
#     4   9  19  37  56  79 109 146 187 231 275 326
#     4  10  19  34  54  82 111 137 179 232 274 325
#
# _framework density 18.321023
#
# number of rings (size 3 to 8) (size 9 to 14) (size 15 to 20)
#    0.750    1.750    0.000    3.750    0.000    1.500 
#    2.250   10.000    0.000    0.000    0.000    0.000 
#    0.000    0.000    0.000    0.000    0.000    0.000 
#
# Total GULP energy -198245.607504 kJ/mol
# GULP energy per Si atom -12390.350469 kJ/mol
# Density = 1.827932 g / cm^3
# Si number density = 18.321023 Si / 1000 Ang^3
#
#
#
# Elastic Constant Matrix: (Units=GPa)
#
#
# Indices 1 2 3 4 5 6 
#
# 1 143.3219 17.7587 52.3581 0.0000 -5.5476 0.0000
# 2 17.7587 50.7000 10.7147 0.0000 0.6867 -0.0001
# 3 52.3581 10.7147 117.1335 0.0000 -1.9583 0.0000
# 4 0.0000 0.0000 0.0000 25.5506 0.0001 1.9722
# 5 -5.5476 0.6867 -1.9583 0.0001 19.7812 0.0000
# 6 0.0000 -0.0001 0.0000 1.9722 0.0000 26.8289
#
#
#
# Elastic Compliance Matrix: (Units=1/GPa)
#
#
# Indices 1 2 3 4 5 6 
#
# 1 0.008672 -0.002299 -0.003630 0.000000 0.002152 0.000000
# 2 -0.002299 0.020738 -0.000893 0.000000 -0.001453 0.000000
# 3 -0.003630 -0.000893 0.010242 0.000000 0.000027 0.000000
# 4 0.000000 0.000000 0.000000 0.039361 0.000000 -0.002893
# 5 0.002152 -0.001453 0.000027 0.000000 0.051210 0.000000
# 6 0.000000 0.000000 0.000000 -0.002893 0.000000 0.037486
#
#
# Mechanical properties :
#
#
# Convention : Reuss Voigt Hill
#
# Bulk Modulus (GPa) = 38.45278 52.53539 45.49408
# Shear Modulus (GPa) = 26.31269 29.78708 28.04989
#
# Velocity S-wave (km/s) = 3.79384 4.03655 3.91707
# Velocity P-wave (km/s) = 6.34231 7.10367 6.73376
#
# Compressibility (1/GPa) = 0.02600592
#
# Stress axis : x y z
#
# Youngs Moduli (GPa) = 115.31932 48.22114 97.63763
#
# Poissons Ratio (x) = 0.11088 0.35441
# Poissons Ratio (y) = 0.26517 0.08723
# Poissons Ratio (z) = 0.41859 0.04308
#
# Static dielectric constant tensor:
#      x y z
#    x 3.435150 0.000000 -0.031370 
#    y 0.000000 3.201900 0.000000 
#    z -0.031370 0.000000 3.383150 
# 
# 
# High freq. dielectric constant tensor:
#      x y z
#    x 1.704010 0.000000 -0.000990 
#    y 0.000000 1.703860 0.000000 
#    z -0.000990 0.000000 1.704820 
# 
# From -- ./inp_files/24829.got.cif
#   From: 2010.03.12/outbox.cif.g09.slc.cpg/sg8_13_cif.got.tgz:24829.got - 2010.03.31 10:45:26.
