data_PCOD8053497
_publ_section_title
;
Structure prediction by ZEFSAII (Michael W. Deem and Ramdas Pophale) SiO2 
 PCOD8053497
Probable space group: C M
;
_chemical_formula_sum "Si O2"
_cell_formula_units_Z 32
_cell_length_a 24.330651
_cell_length_b 8.883649
_cell_length_c 19.644238
_cell_angle_alpha 90.000000
_cell_angle_beta 155.862474
_cell_angle_gamma 90.000000
_cell_volume 1736.310558
_symmetry_space_group_name_H-M "C M"
_symmetry_group_IT_number 8
_symmetry_cell_setting 'monoclinic'
loop_
_space_group_symop_operation_xyz
x,y,z
x,-y,z
1/2+x,1/2+y,z
1/2+x,1/2-y,z
loop_
_atom_site_type_symbol
_atom_site_label
_atom_site_fract_x
_atom_site_fract_y
_atom_site_fract_z
Si Si1 0.545610 0.672692 0.221560
Si Si2 0.640845 0.675087 0.475126
Si Si3 0.347030 0.173410 0.530584
Si Si4 0.360660 0.174127 0.392449
Si Si5 0.087781 0.676275 0.043915
Si Si6 0.915605 0.822463 0.740850
Si Si7 0.878916 0.324269 0.924926
Si Si8 0.104823 0.676527 0.571407
O O1 0.512108 0.500000 0.166284
O O2 0.544254 0.700814 0.301204
O O3 0.690440 0.718301 0.355442
O O4 0.433793 0.777997 0.061184
O O5 0.668962 0.500000 0.519498
O O6 0.784712 0.751178 0.627400
O O7 0.568599 0.745934 0.458777
O O8 0.402547 0.204959 0.518039
O O9 0.429435 0.273398 0.677624
O O10 0.363069 0.000000 0.570857
O O11 0.238043 0.278580 0.232664
O O12 0.487897 0.219537 0.491448
O O13 0.319042 0.000000 0.335959
O O14 0.081873 0.500000 0.022502
O O15 0.045874 0.764715 0.928442
O O16 0.989020 0.722562 0.993532
O O17 0.905583 0.000000 0.734395
O O18 0.847250 0.500000 0.887903
O O19 0.743685 0.235122 0.758240
O O20 0.115596 0.500000 0.571913
#
# Coordination Sequence:
#
# PCOD8053497 Si02
#       8
#     4   4   4   4   4   4   4   4
#     4   9  18  33  57  83 110 144 185 232 282 334
#     4  10  20  36  56  82 115 151 189 230 284 341
#     4   9  18  35  57  81 114 149 182 230 286 340
#     4  10  22  40  60  84 115 152 192 232 284 343
#     4  11  22  36  57  86 116 148 191 237 281 334
#     4  11  21  33  56  86 115 146 187 239 283 330
#     4  11  22  35  56  85 116 147 188 237 281 334
#     4  11  23  38  59  85 115 153 192 233 283 340
#
# _framework density 18.429881999999999
#
# number of rings (size 3 to 8) (size 9 to 14) (size 15 to 20)
#    0.000    1.750    2.500    3.375    0.000    5.000 
#    0.000    1.250    0.000    1.500    0.000    0.000 
#    0.000    0.000    0.000    0.000    0.000    0.000 
#
# Total GULP energy -198466.184166 kJ/mol
# GULP energy per Si atom -12404.136510 kJ/mol
# Density = 1.838793 g / cm^3
# Si number density = 18.429882 Si / 1000 Ang^3
#
#
#
# Elastic Constant Matrix: (Units=GPa)
#
#
# Indices 1 2 3 4 5 6 
#
# 1 133.3502 57.1678 57.3697 0.0000 -7.2747 0.0000
# 2 57.1678 104.8851 54.3005 0.0000 -4.4299 0.0000
# 3 57.3697 54.3005 94.3092 0.0000 -10.0410 0.0000
# 4 0.0000 0.0000 0.0000 31.4428 0.0000 -7.6665
# 5 -7.2747 -4.4299 -10.0410 0.0000 27.6619 0.0000
# 6 0.0000 0.0000 0.0000 -7.6665 0.0000 27.5929
#
#
#
# Elastic Compliance Matrix: (Units=1/GPa)
#
#
# Indices 1 2 3 4 5 6 
#
# 1 0.011057 -0.003637 -0.004561 0.000000 0.000670 0.000000
# 2 -0.003637 0.014792 -0.006401 0.000000 -0.000911 0.000000
# 3 -0.004561 -0.006401 0.017503 0.000000 0.004129 0.000000
# 4 0.000000 0.000000 0.000000 0.034115 0.000000 0.009479
# 5 0.000670 -0.000911 0.004129 0.000000 0.037680 0.000000
# 6 0.000000 0.000000 0.000000 0.009479 0.000000 0.038875
#
#
# Mechanical properties :
#
#
# Convention : Reuss Voigt Hill
#
# Bulk Modulus (GPa) = 70.65220 74.46896 72.56058
# Shear Modulus (GPa) = 26.60447 28.25327 27.42887
#
# Velocity S-wave (km/s) = 3.80353 3.91962 3.86201
# Velocity P-wave (km/s) = 7.59658 7.80890 7.70347
#
# Compressibility (1/GPa) = 0.01415384
#
# Stress axis : x y z
#
# Youngs Moduli (GPa) = 90.44095 67.60238 57.13288
#
# Poissons Ratio (x) = 0.24589 0.26056
# Poissons Ratio (y) = 0.32896 0.36573
# Poissons Ratio (z) = 0.41246 0.43275
#
# Static dielectric constant tensor:
#      x y z
#    x 3.521480 0.000000 -0.227250 
#    y 0.000000 3.395100 0.000000 
#    z -0.227250 0.000000 3.255910 
# 
# 
# High freq. dielectric constant tensor:
#      x y z
#    x 1.708630 0.000000 -0.024550 
#    y 0.000000 1.721810 0.000000 
#    z -0.024550 0.000000 1.704740 
# 
# From -- ./inp_files/24311.got.cif
#   From: 2010.03.12/outbox.cif.g09.slc.cpg/sg8_13_cif.got.tgz:24311.got - 2010.03.31 10:45:26.
