data_PCOD8053786
_publ_section_title
;
Structure prediction by ZEFSAII (Michael W. Deem and Ramdas Pophale) SiO2 
 PCOD8053786
Probable space group: C M
;
_chemical_formula_sum "Si O2"
_cell_formula_units_Z 28
_cell_length_a 4.982204
_cell_length_b 30.355604
_cell_length_c 9.560199
_cell_angle_alpha 90.000000
_cell_angle_beta 62.195040
_cell_angle_gamma 90.000000
_cell_volume 1278.925031
_symmetry_space_group_name_H-M "C M"
_symmetry_group_IT_number 8
_symmetry_cell_setting 'monoclinic'
loop_
_space_group_symop_operation_xyz
x,y,z
x,-y,z
1/2+x,1/2+y,z
1/2+x,1/2-y,z
loop_
_atom_site_type_symbol
_atom_site_label
_atom_site_fract_x
_atom_site_fract_y
_atom_site_fract_z
Si Si1 0.966830 0.909129 0.426650
Si Si2 0.569050 0.723975 0.993852
Si Si3 0.078583 0.000000 0.257285
Si Si4 0.152523 0.868668 0.102895
Si Si5 0.818028 0.094637 0.937367
Si Si6 0.817314 0.622958 0.598886
Si Si7 0.769842 0.000000 0.037293
Si Si8 0.879981 0.722278 0.621520
O O1 0.637961 0.897073 0.569597
O O2 0.074908 0.875022 0.283048
O O3 0.210030 0.904484 0.490735
O O4 0.949344 0.957906 0.368890
O O5 0.221908 0.735776 0.042921
O O6 0.596323 0.681964 0.084223
O O7 0.738430 0.715371 0.808141
O O8 0.001905 0.000000 0.111071
O O9 0.438946 0.000000 0.185593
O O10 0.493257 0.883929 0.982056
O O11 0.908932 0.896978 0.075615
O O12 0.070156 0.117534 0.780364
O O13 0.811495 0.041764 0.923843
O O14 0.871132 0.674543 0.550026
O O15 0.714786 0.758304 0.564047
#
# Coordination Sequence:
#
# PCOD8053786 Si02
#       8
#     4   4   2   4   4   4   2   4
#     4  12  26  44  69  96 142 181 212 273 344 410
#     4  10  21  37  65  99 128 169 226 284 323 380
#     4  12  24  46  70  98 132 178 230 260 340 418
#     4  12  23  44  67 100 129 180 224 273 331 397
#     4  12  24  41  72  97 134 169 229 287 315 389
#     4  12  26  44  65 106 137 175 221 277 343 392
#     4  12  22  44  70 104 126 172 236 278 322 384
#     4  10  21  39  66  95 129 177 223 273 329 397
#
# _framework density 21.893388000000002
#
# number of rings (size 3 to 8) (size 9 to 14) (size 15 to 20)
#    0.000    0.571    4.286    4.286    4.000    1.143 
#    0.000    4.286    0.000    0.000    0.000    0.000 
#    0.000    0.000    0.000    0.000    0.000    0.000 
#
# Total GULP energy -173637.630277 kJ/mol
# GULP energy per Si atom -12402.687877 kJ/mol
# Density = 2.184356 g / cm^3
# Si number density = 21.893388 Si / 1000 Ang^3
#
#
#
# Elastic Constant Matrix: (Units=GPa)
#
#
# Indices 1 2 3 4 5 6 
#
# 1 99.4213 27.1113 10.4887 0.0000 2.0659 0.0000
# 2 27.1113 131.3013 15.7441 0.0000 -2.9871 0.0000
# 3 10.4887 15.7441 38.7535 0.0000 4.7156 0.0000
# 4 0.0000 0.0000 0.0000 32.2258 0.0000 7.1173
# 5 2.0659 -2.9871 4.7156 0.0000 27.9902 0.0000
# 6 0.0000 0.0000 0.0000 7.1173 0.0000 35.6197
#
#
#
# Elastic Compliance Matrix: (Units=1/GPa)
#
#
# Indices 1 2 3 4 5 6 
#
# 1 0.010834 -0.002008 -0.002035 0.000000 -0.000671 0.000000
# 2 -0.002008 0.008435 -0.003074 0.000000 0.001566 0.000000
# 3 -0.002035 -0.003074 0.028203 0.000000 -0.004929 0.000000
# 4 0.000000 0.000000 0.000000 0.032464 0.000000 -0.006487
# 5 -0.000671 0.001566 -0.004929 0.000000 0.036774 0.000000
# 6 0.000000 0.000000 0.000000 -0.006487 0.000000 0.029370
#
#
# Mechanical properties :
#
#
# Convention : Reuss Voigt Hill
#
# Bulk Modulus (GPa) = 30.08522 41.79603 35.94062
# Shear Modulus (GPa) = 29.17245 33.57595 31.37420
#
# Velocity S-wave (km/s) = 3.65427 3.92038 3.78966
# Velocity P-wave (km/s) = 5.61929 6.29481 5.96662
#
# Compressibility (1/GPa) = 0.03323891
#
# Stress axis : x y z
#
# Youngs Moduli (GPa) = 92.29788 118.55391 35.45672
#
# Poissons Ratio (x) = 0.23811 0.07215
# Poissons Ratio (y) = 0.18537 0.10899
# Poissons Ratio (z) = 0.18780 0.36441
#
# Static dielectric constant tensor:
#      x y z
#    x 4.222090 0.000000 0.076350 
#    y 0.000000 4.071450 0.000000 
#    z 0.076350 0.000000 3.636170 
# 
# 
# High freq. dielectric constant tensor:
#      x y z
#    x 1.881280 0.000000 0.006860 
#    y 0.000000 1.873930 0.000000 
#    z 0.006860 0.000000 1.834550 
# 
# From -- ./inp_files/7077.got.cif
#   From: 2010.03.12/outbox.cif.g09.slc.cpg/sg8_4_cif.got.tgz:7077.got - 2010.03.31 10:45:26.
