data_PCOD8053534
_publ_section_title
;
Structure prediction by ZEFSAII (Michael W. Deem and Ramdas Pophale) SiO2 
 PCOD8053534
Probable space group: C M
;
_chemical_formula_sum "Si O2"
_cell_formula_units_Z 28
_cell_length_a 13.712917
_cell_length_b 12.842078
_cell_length_c 20.408116
_cell_angle_alpha 90.000000
_cell_angle_beta 154.816882
_cell_angle_gamma 90.000000
_cell_volume 1529.257292
_symmetry_space_group_name_H-M "C M"
_symmetry_group_IT_number 8
_symmetry_cell_setting 'monoclinic'
loop_
_space_group_symop_operation_xyz
x,y,z
x,-y,z
1/2+x,1/2+y,z
1/2+x,1/2-y,z
loop_
_atom_site_type_symbol
_atom_site_label
_atom_site_fract_x
_atom_site_fract_y
_atom_site_fract_z
Si Si1 0.634150 0.117122 0.365030
Si Si2 0.631141 0.675457 0.711941
Si Si3 0.975398 0.758003 0.150938
Si Si4 0.898525 0.621398 0.357521
Si Si5 0.765373 0.796619 0.678704
Si Si6 0.529185 0.114537 0.876060
Si Si7 0.693031 0.617453 0.891002
O O1 0.587206 0.204252 0.282155
O O2 0.465363 0.139867 0.322980
O O3 0.895911 0.121017 0.547550
O O4 0.587756 0.000000 0.309924
O O5 0.660178 0.785112 0.688815
O O6 0.634151 0.688708 0.791825
O O7 0.851985 0.603540 0.829145
O O8 0.148189 0.833348 0.217920
O O9 0.760165 0.828720 0.041189
O O10 0.904694 0.666400 0.058406
O O11 0.906887 0.500000 0.381520
O O12 0.070004 0.685096 0.507556
O O13 0.899290 0.686951 0.743039
O O14 0.961883 0.885095 0.795279
O O15 0.585156 0.000000 0.881583
O O16 0.755049 0.500000 0.908716
#
# Coordination Sequence:
#
# PCOD8053534 Si02
#       7
#     4   4   4   4   4   4   4
#     4  11  22  38  61  86 114 153 198 241 281 337
#     4  10  20  36  60  85 109 146 195 242 277 336
#     4  11  23  37  56  88 123 150 189 240 286 344
#     4  11  22  38  60  84 116 159 194 229 293 351
#     4   9  20  35  57  86 111 143 197 239 273 338
#     4   9  19  35  56  82 114 152 182 230 294 340
#     4  11  21  37  61  87 115 153 196 237 283 342
#
# _framework density 18.309540999999999
#
# number of rings (size 3 to 8) (size 9 to 14) (size 15 to 20)
#    0.857    0.857    2.857    2.571    2.000    0.000 
#    0.000    0.000    0.000   12.857    0.000    0.000 
#    0.000    0.000    0.000    0.000    0.000    0.000 
#
# Total GULP energy -173445.437628 kJ/mol
# GULP energy per Si atom -12388.959831 kJ/mol
# Density = 1.826787 g / cm^3
# Si number density = 18.309541 Si / 1000 Ang^3
#
#
#
# Elastic Constant Matrix: (Units=GPa)
#
#
# Indices 1 2 3 4 5 6 
#
# 1 93.7517 45.4480 39.6739 0.0189 5.1191 -0.0001
# 2 45.4480 84.3839 35.8495 0.0184 -0.7757 0.0039
# 3 39.6739 35.8495 99.0333 0.0188 8.1823 0.0175
# 4 0.0189 0.0184 0.0188 19.5165 0.0150 -1.7123
# 5 5.1191 -0.7757 8.1823 0.0150 34.7525 0.0013
# 6 -0.0001 0.0039 0.0175 -1.7123 0.0013 25.2475
#
#
#
# Elastic Compliance Matrix: (Units=1/GPa)
#
#
# Indices 1 2 3 4 5 6 
#
# 1 0.015632 -0.006889 -0.003636 -0.000004 -0.001600 0.000003
# 2 -0.006889 0.017121 -0.003624 -0.000008 0.002250 -0.000001
# 3 -0.003636 -0.003624 0.013083 -0.000004 -0.002626 -0.000009
# 4 -0.000004 -0.000008 -0.000004 0.051546 -0.000021 0.003496
# 5 -0.001600 0.002250 -0.002626 -0.000021 0.029679 -0.000002
# 6 0.000003 -0.000001 -0.000009 0.003496 -0.000002 0.039845
#
#
# Mechanical properties :
#
#
# Convention : Reuss Voigt Hill
#
# Bulk Modulus (GPa) = 57.01944 57.67906 57.34925
# Shear Modulus (GPa) = 24.86928 26.31647 25.59287
#
# Velocity S-wave (km/s) = 3.68947 3.79530 3.74276
# Velocity P-wave (km/s) = 7.02560 7.12575 7.07585
#
# Compressibility (1/GPa) = 0.01753788
#
# Stress axis : x y z
#
# Youngs Moduli (GPa) = 63.96975 58.40700 76.43416
#
# Poissons Ratio (x) = 0.40238 0.27795
# Poissons Ratio (y) = 0.44070 0.27698
# Poissons Ratio (z) = 0.23262 0.21166
#
# Static dielectric constant tensor:
#      x y z
#    x 3.367350 0.000010 0.202960 
#    y 0.000010 3.274460 -0.000020 
#    z 0.202960 -0.000020 3.306860 
# 
# 
# High freq. dielectric constant tensor:
#      x y z
#    x 1.701490 0.000000 0.016800 
#    y 0.000000 1.701030 0.000000 
#    z 0.016800 0.000000 1.713340 
# 
# From -- ./inp_files/28841.got.cif
#   From: 2010.03.12/outbox.cif.g09.slc.cpg/sg8_15_cif.got.tgz:28841.got - 2010.03.31 10:45:26.
