data_PCOD8053944
_publ_section_title
;
Structure prediction by ZEFSAII (Michael W. Deem and Ramdas Pophale) SiO2 
 PCOD8053944
Probable space group: C M
;
_chemical_formula_sum "Si O2"
_cell_formula_units_Z 32
_cell_length_a 15.228753
_cell_length_b 8.596052
_cell_length_c 11.777943
_cell_angle_alpha 90.000000
_cell_angle_beta 87.422487
_cell_angle_gamma 90.000000
_cell_volume 1540.257121
_symmetry_space_group_name_H-M "C M"
_symmetry_group_IT_number 8
_symmetry_cell_setting 'monoclinic'
loop_
_space_group_symop_operation_xyz
x,y,z
x,-y,z
1/2+x,1/2+y,z
1/2+x,1/2-y,z
loop_
_atom_site_type_symbol
_atom_site_label
_atom_site_fract_x
_atom_site_fract_y
_atom_site_fract_z
Si Si1 0.926180 0.820074 0.133610
Si Si2 0.711338 0.178887 0.572868
Si Si3 0.468964 0.179504 0.359355
Si Si4 0.550212 0.183111 0.738592
Si Si5 0.407708 0.678233 0.593368
Si Si6 0.656711 0.679727 0.350460
Si Si7 0.586213 0.818104 0.992034
Si Si8 0.746479 0.680323 0.110413
O O1 0.919405 0.781788 0.267700
O O2 0.834714 0.776620 0.078592
O O3 0.947409 0.000000 0.113142
O O4 0.005205 0.719858 0.078123
O O5 0.635233 0.236179 0.661928
O O6 0.804987 0.199987 0.629599
O O7 0.711885 0.283861 0.460119
O O8 0.695949 0.000000 0.538630
O O9 0.431499 0.217597 0.484533
O O10 0.572351 0.210938 0.352034
O O11 0.450900 0.000000 0.333257
O O12 0.463505 0.268588 0.698511
O O13 0.563590 0.236869 0.866642
O O14 0.535199 0.000000 0.730400
O O15 0.429883 0.500000 0.563026
O O16 0.627179 0.500000 0.350214
O O17 0.716056 0.720459 0.239281
O O18 0.606744 0.000000 0.996619
O O19 0.672632 0.726598 0.024822
O O20 0.768600 0.500000 0.095234
#
# Coordination Sequence:
#
# PCOD8053944 Si02
#       8
#     4   4   4   4   4   4   4   4
#     4  12  25  42  65  94 128 166 213 263 316 379
#     4  10  22  40  62  90 126 164 202 250 308 371
#     4  12  23  38  63  92 128 167 205 254 317 379
#     4  10  23  43  64  89 123 166 212 259 312 370
#     4  11  23  39  63  95 128 164 208 254 309 374
#     4  11  22  37  62  95 127 160 202 252 311 381
#     4  11  24  43  66  92 126 168 214 265 318 374
#     4  11  24  42  65  95 130 165 208 261 317 380
#
# _framework density 20.775753000000002
#
# number of rings (size 3 to 8) (size 9 to 14) (size 15 to 20)
#    0.000    1.000    2.500    4.500    0.000    6.500 
#    0.000    1.250    0.000    0.000    0.000    0.000 
#    0.000    0.000    0.000    0.000    0.000    0.000 
#
# Total GULP energy -198521.595393 kJ/mol
# GULP energy per Si atom -12407.599712 kJ/mol
# Density = 2.072847 g / cm^3
# Si number density = 20.775753 Si / 1000 Ang^3
#
#
#
# Elastic Constant Matrix: (Units=GPa)
#
#
# Indices 1 2 3 4 5 6 
#
# 1 116.7891 20.9599 26.0783 0.0000 25.6102 0.0000
# 2 20.9599 60.9642 23.3528 0.0000 2.8735 0.0000
# 3 26.0783 23.3528 96.2100 0.0000 25.1402 0.0000
# 4 0.0000 0.0000 0.0000 23.7939 0.0000 11.6802
# 5 25.6102 2.8735 25.1402 0.0000 21.2980 0.0000
# 6 0.0000 0.0000 0.0000 11.6802 0.0000 31.2610
#
#
#
# Elastic Compliance Matrix: (Units=1/GPa)
#
#
# Indices 1 2 3 4 5 6 
#
# 1 0.012611 -0.004332 0.002087 0.000000 -0.017043 0.000000
# 2 -0.004332 0.019807 -0.006213 0.000000 0.009870 0.000000
# 3 0.002087 -0.006213 0.017024 0.000000 -0.021766 0.000000
# 4 0.000000 0.000000 0.000000 0.051467 0.000000 -0.019230
# 5 -0.017043 0.009870 -0.021766 0.000000 0.091808 0.000000
# 6 0.000000 0.000000 0.000000 -0.019230 0.000000 0.039174
#
#
# Mechanical properties :
#
#
# Convention : Reuss Voigt Hill
#
# Bulk Modulus (GPa) = 30.74417 46.08283 38.41350
# Shear Modulus (GPa) = 19.25677 28.84207 24.04942
#
# Velocity S-wave (km/s) = 3.04778 3.72997 3.40600
# Velocity P-wave (km/s) = 5.21685 6.38588 5.83074
#
# Compressibility (1/GPa) = 0.03252649
#
# Stress axis : x y z
#
# Youngs Moduli (GPa) = 79.29407 50.48734 58.74095
#
# Poissons Ratio (x) = 0.21870 -0.12257
# Poissons Ratio (y) = 0.34349 0.36493
# Poissons Ratio (z) = -0.16545 0.31366
#
# Static dielectric constant tensor:
#      x y z
#    x 3.880160 0.000000 0.067690 
#    y 0.000000 3.712570 0.000000 
#    z 0.067690 0.000000 3.749390 
# 
# 
# High freq. dielectric constant tensor:
#      x y z
#    x 1.825530 0.000000 0.007600 
#    y 0.000000 1.816320 0.000000 
#    z 0.007600 0.000000 1.806100 
# 
# From -- ./inp_files/21377.got.cif
#   From: 2010.03.12/outbox.cif.g09.slc.cpg/sg8_11_cif.got.tgz:21377.got - 2010.03.31 10:45:26.
