data_PCOD8053163
_publ_section_title
;
Structure prediction by ZEFSAII (Michael W. Deem and Ramdas Pophale) SiO2 
 PCOD8053163
Probable space group: C M
;
_chemical_formula_sum "Si O2"
_cell_formula_units_Z 32
_cell_length_a 14.530039
_cell_length_b 20.378688
_cell_length_c 7.574969
_cell_angle_alpha 90.000000
_cell_angle_beta 58.003815
_cell_angle_gamma 90.000000
_cell_volume 1902.227307
_symmetry_space_group_name_H-M "C M"
_symmetry_group_IT_number 8
_symmetry_cell_setting 'monoclinic'
loop_
_space_group_symop_operation_xyz
x,y,z
x,-y,z
1/2+x,1/2+y,z
1/2+x,1/2-y,z
loop_
_atom_site_type_symbol
_atom_site_label
_atom_site_fract_x
_atom_site_fract_y
_atom_site_fract_z
Si Si1 0.930830 0.770492 0.701400
Si Si2 0.300811 0.686485 0.152428
Si Si3 0.626915 0.924612 0.316106
Si Si4 0.968744 0.375884 0.774957
Si Si5 0.640704 0.692010 0.329375
Si Si6 0.293700 0.926586 0.179732
Si Si7 0.955146 0.226716 0.292118
Si Si8 0.494562 0.126181 0.133150
O O1 0.929308 0.696073 0.765718
O O2 0.885585 0.774481 0.545977
O O3 0.055715 0.796322 0.576515
O O4 0.856274 0.814601 0.903634
O O5 0.229675 0.621468 0.247614
O O6 0.231956 0.752317 0.246962
O O7 0.394225 0.684821 0.205838
O O8 0.534608 0.910474 0.553640
O O9 0.579975 0.910746 0.169759
O O10 0.664274 0.000000 0.291056
O O11 0.858046 0.416323 0.928510
O O12 0.039819 0.373211 0.884697
O O13 0.690635 0.620466 0.298376
O O14 0.574893 0.696441 0.210142
O O15 0.378310 0.911390 0.253482
O O16 0.248864 0.000000 0.239954
O O17 0.974169 0.300732 0.216321
#
# Coordination Sequence:
#
# PCOD8053163 Si02
#       8
#     4   4   4   4   4   4   4   4
#     4  10  20  36  57  90 110 140 194 237 275 330
#     4  12  20  40  58  81 120 146 190 235 277 342
#     4  12  24  38  57  86 122 155 185 231 296 345
#     4  10  19  34  60  90 114 139 189 245 286 333
#     4  10  20  36  56  85 110 148 184 225 285 330
#     4  10  20  36  57  82 116 149 179 229 286 333
#     4  10  20  36  57  90 110 140 194 237 275 330
#     4  10  19  34  60  90 114 139 189 245 286 333
#
# _framework density 16.822386000000002
#
# number of rings (size 3 to 8) (size 9 to 14) (size 15 to 20)
#    1.500    0.000    7.500    0.750    0.000    1.000 
#    2.250    2.500    0.000    0.000    0.000    0.000 
#    0.000    0.000    0.000    0.000    0.000    0.000 
#
# Total GULP energy -198256.475376 kJ/mol
# GULP energy per Si atom -12391.029711 kJ/mol
# Density = 1.678410 g / cm^3
# Si number density = 16.822386 Si / 1000 Ang^3
#
#
#
# Elastic Constant Matrix: (Units=GPa)
#
#
# Indices 1 2 3 4 5 6 
#
# 1 66.9514 30.4662 -6.0136 0.0000 3.0740 0.0000
# 2 30.4662 114.0671 5.4704 0.0000 -8.5483 0.0000
# 3 -6.0136 5.4704 35.3701 0.0000 1.1543 0.0000
# 4 0.0000 0.0000 0.0000 18.1949 0.0000 -9.5335
# 5 3.0740 -8.5483 1.1543 0.0000 30.6396 0.0000
# 6 0.0000 0.0000 0.0000 -9.5335 0.0000 18.5196
#
#
#
# Elastic Compliance Matrix: (Units=1/GPa)
#
#
# Indices 1 2 3 4 5 6 
#
# 1 0.017812 -0.005200 0.003943 0.000000 -0.003387 0.000000
# 2 -0.005200 0.010549 -0.002632 0.000000 0.003564 0.000000
# 3 0.003943 -0.002632 0.029423 0.000000 -0.002238 0.000000
# 4 0.000000 0.000000 0.000000 0.075260 0.000000 0.038742
# 5 -0.003387 0.003564 -0.002238 0.000000 0.034056 0.000000
# 6 0.000000 0.000000 0.000000 0.038742 0.000000 0.073940
#
#
# Mechanical properties :
#
#
# Convention : Reuss Voigt Hill
#
# Bulk Modulus (GPa) = 19.99759 30.69275 25.34517
# Shear Modulus (GPa) = 18.83324 25.90186 22.36755
#
# Velocity S-wave (km/s) = 3.34957 3.92819 3.65037
# Velocity P-wave (km/s) = 5.18390 6.23370 5.73288
#
# Compressibility (1/GPa) = 0.05000603
#
# Stress axis : x y z
#
# Youngs Moduli (GPa) = 56.14097 94.79523 33.98704
#
# Poissons Ratio (x) = 0.49297 -0.13402
# Poissons Ratio (y) = 0.29195 0.08945
# Poissons Ratio (z) = -0.22138 0.24950
#
# Static dielectric constant tensor:
#      x y z
#    x 3.218980 0.000000 0.156310 
#    y 0.000000 3.113830 0.000000 
#    z 0.156310 0.000000 3.203710 
# 
# 
# High freq. dielectric constant tensor:
#      x y z
#    x 1.638400 0.000000 0.008260 
#    y 0.000000 1.637020 0.000000 
#    z 0.008260 0.000000 1.641240 
# 
# From -- ./inp_files/11351.got.cif
#   From: 2010.03.12/outbox.cif.g09.slc.cpg/sg8_6_cif.got.tgz:11351.got - 2010.03.31 10:45:26.
