data_PCOD8053841
_publ_section_title
;
Structure prediction by ZEFSAII (Michael W. Deem and Ramdas Pophale) SiO2 
 PCOD8053841
Probable space group: C M
;
_chemical_formula_sum "Si O2"
_cell_formula_units_Z 32
_cell_length_a 12.127338
_cell_length_b 23.478143
_cell_length_c 12.259621
_cell_angle_alpha 90.000000
_cell_angle_beta 154.706018
_cell_angle_gamma 90.000000
_cell_volume 1491.425126
_symmetry_space_group_name_H-M "C M"
_symmetry_group_IT_number 8
_symmetry_cell_setting 'monoclinic'
loop_
_space_group_symop_operation_xyz
x,y,z
x,-y,z
1/2+x,1/2+y,z
1/2+x,1/2-y,z
loop_
_atom_site_type_symbol
_atom_site_label
_atom_site_fract_x
_atom_site_fract_y
_atom_site_fract_z
Si Si1 0.683980 0.246836 0.009400
Si Si2 0.066609 0.368533 0.012917
Si Si3 0.293212 0.335846 0.649931
Si Si4 0.605081 0.806881 0.266936
Si Si5 0.858953 0.711446 0.393559
Si Si6 0.825615 0.063114 0.820139
Si Si7 0.245472 0.906359 0.369944
Si Si8 0.106434 0.066132 0.489377
O O1 0.610799 0.180789 0.961067
O O2 0.711192 0.279530 0.148163
O O3 0.924336 0.253720 0.142885
O O4 0.467455 0.285082 0.758304
O O5 0.995795 0.342897 0.067915
O O6 0.328087 0.404925 0.256419
O O7 0.820972 0.405884 0.759550
O O8 0.133885 0.349701 0.396105
O O9 0.419230 0.393963 0.807515
O O10 0.145165 0.308692 0.620648
O O11 0.862328 0.772327 0.458473
O O12 0.724700 0.661993 0.344704
O O13 0.526059 0.072980 0.581624
O O14 0.851558 0.000000 0.794761
O O15 0.013893 0.067720 0.091623
O O16 0.204733 0.927803 0.454899
O O17 0.080723 0.000000 0.497536
#
# Coordination Sequence:
#
# PCOD8053841 Si02
#       8
#     4   4   4   4   4   4   4   4
#     4  10  21  39  63  99 130 166 214 272 330 402
#     4  11  27  43  70  98 131 177 225 271 339 392
#     4  10  22  38  65  93 134 167 214 269 325 392
#     4  10  23  40  64  93 136 173 213 268 335 394
#     4   9  20  37  59  95 131 163 204 261 330 397
#     4  11  22  40  64  95 130 168 213 266 327 394
#     4  11  22  40  66  96 125 167 210 267 338 393
#     4  12  26  47  67  95 133 177 230 280 322 392
#
# _framework density 21.455988000000001
#
# number of rings (size 3 to 8) (size 9 to 14) (size 15 to 20)
#    0.000    1.500    1.250    3.000    8.750    1.000 
#    0.000    1.250    0.000    0.000    0.000    0.000 
#    0.000    0.000    0.000    0.000    0.000    0.000 
#
# Total GULP energy -198251.515448 kJ/mol
# GULP energy per Si atom -12390.719716 kJ/mol
# Density = 2.140715 g / cm^3
# Si number density = 21.455988 Si / 1000 Ang^3
#
#
#
# Elastic Constant Matrix: (Units=GPa)
#
#
# Indices 1 2 3 4 5 6 
#
# 1 86.7677 42.2319 33.3973 0.0038 -17.3236 -0.0009
# 2 42.2319 153.3296 58.4697 0.0013 -10.4612 0.0004
# 3 33.3973 58.4697 115.7064 0.0040 -0.0590 -0.0006
# 4 0.0038 0.0013 0.0040 18.1126 0.0027 8.0681
# 5 -17.3236 -10.4612 -0.0590 0.0027 28.2649 -0.0013
# 6 -0.0009 0.0004 -0.0006 8.0681 -0.0013 18.0013
#
#
#
# Elastic Compliance Matrix: (Units=1/GPa)
#
#
# Indices 1 2 3 4 5 6 
#
# 1 0.015740 -0.002489 -0.003281 -0.000005 0.008719 0.000004
# 2 -0.002489 0.008732 -0.003693 0.000001 0.001698 -0.000001
# 3 -0.003281 -0.003693 0.011454 -0.000001 -0.003354 0.000001
# 4 -0.000005 0.000001 -0.000001 0.068982 -0.000011 -0.030918
# 5 0.008719 0.001698 -0.003354 -0.000011 0.041345 0.000008
# 6 0.000004 -0.000001 0.000001 -0.030918 0.000008 0.069409
#
#
# Mechanical properties :
#
#
# Convention : Reuss Voigt Hill
#
# Bulk Modulus (GPa) = 58.82512 69.33351 64.07931
# Shear Modulus (GPa) = 20.81122 27.65607 24.23365
#
# Velocity S-wave (km/s) = 3.11778 3.59411 3.36439
# Velocity P-wave (km/s) = 6.35900 7.04329 6.70988
#
# Compressibility (1/GPa) = 0.01699954
#
# Stress axis : x y z
#
# Youngs Moduli (GPa) = 63.53123 114.52558 87.30592
#
# Poissons Ratio (x) = 0.28510 0.28644
# Poissons Ratio (y) = 0.15816 0.32242
# Poissons Ratio (z) = 0.20844 0.42294
#
# Static dielectric constant tensor:
#      x y z
#    x 3.826740 0.000000 -0.014010 
#    y 0.000000 4.080800 0.000000 
#    z -0.014010 0.000000 3.875480 
# 
# 
# High freq. dielectric constant tensor:
#      x y z
#    x 1.836340 0.000000 -0.004390 
#    y 0.000000 1.839610 0.000000 
#    z -0.004390 0.000000 1.847080 
# 
# From -- ./inp_files/20895.got.cif
#   From: 2010.03.12/outbox.cif.g09.slc.cpg/sg8_11_cif.got.tgz:20895.got - 2010.03.31 10:45:26.
