data_PCOD8053674
_publ_section_title
;
Structure prediction by ZEFSAII (Michael W. Deem and Ramdas Pophale) SiO2 
 PCOD8053674
Probable space group: C M
;
_chemical_formula_sum "Si O2"
_cell_formula_units_Z 28
_cell_length_a 15.635104
_cell_length_b 13.576257
_cell_length_c 6.667900
_cell_angle_alpha 90.000000
_cell_angle_beta 64.279527
_cell_angle_gamma 90.000000
_cell_volume 1275.137739
_symmetry_space_group_name_H-M "C M"
_symmetry_group_IT_number 8
_symmetry_cell_setting 'monoclinic'
loop_
_space_group_symop_operation_xyz
x,y,z
x,-y,z
1/2+x,1/2+y,z
1/2+x,1/2-y,z
loop_
_atom_site_type_symbol
_atom_site_label
_atom_site_fract_x
_atom_site_fract_y
_atom_site_fract_z
Si Si1 0.682190 0.290093 0.952780
Si Si2 0.996679 0.695769 0.618582
Si Si3 0.852986 0.106024 0.337401
Si Si4 0.838860 0.384797 0.512341
Si Si5 0.039805 0.890772 0.377885
Si Si6 0.152685 0.613194 0.715140
Si Si7 0.341929 0.783617 0.097925
O O1 0.747457 0.344909 0.724022
O O2 0.631080 0.191708 0.915167
O O3 0.600433 0.362228 0.118796
O O4 0.744148 0.261584 0.083305
O O5 0.940009 0.663841 0.475305
O O6 0.040952 0.806064 0.548367
O O7 0.084339 0.626340 0.591723
O O8 0.922093 0.676956 0.870696
O O9 0.758142 0.142591 0.542070
O O10 0.882412 0.180804 0.135875
O O11 0.930637 0.100556 0.430030
O O12 0.837200 0.000000 0.250992
O O13 0.845918 0.500000 0.542339
O O14 0.824111 0.362282 0.292705
O O15 0.073233 0.000000 0.422639
O O16 0.146103 0.500000 0.799103
#
# Coordination Sequence:
#
# PCOD8053674 Si02
#       7
#     4   4   4   4   4   4   4
#     4  11  24  43  67  98 139 172 228 282 328 410
#     4  11  24  43  67  98 139 172 228 282 328 410
#     4  10  20  39  64  93 128 168 217 270 333 400
#     4  11  24  44  70  97 132 180 225 284 345 386
#     4  11  23  42  68  98 135 178 223 276 338 401
#     4  11  23  42  68  98 135 178 223 276 338 401
#     4  11  22  43  66  94 132 172 220 284 330 402
#
# _framework density 21.958413
#
# number of rings (size 3 to 8) (size 9 to 14) (size 15 to 20)
#    0.000    1.143    2.857    3.429    0.000    4.571 
#    0.000    1.429    0.000    0.000    0.000    0.000 
#    0.000    0.000    0.000    0.000    0.000    0.000 
#
# Total GULP energy -173559.765175 kJ/mol
# GULP energy per Si atom -12397.126084 kJ/mol
# Density = 2.190843 g / cm^3
# Si number density = 21.958413 Si / 1000 Ang^3
#
#
#
# Elastic Constant Matrix: (Units=GPa)
#
#
# Indices 1 2 3 4 5 6 
#
# 1 83.1165 18.0158 28.6645 0.0000 -5.9551 0.0000
# 2 18.0158 143.1124 30.6283 0.0000 1.1146 0.0000
# 3 28.6645 30.6283 84.2691 0.0000 0.0330 0.0000
# 4 0.0000 0.0000 0.0000 25.3438 0.0000 3.9101
# 5 -5.9551 1.1146 0.0330 0.0000 33.9942 0.0000
# 6 0.0000 0.0000 0.0000 3.9101 0.0000 29.6222
#
#
#
# Elastic Compliance Matrix: (Units=1/GPa)
#
#
# Indices 1 2 3 4 5 6 
#
# 1 0.013916 -0.000822 -0.004436 0.000000 0.002469 0.000000
# 2 -0.000822 0.007627 -0.002493 0.000000 -0.000392 0.000000
# 3 -0.004436 -0.002493 0.014282 0.000000 -0.000709 0.000000
# 4 0.000000 0.000000 0.000000 0.040278 0.000000 -0.005317
# 5 0.002469 -0.000392 -0.000709 0.000000 0.029863 0.000000
# 6 0.000000 0.000000 0.000000 -0.005317 0.000000 0.034460
#
#
# Mechanical properties :
#
#
# Convention : Reuss Voigt Hill
#
# Bulk Modulus (GPa) = 49.20052 51.67945 50.43999
# Shear Modulus (GPa) = 30.73106 33.33799 32.03453
#
# Velocity S-wave (km/s) = 3.74506 3.90068 3.82366
# Velocity P-wave (km/s) = 6.41526 6.62369 6.52031
#
# Compressibility (1/GPa) = 0.02032499
#
# Stress axis : x y z
#
# Youngs Moduli (GPa) = 71.85892 131.10524 70.01876
#
# Poissons Ratio (x) = 0.10773 0.31060
# Poissons Ratio (y) = 0.05905 0.17453
# Poissons Ratio (z) = 0.31876 0.32679
#
# Static dielectric constant tensor:
#      x y z
#    x 4.182420 0.000000 -0.025440 
#    y 0.000000 4.206110 0.000000 
#    z -0.025440 0.000000 3.764790 
# 
# 
# High freq. dielectric constant tensor:
#      x y z
#    x 1.873380 0.000000 -0.009780 
#    y 0.000000 1.871850 0.000000 
#    z -0.009780 0.000000 1.848270 
# 
# From -- ./inp_files/4931.got.cif
#   From: 2010.03.12/outbox.cif.g09.slc.cpg/sg8_3_cif.got.tgz:4931.got - 2010.03.31 10:45:26.
