data_PCOD8053596
_publ_section_title
;
Structure prediction by ZEFSAII (Michael W. Deem and Ramdas Pophale) SiO2 
 PCOD8053596
Probable space group: C M
;
_chemical_formula_sum "Si O2"
_cell_formula_units_Z 32
_cell_length_a 14.667883
_cell_length_b 8.884254
_cell_length_c 12.084868
_cell_angle_alpha 90.000000
_cell_angle_beta 90.106558
_cell_angle_gamma 90.000000
_cell_volume 1574.815076
_symmetry_space_group_name_H-M "C M"
_symmetry_group_IT_number 8
_symmetry_cell_setting 'monoclinic'
loop_
_space_group_symop_operation_xyz
x,y,z
x,-y,z
1/2+x,1/2+y,z
1/2+x,1/2-y,z
loop_
_atom_site_type_symbol
_atom_site_label
_atom_site_fract_x
_atom_site_fract_y
_atom_site_fract_z
Si Si1 0.642700 0.177615 0.221020
Si Si2 0.239862 0.826699 0.827337
Si Si3 0.498653 0.177149 0.395517
Si Si4 0.292775 0.171550 0.350554
Si Si5 0.435060 0.323151 0.851636
Si Si6 0.591804 0.821965 0.976819
Si Si7 0.470134 0.671177 0.610829
Si Si8 0.786610 0.669596 0.591192
O O1 0.567802 0.245964 0.305353
O O2 0.742755 0.231885 0.257160
O O3 0.641415 0.000000 0.224402
O O4 0.621804 0.234508 0.097902
O O5 0.342042 0.770963 0.851669
O O6 0.169985 0.722263 0.891177
O O7 0.217590 0.813450 0.694771
O O8 0.230060 0.000000 0.865870
O O9 0.396602 0.229664 0.363281
O O10 0.524724 0.231861 0.519766
O O11 0.506359 0.000000 0.395686
O O12 0.240974 0.190258 0.469843
O O13 0.291560 0.000000 0.310153
O O14 0.413228 0.500000 0.866650
O O15 0.497304 0.262410 0.951016
O O16 0.494564 0.295285 0.739270
O O17 0.575891 0.000000 0.971889
O O18 0.489649 0.500000 0.580091
O O19 0.362830 0.703983 0.603326
O O20 0.830557 0.500000 0.594753
#
# Coordination Sequence:
#
# PCOD8053596 Si02
#       8
#     4   4   4   4   4   4   4   4
#     4  10  23  40  55  76 107 143 187 233 271 316
#     4  10  20  37  61  86 114 148 184 227 281 334
#     4   9  19  37  57  78 109 146 179 216 269 329
#     4   9  18  34  57  82 108 139 175 219 272 327
#     4  10  21  38  59  85 116 147 183 229 280 334
#     4  11  24  40  56  79 112 150 195 238 276 326
#     4   9  17  30  53  85 114 138 172 220 271 326
#     4   8  16  32  54  81 112 143 175 214 268 334
#
# _framework density 20.319845999999998
#
# number of rings (size 3 to 8) (size 9 to 14) (size 15 to 20)
#    0.000    2.500    0.000    2.250    0.000    7.500 
#    0.000    5.000    0.000    0.000    0.000    0.000 
#    0.000    0.000    0.000    0.000    0.000    0.000 
#
# Total GULP energy -198316.094990 kJ/mol
# GULP energy per Si atom -12394.755937 kJ/mol
# Density = 2.027360 g / cm^3
# Si number density = 20.319846 Si / 1000 Ang^3
#
#
#
# Elastic Constant Matrix: (Units=GPa)
#
#
# Indices 1 2 3 4 5 6 
#
# 1 32.9113 6.0989 4.3007 0.0000 1.5008 0.0000
# 2 6.0989 41.7140 21.4894 0.0000 6.4452 0.0000
# 3 4.3007 21.4894 71.0235 0.0000 9.3775 0.0000
# 4 0.0000 0.0000 0.0000 31.4622 0.0000 2.2035
# 5 1.5008 6.4452 9.3775 0.0000 34.5371 0.0000
# 6 0.0000 0.0000 0.0000 2.2035 0.0000 27.4849
#
#
#
# Elastic Compliance Matrix: (Units=1/GPa)
#
#
# Indices 1 2 3 4 5 6 
#
# 1 0.031259 -0.004216 -0.000562 0.000000 -0.000419 0.000000
# 2 -0.004216 0.029287 -0.008203 0.000000 -0.003055 0.000000
# 3 -0.000562 -0.008203 0.017000 0.000000 -0.003061 0.000000
# 4 0.000000 0.000000 0.000000 0.031964 0.000000 -0.002563
# 5 -0.000419 -0.003055 -0.003061 0.000000 0.030374 0.000000
# 6 0.000000 0.000000 0.000000 -0.002563 0.000000 0.036589
#
#
# Mechanical properties :
#
#
# Convention : Reuss Voigt Hill
#
# Bulk Modulus (GPa) = 19.38576 23.26963 21.32769
# Shear Modulus (GPa) = 22.76585 26.28084 24.52335
#
# Velocity S-wave (km/s) = 3.35083 3.60023 3.47777
# Velocity P-wave (km/s) = 4.95296 5.36272 5.16191
#
# Compressibility (1/GPa) = 0.05158427
#
# Stress axis : x y z
#
# Youngs Moduli (GPa) = 31.99130 34.14503 58.82419
#
# Poissons Ratio (x) = 0.14396 0.03305
# Poissons Ratio (y) = 0.13488 0.48251
# Poissons Ratio (z) = 0.01797 0.28008
#
# Static dielectric constant tensor:
#      x y z
#    x 3.444780 0.000000 -0.075350 
#    y 0.000000 3.548590 0.000000 
#    z -0.075350 0.000000 4.020050 
# 
# 
# High freq. dielectric constant tensor:
#      x y z
#    x 1.773840 0.000000 -0.001900 
#    y 0.000000 1.787980 0.000000 
#    z -0.001900 0.000000 1.799740 
# 
# From -- ./inp_files/21551.got.cif
#   From: 2010.03.12/outbox.cif.g09.slc.cpg/sg8_11_cif.got.tgz:21551.got - 2010.03.31 10:45:26.
