data_PCOD8053902
_publ_section_title
;
Structure prediction by ZEFSAII (Michael W. Deem and Ramdas Pophale) SiO2 
 PCOD8053902
Probable space group: C M
;
_chemical_formula_sum "Si O2"
_cell_formula_units_Z 26
_cell_length_a 23.360709
_cell_length_b 7.577611
_cell_length_c 11.649082
_cell_angle_alpha 90.000000
_cell_angle_beta 140.139802
_cell_angle_gamma 90.000000
_cell_volume 1321.634941
_symmetry_space_group_name_H-M "C M"
_symmetry_group_IT_number 8
_symmetry_cell_setting 'monoclinic'
loop_
_space_group_symop_operation_xyz
x,y,z
x,-y,z
1/2+x,1/2+y,z
1/2+x,1/2-y,z
loop_
_atom_site_type_symbol
_atom_site_label
_atom_site_fract_x
_atom_site_fract_y
_atom_site_fract_z
Si Si1 0.241280 0.792511 0.502260
Si Si2 0.425358 0.801541 0.128679
Si Si3 0.109455 0.201901 0.491194
Si Si4 0.618409 0.289855 0.103612
Si Si5 0.664819 0.000000 0.996447
Si Si6 0.129050 0.500000 0.691896
Si Si7 0.313644 0.500000 0.058303
Si Si8 0.921756 0.798934 0.876179
O O1 0.193837 0.730674 0.547126
O O2 0.185507 0.723185 0.307060
O O3 0.343665 0.724674 0.660508
O O4 0.239420 0.000000 0.492734
O O5 0.525023 0.723456 0.277674
O O6 0.369356 0.678655 0.127989
O O7 0.420290 0.000000 0.170188
O O8 0.392260 0.804363 0.945792
O O9 0.092574 0.322744 0.576293
O O10 0.120838 0.000000 0.549436
O O11 0.625838 0.500000 0.091270
O O12 0.516642 0.231851 0.974303
O O13 0.646254 0.180818 0.034645
O O14 0.602127 0.000000 0.785130
O O15 0.769135 0.000000 0.116814
O O16 0.236363 0.500000 0.842905
O O17 0.932400 0.000000 0.928939
#
# Coordination Sequence:
#
# PCOD8053902 Si02
#       8
#     4   4   4   4   2   2   2   4
#     4  10  22  37  62 101 130 165 212 266 337 398
#     4  12  22  37  66  98 133 170 209 269 341 393
#     4  11  21  38  64  97 135 167 209 272 335 394
#     4  10  23  44  67  93 129 175 219 268 325 387
#     4  10  26  45  69  83 131 182 225 263 318 377
#     4  10  24  41  61  94 117 179 224 256 320 382
#     4  10  24  44  60  93 130 167 225 269 318 385
#     4  11  22  37  63 101 135 164 207 271 334 394
#
# _framework density 19.672602999999999
#
# number of rings (size 3 to 8) (size 9 to 14) (size 15 to 20)
#    0.462    0.923    3.846    1.385    4.308    3.077 
#    0.000    1.538    0.000    0.000    0.000    0.000 
#    0.000    0.000    0.000    0.000    0.000    0.000 
#
# Total GULP energy -161161.940992 kJ/mol
# GULP energy per Si atom -12397.072384 kJ/mol
# Density = 1.962783 g / cm^3
# Si number density = 19.672603 Si / 1000 Ang^3
#
#
#
# Elastic Constant Matrix: (Units=GPa)
#
#
# Indices 1 2 3 4 5 6 
#
# 1 123.0323 55.4595 51.7144 0.0000 -1.9514 0.0000
# 2 55.4595 97.7468 23.7164 0.0000 -16.1479 0.0000
# 3 51.7144 23.7164 126.1829 0.0000 5.3065 0.0000
# 4 0.0000 0.0000 0.0000 29.5088 0.0000 -2.9912
# 5 -1.9514 -16.1479 5.3065 0.0000 37.2136 0.0000
# 6 0.0000 0.0000 0.0000 -2.9912 0.0000 25.9173
#
#
#
# Elastic Compliance Matrix: (Units=1/GPa)
#
#
# Indices 1 2 3 4 5 6 
#
# 1 0.012679 -0.006511 -0.003905 0.000000 -0.001604 0.000000
# 2 -0.006511 0.015061 -0.000425 0.000000 0.006255 0.000000
# 3 -0.003905 -0.000425 0.009680 0.000000 -0.001770 0.000000
# 4 0.000000 0.000000 0.000000 0.034289 0.000000 0.003958
# 5 -0.001604 0.006255 -0.001770 0.000000 0.029754 0.000000
# 6 0.000000 0.000000 0.000000 0.003958 0.000000 0.039041
#
#
# Mechanical properties :
#
#
# Convention : Reuss Voigt Hill
#
# Bulk Modulus (GPa) = 63.54492 67.63807 65.59149
# Shear Modulus (GPa) = 29.86258 32.93273 31.39766
#
# Velocity S-wave (km/s) = 3.90035 4.09594 3.99934
# Velocity P-wave (km/s) = 7.25638 7.53827 7.39867
#
# Compressibility (1/GPa) = 0.01573690
#
# Stress axis : x y z
#
# Youngs Moduli (GPa) = 78.87044 66.39516 103.30787
#
# Poissons Ratio (x) = 0.43232 0.40343
# Poissons Ratio (y) = 0.51354 0.04394
# Poissons Ratio (z) = 0.30800 0.02824
#
# Static dielectric constant tensor:
#      x y z
#    x 3.377460 0.000000 0.296020 
#    y 0.000000 3.502470 0.000000 
#    z 0.296020 0.000000 3.859480 
# 
# 
# High freq. dielectric constant tensor:
#      x y z
#    x 1.735670 0.000000 0.013700 
#    y 0.000000 1.777210 0.000000 
#    z 0.013700 0.000000 1.770170 
# 
# From -- ./inp_files/24339.got.cif
#   From: 2010.03.12/outbox.cif.g09.slc.cpg/sg8_13_cif.got.tgz:24339.got - 2010.03.31 10:45:26.
