data_PCOD8053328
_publ_section_title
;
Structure prediction by ZEFSAII (Michael W. Deem and Ramdas Pophale) SiO2 
 PCOD8053328
Probable space group: C M
;
_chemical_formula_sum "Si O2"
_cell_formula_units_Z 32
_cell_length_a 17.967236
_cell_length_b 14.175265
_cell_length_c 21.421685
_cell_angle_alpha 90.000000
_cell_angle_beta 161.669590
_cell_angle_gamma 90.000000
_cell_volume 1715.859252
_symmetry_space_group_name_H-M "C M"
_symmetry_group_IT_number 8
_symmetry_cell_setting 'monoclinic'
loop_
_space_group_symop_operation_xyz
x,y,z
x,-y,z
1/2+x,1/2+y,z
1/2+x,1/2-y,z
loop_
_atom_site_type_symbol
_atom_site_label
_atom_site_fract_x
_atom_site_fract_y
_atom_site_fract_z
Si Si1 0.199560 0.608488 0.819930
Si Si2 0.299160 0.670946 0.197564
Si Si3 0.166288 0.892961 0.398300
Si Si4 0.702913 0.893106 0.679100
Si Si5 0.857420 0.606413 0.785983
Si Si6 0.404314 0.284082 0.422755
Si Si7 0.594654 0.720541 0.931286
Si Si8 0.448564 0.268146 0.119064
O O1 0.221042 0.500000 0.859668
O O2 0.282353 0.618292 0.814165
O O3 0.931846 0.647222 0.615325
O O4 0.367490 0.675735 0.993450
O O5 0.526257 0.614056 0.352225
O O6 0.349663 0.694799 0.308126
O O7 0.264534 0.765331 0.127392
O O8 0.055294 0.609178 0.998720
O O9 0.015567 0.841601 0.225734
O O10 0.187764 0.000000 0.393187
O O11 0.481104 0.825189 0.489691
O O12 0.920180 0.866281 0.806380
O O13 0.623894 0.000000 0.601697
O O14 0.834019 0.500000 0.740991
O O15 0.602972 0.644223 0.607835
O O16 0.943614 0.681082 0.801371
O O17 0.167944 0.298676 0.275316
O O18 0.742020 0.702485 0.984988
#
# Coordination Sequence:
#
# PCOD8053328 Si02
#       8
#     4   4   4   4   4   4   4   4
#     4  10  21  33  54  86 116 149 186 238 298 343
#     4   9  20  34  56  82 117 151 186 229 286 347
#     4  10  20  33  52  87 120 144 183 238 297 351
#     4  10  20  38  58  80 115 152 193 236 276 334
#     4   9  20  37  58  83 113 146 188 236 282 337
#     4  11  22  36  58  85 114 157 191 232 286 341
#     4   8  20  37  55  84 110 153 185 235 280 335
#     4  11  21  34  57  83 117 152 183 238 284 342
#
# _framework density 18.649549
#
# number of rings (size 3 to 8) (size 9 to 14) (size 15 to 20)
#    0.750    1.500    1.250    1.500    3.500    2.000 
#    0.000    1.250    0.000    0.000    0.000    0.000 
#    0.000    0.000    0.000    0.000    0.000    0.000 
#
# Total GULP energy -198280.283545 kJ/mol
# GULP energy per Si atom -12392.517722 kJ/mol
# Density = 1.860710 g / cm^3
# Si number density = 18.649549 Si / 1000 Ang^3
#
#
#
# Elastic Constant Matrix: (Units=GPa)
#
#
# Indices 1 2 3 4 5 6 
#
# 1 112.3414 34.6125 45.5693 0.0099 21.3018 -0.0013
# 2 34.6125 68.0510 26.6094 -0.0805 8.5993 -0.0059
# 3 45.5693 26.6094 82.8385 -0.3082 23.1205 0.0134
# 4 0.0099 -0.0805 -0.3082 21.2347 0.0748 -0.9284
# 5 21.3018 8.5993 23.1205 0.0748 31.8827 0.0533
# 6 -0.0013 -0.0059 0.0134 -0.9284 0.0533 19.7746
#
#
#
# Elastic Compliance Matrix: (Units=1/GPa)
#
#
# Indices 1 2 3 4 5 6 
#
# 1 0.012832 -0.004226 -0.004547 -0.000073 -0.004136 0.000010
# 2 -0.004226 0.018213 -0.003689 0.000016 0.000587 0.000007
# 3 -0.004547 -0.003689 0.018347 0.000288 -0.009272 0.000025
# 4 -0.000073 0.000016 0.000288 0.047195 -0.000279 0.002216
# 5 -0.004136 0.000587 -0.009272 -0.000279 0.040695 -0.000117
# 6 0.000010 0.000007 0.000025 0.002216 -0.000117 0.050674
#
#
# Mechanical properties :
#
#
# Convention : Reuss Voigt Hill
#
# Bulk Modulus (GPa) = 40.87148 52.97926 46.92537
# Shear Modulus (GPa) = 22.62055 25.00771 23.81413
#
# Velocity S-wave (km/s) = 3.48649 3.66584 3.57729
# Velocity P-wave (km/s) = 6.17823 6.81082 6.50223
#
# Compressibility (1/GPa) = 0.02446694
#
# Stress axis : x y z
#
# Youngs Moduli (GPa) = 77.92790 54.90635 54.50397
#
# Poissons Ratio (x) = 0.23204 0.24785
# Poissons Ratio (y) = 0.32934 0.20107
# Poissons Ratio (z) = 0.35437 0.20256
#
# Static dielectric constant tensor:
#      x y z
#    x 3.381080 -0.000180 0.315210 
#    y -0.000180 3.146290 -0.000440 
#    z 0.315210 -0.000440 3.609990 
# 
# 
# High freq. dielectric constant tensor:
#      x y z
#    x 1.711520 -0.000010 0.014790 
#    y -0.000010 1.687600 -0.000030 
#    z 0.014790 -0.000030 1.731360 
# 
# From -- ./inp_files/31209.got.cif
#   From: 2010.03.12/outbox.cif.g09.slc.cpg/sg8_16_cif.got.tgz:31209.got - 2010.03.31 10:45:26.
