data_PCOD8053012
_publ_section_title
;
Structure prediction by ZEFSAII (Michael W. Deem and Ramdas Pophale) SiO2 
 PCOD8053012
Probable space group: C M
;
_chemical_formula_sum "Si O2"
_cell_formula_units_Z 32
_cell_length_a 25.158292
_cell_length_b 8.881167
_cell_length_c 16.670457
_cell_angle_alpha 90.000000
_cell_angle_beta 26.470477
_cell_angle_gamma 90.000000
_cell_volume 1660.263457
_symmetry_space_group_name_H-M "C M"
_symmetry_group_IT_number 8
_symmetry_cell_setting 'monoclinic'
loop_
_space_group_symop_operation_xyz
x,y,z
x,-y,z
1/2+x,1/2+y,z
1/2+x,1/2-y,z
loop_
_atom_site_type_symbol
_atom_site_label
_atom_site_fract_x
_atom_site_fract_y
_atom_site_fract_z
Si Si1 0.712600 0.178263 0.414310
Si Si2 0.403267 0.679454 0.286461
Si Si3 0.861117 0.678787 0.512565
Si Si4 0.665707 0.674018 0.901621
Si Si5 0.364056 0.173999 0.753165
Si Si6 0.262897 0.824839 0.178464
Si Si7 0.453432 0.177249 0.801415
Si Si8 0.025976 0.173294 0.410170
O O1 0.814655 0.234637 0.336544
O O2 0.740718 0.229244 0.287032
O O3 0.585641 0.247992 0.614517
O O4 0.706043 0.000000 0.422490
O O5 0.406122 0.500000 0.292109
O O6 0.354479 0.748706 0.434416
O O7 0.533919 0.746291 0.086589
O O8 0.860146 0.500000 0.506918
O O9 0.747495 0.739189 0.718538
O O10 0.982932 0.728420 0.392495
O O11 0.648015 0.500000 0.907105
O O12 0.731070 0.700669 0.898719
O O13 0.370289 0.218580 0.837718
O O14 0.455527 0.281978 0.585034
O O15 0.402096 0.000000 0.686958
O O16 0.164124 0.797420 0.243096
O O17 0.267110 0.000000 0.196740
O O18 0.387225 0.766686 0.971354
O O19 0.466473 0.000000 0.789286
O O20 0.001861 0.000000 0.421496
#
# Coordination Sequence:
#
# PCOD8053012 Si02
#       8
#     4   4   4   4   4   4   4   4
#     4  10  21  38  57  78 109 144 180 226 269 311
#     4  10  21  37  58  81 106 142 185 224 264 314
#     4  10  21  37  56  80 109 145 180 217 268 324
#     4   8  17  33  54  78 106 142 178 211 263 327
#     4   9  16  31  56  77 106 146 179 214 263 326
#     4  10  21  35  55  81 108 144 183 219 266 324
#     4   9  18  33  54  79 107 143 181 214 267 329
#     4  10  19  32  54  82 113 140 174 225 272 313
#
# _framework density 19.274049999999999
#
# number of rings (size 3 to 8) (size 9 to 14) (size 15 to 20)
#    0.000    2.500    1.250    1.500    1.750    2.000 
#    0.000    4.375    0.000    0.000    0.000    0.000 
#    0.000    0.000    0.000    0.000    0.000    0.000 
#
# Total GULP energy -198330.703830 kJ/mol
# GULP energy per Si atom -12395.668989 kJ/mol
# Density = 1.923018 g / cm^3
# Si number density = 19.274050 Si / 1000 Ang^3
#
#
#
# Elastic Constant Matrix: (Units=GPa)
#
#
# Indices 1 2 3 4 5 6 
#
# 1 102.0262 23.7975 61.6168 0.0000 -11.6141 -0.0001
# 2 23.7975 24.7992 16.4212 -0.0009 -3.1221 0.0004
# 3 61.6168 16.4212 133.8803 -0.0002 -11.0901 0.0001
# 4 0.0000 -0.0009 -0.0002 22.7185 0.0004 7.6819
# 5 -11.6141 -3.1221 -11.0901 0.0004 26.3786 -0.0002
# 6 -0.0001 0.0004 0.0001 7.6819 -0.0002 25.0676
#
#
#
# Elastic Compliance Matrix: (Units=1/GPa)
#
#
# Indices 1 2 3 4 5 6 
#
# 1 0.016393 -0.011421 -0.005862 -0.000001 0.003401 0.000000
# 2 -0.011421 0.052081 -0.001075 0.000002 0.000684 -0.000002
# 3 -0.005862 -0.001075 0.010438 0.000000 0.001680 0.000000
# 4 -0.000001 0.000002 0.000000 0.049105 -0.000001 -0.015048
# 5 0.003401 0.000684 0.001680 -0.000001 0.040194 0.000001
# 6 0.000000 -0.000002 0.000000 -0.015048 0.000001 0.044504
#
#
# Mechanical properties :
#
#
# Convention : Reuss Voigt Hill
#
# Bulk Modulus (GPa) = 23.69861 51.59741 37.64801
# Shear Modulus (GPa) = 18.97555 25.42427 22.19991
#
# Velocity S-wave (km/s) = 3.14110 3.63587 3.39750
# Velocity P-wave (km/s) = 5.04754 6.66743 5.91322
#
# Compressibility (1/GPa) = 0.04219657
#
# Stress axis : x y z
#
# Youngs Moduli (GPa) = 61.00293 19.20076 95.80079
#
# Poissons Ratio (x) = 0.21929 0.56158
# Poissons Ratio (y) = 0.69669 0.10301
# Poissons Ratio (z) = 0.35760 0.02064
#
# Static dielectric constant tensor:
#      x y z
#    x 3.613070 0.000000 -0.201320 
#    y 0.000000 3.211660 0.000000 
#    z -0.201320 0.000000 3.890770 
# 
# 
# High freq. dielectric constant tensor:
#      x y z
#    x 1.750360 0.000000 -0.001780 
#    y 0.000000 1.716220 0.000000 
#    z -0.001780 0.000000 1.756070 
# 
# From -- ./inp_files/24826.got.cif
#   From: 2010.03.12/outbox.cif.g09.slc.cpg/sg8_13_cif.got.tgz:24826.got - 2010.03.31 10:45:26.
