data_PCOD8053234
_publ_section_title
;
Structure prediction by ZEFSAII (Michael W. Deem and Ramdas Pophale) SiO2 
 PCOD8053234
Probable space group: C M
;
_chemical_formula_sum "Si O2"
_cell_formula_units_Z 32
_cell_length_a 14.029993
_cell_length_b 8.316319
_cell_length_c 19.973722
_cell_angle_alpha 90.000000
_cell_angle_beta 134.690411
_cell_angle_gamma 90.000000
_cell_volume 1656.786728
_symmetry_space_group_name_H-M "C M"
_symmetry_group_IT_number 8
_symmetry_cell_setting 'monoclinic'
loop_
_space_group_symop_operation_xyz
x,y,z
x,-y,z
1/2+x,1/2+y,z
1/2+x,1/2-y,z
loop_
_atom_site_type_symbol
_atom_site_label
_atom_site_fract_x
_atom_site_fract_y
_atom_site_fract_z
Si Si1 0.769840 0.813658 0.709340
Si Si2 0.482251 0.689251 0.565935
Si Si3 0.280312 0.689334 0.355986
Si Si4 0.986308 0.812803 0.059243
Si Si5 0.767496 0.312357 0.850952
Si Si6 0.976932 0.684963 0.709331
Si Si7 0.779975 0.811483 0.205544
Si Si8 0.482298 0.813794 0.199630
O O1 0.634285 0.724737 0.619065
O O2 0.821574 0.742060 0.805183
O O3 0.883434 0.792318 0.710109
O O4 0.736728 0.000000 0.702953
O O5 0.461766 0.500000 0.565101
O O6 0.383629 0.763479 0.460602
O O7 0.445219 0.775242 0.616803
O O8 0.295910 0.500000 0.365751
O O9 0.314170 0.748254 0.297557
O O10 0.128296 0.740788 0.299072
O O11 0.126875 0.728070 0.112731
O O12 0.943939 0.789311 0.115481
O O13 0.994356 0.000000 0.045631
O O14 0.877115 0.726805 0.960007
O O15 0.735037 0.500000 0.833433
O O16 0.631276 0.220261 0.802421
O O17 0.945065 0.500000 0.708177
O O18 0.874305 0.711757 0.203462
O O19 0.805709 0.000000 0.208773
O O20 0.487323 0.000000 0.180496
#
# Coordination Sequence:
#
# PCOD8053234 Si02
#       8
#     4   4   4   4   4   4   4   4
#     4  11  22  38  57  82 112 146 184 227 272 324
#     4  10  19  36  58  83 112 146 183 227 276 327
#     4   8  18  35  56  80 112 146 183 227 274 323
#     4  11  22  38  58  83 111 145 183 225 272 326
#     4  11  22  39  60  84 111 143 179 225 276 328
#     4  11  22  38  57  82 112 146 184 227 272 324
#     4  10  20  37  57  82 112 146 184 228 274 324
#     4  10  20  37  57  82 112 146 184 228 274 324
#
# _framework density 19.314494
#
# number of rings (size 3 to 8) (size 9 to 14) (size 15 to 20)
#    0.000    1.750    0.000    7.875    0.000    2.000 
#    0.000   15.000    0.000    0.000    0.000    0.000 
#    0.000    0.000    0.000    0.000    0.000    0.000 
#
# Total GULP energy -198454.319851 kJ/mol
# GULP energy per Si atom -12403.394991 kJ/mol
# Density = 1.927053 g / cm^3
# Si number density = 19.314494 Si / 1000 Ang^3
#
#
#
# Elastic Constant Matrix: (Units=GPa)
#
#
# Indices 1 2 3 4 5 6 
#
# 1 121.9614 -0.4736 56.9266 0.0000 -0.2065 0.0000
# 2 -0.4736 71.8580 7.8389 0.0000 -1.2237 0.0000
# 3 56.9266 7.8389 144.0385 0.0000 0.4423 0.0000
# 4 0.0000 0.0000 0.0000 22.5230 0.0000 -2.9181
# 5 -0.2065 -1.2237 0.4423 0.0000 11.4199 0.0000
# 6 0.0000 0.0000 0.0000 -2.9181 0.0000 28.3959
#
#
#
# Elastic Compliance Matrix: (Units=1/GPa)
#
#
# Indices 1 2 3 4 5 6 
#
# 1 0.010074 0.000511 -0.004010 0.000000 0.000392 0.000000
# 2 0.000511 0.014052 -0.000971 0.000000 0.001553 0.000000
# 3 -0.004010 -0.000971 0.008582 0.000000 -0.000509 0.000000
# 4 0.000000 0.000000 0.000000 0.044998 0.000000 0.004624
# 5 0.000392 0.001553 -0.000509 0.000000 0.087760 0.000000
# 6 0.000000 0.000000 0.000000 0.004624 0.000000 0.035691
#
#
# Mechanical properties :
#
#
# Convention : Reuss Voigt Hill
#
# Bulk Modulus (GPa) = 42.07737 51.82684 46.95211
# Shear Modulus (GPa) = 22.93354 30.70551 26.81952
#
# Velocity S-wave (km/s) = 3.44957 3.99151 3.73039
# Velocity P-wave (km/s) = 6.13993 6.93789 6.55107
#
# Compressibility (1/GPa) = 0.02376574
#
# Stress axis : x y z
#
# Youngs Moduli (GPa) = 99.26712 71.16371 116.52333
#
# Poissons Ratio (x) = -0.03633 0.46730
# Poissons Ratio (y) = -0.05068 0.11318
# Poissons Ratio (z) = 0.39810 0.06912
#
# Static dielectric constant tensor:
#      x y z
#    x 3.438020 0.000000 -0.030850 
#    y 0.000000 3.513430 0.000000 
#    z -0.030850 0.000000 3.746660 
# 
# 
# High freq. dielectric constant tensor:
#      x y z
#    x 1.750990 0.000000 -0.000360 
#    y 0.000000 1.757530 0.000000 
#    z -0.000360 0.000000 1.755440 
# 
# From -- ./inp_files/30707.got.cif
#   From: 2010.03.12/outbox.cif.g09.slc.cpg/sg8_16_cif.got.tgz:30707.got - 2010.03.31 10:45:26.
