data_PCOD8053038
_publ_section_title
;
Structure prediction by ZEFSAII (Michael W. Deem and Ramdas Pophale) SiO2 
 PCOD8053038
Probable space group: C M
;
_chemical_formula_sum "Si O2"
_cell_formula_units_Z 24
_cell_length_a 18.324305
_cell_length_b 8.609335
_cell_length_c 23.926789
_cell_angle_alpha 90.000000
_cell_angle_beta 159.766661
_cell_angle_gamma 90.000000
_cell_volume 1305.455489
_symmetry_space_group_name_H-M "C M"
_symmetry_group_IT_number 8
_symmetry_cell_setting 'monoclinic'
loop_
_space_group_symop_operation_xyz
x,y,z
x,-y,z
1/2+x,1/2+y,z
1/2+x,1/2-y,z
loop_
_atom_site_type_symbol
_atom_site_label
_atom_site_fract_x
_atom_site_fract_y
_atom_site_fract_z
Si Si1 0.972430 0.181655 0.022230
Si Si2 0.583056 0.179287 0.669845
Si Si3 0.977398 0.322002 0.474189
Si Si4 0.540099 0.178344 0.181068
Si Si5 0.633235 0.818217 0.369550
Si Si6 0.928942 0.181193 0.330560
O O1 0.910833 0.219512 0.042814
O O2 0.185151 0.267563 0.156775
O O3 0.006418 0.000000 0.038307
O O4 0.784119 0.243641 0.847717
O O5 0.633701 0.197051 0.639495
O O6 0.378644 0.276009 0.540447
O O7 0.539482 0.000000 0.653650
O O8 0.897049 0.500000 0.412711
O O9 0.785697 0.204719 0.345873
O O10 0.068263 0.269339 0.479073
O O11 0.503070 0.224803 0.219245
O O12 0.481514 0.000000 0.128755
O O13 0.526898 0.720410 0.341542
O O14 0.614773 0.000000 0.369109
O O15 0.945850 0.000000 0.353253
#
# Coordination Sequence:
#
# PCOD8053038 Si02
#       6
#     4   4   4   4   4   4
#     4  10  19  33  53  76 103 132 164 202 246 295
#     4   9  19  34  53  77 102 130 164 203 246 295
#     4   9  16  30  51  72  97 130 166 201 243 294
#     4   9  17  30  49  73  98 128 167 204 241 292
#     4  10  20  34  53  75 100 131 167 206 248 294
#     4  11  21  33  51  75 102 131 168 208 246 292
#
# _framework density 18.384388000000001
#
# number of rings (size 3 to 8) (size 9 to 14) (size 15 to 20)
#    0.000    2.333    0.000    5.500    0.000    4.000 
#    0.000    1.667    0.000    2.000    0.000    0.000 
#    0.000    0.000    0.000    0.000    0.000    0.000 
#
# Total GULP energy -148700.108834 kJ/mol
# GULP energy per Si atom -12391.675736 kJ/mol
# Density = 1.834254 g / cm^3
# Si number density = 18.384388 Si / 1000 Ang^3
#
#
#
# Elastic Constant Matrix: (Units=GPa)
#
#
# Indices 1 2 3 4 5 6 
#
# 1 131.8085 37.7654 53.5363 0.0100 -25.4124 0.0020
# 2 37.7654 67.6699 30.9880 0.0002 -8.3099 0.0014
# 3 53.5363 30.9880 94.5628 -0.0074 -31.9658 -0.0092
# 4 0.0100 0.0002 -0.0074 20.6572 -0.0067 -1.7205
# 5 -25.4124 -8.3099 -31.9658 -0.0067 30.7062 -0.0009
# 6 0.0020 0.0014 -0.0092 -1.7205 -0.0009 32.9999
#
#
#
# Elastic Compliance Matrix: (Units=1/GPa)
#
#
# Indices 1 2 3 4 5 6 
#
# 1 0.010977 -0.004028 -0.003383 -0.000005 0.004473 -0.000002
# 2 -0.004028 0.018936 -0.005122 -0.000001 -0.003541 -0.000002
# 3 -0.003383 -0.005122 0.019679 0.000015 0.016300 0.000007
# 4 -0.000005 -0.000001 0.000015 0.048620 0.000021 0.002535
# 5 0.004473 -0.003541 0.016300 0.000021 0.052280 0.000007
# 6 -0.000002 -0.000002 0.000007 0.002535 0.000007 0.030435
#
#
# Mechanical properties :
#
#
# Convention : Reuss Voigt Hill
#
# Bulk Modulus (GPa) = 40.77120 59.84673 50.30896
# Shear Modulus (GPa) = 23.34620 28.32276 25.83448
#
# Velocity S-wave (km/s) = 3.56742 3.92929 3.75272
# Velocity P-wave (km/s) = 6.26050 7.29448 6.79718
#
# Compressibility (1/GPa) = 0.02452712
#
# Stress axis : x y z
#
# Youngs Moduli (GPa) = 91.09831 52.80905 50.81666
#
# Poissons Ratio (x) = 0.21271 0.17189
# Poissons Ratio (y) = 0.36693 0.26028
# Poissons Ratio (z) = 0.30815 0.27048
#
# Static dielectric constant tensor:
#      x y z
#    x 3.878280 -0.000020 -0.552600 
#    y -0.000020 3.388270 0.000000 
#    z -0.552600 0.000000 3.252810 
# 
# 
# High freq. dielectric constant tensor:
#      x y z
#    x 1.719810 0.000000 -0.037470 
#    y 0.000000 1.723210 0.000000 
#    z -0.037470 0.000000 1.675950 
# 
# From -- ./inp_files/14191.got.cif
#   From: 2010.03.12/outbox.cif.g09.slc.cpg/sg8_8_cif.got.tgz:14191.got - 2010.03.31 10:45:26.
