data_PCOD8053149
_publ_section_title
;
Structure prediction by ZEFSAII (Michael W. Deem and Ramdas Pophale) SiO2 
 PCOD8053149
Probable space group: C M
;
_chemical_formula_sum "Si O2"
_cell_formula_units_Z 32
_cell_length_a 33.258145
_cell_length_b 8.783978
_cell_length_c 12.564689
_cell_angle_alpha 90.000000
_cell_angle_beta 153.743617
_cell_angle_gamma 90.000000
_cell_volume 1623.846357
_symmetry_space_group_name_H-M "C M"
_symmetry_group_IT_number 8
_symmetry_cell_setting 'monoclinic'
loop_
_space_group_symop_operation_xyz
x,y,z
x,-y,z
1/2+x,1/2+y,z
1/2+x,1/2-y,z
loop_
_atom_site_type_symbol
_atom_site_label
_atom_site_fract_x
_atom_site_fract_y
_atom_site_fract_z
Si Si1 0.350900 0.318920 0.366850
Si Si2 0.462694 0.819291 0.446419
Si Si3 0.020668 0.174519 0.159869
Si Si4 0.656207 0.823612 0.976451
Si Si5 0.232926 0.324154 0.379428
Si Si6 0.409949 0.821399 0.084961
Si Si7 0.410913 0.821247 0.721094
Si Si8 0.212703 0.826002 0.544297
O O1 0.353467 0.500000 0.374823
O O2 0.387767 0.256432 0.343711
O O3 0.412937 0.258948 0.610958
O O4 0.247279 0.257009 0.136800
O O5 0.562881 0.750925 0.710850
O O6 0.458344 0.000000 0.452561
O O7 0.439127 0.769680 0.271313
O O8 0.129882 0.191119 0.431034
O O9 0.990792 0.000000 0.075871
O O10 0.975133 0.239437 0.156926
O O11 0.994199 0.264326 0.990181
O O12 0.652713 0.000000 0.940727
O O13 0.660500 0.794131 0.113512
O O14 0.263651 0.500000 0.451081
O O15 0.320558 0.218976 0.571996
O O16 0.188911 0.279061 0.386647
O O17 0.305522 0.771192 0.820401
O O18 0.422591 0.000000 0.098903
O O19 0.418972 0.000000 0.722126
O O20 0.221844 0.000000 0.527241
#
# Coordination Sequence:
#
# PCOD8053149 Si02
#       8
#     4   4   4   4   4   4   4   4
#     4  10  21  38  58  86 119 153 192 240 295 348
#     4  10  21  39  62  86 114 156 201 241 287 347
#     4  11  23  38  58  86 118 154 199 246 296 347
#     4   8  18  36  56  82 117 151 189 235 286 344
#     4  10  19  34  58  87 119 155 194 239 291 349
#     4  10  22  41  61  83 117 158 199 242 294 351
#     4  11  21  36  59  86 120 156 192 240 302 355
#     4  10  22  38  56  84 120 157 194 241 295 349
#
# _framework density 19.706295999999998
#
# number of rings (size 3 to 8) (size 9 to 14) (size 15 to 20)
#    0.000    2.000    1.250    3.000    1.750    2.500 
#    0.000    3.125    0.000    0.000    0.000    0.000 
#    0.000    0.000    0.000    0.000    0.000    0.000 
#
# Total GULP energy -198408.879741 kJ/mol
# GULP energy per Si atom -12400.554984 kJ/mol
# Density = 1.966144 g / cm^3
# Si number density = 19.706296 Si / 1000 Ang^3
#
#
#
# Elastic Constant Matrix: (Units=GPa)
#
#
# Indices 1 2 3 4 5 6 
#
# 1 128.3467 49.3352 83.6002 0.0000 -3.3820 0.0000
# 2 49.3352 68.2030 39.7837 0.0000 -5.8490 0.0000
# 3 83.6002 39.7837 141.5805 0.0000 -3.2967 0.0000
# 4 0.0000 0.0000 0.0000 20.4859 0.0000 0.1468
# 5 -3.3820 -5.8490 -3.2967 0.0000 28.0706 0.0000
# 6 0.0000 0.0000 0.0000 0.1468 0.0000 35.6703
#
#
#
# Elastic Compliance Matrix: (Units=1/GPa)
#
#
# Indices 1 2 3 4 5 6 
#
# 1 0.014871 -0.006777 -0.006887 0.000000 -0.000429 0.000000
# 2 -0.006777 0.020895 -0.001793 0.000000 0.003327 0.000000
# 3 -0.006887 -0.001793 0.011637 0.000000 0.000163 0.000000
# 4 0.000000 0.000000 0.000000 0.048815 0.000000 -0.000201
# 5 -0.000429 0.003327 0.000163 0.000000 0.036285 0.000000
# 6 0.000000 0.000000 0.000000 -0.000201 0.000000 0.028035
#
#
# Mechanical properties :
#
#
# Convention : Reuss Voigt Hill
#
# Bulk Modulus (GPa) = 60.63843 75.95203 68.29523
# Shear Modulus (GPa) = 25.38757 27.87277 26.63017
#
# Velocity S-wave (km/s) = 3.59318 3.76494 3.68006
# Velocity P-wave (km/s) = 6.93199 7.58455 7.26560
#
# Compressibility (1/GPa) = 0.01649119
#
# Stress axis : x y z
#
# Youngs Moduli (GPa) = 67.24692 47.85858 85.93289
#
# Poissons Ratio (x) = 0.32432 0.59178
# Poissons Ratio (y) = 0.45570 0.15404
# Poissons Ratio (z) = 0.46310 0.08579
#
# Static dielectric constant tensor:
#      x y z
#    x 3.513840 0.000000 0.034030 
#    y 0.000000 3.439970 0.000000 
#    z 0.034030 0.000000 3.800240 
# 
# 
# High freq. dielectric constant tensor:
#      x y z
#    x 1.766200 0.000000 0.005310 
#    y 0.000000 1.756110 0.000000 
#    z 0.005310 0.000000 1.771120 
# 
# From -- ./inp_files/24798.got.cif
#   From: 2010.03.12/outbox.cif.g09.slc.cpg/sg8_13_cif.got.tgz:24798.got - 2010.03.31 10:45:26.
