data_PCOD8053911
_publ_section_title
;
Structure prediction by ZEFSAII (Michael W. Deem and Ramdas Pophale) SiO2 
 PCOD8053911
Probable space group: C M
;
_chemical_formula_sum "Si O2"
_cell_formula_units_Z 28
_cell_length_a 10.680417
_cell_length_b 21.872163
_cell_length_c 8.026528
_cell_angle_alpha 90.000000
_cell_angle_beta 45.018169
_cell_angle_gamma 90.000000
_cell_volume 1326.265112
_symmetry_space_group_name_H-M "C M"
_symmetry_group_IT_number 8
_symmetry_cell_setting 'monoclinic'
loop_
_space_group_symop_operation_xyz
x,y,z
x,-y,z
1/2+x,1/2+y,z
1/2+x,1/2-y,z
loop_
_atom_site_type_symbol
_atom_site_label
_atom_site_fract_x
_atom_site_fract_y
_atom_site_fract_z
Si Si1 0.796900 0.812344 0.744780
Si Si2 0.698912 0.068289 0.657648
Si Si3 0.919603 0.310169 0.499066
Si Si4 0.316041 0.328793 0.096205
Si Si5 0.484887 0.566447 0.114792
Si Si6 0.821957 0.375511 0.925183
Si Si7 0.887268 0.294771 0.164801
O O1 0.801064 0.882655 0.677774
O O2 0.916488 0.764088 0.526913
O O3 0.872079 0.807369 0.860133
O O4 0.593971 0.792988 0.929960
O O5 0.499587 0.087481 0.798390
O O6 0.805855 0.065410 0.387811
O O7 0.695108 0.000000 0.744426
O O8 0.821849 0.340574 0.747263
O O9 0.833795 0.322473 0.396314
O O10 0.108556 0.343499 0.304089
O O11 0.448632 0.384587 0.005515
O O12 0.337228 0.276188 0.213447
O O13 0.515420 0.500000 0.003347
O O14 0.654303 0.579981 0.071778
O O15 0.783871 0.329714 0.114562
#
# Coordination Sequence:
#
# PCOD8053911 Si02
#       7
#     4   4   4   4   4   4   4
#     4  10  22  38  60  92 125 166 205 253 314 368
#     4  10  22  42  65  88 123 171 210 250 307 365
#     4  11  22  37  63  94 127 164 200 256 320 366
#     4  11  22  38  60  92 129 161 207 259 304 374
#     4  11  24  41  64  91 122 166 214 254 301 373
#     4  11  22  43  66  93 125 165 202 262 310 368
#     4  10  23  37  60  96 126 159 206 254 312 372
#
# _framework density 21.111917999999999
#
# number of rings (size 3 to 8) (size 9 to 14) (size 15 to 20)
#    0.000    1.429    2.857    2.143    6.000    1.714 
#    0.000    0.000    0.000    1.714    0.000    0.000 
#    0.000    0.000    0.000    0.000    0.000    0.000 
#
# Total GULP energy -173490.499655 kJ/mol
# GULP energy per Si atom -12392.178547 kJ/mol
# Density = 2.106387 g / cm^3
# Si number density = 21.111918 Si / 1000 Ang^3
#
#
#
# Elastic Constant Matrix: (Units=GPa)
#
#
# Indices 1 2 3 4 5 6 
#
# 1 95.3034 40.8909 30.4951 0.0000 12.0559 0.0000
# 2 40.8909 114.3206 17.9240 0.0000 -0.9789 0.0000
# 3 30.4951 17.9240 54.8076 0.0000 14.0222 0.0000
# 4 0.0000 0.0000 0.0000 22.7531 0.0000 0.5594
# 5 12.0559 -0.9789 14.0222 0.0000 38.6803 0.0000
# 6 0.0000 0.0000 0.0000 0.5594 0.0000 32.4636
#
#
#
# Elastic Compliance Matrix: (Units=1/GPa)
#
#
# Indices 1 2 3 4 5 6 
#
# 1 0.014590 -0.004285 -0.006090 0.000000 -0.002448 0.000000
# 2 -0.004285 0.010554 -0.001629 0.000000 0.002193 0.000000
# 3 -0.006090 -0.001629 0.023909 0.000000 -0.006810 0.000000
# 4 0.000000 0.000000 0.000000 0.043969 0.000000 -0.000758
# 5 -0.002448 0.002193 -0.006810 0.000000 0.029140 0.000000
# 6 0.000000 0.000000 0.000000 -0.000758 0.000000 0.030817
#
#
# Mechanical properties :
#
#
# Convention : Reuss Voigt Hill
#
# Bulk Modulus (GPa) = 39.92642 49.22796 44.57719
# Shear Modulus (GPa) = 26.97832 30.45416 28.71624
#
# Velocity S-wave (km/s) = 3.57861 3.80216 3.69208
# Velocity P-wave (km/s) = 6.00234 6.53020 6.27183
#
# Compressibility (1/GPa) = 0.02504607
#
# Stress axis : x y z
#
# Youngs Moduli (GPa) = 68.54233 94.75097 41.82483
#
# Poissons Ratio (x) = 0.40597 0.25472
# Poissons Ratio (y) = 0.29367 0.06812
# Poissons Ratio (z) = 0.41743 0.15431
#
# Static dielectric constant tensor:
#      x y z
#    x 3.853130 0.000000 0.026490 
#    y 0.000000 4.075100 0.000000 
#    z 0.026490 0.000000 3.682410 
# 
# 
# High freq. dielectric constant tensor:
#      x y z
#    x 1.831280 0.000000 -0.004790 
#    y 0.000000 1.817810 0.000000 
#    z -0.004790 0.000000 1.820650 
# 
# From -- ./inp_files/11416.got.cif
#   From: 2010.03.12/outbox.cif.g09.slc.cpg/sg8_6_cif.got.tgz:11416.got - 2010.03.31 10:45:26.
