data_PCOD8053354
_publ_section_title
;
Structure prediction by ZEFSAII (Michael W. Deem and Ramdas Pophale) SiO2 
 PCOD8053354
Probable space group: C M
;
_chemical_formula_sum "Si O2"
_cell_formula_units_Z 32
_cell_length_a 19.875586
_cell_length_b 8.813809
_cell_length_c 14.095929
_cell_angle_alpha 90.000000
_cell_angle_beta 44.729989
_cell_angle_gamma 90.000000
_cell_volume 1737.824675
_symmetry_space_group_name_H-M "C M"
_symmetry_group_IT_number 8
_symmetry_cell_setting 'monoclinic'
loop_
_space_group_symop_operation_xyz
x,y,z
x,-y,z
1/2+x,1/2+y,z
1/2+x,1/2-y,z
loop_
_atom_site_type_symbol
_atom_site_label
_atom_site_fract_x
_atom_site_fract_y
_atom_site_fract_z
Si Si1 0.635020 0.822694 0.781270
Si Si2 0.801679 0.821918 0.263484
Si Si3 0.141079 0.321655 0.564166
Si Si4 0.170485 0.677370 0.040646
Si Si5 0.520723 0.678043 0.058222
Si Si6 0.172290 0.178975 0.240824
Si Si7 0.512683 0.822030 0.522969
Si Si8 0.312550 0.672708 0.730965
O O1 0.631069 0.752267 0.679281
O O2 0.741642 0.799004 0.714242
O O3 0.606961 0.000000 0.815232
O O4 0.559138 0.727640 0.917353
O O5 0.740636 0.770500 0.416432
O O6 0.910082 0.776609 0.174561
O O7 0.762626 0.735803 0.210567
O O8 0.789135 0.000000 0.256351
O O9 0.140919 0.500000 0.577941
O O10 0.053684 0.269004 0.584344
O O11 0.161016 0.500000 0.071636
O O12 0.189364 0.768187 0.116962
O O13 0.072684 0.732552 0.090254
O O14 0.258910 0.712234 0.882398
O O15 0.537084 0.500000 0.056231
O O16 0.071782 0.242515 0.380117
O O17 0.167662 0.000000 0.248829
O O18 0.401880 0.782320 0.627642
O O19 0.527408 0.000000 0.495097
O O20 0.349186 0.500000 0.695321
#
# Coordination Sequence:
#
# PCOD8053354 Si02
#       8
#     4   4   4   4   4   4   4   4
#     4   9  18  34  54  75 103 139 176 217 265 313
#     4   9  19  36  55  77 107 141 177 220 268 314
#     4   8  16  33  54  73  96 132 175 212 254 309
#     4  10  21  38  57  78 109 144 178 222 273 320
#     4  10  20  34  54  80 108 139 177 220 264 316
#     4  11  22  36  56  80 107 141 183 226 266 318
#     4  10  20  35  55  78 107 140 174 219 271 320
#     4   9  19  34  53  77 105 138 174 216 265 318
#
# _framework density 18.413824999999999
#
# number of rings (size 3 to 8) (size 9 to 14) (size 15 to 20)
#    0.000    2.500    0.000    3.750    0.000    5.500 
#    0.000    8.125    0.000    0.000    0.000    0.000 
#    0.000    0.000    0.000    0.000    0.000    0.000 
#
# Total GULP energy -198416.960737 kJ/mol
# GULP energy per Si atom -12401.060046 kJ/mol
# Density = 1.837191 g / cm^3
# Si number density = 18.413825 Si / 1000 Ang^3
#
#
#
# Elastic Constant Matrix: (Units=GPa)
#
#
# Indices 1 2 3 4 5 6 
#
# 1 30.4151 15.4138 8.7052 0.0003 5.7761 -0.0005
# 2 15.4138 67.3208 16.2901 0.0004 -6.2019 -0.0006
# 3 8.7052 16.2901 33.2162 0.0003 -0.9987 -0.0005
# 4 0.0003 0.0004 0.0003 31.0975 0.0000 -3.0778
# 5 5.7761 -6.2019 -0.9987 0.0000 40.6744 0.0001
# 6 -0.0005 -0.0006 -0.0005 -3.0778 0.0001 28.5662
#
#
#
# Elastic Compliance Matrix: (Units=1/GPa)
#
#
# Indices 1 2 3 4 5 6 
#
# 1 0.040356 -0.008269 -0.006736 0.000000 -0.007157 0.000000
# 2 -0.008269 0.018780 -0.006927 0.000000 0.003868 0.000000
# 3 -0.006736 -0.006927 0.035291 0.000000 0.000767 0.000000
# 4 0.000000 0.000000 0.000000 0.032504 0.000000 0.003502
# 5 -0.007157 0.003868 0.000767 0.000000 0.026210 0.000000
# 6 0.000000 0.000000 0.000000 0.003502 0.000000 0.035384
#
#
# Mechanical properties :
#
#
# Convention : Reuss Voigt Hill
#
# Bulk Modulus (GPa) = 19.77721 23.53002 21.65362
# Shear Modulus (GPa) = 20.06063 26.10381 23.08222
#
# Velocity S-wave (km/s) = 3.30424 3.76921 3.54436
# Velocity P-wave (km/s) = 5.03200 5.63461 5.34181
#
# Compressibility (1/GPa) = 0.05056324
#
# Stress axis : x y z
#
# Youngs Moduli (GPa) = 24.77921 53.24799 28.33558
#
# Poissons Ratio (x) = 0.44033 0.19087
# Poissons Ratio (y) = 0.20491 0.19627
# Poissons Ratio (z) = 0.16692 0.36883
#
# Static dielectric constant tensor:
#      x y z
#    x 3.485640 0.000000 0.109230 
#    y 0.000000 3.278200 0.000000 
#    z 0.109230 0.000000 3.441810 
# 
# 
# High freq. dielectric constant tensor:
#      x y z
#    x 1.716970 0.000000 0.002970 
#    y 0.000000 1.706970 0.000000 
#    z 0.002970 0.000000 1.715710 
# 
# From -- ./inp_files/27761.got.cif
#   From: 2010.03.12/outbox.cif.g09.slc.cpg/sg8_14_cif.got.tgz:27761.got - 2010.03.31 10:45:26.
