data_PCOD8053142
_publ_section_title
;
Structure prediction by ZEFSAII (Michael W. Deem and Ramdas Pophale) SiO2 
 PCOD8053142
Probable space group: C M
;
_chemical_formula_sum "Si O2"
_cell_formula_units_Z 24
_cell_length_a 8.583290
_cell_length_b 12.872634
_cell_length_c 15.016565
_cell_angle_alpha 90.000000
_cell_angle_beta 46.775721
_cell_angle_gamma 90.000000
_cell_volume 1209.004049
_symmetry_space_group_name_H-M "C M"
_symmetry_group_IT_number 8
_symmetry_cell_setting 'monoclinic'
loop_
_space_group_symop_operation_xyz
x,y,z
x,-y,z
1/2+x,1/2+y,z
1/2+x,1/2-y,z
loop_
_atom_site_type_symbol
_atom_site_label
_atom_site_fract_x
_atom_site_fract_y
_atom_site_fract_z
Si Si1 0.573610 0.384913 0.584260
Si Si2 0.726861 0.191358 0.602813
Si Si3 0.989634 0.374997 0.095268
Si Si4 0.394422 0.241567 0.952504
Si Si5 0.287954 0.120000 0.816857
Si Si6 0.126800 0.883781 0.367434
O O1 0.557299 0.500000 0.631102
O O2 0.678916 0.314715 0.619389
O O3 0.333634 0.342809 0.654931
O O4 0.708246 0.382551 0.438924
O O5 0.505998 0.129196 0.673517
O O6 0.891795 0.169925 0.456316
O O7 0.013514 0.500000 0.087063
O O8 0.936724 0.334468 0.018151
O O9 0.801912 0.333228 0.234400
O O10 0.204619 0.322332 0.047884
O O11 0.337382 0.166061 0.894425
O O12 0.599172 0.312186 0.847101
O O13 0.217962 0.000000 0.850959
O O14 0.089231 0.000000 0.348623
#
# Coordination Sequence:
#
# PCOD8053142 Si02
#       6
#     4   4   4   4   4   4
#     4   9  19  35  52  80 112 139 174 212 266 323
#     4  10  19  34  58  80 107 142 175 217 273 317
#     4  10  20  37  57  79 109 140 180 224 262 315
#     4  10  23  36  55  82 104 146 184 217 264 312
#     4  11  21  38  57  78 111 142 178 223 265 317
#     4   8  18  34  57  81 107 141 175 217 272 318
#
# _framework density 19.851049
#
# number of rings (size 3 to 8) (size 9 to 14) (size 15 to 20)
#    1.000    1.333    0.000    3.000    2.333    0.000 
#    0.000    8.333    0.000    1.000    0.000    0.000 
#    0.000    0.000    0.000    0.000    0.000    0.000 
#
# Total GULP energy -148669.007900 kJ/mol
# GULP energy per Si atom -12389.083992 kJ/mol
# Density = 1.980587 g / cm^3
# Si number density = 19.851049 Si / 1000 Ang^3
#
#
#
# Elastic Constant Matrix: (Units=GPa)
#
#
# Indices 1 2 3 4 5 6 
#
# 1 24.9402 18.1432 6.4360 0.0005 -8.1314 -0.0003
# 2 18.1432 126.1164 22.8363 0.0002 -6.2243 -0.0001
# 3 6.4360 22.8363 111.8910 0.0000 -23.5407 -0.0003
# 4 0.0005 0.0002 0.0000 27.2515 -0.0003 -2.3532
# 5 -8.1314 -6.2243 -23.5407 -0.0003 21.5909 0.0003
# 6 -0.0003 -0.0001 -0.0003 -2.3532 0.0003 33.6975
#
#
#
# Elastic Compliance Matrix: (Units=1/GPa)
#
#
# Indices 1 2 3 4 5 6 
#
# 1 0.050935 -0.006822 0.002705 -0.000001 0.020166 0.000000
# 2 -0.006822 0.009155 -0.001896 0.000000 -0.001998 0.000000
# 3 0.002705 -0.001896 0.012027 0.000000 0.013585 0.000000
# 4 -0.000001 0.000000 0.000000 0.036918 0.000000 0.002578
# 5 0.020166 -0.001998 0.013585 0.000000 0.068146 0.000000
# 6 0.000000 0.000000 0.000000 0.002578 0.000000 0.029856
#
#
# Mechanical properties :
#
#
# Convention : Reuss Voigt Hill
#
# Bulk Modulus (GPa) = 16.64147 39.75320 28.19734
# Shear Modulus (GPa) = 20.91220 30.87680 25.89450
#
# Velocity S-wave (km/s) = 3.24922 3.94816 3.61562
# Velocity P-wave (km/s) = 4.74109 6.39165 5.62722
#
# Compressibility (1/GPa) = 0.06009085
#
# Stress axis : x y z
#
# Youngs Moduli (GPa) = 19.63268 109.22479 83.14721
#
# Poissons Ratio (x) = 0.74515 -0.22493
# Poissons Ratio (y) = 0.13394 0.15768
# Poissons Ratio (z) = -0.05311 0.20714
#
# Static dielectric constant tensor:
#      x y z
#    x 3.270200 0.000000 -0.164450 
#    y 0.000000 3.559110 0.000000 
#    z -0.164450 0.000000 3.787850 
# 
# 
# High freq. dielectric constant tensor:
#      x y z
#    x 1.749460 0.000000 -0.008260 
#    y 0.000000 1.778900 0.000000 
#    z -0.008260 0.000000 1.775990 
# 
# From -- ./inp_files/18645.got.cif
#   From: 2010.03.12/outbox.cif.g09.slc.cpg/sg8_10_cif.got.tgz:18645.got - 2010.03.31 10:45:26.
