data_PCOD8053161
_publ_section_title
;
Structure prediction by ZEFSAII (Michael W. Deem and Ramdas Pophale) SiO2 
 PCOD8053161
Probable space group: C M
;
_chemical_formula_sum "Si O2"
_cell_formula_units_Z 32
_cell_length_a 25.108074
_cell_length_b 8.862696
_cell_length_c 16.414344
_cell_angle_alpha 90.000000
_cell_angle_beta 153.864155
_cell_angle_gamma 90.000000
_cell_volume 1608.976071
_symmetry_space_group_name_H-M "C M"
_symmetry_group_IT_number 8
_symmetry_cell_setting 'monoclinic'
loop_
_space_group_symop_operation_xyz
x,y,z
x,-y,z
1/2+x,1/2+y,z
1/2+x,1/2-y,z
loop_
_atom_site_type_symbol
_atom_site_label
_atom_site_fract_x
_atom_site_fract_y
_atom_site_fract_z
Si Si1 0.571470 0.322612 0.086610
Si Si2 0.651695 0.174453 0.624722
Si Si3 0.403640 0.178746 0.989189
Si Si4 0.525999 0.670110 0.598803
Si Si5 0.350424 0.823765 0.473397
Si Si6 0.940859 0.675059 0.220747
Si Si7 0.714410 0.329514 0.002202
Si Si8 0.033257 0.676474 0.865314
O O1 0.552359 0.500000 0.061058
O O2 0.711162 0.277655 0.290309
O O3 0.501539 0.251765 0.065565
O O4 0.515715 0.260096 0.926521
O O5 0.769337 0.276708 0.777735
O O6 0.565818 0.222732 0.580450
O O7 0.576490 0.200473 0.438438
O O8 0.688188 0.000000 0.685747
O O9 0.417382 0.000000 0.004154
O O10 0.428057 0.245210 0.113203
O O11 0.504191 0.500000 0.537289
O O12 0.402709 0.733822 0.468014
O O13 0.630724 0.672998 0.808644
O O14 0.420817 0.778074 0.652863
O O15 0.367907 0.000000 0.479917
O O16 0.906413 0.500000 0.166855
O O17 0.842844 0.742226 0.150323
O O18 0.726997 0.500000 0.053999
O O19 0.659632 0.226779 0.998226
O O20 0.037441 0.500000 0.887835
#
# Coordination Sequence:
#
# PCOD8053161 Si02
#       8
#     4   4   4   4   4   4   4   4
#     4  11  24  42  63  87 117 160 203 243 296 359
#     4  11  22  37  60  90 120 156 199 243 296 356
#     4  11  23  44  64  84 118 158 201 251 296 348
#     4  10  19  34  59  89 123 157 196 243 296 351
#     4   9  21  40  60  85 121 158 197 244 297 351
#     4   9  20  38  60  85 117 158 199 238 294 356
#     4   9  17  35  59  84 120 161 195 236 293 354
#     4  10  21  38  59  90 122 154 196 246 296 347
#
# _framework density 19.888424000000001
#
# number of rings (size 3 to 8) (size 9 to 14) (size 15 to 20)
#    0.000    2.000    1.250    1.875    1.750    3.000 
#    0.000    5.625    0.000    0.000    0.000    0.000 
#    0.000    0.000    0.000    0.000    0.000    0.000 
#
# Total GULP energy -198440.759278 kJ/mol
# GULP energy per Si atom -12402.547455 kJ/mol
# Density = 1.984316 g / cm^3
# Si number density = 19.888424 Si / 1000 Ang^3
#
#
#
# Elastic Constant Matrix: (Units=GPa)
#
#
# Indices 1 2 3 4 5 6 
#
# 1 104.8800 34.7570 43.1064 0.0000 21.1163 0.0000
# 2 34.7570 67.4827 30.3352 0.0000 6.3165 0.0000
# 3 43.1064 30.3352 84.9883 0.0000 14.6889 0.0000
# 4 0.0000 0.0000 0.0000 26.4744 0.0000 2.2812
# 5 21.1163 6.3165 14.6889 0.0000 21.4275 0.0000
# 6 0.0000 0.0000 0.0000 2.2812 0.0000 37.7765
#
#
#
# Elastic Compliance Matrix: (Units=1/GPa)
#
#
# Indices 1 2 3 4 5 6 
#
# 1 0.014921 -0.004902 -0.004001 0.000000 -0.010517 0.000000
# 2 -0.004902 0.019280 -0.004819 0.000000 0.002451 0.000000
# 3 -0.004001 -0.004819 0.016549 0.000000 -0.005982 0.000000
# 4 0.000000 0.000000 0.000000 0.037970 0.000000 -0.002293
# 5 -0.010517 0.002451 -0.005982 0.000000 0.060411 0.000000
# 6 0.000000 0.000000 0.000000 -0.002293 0.000000 0.026610
#
#
# Mechanical properties :
#
#
# Convention : Reuss Voigt Hill
#
# Bulk Modulus (GPa) = 42.90547 52.63867 47.77207
# Shear Modulus (GPa) = 23.70182 27.07918 25.39050
#
# Velocity S-wave (km/s) = 3.45590 3.69393 3.57690
# Velocity P-wave (km/s) = 6.12734 6.68715 6.41335
#
# Compressibility (1/GPa) = 0.02330705
#
# Stress axis : x y z
#
# Youngs Moduli (GPa) = 67.01970 51.86620 60.42548
#
# Poissons Ratio (x) = 0.25427 0.24173
# Poissons Ratio (y) = 0.32855 0.29119
# Poissons Ratio (z) = 0.26811 0.24994
#
# Static dielectric constant tensor:
#      x y z
#    x 3.648440 0.000000 -0.015890 
#    y 0.000000 3.579810 0.000000 
#    z -0.015890 0.000000 3.738260 
# 
# 
# High freq. dielectric constant tensor:
#      x y z
#    x 1.775410 0.000000 -0.000360 
#    y 0.000000 1.768600 0.000000 
#    z -0.000360 0.000000 1.781050 
# 
# From -- ./inp_files/28179.got.cif
#   From: 2010.03.12/outbox.cif.g09.slc.cpg/sg8_15_cif.got.tgz:28179.got - 2010.03.31 10:45:26.
