data_PCOD8053664
_publ_section_title
;
Structure prediction by ZEFSAII (Michael W. Deem and Ramdas Pophale) SiO2 
 PCOD8053664
Probable space group: C M
;
_chemical_formula_sum "Si O2"
_cell_formula_units_Z 28
_cell_length_a 10.634799
_cell_length_b 14.535900
_cell_length_c 8.871820
_cell_angle_alpha 90.000000
_cell_angle_beta 104.780867
_cell_angle_gamma 90.000000
_cell_volume 1326.078928
_symmetry_space_group_name_H-M "C M"
_symmetry_group_IT_number 8
_symmetry_cell_setting 'monoclinic'
loop_
_space_group_symop_operation_xyz
x,y,z
x,-y,z
1/2+x,1/2+y,z
1/2+x,1/2-y,z
loop_
_atom_site_type_symbol
_atom_site_label
_atom_site_fract_x
_atom_site_fract_y
_atom_site_fract_z
Si Si1 0.029540 0.394455 0.153990
Si Si2 0.780255 0.211516 0.188173
Si Si3 0.974828 0.894228 0.446139
Si Si4 0.068183 0.765517 0.724011
Si Si5 0.224024 0.897697 0.319782
Si Si6 0.362517 0.776378 0.919362
Si Si7 0.996742 0.396224 0.491432
O O1 0.062291 0.500000 0.158765
O O2 0.148405 0.341499 0.116036
O O3 0.010067 0.362540 0.321560
O O4 0.906736 0.373027 0.008498
O O5 0.742318 0.318232 0.202834
O O6 0.853331 0.165591 0.351422
O O7 0.864237 0.203821 0.060039
O O8 0.018618 0.854055 0.618581
O O9 0.089900 0.884051 0.363001
O O10 0.931754 0.000000 0.453828
O O11 0.215908 0.785733 0.815313
O O12 0.967061 0.755888 0.829220
O O13 0.071888 0.673133 0.623472
O O14 0.341974 0.892456 0.478301
O O15 0.231094 0.000000 0.244695
O O16 0.051743 0.500000 0.532013
#
# Coordination Sequence:
#
# PCOD8053664 Si02
#       7
#     4   4   4   4   4   4   4
#     4  11  24  44  70 100 130 179 236 276 328 402
#     4  12  22  44  68  98 136 177 226 280 329 399
#     4  11  25  43  69  97 129 174 227 281 333 392
#     4  12  25  44  65 100 143 180 214 278 343 412
#     4  10  20  38  69 101 125 164 224 281 325 382
#     4  12  26  42  69  97 141 181 218 270 347 399
#     4  10  21  41  71  99 128 173 230 280 324 396
#
# _framework density 21.114881
#
# number of rings (size 3 to 8) (size 9 to 14) (size 15 to 20)
#    0.000    0.857    4.286    3.000    2.000    1.143 
#    0.000    1.429    0.000    0.857    0.000    0.000 
#    0.000    0.000    0.000    0.000    0.000    0.000 
#
# Total GULP energy -173548.085927 kJ/mol
# GULP energy per Si atom -12396.291852 kJ/mol
# Density = 2.106682 g / cm^3
# Si number density = 21.114881 Si / 1000 Ang^3
#
#
#
# Elastic Constant Matrix: (Units=GPa)
#
#
# Indices 1 2 3 4 5 6 
#
# 1 110.1876 57.0250 54.8467 0.0000 3.3589 0.0000
# 2 57.0250 130.8899 66.4361 0.0000 -4.9720 0.0000
# 3 54.8467 66.4361 124.3688 0.0000 5.6353 0.0000
# 4 0.0000 0.0000 0.0000 27.3763 0.0000 1.6943
# 5 3.3589 -4.9720 5.6353 0.0000 38.0443 0.0000
# 6 0.0000 0.0000 0.0000 1.6943 0.0000 29.8747
#
#
#
# Elastic Compliance Matrix: (Units=1/GPa)
#
#
# Indices 1 2 3 4 5 6 
#
# 1 0.012875 -0.003835 -0.003579 0.000000 -0.001108 0.000000
# 2 -0.003835 0.011813 -0.004736 0.000000 0.002584 0.000000
# 3 -0.003579 -0.004736 0.012245 0.000000 -0.002117 0.000000
# 4 0.000000 0.000000 0.000000 0.036657 0.000000 -0.002079
# 5 -0.001108 0.002584 -0.002117 0.000000 0.027034 0.000000
# 6 0.000000 0.000000 0.000000 -0.002079 0.000000 0.033591
#
#
# Mechanical properties :
#
#
# Convention : Reuss Voigt Hill
#
# Bulk Modulus (GPa) = 79.16027 80.22911 79.69469
# Shear Modulus (GPa) = 30.72634 31.53495 31.13065
#
# Velocity S-wave (km/s) = 3.81884 3.86877 3.84389
# Velocity P-wave (km/s) = 7.55092 7.61810 7.58459
#
# Compressibility (1/GPa) = 0.01263260
#
# Stress axis : x y z
#
# Youngs Moduli (GPa) = 77.66711 84.65381 81.66559
#
# Poissons Ratio (x) = 0.32462 0.29232
# Poissons Ratio (y) = 0.29783 0.38679
# Poissons Ratio (z) = 0.27800 0.40094
#
# Static dielectric constant tensor:
#      x y z
#    x 4.003590 0.000000 0.006630 
#    y 0.000000 3.926700 0.000000 
#    z 0.006630 0.000000 3.822240 
# 
# 
# High freq. dielectric constant tensor:
#      x y z
#    x 1.843400 0.000000 0.002700 
#    y 0.000000 1.828400 0.000000 
#    z 0.002700 0.000000 1.815360 
# 
# From -- ./inp_files/10655.got.cif
#   From: 2010.03.12/outbox.cif.g09.slc.cpg/sg8_6_cif.got.tgz:10655.got - 2010.03.31 10:45:26.
