data_PCOD8053642
_publ_section_title
;
Structure prediction by ZEFSAII (Michael W. Deem and Ramdas Pophale) SiO2 
 PCOD8053642
Probable space group: C M
;
_chemical_formula_sum "Si O2"
_cell_formula_units_Z 32
_cell_length_a 14.766517
_cell_length_b 8.600747
_cell_length_c 19.226490
_cell_angle_alpha 90.000000
_cell_angle_beta 39.444040
_cell_angle_gamma 90.000000
_cell_volume 1551.349689
_symmetry_space_group_name_H-M "C M"
_symmetry_group_IT_number 8
_symmetry_cell_setting 'monoclinic'
loop_
_space_group_symop_operation_xyz
x,y,z
x,-y,z
1/2+x,1/2+y,z
1/2+x,1/2-y,z
loop_
_atom_site_type_symbol
_atom_site_label
_atom_site_fract_x
_atom_site_fract_y
_atom_site_fract_z
Si Si1 0.652650 0.828384 0.655720
Si Si2 0.688471 0.185121 0.850968
Si Si3 0.867491 0.814747 0.418746
Si Si4 0.390122 0.316052 0.249638
Si Si5 0.905192 0.170433 0.615505
Si Si6 0.972215 0.180254 0.872746
Si Si7 0.181979 0.182811 0.006634
Si Si8 0.602704 0.685799 0.384897
O O1 0.718385 0.761082 0.544177
O O2 0.783785 0.844675 0.629760
O O3 0.533197 0.715389 0.758981
O O4 0.584334 0.000000 0.685111
O O5 0.832837 0.250622 0.726292
O O6 0.551651 0.219829 0.884289
O O7 0.697073 0.000000 0.857958
O O8 0.673794 0.276073 0.930753
O O9 0.877148 0.747265 0.335309
O O10 0.005786 0.752887 0.378746
O O11 0.870379 0.000000 0.416864
O O12 0.380395 0.500000 0.255494
O O13 0.536743 0.259621 0.128637
O O14 0.261343 0.248957 0.279811
O O15 0.038363 0.253255 0.497200
O O16 0.954404 0.000000 0.610211
O O17 0.990939 0.000000 0.878818
O O18 0.807013 0.226093 0.971697
O O19 0.205702 0.000000 0.001796
O O20 0.601476 0.500000 0.387975
#
# Coordination Sequence:
#
# PCOD8053642 Si02
#       8
#     4   4   4   4   4   4   4   4
#     4   8  14  30  56  82 109 142 180 219 267 330
#     4  10  20  38  62  85 112 146 185 230 282 334
#     4   8  16  34  58  80 106 144 182 217 266 327
#     4  10  22  38  54  77 108 141 183 232 275 318
#     4   7  13  28  52  81 109 136 169 215 271 332
#     4  11  22  37  58  85 116 147 183 228 281 337
#     4  11  24  40  55  77 112 152 196 238 275 324
#     4   9  17  33  57  81 106 138 176 217 267 328
#
# _framework density 20.627200999999999
#
# number of rings (size 3 to 8) (size 9 to 14) (size 15 to 20)
#    0.000    2.750    0.000    4.125    0.000    3.000 
#    0.000   11.250    0.000    0.000    0.000    0.000 
#    0.000    0.000    0.000    0.000    0.000    0.000 
#
# Total GULP energy -198275.767016 kJ/mol
# GULP energy per Si atom -12392.235438 kJ/mol
# Density = 2.058025 g / cm^3
# Si number density = 20.627201 Si / 1000 Ang^3
#
#
#
# Elastic Constant Matrix: (Units=GPa)
#
#
# Indices 1 2 3 4 5 6 
#
# 1 32.8618 -4.7179 2.5030 0.0000 -1.3801 0.0000
# 2 -4.7179 37.3255 11.7811 0.0000 -4.5137 0.0000
# 3 2.5030 11.7811 82.1296 0.0000 -7.8106 0.0000
# 4 0.0000 0.0000 0.0000 26.3739 0.0000 -2.1651
# 5 -1.3801 -4.5137 -7.8106 0.0000 37.0337 0.0000
# 6 0.0000 0.0000 0.0000 -2.1651 0.0000 25.4617
#
#
#
# Elastic Compliance Matrix: (Units=1/GPa)
#
#
# Indices 1 2 3 4 5 6 
#
# 1 0.031261 0.004588 -0.001477 0.000000 0.001413 0.000000
# 2 0.004588 0.028987 -0.004026 0.000000 0.002855 0.000000
# 3 -0.001477 -0.004026 0.013007 0.000000 0.002198 0.000000
# 4 0.000000 0.000000 0.000000 0.038183 0.000000 0.003247
# 5 0.001413 0.002855 0.002198 0.000000 0.027867 0.000000
# 6 0.000000 0.000000 0.000000 0.003247 0.000000 0.039551
#
#
# Mechanical properties :
#
#
# Convention : Reuss Voigt Hill
#
# Bulk Modulus (GPa) = 14.00043 19.04992 16.52517
# Shear Modulus (GPa) = 24.45057 27.29057 25.87057
#
# Velocity S-wave (km/s) = 3.44663 3.64130 3.54531
# Velocity P-wave (km/s) = 4.75827 5.18982 4.97872
#
# Compressibility (1/GPa) = 0.07142640
#
# Stress axis : x y z
#
# Youngs Moduli (GPa) = 31.98871 34.49779 76.87900
#
# Poissons Ratio (x) = -0.15829 0.11351
# Poissons Ratio (y) = -0.14677 0.30955
# Poissons Ratio (z) = 0.04723 0.13890
#
# Static dielectric constant tensor:
#      x y z
#    x 3.637610 0.000000 0.101780 
#    y 0.000000 3.316030 0.000000 
#    z 0.101780 0.000000 4.189800 
# 
# 
# High freq. dielectric constant tensor:
#      x y z
#    x 1.798260 0.000000 0.000030 
#    y 0.000000 1.771740 0.000000 
#    z 0.000030 0.000000 1.815380 
# 
# From -- ./inp_files/30700.got.cif
#   From: 2010.03.12/outbox.cif.g09.slc.cpg/sg8_16_cif.got.tgz:30700.got - 2010.03.31 10:45:26.
