data_PCOD8053155
_publ_section_title
;
Structure prediction by ZEFSAII (Michael W. Deem and Ramdas Pophale) SiO2 
 PCOD8053155
Probable space group: C M
;
_chemical_formula_sum "Si O2"
_cell_formula_units_Z 32
_cell_length_a 14.948410
_cell_length_b 8.982697
_cell_length_c 21.898396
_cell_angle_alpha 90.000000
_cell_angle_beta 32.879299
_cell_angle_gamma 90.000000
_cell_volume 1596.286153
_symmetry_space_group_name_H-M "C M"
_symmetry_group_IT_number 8
_symmetry_cell_setting 'monoclinic'
loop_
_space_group_symop_operation_xyz
x,y,z
x,-y,z
1/2+x,1/2+y,z
1/2+x,1/2-y,z
loop_
_atom_site_type_symbol
_atom_site_label
_atom_site_fract_x
_atom_site_fract_y
_atom_site_fract_z
Si Si1 0.834700 0.670184 0.572560
Si Si2 0.803817 0.674481 0.370440
Si Si3 0.129907 0.176382 0.346341
Si Si4 0.667363 0.176757 0.199021
Si Si5 0.517962 0.830842 0.593983
Si Si6 0.271438 0.171224 0.837694
Si Si7 0.464263 0.824111 0.964307
Si Si8 0.023236 0.329909 0.792549
O O1 0.832840 0.500000 0.551184
O O2 0.650069 0.732292 0.680559
O O3 0.944122 0.764512 0.462499
O O4 0.907607 0.687832 0.597770
O O5 0.786777 0.500000 0.385590
O O6 0.745335 0.727392 0.336766
O O7 0.687531 0.740976 0.489932
O O8 0.989453 0.727568 0.275873
O O9 0.204717 0.251542 0.243324
O O10 0.127197 0.000000 0.339871
O O11 0.682956 0.000000 0.195122
O O12 0.797699 0.239616 0.076432
O O13 0.410868 0.768144 0.711349
O O14 0.568468 0.000000 0.577592
O O15 0.343339 0.185628 0.864779
O O16 0.109523 0.272308 0.926210
O O17 0.225989 0.000000 0.847942
O O18 0.510496 0.774488 0.869264
O O19 0.437574 0.000000 0.985400
O O20 0.085082 0.500000 0.754947
#
# Coordination Sequence:
#
# PCOD8053155 Si02
#       8
#     4   4   4   4   4   4   4   4
#     4  10  19  34  58  89 123 158 196 240 295 354
#     4   9  21  39  59  86 120 156 195 240 294 350
#     4  10  21  39  61  88 121 156 196 245 296 350
#     4  11  24  42  63  87 117 158 202 247 296 355
#     4   9  18  33  57  87 121 156 193 238 293 349
#     4  10  21  39  60  87 119 157 199 243 297 353
#     4  11  24  42  61  86 119 158 202 249 297 350
#     4  10  22  38  59  88 120 155 199 246 298 351
#
# _framework density 20.046531999999999
#
# number of rings (size 3 to 8) (size 9 to 14) (size 15 to 20)
#    0.000    2.000    1.250    1.500    1.750    4.500 
#    0.000    2.500    0.000    0.000    0.000    0.000 
#    0.000    0.000    0.000    0.000    0.000    0.000 
#
# Total GULP energy -198465.418562 kJ/mol
# GULP energy per Si atom -12404.088660 kJ/mol
# Density = 2.000091 g / cm^3
# Si number density = 20.046532 Si / 1000 Ang^3
#
#
#
# Elastic Constant Matrix: (Units=GPa)
#
#
# Indices 1 2 3 4 5 6 
#
# 1 60.7774 27.2024 29.2334 -0.0001 -10.9015 -0.0001
# 2 27.2024 65.7843 36.7505 0.0000 -6.0850 0.0000
# 3 29.2334 36.7505 107.0635 -0.0012 -15.4686 0.0001
# 4 -0.0001 0.0000 -0.0012 40.0287 0.0001 -1.1334
# 5 -10.9015 -6.0850 -15.4686 0.0001 29.2028 0.0000
# 6 -0.0001 0.0000 0.0001 -1.1334 0.0000 26.3268
#
#
#
# Elastic Compliance Matrix: (Units=1/GPa)
#
#
# Indices 1 2 3 4 5 6 
#
# 1 0.021873 -0.006986 -0.002821 0.000000 0.005215 0.000000
# 2 -0.006986 0.021047 -0.005480 0.000000 -0.001125 0.000000
# 3 -0.002821 -0.005480 0.012642 0.000000 0.004502 0.000000
# 4 0.000000 0.000000 0.000000 0.025013 0.000000 0.001077
# 5 0.005215 -0.001125 0.004502 0.000000 0.038340 0.000000
# 6 0.000000 0.000000 0.000000 0.001077 0.000000 0.038030
#
#
# Mechanical properties :
#
#
# Convention : Reuss Voigt Hill
#
# Bulk Modulus (GPa) = 40.01852 46.66642 43.34247
# Shear Modulus (GPa) = 25.53012 28.47426 27.00219
#
# Velocity S-wave (km/s) = 3.57254 3.77292 3.67410
# Velocity P-wave (km/s) = 6.08470 6.50457 6.29814
#
# Compressibility (1/GPa) = 0.02498843
#
# Stress axis : x y z
#
# Youngs Moduli (GPa) = 45.71945 47.51223 79.10332
#
# Poissons Ratio (x) = 0.33194 0.22312
# Poissons Ratio (y) = 0.31941 0.43345
# Poissons Ratio (z) = 0.12896 0.26035
#
# Static dielectric constant tensor:
#      x y z
#    x 3.707710 0.000000 -0.010580 
#    y 0.000000 3.581860 0.000000 
#    z -0.010580 0.000000 3.589630 
# 
# 
# High freq. dielectric constant tensor:
#      x y z
#    x 1.786090 0.000000 -0.000620 
#    y 0.000000 1.780030 0.000000 
#    z -0.000620 0.000000 1.777460 
# 
# From -- ./inp_files/21508.got.cif
#   From: 2010.03.12/outbox.cif.g09.slc.cpg/sg8_11_cif.got.tgz:21508.got - 2010.03.31 10:45:26.
