data_PCOD8053206
_publ_section_title
;
Structure prediction by ZEFSAII (Michael W. Deem and Ramdas Pophale) SiO2 
 PCOD8053206
Probable space group: C M
;
_chemical_formula_sum "Si O2"
_cell_formula_units_Z 32
_cell_length_a 20.667142
_cell_length_b 8.802766
_cell_length_c 12.070977
_cell_angle_alpha 90.000000
_cell_angle_beta 127.594093
_cell_angle_gamma 90.000000
_cell_volume 1740.044918
_symmetry_space_group_name_H-M "C M"
_symmetry_group_IT_number 8
_symmetry_cell_setting 'monoclinic'
loop_
_space_group_symop_operation_xyz
x,y,z
x,-y,z
1/2+x,1/2+y,z
1/2+x,1/2-y,z
loop_
_atom_site_type_symbol
_atom_site_label
_atom_site_fract_x
_atom_site_fract_y
_atom_site_fract_z
Si Si1 0.814080 0.178961 0.243940
Si Si2 0.835219 0.325401 0.918195
Si Si3 0.792245 0.821082 0.651938
Si Si4 0.611742 0.178497 0.505423
Si Si5 0.369648 0.821112 0.520067
Si Si6 0.946767 0.676447 0.230961
Si Si7 0.198736 0.822758 0.954748
Si Si8 0.056117 0.320281 0.685258
O O1 0.815479 0.239668 0.370466
O O2 0.896052 0.227715 0.266352
O O3 0.807444 0.000000 0.238480
O O4 0.733738 0.244938 0.101302
O O5 0.832904 0.500000 0.876218
O O6 0.835873 0.214716 0.814099
O O7 0.757521 0.286140 0.912788
O O8 0.917339 0.291793 0.074990
O O9 0.699132 0.757278 0.558159
O O10 0.838997 0.729803 0.607301
O O11 0.796489 0.000000 0.632869
O O12 0.542237 0.220239 0.342204
O O13 0.585793 0.244948 0.597629
O O14 0.620463 0.000000 0.527787
O O15 0.463313 0.769864 0.606258
O O16 0.360165 0.000000 0.496129
O O17 0.931693 0.500000 0.246228
O O18 0.109626 0.755985 0.837433
O O19 0.192801 0.000000 0.971732
O O20 0.066412 0.500000 0.703707
#
# Coordination Sequence:
#
# PCOD8053206 Si02
#       8
#     4   4   4   4   4   4   4   4
#     4  11  21  34  55  84 115 147 188 231 279 332
#     4   9  18  32  53  80 110 145 183 223 275 336
#     4  11  22  36  56  81 113 148 185 232 283 334
#     4   9  17  33  57  83 110 143 186 232 277 326
#     4  11  23  40  59  79 113 154 190 228 280 341
#     4   9  17  34  57  82 111 146 187 230 279 330
#     4  10  20  34  56  85 116 146 183 233 283 330
#     4  10  19  35  59  84 110 145 190 235 280 329
#
# _framework density 18.390329999999999
#
# number of rings (size 3 to 8) (size 9 to 14) (size 15 to 20)
#    0.000    2.000    2.500    3.000    0.000    3.000 
#    0.000    2.500    0.000    6.000    0.000    0.000 
#    0.000    0.000    0.000    0.000    0.000    0.000 
#
# Total GULP energy -198429.624810 kJ/mol
# GULP energy per Si atom -12401.851551 kJ/mol
# Density = 1.834847 g / cm^3
# Si number density = 18.390330 Si / 1000 Ang^3
#
#
#
# Elastic Constant Matrix: (Units=GPa)
#
#
# Indices 1 2 3 4 5 6 
#
# 1 83.4744 31.3167 50.0890 0.0000 4.2796 0.0000
# 2 31.3167 68.6445 47.4958 0.0000 1.0558 0.0000
# 3 50.0890 47.4958 148.4677 0.0000 8.4626 0.0000
# 4 0.0000 0.0000 0.0000 33.8021 0.0000 -1.7487
# 5 4.2796 1.0558 8.4626 0.0000 24.3479 0.0000
# 6 0.0000 0.0000 0.0000 -1.7487 0.0000 22.4154
#
#
#
# Elastic Compliance Matrix: (Units=1/GPa)
#
#
# Indices 1 2 3 4 5 6 
#
# 1 0.016116 -0.004651 -0.003876 0.000000 -0.001284 0.000000
# 2 -0.004651 0.020091 -0.004953 0.000000 0.001668 0.000000
# 3 -0.003876 -0.004953 0.009770 0.000000 -0.002500 0.000000
# 4 0.000000 0.000000 0.000000 0.029704 0.000000 0.002317
# 5 -0.001284 0.001668 -0.002500 0.000000 0.042093 0.000000
# 6 0.000000 0.000000 0.000000 0.002317 0.000000 0.044793
#
#
# Mechanical properties :
#
#
# Convention : Reuss Voigt Hill
#
# Bulk Modulus (GPa) = 52.58416 62.04330 57.31373
# Shear Modulus (GPa) = 25.52746 27.55877 26.54311
#
# Velocity S-wave (km/s) = 3.72975 3.87531 3.80323
# Velocity P-wave (km/s) = 6.87048 7.33718 7.10766
#
# Compressibility (1/GPa) = 0.01901714
#
# Stress axis : x y z
#
# Youngs Moduli (GPa) = 62.04911 49.77315 102.35110
#
# Poissons Ratio (x) = 0.23148 0.39674
# Poissons Ratio (y) = 0.28857 0.50698
# Poissons Ratio (z) = 0.24052 0.24654
#
# Static dielectric constant tensor:
#      x y z
#    x 3.220090 0.000000 0.147470 
#    y 0.000000 3.228390 0.000000 
#    z 0.147470 0.000000 3.599610 
# 
# 
# High freq. dielectric constant tensor:
#      x y z
#    x 1.683740 0.000000 0.007830 
#    y 0.000000 1.704960 0.000000 
#    z 0.007830 0.000000 1.729870 
# 
# From -- ./inp_files/23704.got.cif
#   From: 2010.03.12/outbox.cif.g09.slc.cpg/sg8_12_cif.got.tgz:23704.got - 2010.03.31 10:45:26.
