data_PCOD8053702
_publ_section_title
;
Structure prediction by ZEFSAII (Michael W. Deem and Ramdas Pophale) SiO2 
 PCOD8053702
Probable space group: C M
;
_chemical_formula_sum "Si O2"
_cell_formula_units_Z 32
_cell_length_a 14.596356
_cell_length_b 17.245845
_cell_length_c 12.688210
_cell_angle_alpha 90.000000
_cell_angle_beta 152.098446
_cell_angle_gamma 90.000000
_cell_volume 1494.625016
_symmetry_space_group_name_H-M "C M"
_symmetry_group_IT_number 8
_symmetry_cell_setting 'monoclinic'
loop_
_space_group_symop_operation_xyz
x,y,z
x,-y,z
1/2+x,1/2+y,z
1/2+x,1/2-y,z
loop_
_atom_site_type_symbol
_atom_site_label
_atom_site_fract_x
_atom_site_fract_y
_atom_site_fract_z
Si Si1 0.922830 0.408849 0.049910
Si Si2 0.214769 0.910607 0.618944
Si Si3 0.106233 0.916194 0.098466
Si Si4 0.437556 0.302226 0.252224
Si Si5 0.156480 0.174470 0.951276
Si Si6 0.860493 0.365487 0.537753
Si Si7 0.735691 0.799166 0.449570
Si Si8 0.295929 0.590147 0.937443
O O1 0.947312 0.500000 0.101052
O O2 0.131996 0.365166 0.272876
O O3 0.853216 0.396055 0.859639
O O4 0.767768 0.370008 0.971340
O O5 0.332897 0.886640 0.633221
O O6 0.021325 0.854373 0.434609
O O7 0.147835 0.000000 0.546864
O O8 0.200883 0.859530 0.110780
O O9 0.882562 0.897170 0.907670
O O10 0.107540 0.000000 0.045545
O O11 0.237327 0.921049 0.337031
O O12 0.581974 0.229062 0.382025
O O13 0.220392 0.264883 0.034039
O O14 0.446841 0.363482 0.165845
O O15 0.926387 0.164903 0.697853
O O16 0.801567 0.276480 0.450589
O O17 0.084090 0.373724 0.731471
O O18 0.294570 0.500000 0.968894
#
# Coordination Sequence:
#
# PCOD8053702 Si02
#       8
#     4   4   4   4   4   4   4   4
#     4  10  24  44  67  95 130 178 231 274 323 396
#     4  10  20  41  67  96 136 169 213 280 338 397
#     4  11  24  41  66  96 132 173 215 274 331 392
#     4  10  21  40  62  97 127 169 215 269 332 397
#     4  11  24  44  64  95 134 178 226 270 328 399
#     4  11  22  40  66  99 132 163 212 272 345 402
#     4  10  22  42  65  89 131 175 218 273 329 386
#     4  11  21  38  65  97 132 167 212 266 334 399
#
# _framework density 21.410053000000001
#
# number of rings (size 3 to 8) (size 9 to 14) (size 15 to 20)
#    0.000    1.500    3.750    1.875    0.000    6.000 
#    2.250    1.250    0.000    0.000    0.000    0.000 
#    0.000    0.000    0.000    0.000    0.000    0.000 
#
# Total GULP energy -198270.576606 kJ/mol
# GULP energy per Si atom -12391.911038 kJ/mol
# Density = 2.136132 g / cm^3
# Si number density = 21.410053 Si / 1000 Ang^3
#
#
#
# Elastic Constant Matrix: (Units=GPa)
#
#
# Indices 1 2 3 4 5 6 
#
# 1 88.1536 35.6230 46.3315 0.0000 -6.6174 0.0000
# 2 35.6230 137.1297 60.3906 0.0000 -7.5993 0.0000
# 3 46.3315 60.3906 126.7093 0.0000 1.0359 0.0000
# 4 0.0000 0.0000 0.0000 38.6062 0.0000 0.6285
# 5 -6.6174 -7.5993 1.0359 0.0000 28.0289 0.0000
# 6 0.0000 0.0000 0.0000 0.6285 0.0000 25.4578
#
#
#
# Elastic Compliance Matrix: (Units=1/GPa)
#
#
# Indices 1 2 3 4 5 6 
#
# 1 0.014660 -0.001593 -0.004627 0.000000 0.003200 0.000000
# 2 -0.001593 0.009606 -0.004015 0.000000 0.002377 0.000000
# 3 -0.004627 -0.004015 0.011519 0.000000 -0.002607 0.000000
# 4 0.000000 0.000000 0.000000 0.025913 0.000000 -0.000640
# 5 0.003200 0.002377 -0.002607 0.000000 0.037174 0.000000
# 6 0.000000 0.000000 0.000000 -0.000640 0.000000 0.039297
#
#
# Mechanical properties :
#
#
# Convention : Reuss Voigt Hill
#
# Bulk Modulus (GPa) = 65.30075 70.74254 68.02165
# Shear Modulus (GPa) = 30.53539 32.39507 31.46523
#
# Velocity S-wave (km/s) = 3.78063 3.89405 3.83776
# Velocity P-wave (km/s) = 7.04441 7.30285 7.17480
#
# Compressibility (1/GPa) = 0.01531376
#
# Stress axis : x y z
#
# Youngs Moduli (GPa) = 68.21364 104.09898 86.81243
#
# Poissons Ratio (x) = 0.16584 0.40170
# Poissons Ratio (y) = 0.10867 0.34858
# Poissons Ratio (z) = 0.31564 0.41799
#
# Static dielectric constant tensor:
#      x y z
#    x 3.623190 0.000000 0.184330 
#    y 0.000000 4.039860 0.000000 
#    z 0.184330 0.000000 3.931210 
# 
# 
# High freq. dielectric constant tensor:
#      x y z
#    x 1.819290 0.000000 0.013340 
#    y 0.000000 1.854010 0.000000 
#    z 0.013340 0.000000 1.843370 
# 
# From -- ./inp_files/22426.got.cif
#   From: 2010.03.12/outbox.cif.g09.slc.cpg/sg8_12_cif.got.tgz:22426.got - 2010.03.31 10:45:26.
