data_PCOD8053930
_publ_section_title
;
Structure prediction by ZEFSAII (Michael W. Deem and Ramdas Pophale) SiO2 
 PCOD8053930
Probable space group: C M
;
_chemical_formula_sum "Si O2"
_cell_formula_units_Z 26
_cell_length_a 21.815378
_cell_length_b 7.854678
_cell_length_c 13.873431
_cell_angle_alpha 90.000000
_cell_angle_beta 31.507798
_cell_angle_gamma 90.000000
_cell_volume 1242.386001
_symmetry_space_group_name_H-M "C M"
_symmetry_group_IT_number 8
_symmetry_cell_setting 'monoclinic'
loop_
_space_group_symop_operation_xyz
x,y,z
x,-y,z
1/2+x,1/2+y,z
1/2+x,1/2-y,z
loop_
_atom_site_type_symbol
_atom_site_label
_atom_site_fract_x
_atom_site_fract_y
_atom_site_fract_z
Si Si1 0.346190 0.811760 0.700450
Si Si2 0.586120 0.186462 0.265227
Si Si3 0.287168 0.500000 0.675772
Si Si4 0.722781 0.689446 0.416126
Si Si5 0.799950 0.800876 0.112097
Si Si6 0.014451 0.000000 0.264344
Si Si7 0.789979 0.000000 0.458917
Si Si8 0.470609 0.193906 0.725574
O O1 0.458678 0.827360 0.481866
O O2 0.255566 0.672362 0.777665
O O3 0.383296 0.748029 0.757265
O O4 0.285408 0.000000 0.786792
O O5 0.676551 0.240923 0.227050
O O6 0.591847 0.326958 0.170837
O O7 0.620165 0.000000 0.176799
O O8 0.429130 0.500000 0.472884
O O9 0.228783 0.500000 0.647381
O O10 0.752587 0.500000 0.415424
O O11 0.801129 0.725244 0.217489
O O12 0.749951 0.828574 0.460768
O O13 0.586499 0.692635 0.569986
O O14 0.824807 0.000000 0.083989
O O15 0.904995 0.710707 0.914791
O O16 0.932873 0.000000 0.277795
O O17 0.510899 0.000000 0.653679
#
# Coordination Sequence:
#
# PCOD8053930 Si02
#       8
#     4   4   2   4   4   2   2   4
#     4   9  17  31  55  87 115 147 185 241 297 353
#     4   9  17  31  55  87 115 147 185 241 297 353
#     4   8  18  32  57  81 110 151 195 243 285 356
#     4  12  24  39  61  87 123 164 208 251 302 362
#     4  11  22  37  59  95 131 157 196 250 310 373
#     4   8  18  32  57  81 110 151 195 243 285 356
#     4  10  22  40  54  90 112 160 216 254 288 358
#     4  11  22  37  59  95 131 157 196 250 310 373
#
# _framework density 20.927471000000001
#
# number of rings (size 3 to 8) (size 9 to 14) (size 15 to 20)
#    0.462    1.538    3.077    0.923    4.308    1.231 
#    0.000    0.000    0.000    1.846    0.000    0.000 
#    0.000    0.000    0.000    0.000    0.000    0.000 
#
# Total GULP energy -161140.692093 kJ/mol
# GULP energy per Si atom -12395.437853 kJ/mol
# Density = 2.087984 g / cm^3
# Si number density = 20.927471 Si / 1000 Ang^3
#
#
#
# Elastic Constant Matrix: (Units=GPa)
#
#
# Indices 1 2 3 4 5 6 
#
# 1 98.9386 69.6429 17.8195 0.0003 28.0710 -0.0002
# 2 69.6429 161.5376 18.8316 0.0000 19.5132 0.0001
# 3 17.8195 18.8316 43.8225 -0.0006 23.3261 0.0003
# 4 0.0003 0.0000 -0.0006 22.9007 0.0002 3.7503
# 5 28.0710 19.5132 23.3261 0.0002 20.9247 0.0000
# 6 -0.0002 0.0001 0.0003 3.7503 0.0000 31.3316
#
#
#
# Elastic Compliance Matrix: (Units=1/GPa)
#
#
# Indices 1 2 3 4 5 6 
#
# 1 0.025524 -0.007371 0.018090 0.000001 -0.047533 0.000000
# 2 -0.007371 0.009128 -0.004077 0.000000 0.005920 0.000000
# 3 0.018090 -0.004077 0.069128 0.000003 -0.097527 -0.000001
# 4 0.000001 0.000000 0.000003 0.044540 -0.000004 -0.005331
# 5 -0.047533 0.005920 -0.097527 -0.000004 0.214755 0.000001
# 6 0.000000 0.000000 -0.000001 -0.005331 0.000001 0.032555
#
#
# Mechanical properties :
#
#
# Convention : Reuss Voigt Hill
#
# Bulk Modulus (GPa) = 8.54232 57.43187 32.98709
# Shear Modulus (GPa) = 11.86613 28.23171 20.04892
#
# Velocity S-wave (km/s) = 2.38379 3.67689 3.09855
# Velocity P-wave (km/s) = 3.41574 6.74751 5.34772
#
# Compressibility (1/GPa) = 0.11706427
#
# Stress axis : x y z
#
# Youngs Moduli (GPa) = 39.17943 109.54804 14.46593
#
# Poissons Ratio (x) = 0.80747 -0.26169
# Poissons Ratio (y) = 0.28879 0.05897
# Poissons Ratio (z) = -0.70875 0.44660
#
# Static dielectric constant tensor:
#      x y z
#    x 3.460930 0.000000 0.128420 
#    y 0.000000 4.247920 0.000000 
#    z 0.128420 0.000000 3.425150 
# 
# 
# High freq. dielectric constant tensor:
#      x y z
#    x 1.782730 0.000000 0.012560 
#    y 0.000000 1.839750 0.000000 
#    z 0.012560 0.000000 1.794270 
# 
# From -- ./inp_files/23821.got.cif
#   From: 2010.03.12/outbox.cif.g09.slc.cpg/sg8_12_cif.got.tgz:23821.got - 2010.03.31 10:45:26.
