data_PCOD8053594
_publ_section_title
;
Structure prediction by ZEFSAII (Michael W. Deem and Ramdas Pophale) SiO2 
 PCOD8053594
Probable space group: C M
;
_chemical_formula_sum "Si O2"
_cell_formula_units_Z 32
_cell_length_a 33.027129
_cell_length_b 8.878858
_cell_length_c 12.459688
_cell_angle_alpha 90.000000
_cell_angle_beta 153.903124
_cell_angle_gamma 90.000000
_cell_volume 1607.235041
_symmetry_space_group_name_H-M "C M"
_symmetry_group_IT_number 8
_symmetry_cell_setting 'monoclinic'
loop_
_space_group_symop_operation_xyz
x,y,z
x,-y,z
1/2+x,1/2+y,z
1/2+x,1/2-y,z
loop_
_atom_site_type_symbol
_atom_site_label
_atom_site_fract_x
_atom_site_fract_y
_atom_site_fract_z
Si Si1 0.243390 0.828376 0.300000
Si Si2 0.127592 0.677450 0.204749
Si Si3 0.129764 0.674727 0.856983
Si Si4 0.940769 0.176798 0.462690
Si Si5 0.431018 0.172772 0.652358
Si Si6 0.876264 0.324795 0.105387
Si Si7 0.178799 0.824704 0.547769
Si Si8 0.573738 0.173126 0.487448
O O1 0.205084 0.734206 0.307793
O O2 0.354126 0.814469 0.562550
O O3 0.211149 0.000000 0.237648
O O4 0.209504 0.768534 0.103924
O O5 0.131830 0.500000 0.218252
O O6 0.146006 0.736489 0.366523
O O7 0.027196 0.733418 0.928414
O O8 0.141735 0.500000 0.914023
O O9 0.131802 0.701670 0.734249
O O10 0.034095 0.729333 0.677773
O O11 0.898068 0.221707 0.475545
O O12 0.872598 0.225872 0.204857
O O13 0.959525 0.000000 0.500259
O O14 0.439610 0.000000 0.633617
O O15 0.879705 0.500000 0.146588
O O16 0.966644 0.283780 0.250870
O O17 0.785562 0.284553 0.822385
O O18 0.115192 0.780114 0.496206
O O19 0.166313 0.000000 0.496582
O O20 0.582347 0.000000 0.471357
#
# Coordination Sequence:
#
# PCOD8053594 Si02
#       8
#     4   4   4   4   4   4   4   4
#     4  11  23  39  62  92 121 158 207 256 304 365
#     4  11  24  44  65  85 121 168 206 251 308 368
#     4  10  20  37  60  88 128 166 197 245 313 371
#     4  11  21  34  60  93 125 159 203 256 300 357
#     4  10  23  41  61  87 123 164 201 246 312 373
#     4   9  21  41  61  85 122 166 199 243 312 372
#     4  11  24  41  64  90 120 159 207 258 303 360
#     4   9  20  39  61  86 120 160 202 243 298 372
#
# _framework density 19.909970999999999
#
# number of rings (size 3 to 8) (size 9 to 14) (size 15 to 20)
#    0.000    1.750    1.250    3.375    1.750    6.000 
#    0.000    5.000    0.000    0.000    0.000    0.000 
#    0.000    0.000    0.000    0.000    0.000    0.000 
#
# Total GULP energy -198450.134261 kJ/mol
# GULP energy per Si atom -12403.133391 kJ/mol
# Density = 1.986465 g / cm^3
# Si number density = 19.909971 Si / 1000 Ang^3
#
#
#
# Elastic Constant Matrix: (Units=GPa)
#
#
# Indices 1 2 3 4 5 6 
#
# 1 110.4739 41.5034 42.2347 0.0000 -2.0925 0.0000
# 2 41.5034 70.3021 35.4683 0.0000 -7.7097 0.0000
# 3 42.2347 35.4683 59.0788 0.0000 -0.0107 0.0000
# 4 0.0000 0.0000 0.0000 30.3167 0.0000 -2.4485
# 5 -2.0925 -7.7097 -0.0107 0.0000 26.7200 0.0000
# 6 0.0000 0.0000 0.0000 -2.4485 0.0000 37.0974
#
#
#
# Elastic Compliance Matrix: (Units=1/GPa)
#
#
# Indices 1 2 3 4 5 6 
#
# 1 0.013342 -0.004433 -0.006876 0.000000 -0.000237 0.000000
# 2 -0.004433 0.022846 -0.010546 0.000000 0.006241 0.000000
# 3 -0.006876 -0.010546 0.028173 0.000000 -0.003570 0.000000
# 4 0.000000 0.000000 0.000000 0.033162 0.000000 0.002189
# 5 -0.000237 0.006241 -0.003570 0.000000 0.039206 0.000000
# 6 0.000000 0.000000 0.000000 0.002189 0.000000 0.027101
#
#
# Mechanical properties :
#
#
# Convention : Reuss Voigt Hill
#
# Bulk Modulus (GPa) = 48.42477 53.14085 50.78281
# Shear Modulus (GPa) = 23.31841 26.87005 25.09423
#
# Velocity S-wave (km/s) = 3.42598 3.67765 3.55404
# Velocity P-wave (km/s) = 6.32649 6.69193 6.51177
#
# Compressibility (1/GPa) = 0.02065059
#
# Stress axis : x y z
#
# Youngs Moduli (GPa) = 74.95245 43.77089 35.49516
#
# Poissons Ratio (x) = 0.19404 0.24408
# Poissons Ratio (y) = 0.33228 0.37432
# Poissons Ratio (z) = 0.51541 0.46159
#
# Static dielectric constant tensor:
#      x y z
#    x 3.546550 0.000000 -0.016270 
#    y 0.000000 3.607890 0.000000 
#    z -0.016270 0.000000 3.761230 
# 
# 
# High freq. dielectric constant tensor:
#      x y z
#    x 1.775660 0.000000 0.004840 
#    y 0.000000 1.780210 0.000000 
#    z 0.004840 0.000000 1.776840 
# 
# From -- ./inp_files/24801.got.cif
#   From: 2010.03.12/outbox.cif.g09.slc.cpg/sg8_13_cif.got.tgz:24801.got - 2010.03.31 10:45:26.
