data_PCOD8053269
_publ_section_title
;
Structure prediction by ZEFSAII (Michael W. Deem and Ramdas Pophale) SiO2 
 PCOD8053269
Probable space group: C M
;
_chemical_formula_sum "Si O2"
_cell_formula_units_Z 32
_cell_length_a 11.961301
_cell_length_b 27.999779
_cell_length_c 9.137485
_cell_angle_alpha 90.000000
_cell_angle_beta 149.264251
_cell_angle_gamma 90.000000
_cell_volume 1564.040526
_symmetry_space_group_name_H-M "C M"
_symmetry_group_IT_number 8
_symmetry_cell_setting 'monoclinic'
loop_
_space_group_symop_operation_xyz
x,y,z
x,-y,z
1/2+x,1/2+y,z
1/2+x,1/2-y,z
loop_
_atom_site_type_symbol
_atom_site_label
_atom_site_fract_x
_atom_site_fract_y
_atom_site_fract_z
Si Si1 0.007690 0.094983 0.888160
Si Si2 0.085598 0.447900 0.301607
Si Si3 0.428587 0.948197 0.452901
Si Si4 0.396803 0.674687 0.312791
Si Si5 0.188111 0.267059 0.608845
Si Si6 0.749628 0.630163 0.890861
Si Si7 0.060295 0.289023 0.158464
Si Si8 0.214418 0.359138 0.801942
O O1 0.161688 0.126898 0.957621
O O2 0.835264 0.070724 0.581987
O O3 0.894060 0.125653 0.885321
O O4 0.165625 0.057678 0.149768
O O5 0.075100 0.500000 0.213226
O O6 0.024593 0.452018 0.400723
O O7 0.911345 0.413288 0.026415
O O8 0.547719 0.902092 0.659582
O O9 0.474859 0.000000 0.583781
O O10 0.514993 0.725516 0.442816
O O11 0.553128 0.633259 0.552887
O O12 0.185480 0.680367 0.177427
O O13 0.330627 0.657863 0.078836
O O14 0.219924 0.272939 0.469348
O O15 0.096438 0.313932 0.591268
O O16 0.431627 0.255142 0.941039
O O17 0.882613 0.678745 0.039748
#
# Coordination Sequence:
#
# PCOD8053269 Si02
#       8
#     4   4   4   4   4   4   4   4
#     4  10  19  36  65  89 126 158 209 257 318 368
#     4   9  17  32  58  92 121 155 205 258 311 372
#     4   9  19  35  61  94 128 161 206 259 313 376
#     4  11  25  41  61  87 126 164 209 263 309 379
#     4  11  23  41  59  94 119 165 211 256 319 370
#     4  10  21  39  58  87 122 163 202 255 311 370
#     4  11  24  40  63  86 124 162 210 256 313 370
#     4  11  23  40  62  95 125 168 212 258 319 373
#
# _framework density 20.459828000000002
#
# number of rings (size 3 to 8) (size 9 to 14) (size 15 to 20)
#    0.000    1.750    1.250    4.125    1.750    5.000 
#    0.000    0.625    0.000    3.750    0.000    0.000 
#    0.000    0.000    0.000    0.000    0.000    0.000 
#
# Total GULP energy -198308.642219 kJ/mol
# GULP energy per Si atom -12394.290139 kJ/mol
# Density = 2.041326 g / cm^3
# Si number density = 20.459828 Si / 1000 Ang^3
#
#
#
# Elastic Constant Matrix: (Units=GPa)
#
#
# Indices 1 2 3 4 5 6 
#
# 1 71.7197 33.0481 42.6296 0.0000 -0.7595 0.0000
# 2 33.0481 137.1542 66.1507 0.0000 -0.7895 0.0000
# 3 42.6296 66.1507 123.7128 0.0000 -5.3463 0.0000
# 4 0.0000 0.0000 0.0000 34.1294 0.0000 -4.7606
# 5 -0.7595 -0.7895 -5.3463 0.0000 36.3304 0.0000
# 6 0.0000 0.0000 0.0000 -4.7606 0.0000 -3.3736
#
#
#
# Elastic Compliance Matrix: (Units=1/GPa)
#
#
# Indices 1 2 3 4 5 6 
#
# 1 0.017865 -0.001791 -0.005217 0.000000 -0.000433 0.000000
# 2 -0.001791 0.010016 -0.004761 0.000000 -0.000520 0.000000
# 3 -0.005217 -0.004761 0.012497 0.000000 0.001626 0.000000
# 4 0.000000 0.000000 0.000000 0.024481 0.000000 -0.034547
# 5 -0.000433 -0.000520 0.001626 0.000000 0.027744 0.000000
# 6 0.000000 0.000000 0.000000 -0.034547 0.000000 -0.247671
#
#
# Mechanical properties :
#
#
# Convention : Reuss Voigt Hill
#
# Bulk Modulus (GPa) = 59.38306 68.47149 63.92727
# Shear Modulus (GPa) = -39.70890 26.13447 -6.78721
#
# Velocity S-wave (km/s) = -4.41026 3.57789 -1.82333
# Velocity P-wave (km/s) = 1.77579 7.11388 5.18463
#
# Compressibility (1/GPa) = 0.01683982
#
# Stress axis : x y z
#
# Youngs Moduli (GPa) = 55.97597 99.84174 80.01915
#
# Poissons Ratio (x) = 0.17880 0.41747
# Poissons Ratio (y) = 0.10025 0.38097
# Poissons Ratio (z) = 0.29203 0.47534
#
# Static dielectric constant tensor:
#      x y z
#    x 3.455570 0.000000 0.143420 
#    y 0.000000 4.246820 0.000000 
#    z 0.143420 0.000000 3.943780 
# 
# 
# High freq. dielectric constant tensor:
#      x y z
#    x 1.775180 0.000000 0.014440 
#    y 0.000000 1.806170 0.000000 
#    z 0.014440 0.000000 1.800820 
# 
# From -- ./inp_files/11694.got.cif
#   From: 2010.03.12/outbox.cif.g09.slc.cpg/sg8_6_cif.got.tgz:11694.got - 2010.03.31 10:45:26.
