data_PCOD8053766
_publ_section_title
;
Structure prediction by ZEFSAII (Michael W. Deem and Ramdas Pophale) SiO2 
 PCOD8053766
Probable space group: C M
;
_chemical_formula_sum "Si O2"
_cell_formula_units_Z 32
_cell_length_a 9.878589
_cell_length_b 9.062283
_cell_length_c 17.460751
_cell_angle_alpha 90.000000
_cell_angle_beta 89.183714
_cell_angle_gamma 90.000000
_cell_volume 1562.972654
_symmetry_space_group_name_H-M "C M"
_symmetry_group_IT_number 8
_symmetry_cell_setting 'monoclinic'
loop_
_space_group_symop_operation_xyz
x,y,z
x,-y,z
1/2+x,1/2+y,z
1/2+x,1/2-y,z
loop_
_atom_site_type_symbol
_atom_site_label
_atom_site_fract_x
_atom_site_fract_y
_atom_site_fract_z
Si Si1 0.823090 0.329494 0.537860
Si Si2 0.735432 0.671258 0.371892
Si Si3 0.548014 0.329376 0.626543
Si Si4 0.801957 0.670651 0.870945
Si Si5 0.324851 0.670400 0.027501
Si Si6 0.074902 0.329284 0.782148
Si Si7 0.553266 0.170524 0.115189
Si Si8 0.006410 0.328432 0.285990
O O1 0.868874 0.500000 0.533120
O O2 0.778804 0.271083 0.454917
O O3 0.701745 0.308545 0.598574
O O4 0.948975 0.230429 0.561865
O O5 0.700388 0.500000 0.376823
O O6 0.600559 0.752793 0.347660
O O7 0.851989 0.704587 0.309163
O O8 0.514893 0.500000 0.642557
O O9 0.522243 0.236437 0.703063
O O10 0.762238 0.500000 0.878920
O O11 0.707517 0.742669 0.807492
O O12 0.957740 0.689925 0.845951
O O13 0.776169 0.749689 0.951326
O O14 0.349338 0.500000 0.007827
O O15 0.463435 0.738691 0.056622
O O16 0.209752 0.691374 0.092430
O O17 0.111902 0.500000 0.770023
O O18 0.532558 0.234503 0.200688
O O19 0.508408 0.000000 0.110467
O O20 0.040920 0.500000 0.287987
#
# Coordination Sequence:
#
# PCOD8053766 Si02
#       8
#     4   4   4   4   4   4   4   4
#     4  10  22  39  57  83 118 150 187 236 283 332
#     4  10  21  37  58  84 114 150 191 234 282 335
#     4  11  23  38  59  86 114 149 191 232 280 337
#     4  11  24  41  61  86 116 149 187 233 282 334
#     4  11  23  38  59  86 114 149 191 232 280 337
#     4  11  24  41  61  86 116 149 187 233 282 334
#     4  10  22  39  57  83 118 150 187 236 283 332
#     4  10  21  37  58  84 114 150 191 234 282 335
#
# _framework density 20.473807000000001
#
# number of rings (size 3 to 8) (size 9 to 14) (size 15 to 20)
#    0.000    1.500    0.000    4.500    0.000   11.500 
#    0.000    0.000    0.000    0.000    0.000    0.000 
#    0.000    0.000    0.000    0.000    0.000    0.000 
#
# Total GULP energy -198526.786488 kJ/mol
# GULP energy per Si atom -12407.924155 kJ/mol
# Density = 2.042721 g / cm^3
# Si number density = 20.473807 Si / 1000 Ang^3
#
#
#
# Elastic Constant Matrix: (Units=GPa)
#
#
# Indices 1 2 3 4 5 6 
#
# 1 59.1678 34.8534 -0.5813 0.0000 15.4651 0.0000
# 2 34.8534 99.3999 29.8343 0.0000 6.5181 0.0000
# 3 -0.5813 29.8343 92.4442 0.0000 5.4047 0.0000
# 4 0.0000 0.0000 0.0000 35.6943 0.0000 8.0903
# 5 15.4651 6.5181 5.4047 0.0000 37.5098 0.0000
# 6 0.0000 0.0000 0.0000 8.0903 0.0000 25.4433
#
#
#
# Elastic Compliance Matrix: (Units=1/GPa)
#
#
# Indices 1 2 3 4 5 6 
#
# 1 0.024720 -0.009164 0.003646 0.000000 -0.009125 0.000000
# 2 -0.009164 0.014613 -0.004887 0.000000 0.001943 0.000000
# 3 0.003646 -0.004887 0.012562 0.000000 -0.002464 0.000000
# 4 0.000000 0.000000 0.000000 0.030192 0.000000 -0.009600
# 5 -0.009125 0.001943 -0.002464 0.000000 0.030439 0.000000
# 6 0.000000 0.000000 0.000000 -0.009600 0.000000 0.042356
#
#
# Mechanical properties :
#
#
# Convention : Reuss Voigt Hill
#
# Bulk Modulus (GPa) = 32.16973 42.13608 37.15291
# Shear Modulus (GPa) = 26.87415 32.18983 29.53199
#
# Velocity S-wave (km/s) = 3.62693 3.96946 3.80205
# Velocity P-wave (km/s) = 5.76942 6.45244 6.12046
#
# Compressibility (1/GPa) = 0.03108512
#
# Stress axis : x y z
#
# Youngs Moduli (GPa) = 40.45305 68.43208 79.60788
#
# Poissons Ratio (x) = 0.62710 -0.29028
# Poissons Ratio (y) = 0.37071 0.38906
# Poissons Ratio (z) = -0.14751 0.33444
#
# Static dielectric constant tensor:
#      x y z
#    x 3.582550 0.000000 -0.060340 
#    y 0.000000 3.702890 0.000000 
#    z -0.060340 0.000000 3.806200 
# 
# 
# High freq. dielectric constant tensor:
#      x y z
#    x 1.806000 0.000000 -0.001600 
#    y 0.000000 1.800700 0.000000 
#    z -0.001600 0.000000 1.814240 
# 
# From -- ./inp_files/25849.got.cif
#   From: 2010.03.12/outbox.cif.g09.slc.cpg/sg8_13_cif.got.tgz:25849.got - 2010.03.31 10:45:26.
