data_PCOD8053353
_publ_section_title
;
Structure prediction by ZEFSAII (Michael W. Deem and Ramdas Pophale) SiO2 
 PCOD8053353
Probable space group: C M
;
_chemical_formula_sum "Si O2"
_cell_formula_units_Z 32
_cell_length_a 14.535995
_cell_length_b 13.574527
_cell_length_c 8.774808
_cell_angle_alpha 90.000000
_cell_angle_beta 65.638785
_cell_angle_gamma 90.000000
_cell_volume 1577.276655
_symmetry_space_group_name_H-M "C M"
_symmetry_group_IT_number 8
_symmetry_cell_setting 'monoclinic'
loop_
_space_group_symop_operation_xyz
x,y,z
x,-y,z
1/2+x,1/2+y,z
1/2+x,1/2-y,z
loop_
_atom_site_type_symbol
_atom_site_label
_atom_site_fract_x
_atom_site_fract_y
_atom_site_fract_z
Si Si1 0.711820 0.888151 0.981560
Si Si2 0.931021 0.111024 0.829178
Si Si3 0.229208 0.886236 0.756826
Si Si4 0.031809 0.194602 0.027067
Si Si5 0.082755 0.743475 0.296268
Si Si6 0.038921 0.608557 0.879275
Si Si7 0.959439 0.612798 0.604691
Si Si8 0.124218 0.885345 0.521544
O O1 0.822101 0.838944 0.879915
O O2 0.655214 0.889018 0.857089
O O3 0.723313 0.000000 0.036042
O O4 0.655696 0.827120 0.150772
O O5 0.965483 0.114240 0.983640
O O6 0.018389 0.157975 0.663913
O O7 0.922441 0.000000 0.781948
O O8 0.151635 0.817704 0.904386
O O9 0.343755 0.856223 0.719369
O O10 0.211350 0.871599 0.587673
O O11 0.207159 0.000000 0.815714
O O12 0.986492 0.301182 0.003489
O O13 0.020778 0.188479 0.217124
O O14 0.002594 0.678392 0.440515
O O15 0.147193 0.816851 0.360089
O O16 0.991778 0.500000 0.951952
O O17 0.029626 0.626781 0.705500
O O18 0.961202 0.500000 0.547668
O O19 0.116026 0.000000 0.478625
#
# Coordination Sequence:
#
# PCOD8053353 Si02
#       8
#     4   4   4   4   4   4   4   4
#     4   9  19  37  57  78 105 138 176 217 262 309
#     4   9  18  36  60  78 100 139 181 217 255 308
#     4   9  19  37  59  78 101 139 181 217 256 308
#     4  10  20  34  54  80 108 138 174 217 261 312
#     4  11  22  32  51  80 113 142 166 213 269 314
#     4   9  19  34  52  74 102 139 180 214 247 302
#     4  10  20  36  57  79 105 138 176 218 262 310
#     4   9  19  36  56  79 106 137 176 219 260 307
#
# _framework density 20.288133999999999
#
# number of rings (size 3 to 8) (size 9 to 14) (size 15 to 20)
#    0.000    2.500    0.000    3.000    0.000    6.500 
#    0.000    2.500    0.000   12.750    0.000    0.000 
#    0.000    0.000    0.000    0.000    0.000    0.000 
#
# Total GULP energy -198246.627695 kJ/mol
# GULP energy per Si atom -12390.414231 kJ/mol
# Density = 2.024196 g / cm^3
# Si number density = 20.288134 Si / 1000 Ang^3
#
#
#
# Elastic Constant Matrix: (Units=GPa)
#
#
# Indices 1 2 3 4 5 6 
#
# 1 120.9500 20.3396 53.0386 0.0000 2.9568 0.0000
# 2 20.3396 67.9824 38.6639 0.0000 4.8855 0.0000
# 3 53.0386 38.6639 85.5397 0.0000 20.8252 0.0000
# 4 0.0000 0.0000 0.0000 29.1773 0.0000 9.2705
# 5 2.9568 4.8855 20.8252 0.0000 28.6630 0.0000
# 6 0.0000 0.0000 0.0000 9.2705 0.0000 22.8065
#
#
#
# Elastic Compliance Matrix: (Units=1/GPa)
#
#
# Indices 1 2 3 4 5 6 
#
# 1 0.012013 0.001342 -0.009352 0.000000 0.005327 0.000000
# 2 0.001342 0.020296 -0.011092 0.000000 0.004461 0.000000
# 3 -0.009352 -0.011092 0.026494 0.000000 -0.016394 0.000000
# 4 0.000000 0.000000 0.000000 0.039356 0.000000 -0.015998
# 5 0.005327 0.004461 -0.016394 0.000000 0.045489 0.000000
# 6 0.000000 0.000000 0.000000 -0.015998 0.000000 0.050350
#
#
# Mechanical properties :
#
#
# Convention : Reuss Voigt Hill
#
# Bulk Modulus (GPa) = 48.54638 55.39514 51.97076
# Shear Modulus (GPa) = 20.91453 26.95805 23.93629
#
# Velocity S-wave (km/s) = 3.21421 3.64917 3.43857
# Velocity P-wave (km/s) = 6.14453 6.71705 6.43716
#
# Compressibility (1/GPa) = 0.02059886
#
# Stress axis : x y z
#
# Youngs Moduli (GPa) = 83.24314 49.27092 37.74466
#
# Poissons Ratio (x) = -0.06611 0.35299
# Poissons Ratio (y) = -0.11170 0.41866
# Poissons Ratio (z) = 0.77849 0.54650
#
# Static dielectric constant tensor:
#      x y z
#    x 3.852010 0.000000 0.160430 
#    y 0.000000 3.922850 0.000000 
#    z 0.160430 0.000000 3.405490 
# 
# 
# High freq. dielectric constant tensor:
#      x y z
#    x 1.792510 0.000000 0.019440 
#    y 0.000000 1.811510 0.000000 
#    z 0.019440 0.000000 1.752170 
# 
# From -- ./inp_files/13282.got.cif
#   From: 2010.03.12/outbox.cif.g09.slc.cpg/sg8_7_cif.got.tgz:13282.got - 2010.03.31 10:45:26.
