data_PCOD8053498
_publ_section_title
;
Structure prediction by ZEFSAII (Michael W. Deem and Ramdas Pophale) SiO2 
 PCOD8053498
Probable space group: C M
;
_chemical_formula_sum "Si O2"
_cell_formula_units_Z 32
_cell_length_a 27.392956
_cell_length_b 8.955939
_cell_length_c 21.823477
_cell_angle_alpha 90.000000
_cell_angle_beta 18.301385
_cell_angle_gamma 90.000000
_cell_volume 1681.221471
_symmetry_space_group_name_H-M "C M"
_symmetry_group_IT_number 8
_symmetry_cell_setting 'monoclinic'
loop_
_space_group_symop_operation_xyz
x,y,z
x,-y,z
1/2+x,1/2+y,z
1/2+x,1/2-y,z
loop_
_atom_site_type_symbol
_atom_site_label
_atom_site_fract_x
_atom_site_fract_y
_atom_site_fract_z
Si Si1 0.021960 0.675045 0.938650
Si Si2 0.234618 0.826036 0.589879
Si Si3 0.110473 0.671671 0.970043
Si Si4 0.960605 0.170758 0.825686
Si Si5 0.254992 0.325476 0.185530
Si Si6 0.960558 0.173623 0.582052
Si Si7 0.878580 0.673504 0.801062
Si Si8 0.528141 0.326513 0.187769
O O1 0.019511 0.500000 0.928371
O O2 0.166660 0.744988 0.730281
O O3 0.040923 0.711540 0.987352
O O4 0.859584 0.745940 0.112019
O O5 0.405160 0.763677 0.374406
O O6 0.125265 0.796600 0.661558
O O7 0.243885 0.000000 0.594064
O O8 0.080460 0.500000 0.023821
O O9 0.293753 0.705918 0.750998
O O10 0.022699 0.773793 0.123891
O O11 0.946571 0.280419 0.785355
O O12 0.950661 0.000000 0.814917
O O13 0.822196 0.206289 0.038025
O O14 0.254882 0.500000 0.200303
O O15 0.082517 0.259495 0.393861
O O16 0.968293 0.234700 0.642012
O O17 0.002584 0.000000 0.533059
O O18 0.910490 0.500000 0.751506
O O19 0.695551 0.709628 0.017335
O O20 0.486650 0.500000 0.239792
#
# Coordination Sequence:
#
# PCOD8053498 Si02
#       8
#     4   4   4   4   4   4   4   4
#     4  10  20  36  57  81 109 139 175 219 265 313
#     4  10  21  37  56  79 108 141 178 218 262 314
#     4   9  20  37  56  79 107 139 176 219 265 314
#     4   9  20  37  55  77 106 140 177 217 261 313
#     4  10  21  37  55  79 110 141 177 218 261 313
#     4  10  20  36  57  79 106 141 178 217 264 314
#     4  10  21  36  55  80 108 138 176 221 265 313
#     4  10  21  36  55  80 108 139 177 219 263 314
#
# _framework density 19.033778000000002
#
# number of rings (size 3 to 8) (size 9 to 14) (size 15 to 20)
#    0.000    2.250    0.000    3.000    0.000    8.000 
#    0.000    5.000    0.000    0.000    0.000    0.000 
#    0.000    0.000    0.000    0.000    0.000    0.000 
#
# Total GULP energy -198480.138351 kJ/mol
# GULP energy per Si atom -12405.008647 kJ/mol
# Density = 1.899046 g / cm^3
# Si number density = 19.033778 Si / 1000 Ang^3
#
#
#
# Elastic Constant Matrix: (Units=GPa)
#
#
# Indices 1 2 3 4 5 6 
#
# 1 38.8835 12.7114 -23.9233 0.0008 1.2531 -0.0001
# 2 12.7114 78.1071 11.3031 -0.0001 2.3506 0.0005
# 3 -23.9233 11.3031 50.0670 -0.0003 0.7510 0.0005
# 4 0.0008 -0.0001 -0.0003 39.6851 0.0009 2.7924
# 5 1.2531 2.3506 0.7510 0.0009 12.4567 -0.0005
# 6 -0.0001 0.0005 0.0005 2.7924 -0.0005 31.1643
#
#
#
# Elastic Compliance Matrix: (Units=1/GPa)
#
#
# Indices 1 2 3 4 5 6 
#
# 1 0.043451 -0.010306 0.023146 -0.000001 -0.003822 0.000000
# 2 -0.010306 0.015747 -0.008458 0.000000 -0.001425 0.000000
# 3 0.023146 -0.008458 0.032983 0.000000 -0.002721 0.000000
# 4 -0.000001 0.000000 0.000000 0.025358 -0.000002 -0.002272
# 5 -0.003822 -0.001425 -0.002721 -0.000002 0.081096 0.000002
# 6 0.000000 0.000000 0.000000 -0.002272 0.000002 0.032292
#
#
# Mechanical properties :
#
#
# Convention : Reuss Voigt Hill
#
# Bulk Modulus (GPa) = 9.90642 18.58225 14.24433
# Shear Modulus (GPa) = 19.54572 27.79232 23.66902
#
# Velocity S-wave (km/s) = 3.20800 3.82535 3.53019
# Velocity P-wave (km/s) = 4.35174 5.41249 4.91084
#
# Compressibility (1/GPa) = 0.10094462
#
# Stress axis : x y z
#
# Youngs Moduli (GPa) = 23.01463 63.50416 30.31853
#
# Poissons Ratio (x) = 0.65446 -0.70175
# Poissons Ratio (y) = 0.23718 0.25643
# Poissons Ratio (z) = -0.53269 0.53712
#
# Static dielectric constant tensor:
#      x y z
#    x 3.332030 0.000000 0.006950 
#    y 0.000000 3.556660 0.000000 
#    z 0.006950 0.000000 3.506340 
# 
# 
# High freq. dielectric constant tensor:
#      x y z
#    x 1.732740 0.000000 0.002240 
#    y 0.000000 1.752300 0.000000 
#    z 0.002240 0.000000 1.742540 
# 
# From -- ./inp_files/17321.got.cif
#   From: 2010.03.12/outbox.cif.g09.slc.cpg/sg8_9_cif.got.tgz:17321.got - 2010.03.31 10:45:26.
