data_PCOD8053830
_publ_section_title
;
Structure prediction by ZEFSAII (Michael W. Deem and Ramdas Pophale) SiO2 
 PCOD8053830
Probable space group: C M
;
_chemical_formula_sum "Si O2"
_cell_formula_units_Z 32
_cell_length_a 27.004200
_cell_length_b 8.415320
_cell_length_c 22.242710
_cell_angle_alpha 90.000000
_cell_angle_beta 17.522444
_cell_angle_gamma 90.000000
_cell_volume 1521.845787
_symmetry_space_group_name_H-M "C M"
_symmetry_group_IT_number 8
_symmetry_cell_setting 'monoclinic'
loop_
_space_group_symop_operation_xyz
x,y,z
x,-y,z
1/2+x,1/2+y,z
1/2+x,1/2-y,z
loop_
_atom_site_type_symbol
_atom_site_label
_atom_site_fract_x
_atom_site_fract_y
_atom_site_fract_z
Si Si1 0.109370 0.685603 0.693830
Si Si2 0.861146 0.683661 0.192366
Si Si3 0.802507 0.311778 0.125471
Si Si4 0.192646 0.182456 0.855595
Si Si5 0.444855 0.183554 0.351682
Si Si6 0.967712 0.814613 0.455039
Si Si7 0.750351 0.182963 0.916654
Si Si8 0.070842 0.318749 0.600033
O O1 0.142394 0.500000 0.667877
O O2 0.269469 0.784152 0.525307
O O3 0.061575 0.720097 0.680877
O O4 0.959233 0.752423 0.907473
O O5 0.915396 0.500000 0.128087
O O6 0.816397 0.746348 0.177822
O O7 0.701709 0.702149 0.418270
O O8 0.007492 0.788125 0.048953
O O9 0.797851 0.500000 0.126116
O O10 0.634283 0.244433 0.291676
O O11 0.313156 0.222212 0.661216
O O12 0.235093 0.290866 0.863311
O O13 0.211304 0.000000 0.852822
O O14 0.473007 0.289708 0.377696
O O15 0.458449 0.000000 0.354266
O O16 0.580464 0.231074 0.145320
O O17 0.946741 0.000000 0.493316
O O18 0.892260 0.292372 0.779001
O O19 0.795373 0.000000 0.876132
O O20 0.124765 0.500000 0.526134
#
# Coordination Sequence:
#
# PCOD8053830 Si02
#       8
#     4   4   4   4   4   4   4   4
#     4  10  21  39  62  87 117 156 201 247 301 363
#     4  11  22  39  63  89 121 161 203 246 302 370
#     4   9  20  38  61  87 113 150 199 244 289 355
#     4  12  25  41  62  91 125 159 205 260 310 362
#     4  11  24  40  60  90 124 159 204 255 304 359
#     4  11  22  40  65  90 121 161 203 248 308 376
#     4  11  24  42  63  88 122 165 209 253 309 370
#     4  11  23  39  62  92 123 157 202 255 307 361
#
# _framework density 21.027099
#
# number of rings (size 3 to 8) (size 9 to 14) (size 15 to 20)
#    0.000    1.250    0.000    6.000    0.000    8.000 
#    0.000    3.750    0.000    0.000    0.000    0.000 
#    0.000    0.000    0.000    0.000    0.000    0.000 
#
# Total GULP energy -198532.313521 kJ/mol
# GULP energy per Si atom -12408.269595 kJ/mol
# Density = 2.097924 g / cm^3
# Si number density = 21.027099 Si / 1000 Ang^3
#
#
#
# Elastic Constant Matrix: (Units=GPa)
#
#
# Indices 1 2 3 4 5 6 
#
# 1 90.5125 25.2534 12.3525 -0.0006 -8.1907 0.0003
# 2 25.2534 47.9922 31.7420 -0.0076 2.9231 0.0020
# 3 12.3525 31.7420 108.8878 -0.0020 -5.5496 0.0010
# 4 -0.0006 -0.0076 -0.0020 30.8925 0.0018 -1.7110
# 5 -8.1907 2.9231 -5.5496 0.0018 44.9087 -0.0008
# 6 0.0003 0.0020 0.0010 -1.7110 -0.0008 31.1040
#
#
#
# Elastic Compliance Matrix: (Units=1/GPa)
#
#
# Indices 1 2 3 4 5 6 
#
# 1 0.013388 -0.007842 0.000924 -0.000002 0.003066 0.000000
# 2 -0.007842 0.030719 -0.008292 0.000007 -0.004455 -0.000001
# 3 0.000924 -0.008292 0.011606 -0.000001 0.002142 0.000000
# 4 -0.000002 0.000007 -0.000001 0.032469 -0.000002 0.001786
# 5 0.003066 -0.004455 0.002142 -0.000002 0.023381 0.000001
# 6 0.000000 -0.000001 0.000000 0.001786 0.000001 0.032248
#
#
# Mechanical properties :
#
#
# Convention : Reuss Voigt Hill
#
# Bulk Modulus (GPa) = 39.54066 42.89869 41.21968
# Shear Modulus (GPa) = 27.37275 33.25067 30.31171
#
# Velocity S-wave (km/s) = 3.61194 3.98090 3.80090
# Velocity P-wave (km/s) = 6.01999 6.44795 6.23764
#
# Compressibility (1/GPa) = 0.02529042
#
# Stress axis : x y z
#
# Youngs Moduli (GPa) = 74.69579 32.55295 86.16603
#
# Poissons Ratio (x) = 0.25529 -0.07959
# Poissons Ratio (y) = 0.58578 0.71452
# Poissons Ratio (z) = -0.06899 0.26994
#
# Static dielectric constant tensor:
#      x y z
#    x 3.902580 0.000000 0.026470 
#    y 0.000000 3.608710 0.000000 
#    z 0.026470 0.000000 3.957450 
# 
# 
# High freq. dielectric constant tensor:
#      x y z
#    x 1.837550 0.000000 0.000360 
#    y 0.000000 1.813060 0.000000 
#    z 0.000360 0.000000 1.839480 
# 
# From -- ./inp_files/31630.got.cif
#   From: 2010.03.12/outbox.cif.g09.slc.cpg/sg8_16_cif.got.tgz:31630.got - 2010.03.31 10:45:26.
