data_PCOD8053429
_publ_section_title
;
Structure prediction by ZEFSAII (Michael W. Deem and Ramdas Pophale) SiO2 
 PCOD8053429
Probable space group: C M
;
_chemical_formula_sum "Si O2"
_cell_formula_units_Z 28
_cell_length_a 12.513652
_cell_length_b 21.122761
_cell_length_c 5.483746
_cell_angle_alpha 90.000000
_cell_angle_beta 111.431090
_cell_angle_gamma 90.000000
_cell_volume 1349.259172
_symmetry_space_group_name_H-M "C M"
_symmetry_group_IT_number 8
_symmetry_cell_setting 'monoclinic'
loop_
_space_group_symop_operation_xyz
x,y,z
x,-y,z
1/2+x,1/2+y,z
1/2+x,1/2-y,z
loop_
_atom_site_type_symbol
_atom_site_label
_atom_site_fract_x
_atom_site_fract_y
_atom_site_fract_z
Si Si1 0.125000 0.756335 0.723010
Si Si2 0.307120 0.181185 0.157862
Si Si3 0.510088 0.844444 0.978973
Si Si4 0.399358 0.070357 0.509348
Si Si5 0.403617 0.694008 0.358460
Si Si6 0.633269 0.930105 0.414718
Si Si7 0.806380 0.844328 0.768113
O O1 0.050122 0.710209 0.831921
O O2 0.223643 0.716426 0.674110
O O3 0.038230 0.786574 0.454466
O O4 0.186756 0.814559 0.914714
O O5 0.303879 0.116843 0.312405
O O6 0.319927 0.245329 0.326274
O O7 0.422801 0.187086 0.093777
O O8 0.437869 0.901216 0.797558
O O9 0.623676 0.877266 0.192426
O O10 0.508335 0.066921 0.426632
O O11 0.346895 0.000000 0.503796
O O12 0.388283 0.653890 0.596860
O O13 0.373963 0.656091 0.083207
O O14 0.727500 0.907453 0.690600
O O15 0.667051 0.000000 0.344922
#
# Coordination Sequence:
#
# PCOD8053429 Si02
#       7
#     4   4   4   4   4   4   4
#     4  11  20  37  58  85 119 156 193 244 299 359
#     4  10  22  35  57  84 118 156 192 240 304 352
#     4  11  19  38  54  90 122 151 197 247 298 356
#     4  10  20  35  55  84 117 150 197 245 293 356
#     4  11  23  38  56  89 120 155 189 248 292 360
#     4  10  20  35  58  85 116 159 196 244 305 355
#     4  11  23  38  58  87 123 151 198 242 301 350
#
# _framework density 20.752130000000001
#
# number of rings (size 3 to 8) (size 9 to 14) (size 15 to 20)
#    0.000    1.429    2.857    4.714    0.000    2.857 
#    0.000    0.000    0.000    1.714    0.000    0.000 
#    0.000    0.000    0.000    0.000    0.000    0.000 
#
# Total GULP energy -173518.289649 kJ/mol
# GULP energy per Si atom -12394.163546 kJ/mol
# Density = 2.070490 g / cm^3
# Si number density = 20.752130 Si / 1000 Ang^3
#
#
#
# Elastic Constant Matrix: (Units=GPa)
#
#
# Indices 1 2 3 4 5 6 
#
# 1 28.7702 3.0943 32.7544 0.0000 9.3092 0.0000
# 2 3.0943 99.1423 46.2351 0.0000 15.4088 0.0000
# 3 32.7544 46.2351 136.1908 0.0000 17.7457 0.0000
# 4 0.0000 0.0000 0.0000 34.6171 0.0000 8.1025
# 5 9.3092 15.4088 17.7457 0.0000 42.0065 0.0000
# 6 0.0000 0.0000 0.0000 8.1025 0.0000 14.6226
#
#
#
# Elastic Compliance Matrix: (Units=1/GPa)
#
#
# Indices 1 2 3 4 5 6 
#
# 1 0.052066 0.005908 -0.013484 0.000000 -0.008009 0.000000
# 2 0.005908 0.012982 -0.005330 0.000000 -0.003819 0.000000
# 3 -0.013484 -0.005330 0.012436 0.000000 -0.000310 0.000000
# 4 0.000000 0.000000 0.000000 0.033192 0.000000 -0.018392
# 5 -0.008009 -0.003819 -0.000310 0.000000 0.027113 0.000000
# 6 0.000000 0.000000 0.000000 -0.018392 0.000000 0.078578
#
#
# Mechanical properties :
#
#
# Convention : Reuss Voigt Hill
#
# Bulk Modulus (GPa) = 19.35345 47.58564 33.46955
# Shear Modulus (GPa) = 19.27504 30.38386 24.82945
#
# Velocity S-wave (km/s) = 3.05096 3.83055 3.46277
# Velocity P-wave (km/s) = 4.66449 6.52261 5.67018
#
# Compressibility (1/GPa) = 0.05167037
#
# Stress axis : x y z
#
# Youngs Moduli (GPa) = 19.20640 77.03246 80.41422
#
# Poissons Ratio (x) = -0.45512 1.08432
# Poissons Ratio (y) = -0.11347 0.42864
# Poissons Ratio (z) = 0.25898 0.41061
#
# Static dielectric constant tensor:
#      x y z
#    x 3.469580 0.000000 0.133270 
#    y 0.000000 3.918170 0.000000 
#    z 0.133270 0.000000 3.978880 
# 
# 
# High freq. dielectric constant tensor:
#      x y z
#    x 1.778110 0.000000 0.001570 
#    y 0.000000 1.787890 0.000000 
#    z 0.001570 0.000000 1.824250 
# 
# From -- ./inp_files/2824.got.cif
#   From: 2010.03.12/outbox.cif.g09.slc.cpg/sg8_2_cif.got.tgz:2824.got - 2010.03.31 10:45:26.
