data_PCOD8053861
_publ_section_title
;
Structure prediction by ZEFSAII (Michael W. Deem and Ramdas Pophale) SiO2 
 PCOD8053861
Probable space group: C M
;
_chemical_formula_sum "Si O2"
_cell_formula_units_Z 32
_cell_length_a 24.460329
_cell_length_b 8.515317
_cell_length_c 16.092431
_cell_angle_alpha 90.000000
_cell_angle_beta 27.069086
_cell_angle_gamma 90.000000
_cell_volume 1525.308715
_symmetry_space_group_name_H-M "C M"
_symmetry_group_IT_number 8
_symmetry_cell_setting 'monoclinic'
loop_
_space_group_symop_operation_xyz
x,y,z
x,-y,z
1/2+x,1/2+y,z
1/2+x,1/2-y,z
loop_
_atom_site_type_symbol
_atom_site_label
_atom_site_fract_x
_atom_site_fract_y
_atom_site_fract_z
Si Si1 0.705240 0.316621 0.422130
Si Si2 0.389070 0.684725 0.297095
Si Si3 0.844220 0.685291 0.530862
Si Si4 0.655056 0.681618 0.918940
Si Si5 0.364499 0.180120 0.750845
Si Si6 0.249012 0.683634 0.185573
Si Si7 0.455371 0.183317 0.807026
Si Si8 0.034475 0.181512 0.389266
O O1 0.729151 0.500000 0.399386
O O2 0.813988 0.222135 0.316663
O O3 0.698603 0.269128 0.335213
O O4 0.581083 0.272876 0.634650
O O5 0.393018 0.500000 0.308377
O O6 0.324301 0.767395 0.462692
O O7 0.523026 0.758253 0.104356
O O8 0.853762 0.500000 0.528967
O O9 0.732590 0.751491 0.736951
O O10 0.968172 0.760940 0.395765
O O11 0.634728 0.500000 0.928118
O O12 0.727110 0.709095 0.907838
O O13 0.377295 0.217706 0.830268
O O14 0.450896 0.293782 0.582644
O O15 0.402436 0.000000 0.679801
O O16 0.256220 0.500000 0.192827
O O17 0.157826 0.722480 0.234005
O O18 0.380798 0.749016 0.985352
O O19 0.480469 0.000000 0.785540
O O20 0.068211 0.000000 0.334018
#
# Coordination Sequence:
#
# PCOD8053861 Si02
#       8
#     4   4   4   4   4   4   4   4
#     4  12  26  46  66  90 128 172 220 269 320 379
#     4  11  23  41  66  93 123 167 216 263 319 381
#     4  10  21  40  62  91 127 166 209 261 322 380
#     4   8  18  37  61  89 123 163 203 249 311 375
#     4   9  18  36  62  91 128 166 203 257 323 381
#     4  12  25  42  64  94 129 168 214 266 325 385
#     4  11  23  40  66  97 128 165 212 265 325 387
#     4  11  21  36  61  93 130 169 211 260 319 382
#
# _framework density 20.97936
#
# number of rings (size 3 to 8) (size 9 to 14) (size 15 to 20)
#    0.000    1.500    1.250    5.250    1.750    1.500 
#    0.000   10.000    0.000    0.000    0.000    0.000 
#    0.000    0.000    0.000    0.000    0.000    0.000 
#
# Total GULP energy -198460.213634 kJ/mol
# GULP energy per Si atom -12403.763352 kJ/mol
# Density = 2.093161 g / cm^3
# Si number density = 20.979360 Si / 1000 Ang^3
#
#
#
# Elastic Constant Matrix: (Units=GPa)
#
#
# Indices 1 2 3 4 5 6 
#
# 1 78.8176 15.0083 23.9901 0.0007 -14.1116 -0.0003
# 2 15.0083 72.3157 26.5074 -0.0009 2.2022 0.0005
# 3 23.9901 26.5074 91.3217 0.0000 -14.6217 0.0000
# 4 0.0007 -0.0009 0.0000 30.6991 0.0007 1.2007
# 5 -14.1116 2.2022 -14.6217 0.0007 29.8555 -0.0002
# 6 -0.0003 0.0005 0.0000 1.2007 -0.0002 31.8512
#
#
#
# Elastic Compliance Matrix: (Units=1/GPa)
#
#
# Indices 1 2 3 4 5 6 
#
# 1 0.014936 -0.002473 -0.002220 -0.000001 0.006155 0.000000
# 2 -0.002473 0.016255 -0.004826 0.000001 -0.004732 0.000000
# 3 -0.002220 -0.004826 0.013914 0.000000 0.006121 0.000000
# 4 -0.000001 0.000001 0.000000 0.032622 -0.000001 -0.001230
# 5 0.006155 -0.004732 0.006121 -0.000001 0.039751 0.000000
# 6 0.000000 0.000000 0.000000 -0.001230 0.000000 0.031442
#
#
# Mechanical properties :
#
#
# Convention : Reuss Voigt Hill
#
# Bulk Modulus (GPa) = 38.36421 41.49627 39.93024
# Shear Modulus (GPa) = 28.30475 30.27777 29.29126
#
# Velocity S-wave (km/s) = 3.67709 3.80309 3.74062
# Velocity P-wave (km/s) = 6.02946 6.25357 6.14254
#
# Compressibility (1/GPa) = 0.02606596
#
# Stress axis : x y z
#
# Youngs Moduli (GPa) = 66.95102 61.52091 71.86786
#
# Poissons Ratio (x) = 0.15217 0.15957
# Poissons Ratio (y) = 0.16560 0.34683
# Poissons Ratio (z) = 0.14865 0.29690
#
# Static dielectric constant tensor:
#      x y z
#    x 3.752590 0.000000 -0.081640 
#    y 0.000000 3.603510 0.000000 
#    z -0.081640 0.000000 3.900980 
# 
# 
# High freq. dielectric constant tensor:
#      x y z
#    x 1.817730 0.000000 -0.004690 
#    y 0.000000 1.812720 0.000000 
#    z -0.004690 0.000000 1.824930 
# 
# From -- ./inp_files/28191.got.cif
#   From: 2010.03.12/outbox.cif.g09.slc.cpg/sg8_15_cif.got.tgz:28191.got - 2010.03.31 10:45:26.
