data_PCOD8053215
_publ_section_title
;
Structure prediction by ZEFSAII (Michael W. Deem and Ramdas Pophale) SiO2 
 PCOD8053215
Probable space group: C M
;
_chemical_formula_sum "Si O2"
_cell_formula_units_Z 32
_cell_length_a 20.298282
_cell_length_b 9.112732
_cell_length_c 25.036592
_cell_angle_alpha 90.000000
_cell_angle_beta 22.351560
_cell_angle_gamma 90.000000
_cell_volume 1761.150183
_symmetry_space_group_name_H-M "C M"
_symmetry_group_IT_number 8
_symmetry_cell_setting 'monoclinic'
loop_
_space_group_symop_operation_xyz
x,y,z
x,-y,z
1/2+x,1/2+y,z
1/2+x,1/2-y,z
loop_
_atom_site_type_symbol
_atom_site_label
_atom_site_fract_x
_atom_site_fract_y
_atom_site_fract_z
Si Si1 0.678140 0.669067 0.760950
Si Si2 0.375499 0.170586 0.188032
Si Si3 0.481430 0.668866 0.800845
Si Si4 0.339880 0.168009 0.488914
Si Si5 0.637207 0.673656 0.068731
Si Si6 0.477342 0.330728 0.485817
Si Si7 0.915495 0.830102 0.048084
Si Si8 0.601611 0.831943 0.205427
O O1 0.730493 0.500000 0.718447
O O2 0.546001 0.706599 0.812075
O O3 0.855042 0.760129 0.622807
O O4 0.586392 0.707125 0.885475
O O5 0.481314 0.260047 0.152120
O O6 0.420238 0.227355 0.095686
O O7 0.175613 0.196381 0.352904
O O8 0.425287 0.000000 0.153436
O O9 0.422706 0.500000 0.840865
O O10 0.635235 0.705590 0.643522
O O11 0.319100 0.770514 0.908202
O O12 0.445701 0.264281 0.451330
O O13 0.414573 0.192963 0.373556
O O14 0.366590 0.000000 0.487215
O O15 0.630908 0.500000 0.069842
O O16 0.617306 0.722768 0.144658
O O17 0.430462 0.500000 0.517650
O O18 0.746798 0.793589 0.139936
O O19 0.914063 0.000000 0.066885
O O20 0.623327 0.000000 0.169132
#
# Coordination Sequence:
#
# PCOD8053215 Si02
#       8
#     4   4   4   4   4   4   4   4
#     4   9  18  33  56  84 113 147 182 222 275 333
#     4  11  24  40  57  80 114 152 188 231 283 335
#     4   9  17  34  56  82 113 147 185 223 276 334
#     4   9  18  33  58  85 110 145 183 224 278 334
#     4  12  25  38  56  82 113 152 192 231 278 332
#     4  10  20  33  53  83 114 145 183 230 278 324
#     4  10  19  35  60  87 113 144 187 232 275 329
#     4  10  19  36  60  85 114 146 184 231 279 331
#
# _framework density 18.169943
#
# number of rings (size 3 to 8) (size 9 to 14) (size 15 to 20)
#    0.000    2.000    2.500    2.625    0.000    5.000 
#    0.000    1.250    0.000    1.500    0.000    0.000 
#    0.000    0.000    0.000    0.000    0.000    0.000 
#
# Total GULP energy -198425.216459 kJ/mol
# GULP energy per Si atom -12401.576029 kJ/mol
# Density = 1.812859 g / cm^3
# Si number density = 18.169943 Si / 1000 Ang^3
#
#
#
# Elastic Constant Matrix: (Units=GPa)
#
#
# Indices 1 2 3 4 5 6 
#
# 1 48.3301 38.3906 38.6617 -0.0059 -2.7762 0.0005
# 2 38.3906 110.7101 65.9527 -0.0109 -8.5394 -0.0005
# 3 38.6617 65.9527 121.5109 -0.0181 2.7124 -0.0012
# 4 -0.0059 -0.0109 -0.0181 30.3699 -0.0036 -0.8545
# 5 -2.7762 -8.5394 2.7124 -0.0036 23.7752 0.0002
# 6 0.0005 -0.0005 -0.0012 -0.8545 0.0002 29.4444
#
#
#
# Elastic Compliance Matrix: (Units=1/GPa)
#
#
# Indices 1 2 3 4 5 6 
#
# 1 0.031341 -0.007036 -0.006194 0.000000 0.001839 -0.000001
# 2 -0.007036 0.015727 -0.006421 0.000001 0.005560 0.000000
# 3 -0.006194 -0.006421 0.013788 0.000004 -0.004603 0.000001
# 4 0.000000 0.000001 0.000004 0.032954 0.000005 0.000956
# 5 0.001839 0.005560 -0.004603 0.000005 0.044797 0.000000
# 6 -0.000001 0.000000 0.000001 0.000956 0.000000 0.033990
#
#
# Mechanical properties :
#
#
# Convention : Reuss Voigt Hill
#
# Bulk Modulus (GPa) = 46.39715 62.95122 54.67419
# Shear Modulus (GPa) = 22.82223 25.88763 24.35493
#
# Velocity S-wave (km/s) = 3.54791 3.77868 3.66511
# Velocity P-wave (km/s) = 6.50954 7.33205 6.93300
#
# Compressibility (1/GPa) = 0.02155305
#
# Stress axis : x y z
#
# Youngs Moduli (GPa) = 31.90753 63.58590 72.52425
#
# Poissons Ratio (x) = 0.44741 0.44920
# Poissons Ratio (y) = 0.22451 0.46571
# Poissons Ratio (z) = 0.19763 0.40831
#
# Static dielectric constant tensor:
#      x y z
#    x 3.177430 0.000000 0.162150 
#    y 0.000000 3.322370 0.000000 
#    z 0.162150 0.000000 3.690460 
# 
# 
# High freq. dielectric constant tensor:
#      x y z
#    x 1.673290 0.000000 0.010400 
#    y 0.000000 1.702570 0.000000 
#    z 0.010400 0.000000 1.722410 
# 
# From -- ./inp_files/31666.got.cif
#   From: 2010.03.12/outbox.cif.g09.slc.cpg/sg8_16_cif.got.tgz:31666.got - 2010.03.31 10:45:26.
