data_PCOD8053645
_publ_section_title
;
Structure prediction by ZEFSAII (Michael W. Deem and Ramdas Pophale) SiO2 
 PCOD8053645
Probable space group: C M
;
_chemical_formula_sum "Si O2"
_cell_formula_units_Z 32
_cell_length_a 28.233638
_cell_length_b 8.719214
_cell_length_c 11.950408
_cell_angle_alpha 90.000000
_cell_angle_beta 147.094827
_cell_angle_gamma 90.000000
_cell_volume 1598.184261
_symmetry_space_group_name_H-M "C M"
_symmetry_group_IT_number 8
_symmetry_cell_setting 'monoclinic'
loop_
_space_group_symop_operation_xyz
x,y,z
x,-y,z
1/2+x,1/2+y,z
1/2+x,1/2-y,z
loop_
_atom_site_type_symbol
_atom_site_label
_atom_site_fract_x
_atom_site_fract_y
_atom_site_fract_z
Si Si1 0.437440 0.177730 0.416750
Si Si2 0.183119 0.179579 0.117093
Si Si3 0.738164 0.680099 0.462873
Si Si4 0.092339 0.319365 0.564941
Si Si5 0.081327 0.819649 0.301552
Si Si6 0.243241 0.822363 0.999456
Si Si7 0.981242 0.178372 0.729693
Si Si8 0.933499 0.678150 0.862945
O O1 0.514652 0.240484 0.491049
O O2 0.344890 0.199494 0.170295
O O3 0.432923 0.277397 0.519946
O O4 0.452086 0.000000 0.477531
O O5 0.225988 0.252815 0.314186
O O6 0.225210 0.248396 0.087418
O O7 0.201216 0.000000 0.152443
O O8 0.081928 0.220189 0.916193
O O9 0.720782 0.500000 0.417165
O O10 0.665861 0.747594 0.404182
O O11 0.833905 0.714890 0.700919
O O12 0.090875 0.500000 0.556963
O O13 0.073891 0.257769 0.405980
O O14 0.186101 0.264603 0.794202
O O15 0.089006 0.000000 0.333683
O O16 0.995263 0.782957 0.060147
O O17 0.215590 0.000000 0.940932
O O18 0.942037 0.281428 0.749912
O O19 0.967130 0.000000 0.729464
O O20 0.955835 0.500000 0.926140
#
# Coordination Sequence:
#
# PCOD8053645 Si02
#       8
#     4   4   4   4   4   4   4   4
#     4  10  22  39  61  87 119 156 197 239 290 350
#     4   9  16  31  58  87 114 146 189 233 276 335
#     4   9  19  37  61  86 115 153 194 232 282 350
#     4  11  24  41  59  86 120 151 193 252 300 338
#     4  11  23  42  64  84 112 156 203 242 287 350
#     4  10  20  38  63  87 113 156 199 234 285 356
#     4  11  20  34  60  91 122 154 193 238 288 348
#     4  11  22  38  62  90 119 152 192 242 294 345
#
# _framework density 20.022722000000002
#
# number of rings (size 3 to 8) (size 9 to 14) (size 15 to 20)
#    0.000    1.750    2.500    2.250    0.000    4.000 
#    0.000    7.500    0.000    0.000    0.000    0.000 
#    0.000    0.000    0.000    0.000    0.000    0.000 
#
# Total GULP energy -198431.938978 kJ/mol
# GULP energy per Si atom -12401.996186 kJ/mol
# Density = 1.997715 g / cm^3
# Si number density = 20.022722 Si / 1000 Ang^3
#
#
#
# Elastic Constant Matrix: (Units=GPa)
#
#
# Indices 1 2 3 4 5 6 
#
# 1 83.0528 18.0047 54.6534 0.0000 -13.7929 0.0000
# 2 18.0047 36.4031 21.8543 0.0000 2.9822 0.0000
# 3 54.6534 21.8543 103.1294 0.0000 2.5720 0.0000
# 4 0.0000 0.0000 0.0000 32.1794 0.0000 -4.6415
# 5 -13.7929 2.9822 2.5720 0.0000 32.0030 0.0000
# 6 0.0000 0.0000 0.0000 -4.6415 0.0000 27.0875
#
#
#
# Elastic Compliance Matrix: (Units=1/GPa)
#
#
# Indices 1 2 3 4 5 6 
#
# 1 0.022184 -0.005323 -0.010901 0.000000 0.010933 0.000000
# 2 -0.005323 0.032937 -0.004033 0.000000 -0.005039 0.000000
# 3 -0.010901 -0.004033 0.016469 0.000000 -0.005646 0.000000
# 4 0.000000 0.000000 0.000000 0.031863 0.000000 0.005460
# 5 0.010933 -0.005039 -0.005646 0.000000 0.036882 0.000000
# 6 0.000000 0.000000 0.000000 0.005460 0.000000 0.037853
#
#
# Mechanical properties :
#
#
# Convention : Reuss Voigt Hill
#
# Bulk Modulus (GPa) = 32.17981 45.73448 38.95714
# Shear Modulus (GPa) = 21.82827 26.79215 24.31021
#
# Velocity S-wave (km/s) = 3.30536 3.66196 3.48822
# Velocity P-wave (km/s) = 5.53839 6.38520 5.97681
#
# Compressibility (1/GPa) = 0.03107539
#
# Stress axis : x y z
#
# Youngs Moduli (GPa) = 45.07844 30.36090 60.72070
#
# Poissons Ratio (x) = 0.16162 0.66190
# Poissons Ratio (y) = 0.23997 0.24489
# Poissons Ratio (z) = 0.49139 0.12245
#
# Static dielectric constant tensor:
#      x y z
#    x 3.830770 0.000000 0.089890 
#    y 0.000000 3.364090 0.000000 
#    z 0.089890 0.000000 3.650130 
# 
# 
# High freq. dielectric constant tensor:
#      x y z
#    x 1.784540 0.000000 0.006180 
#    y 0.000000 1.755200 0.000000 
#    z 0.006180 0.000000 1.790910 
# 
# From -- ./inp_files/21359.got.cif
#   From: 2010.03.12/outbox.cif.g09.slc.cpg/sg8_11_cif.got.tgz:21359.got - 2010.03.31 10:45:26.
