data_PCOD8053256
_publ_section_title
;
Structure prediction by ZEFSAII (Michael W. Deem and Ramdas Pophale) SiO2 
 PCOD8053256
Probable space group: C M
;
_chemical_formula_sum "Si O2"
_cell_formula_units_Z 32
_cell_length_a 24.805651
_cell_length_b 8.439711
_cell_length_c 16.258354
_cell_angle_alpha 90.000000
_cell_angle_beta 153.212432
_cell_angle_gamma 90.000000
_cell_volume 1534.005027
_symmetry_space_group_name_H-M "C M"
_symmetry_group_IT_number 8
_symmetry_cell_setting 'monoclinic'
loop_
_space_group_symop_operation_xyz
x,y,z
x,-y,z
1/2+x,1/2+y,z
1/2+x,1/2-y,z
loop_
_atom_site_type_symbol
_atom_site_label
_atom_site_fract_x
_atom_site_fract_y
_atom_site_fract_z
Si Si1 0.917100 0.687768 0.130130
Si Si2 0.159197 0.317394 0.752618
Si Si3 0.597935 0.821197 0.245432
Si Si4 0.706881 0.814527 0.231901
Si Si5 0.799251 0.179762 0.653585
Si Si6 0.506262 0.182348 0.838821
Si Si7 0.109016 0.815973 0.510579
Si Si8 0.970983 0.184022 0.616255
O O1 0.899322 0.500000 0.100522
O O2 0.987580 0.756618 0.145565
O O3 0.995647 0.724205 0.318083
O O4 0.790439 0.772214 0.963067
O O5 0.156673 0.500000 0.723542
O O6 0.115255 0.213204 0.616265
O O7 0.070913 0.287771 0.708153
O O8 0.631394 0.735128 0.204847
O O9 0.715662 0.814291 0.460706
O O10 0.558301 0.000000 0.173757
O O11 0.841834 0.748723 0.411111
O O12 0.716768 0.000000 0.266381
O O13 0.640156 0.783793 0.055029
O O14 0.734345 0.257742 0.643243
O O15 0.917323 0.279110 0.792960
O O16 0.833616 0.000000 0.723068
O O17 0.483051 0.295978 0.730604
O O18 0.491562 0.000000 0.792327
O O19 0.091352 0.000000 0.468629
O O20 0.987904 0.000000 0.616963
#
# Coordination Sequence:
#
# PCOD8053256 Si02
#       8
#     4   4   4   4   4   4   4   4
#     4  10  21  39  65  96 129 166 210 259 319 381
#     4  12  26  44  65  92 127 167 218 269 317 380
#     4   8  15  32  59  88 121 159 198 246 304 371
#     4   9  19  36  60  89 120 160 203 248 308 375
#     4  10  19  36  61  90 127 167 207 256 314 376
#     4  11  22  36  60  94 125 159 206 261 319 379
#     4  11  23  41  64  94 129 168 212 261 322 383
#     4  11  23  44  66  85 120 168 214 258 317 383
#
# _framework density 20.860427000000001
#
# number of rings (size 3 to 8) (size 9 to 14) (size 15 to 20)
#    0.000    1.750    1.250    4.500    1.750    1.000 
#    0.000    6.250    0.000    0.000    0.000    0.000 
#    0.000    0.000    0.000    0.000    0.000    0.000 
#
# Total GULP energy -198410.803092 kJ/mol
# GULP energy per Si atom -12400.675193 kJ/mol
# Density = 2.081295 g / cm^3
# Si number density = 20.860427 Si / 1000 Ang^3
#
#
#
# Elastic Constant Matrix: (Units=GPa)
#
#
# Indices 1 2 3 4 5 6 
#
# 1 95.6824 15.1218 47.8138 0.0000 20.0642 0.0000
# 2 15.1218 69.6270 17.3704 0.0000 4.3671 0.0000
# 3 47.8138 17.3704 114.7401 0.0000 20.5986 0.0000
# 4 0.0000 0.0000 0.0000 26.3084 0.0000 -1.9932
# 5 20.0642 4.3671 20.5986 0.0000 29.9371 0.0000
# 6 0.0000 0.0000 0.0000 -1.9932 0.0000 29.5566
#
#
#
# Elastic Compliance Matrix: (Units=1/GPa)
#
#
# Indices 1 2 3 4 5 6 
#
# 1 0.014300 -0.001567 -0.004612 0.000000 -0.006182 0.000000
# 2 -0.001567 0.015111 -0.001628 0.000000 -0.000033 0.000000
# 3 -0.004612 -0.001628 0.011736 0.000000 -0.004746 0.000000
# 4 0.000000 0.000000 0.000000 0.038206 0.000000 0.002577
# 5 -0.006182 -0.000033 -0.004746 0.000000 0.040817 0.000000
# 6 0.000000 0.000000 0.000000 0.002577 0.000000 0.034007
#
#
# Mechanical properties :
#
#
# Convention : Reuss Voigt Hill
#
# Bulk Modulus (GPa) = 39.16766 48.96237 44.06502
# Shear Modulus (GPa) = 28.04215 30.47667 29.25941
#
# Velocity S-wave (km/s) = 3.67041 3.82642 3.74923
# Velocity P-wave (km/s) = 6.06460 6.56082 6.31759
#
# Compressibility (1/GPa) = 0.02553127
#
# Stress axis : x y z
#
# Youngs Moduli (GPa) = 69.93041 66.17689 85.20916
#
# Poissons Ratio (x) = 0.10373 0.39297
# Poissons Ratio (y) = 0.10961 0.13876
# Poissons Ratio (z) = 0.32251 0.10777
#
# Static dielectric constant tensor:
#      x y z
#    x 3.757450 0.000000 0.145900 
#    y 0.000000 3.522050 0.000000 
#    z 0.145900 0.000000 3.721090 
# 
# 
# High freq. dielectric constant tensor:
#      x y z
#    x 1.815920 0.000000 0.004100 
#    y 0.000000 1.798240 0.000000 
#    z 0.004100 0.000000 1.820510 
# 
# From -- ./inp_files/28203.got.cif
#   From: 2010.03.12/outbox.cif.g09.slc.cpg/sg8_15_cif.got.tgz:28203.got - 2010.03.31 10:45:26.
