data_PCOD8053518
_publ_section_title
;
Structure prediction by ZEFSAII (Michael W. Deem and Ramdas Pophale) SiO2 
 PCOD8053518
Probable space group: C M
;
_chemical_formula_sum "Si O2"
_cell_formula_units_Z 32
_cell_length_a 17.805140
_cell_length_b 8.890232
_cell_length_c 20.606895
_cell_angle_alpha 90.000000
_cell_angle_beta 29.880807
_cell_angle_gamma 90.000000
_cell_volume 1625.071338
_symmetry_space_group_name_H-M "C M"
_symmetry_group_IT_number 8
_symmetry_cell_setting 'monoclinic'
loop_
_space_group_symop_operation_xyz
x,y,z
x,-y,z
1/2+x,1/2+y,z
1/2+x,1/2-y,z
loop_
_atom_site_type_symbol
_atom_site_label
_atom_site_fract_x
_atom_site_fract_y
_atom_site_fract_z
Si Si1 0.403150 0.825145 0.969200
Si Si2 0.214820 0.173643 0.235937
Si Si3 0.906750 0.325769 0.219741
Si Si4 0.222884 0.823612 0.976254
Si Si5 0.746209 0.821592 0.459852
Si Si6 0.407167 0.821941 0.713294
Si Si7 0.224840 0.177733 0.727558
Si Si8 0.397471 0.176896 0.469828
O O1 0.556363 0.735204 0.848355
O O2 0.443660 0.000000 0.936831
O O3 0.321354 0.779239 0.096714
O O4 0.294850 0.780505 0.991111
O O5 0.302785 0.204329 0.235988
O O6 0.071873 0.281007 0.342247
O O7 0.164595 0.000000 0.266824
O O8 0.910959 0.500000 0.235740
O O9 0.844814 0.232016 0.326004
O O10 0.072846 0.270862 0.077952
O O11 0.184786 0.000000 0.000456
O O12 0.337979 0.772968 0.833849
O O13 0.576464 0.757400 0.580935
O O14 0.817346 0.763241 0.472313
O O15 0.748288 0.000000 0.459797
O O16 0.306520 0.754653 0.730231
O O17 0.413205 0.000000 0.702857
O O18 0.319233 0.230830 0.594668
O O19 0.219285 0.000000 0.736239
O O20 0.381319 0.000000 0.470816
#
# Coordination Sequence:
#
# PCOD8053518 Si02
#       8
#     4   4   4   4   4   4   4   4
#     4  10  21  37  57  83 113 148 191 234 280 337
#     4  10  22  39  58  83 117 155 194 236 282 336
#     4  11  23  38  57  85 118 150 191 240 286 337
#     4  10  20  36  59  84 112 150 194 235 280 339
#     4  11  22  39  62  84 112 151 191 235 290 346
#     4   9  19  36  58  84 112 147 193 236 277 335
#     4  10  21  37  57  83 115 148 185 233 286 339
#     4  11  23  38  58  86 117 149 191 239 285 339
#
# _framework density 19.691444000000001
#
# number of rings (size 3 to 8) (size 9 to 14) (size 15 to 20)
#    0.000    1.750    0.000    4.125    0.000    6.000 
#    0.000    2.500    0.000    0.000    0.000    0.000 
#    0.000    0.000    0.000    0.000    0.000    0.000 
#
# Total GULP energy -198483.478391 kJ/mol
# GULP energy per Si atom -12405.217399 kJ/mol
# Density = 1.964663 g / cm^3
# Si number density = 19.691444 Si / 1000 Ang^3
#
#
#
# Elastic Constant Matrix: (Units=GPa)
#
#
# Indices 1 2 3 4 5 6 
#
# 1 121.4813 35.1288 47.4357 -0.0003 8.3981 0.0005
# 2 35.1288 49.9662 28.7578 0.0003 -0.2792 -0.0006
# 3 47.4357 28.7578 125.2055 0.0000 4.8187 0.0004
# 4 -0.0003 0.0003 0.0000 23.2858 -0.0003 -21.0671
# 5 8.3981 -0.2792 4.8187 -0.0003 43.4297 0.0003
# 6 0.0005 -0.0006 0.0004 -21.0671 0.0003 7.8845
#
#
#
# Elastic Compliance Matrix: (Units=1/GPa)
#
#
# Indices 1 2 3 4 5 6 
#
# 1 0.011272 -0.006361 -0.002736 0.000000 -0.001917 0.000000
# 2 -0.006361 0.026675 -0.003787 -0.000001 0.001822 -0.000001
# 3 -0.002736 -0.003787 0.009916 0.000000 -0.000596 0.000000
# 4 0.000000 -0.000001 0.000000 -0.030299 0.000000 -0.080957
# 5 -0.001917 0.001822 -0.000596 0.000000 0.023474 0.000000
# 6 0.000000 -0.000001 0.000000 -0.080957 0.000000 -0.089483
#
#
# Mechanical properties :
#
#
# Convention : Reuss Voigt Hill
#
# Bulk Modulus (GPa) = 45.25728 57.69974 51.47851
# Shear Modulus (GPa) = -326.55247 27.27537 -149.63855
#
# Velocity S-wave (km/s) = -12.89165 3.72578 -8.72678
# Velocity P-wave (km/s) = 14.09113 6.91911 8.68003
#
# Compressibility (1/GPa) = 0.02209589
#
# Stress axis : x y z
#
# Youngs Moduli (GPa) = 88.71641 37.48769 100.84607
#
# Poissons Ratio (x) = 0.23846 0.27589
# Poissons Ratio (y) = 0.56432 0.38192
# Poissons Ratio (z) = 0.24270 0.14197
#
# Static dielectric constant tensor:
#      x y z
#    x 3.734950 0.000000 0.068350 
#    y 0.000000 3.444360 0.000000 
#    z 0.068350 0.000000 3.714420 
# 
# 
# High freq. dielectric constant tensor:
#      x y z
#    x 1.787750 0.000000 0.002630 
#    y 0.000000 1.751920 0.000000 
#    z 0.002630 0.000000 1.784480 
# 
# From -- ./inp_files/31064.got.cif
#   From: 2010.03.12/outbox.cif.g09.slc.cpg/sg8_16_cif.got.tgz:31064.got - 2010.03.31 10:45:26.
