data_PCOD8053631
_publ_section_title
;
Structure prediction by ZEFSAII (Michael W. Deem and Ramdas Pophale) SiO2 
 PCOD8053631
Probable space group: C M
;
_chemical_formula_sum "Si O2"
_cell_formula_units_Z 28
_cell_length_a 9.063616
_cell_length_b 9.542524
_cell_length_c 19.636476
_cell_angle_alpha 90.000000
_cell_angle_beta 132.481997
_cell_angle_gamma 90.000000
_cell_volume 1252.518638
_symmetry_space_group_name_H-M "C M"
_symmetry_group_IT_number 8
_symmetry_cell_setting 'monoclinic'
loop_
_space_group_symop_operation_xyz
x,y,z
x,-y,z
1/2+x,1/2+y,z
1/2+x,1/2-y,z
loop_
_atom_site_type_symbol
_atom_site_label
_atom_site_fract_x
_atom_site_fract_y
_atom_site_fract_z
Si Si1 0.648200 0.839723 0.012940
Si Si2 0.414086 0.160286 0.195470
Si Si3 0.693584 0.848420 0.491842
Si Si4 0.789582 0.660348 0.305712
Si Si5 0.620817 0.773549 0.615803
Si Si6 0.035737 0.650684 0.739155
Si Si7 0.200599 0.159138 0.902439
O O1 0.808118 0.751197 0.104537
O O2 0.724681 0.000000 0.025788
O O3 0.438516 0.841413 0.986707
O O4 0.606388 0.762053 0.928736
O O5 0.621571 0.234004 0.279947
O O6 0.280135 0.160773 0.221012
O O7 0.446748 0.000000 0.179767
O O8 0.497087 0.773827 0.399364
O O9 0.680072 0.868214 0.569539
O O10 0.897700 0.778670 0.531382
O O11 0.696230 0.000000 0.458275
O O12 0.754775 0.500000 0.321338
O O13 0.793996 0.655288 0.669917
O O14 0.616210 0.851580 0.686615
O O15 0.100327 0.500000 0.790486
O O16 0.136460 0.781100 0.809008
O O17 0.117824 0.000000 0.883569
#
# Coordination Sequence:
#
# PCOD8053631 Si02
#       7
#     4   4   4   4   4   4   4
#     4  11  24  42  64  90 120 156 198 244 296 354
#     4  11  23  39  61  90 122 157 198 244 296 354
#     4  10  20  38  60  84 118 158 200 246 296 349
#     4  10  22  39  61  89 121 159 201 246 297 352
#     4  10  22  37  59  88 119 156 201 249 296 349
#     4  11  23  39  60  88 121 158 200 246 298 354
#     4  11  25  42  63  91 121 156 198 245 297 354
#
# _framework density 22.354958
#
# number of rings (size 3 to 8) (size 9 to 14) (size 15 to 20)
#    0.000    1.429    0.000    4.714    0.000   11.429 
#    0.000    3.571    0.000    0.000    0.000    0.000 
#    0.000    0.000    0.000    0.000    0.000    0.000 
#
# Total GULP energy -173537.575068 kJ/mol
# GULP energy per Si atom -12395.541076 kJ/mol
# Density = 2.230408 g / cm^3
# Si number density = 22.354958 Si / 1000 Ang^3
#
#
#
# Elastic Constant Matrix: (Units=GPa)
#
#
# Indices 1 2 3 4 5 6 
#
# 1 80.3065 26.8427 4.5517 0.0000 5.3304 0.0000
# 2 26.8427 150.1658 28.3610 0.0000 3.6981 0.0000
# 3 4.5517 28.3610 80.9703 0.0000 3.3651 0.0000
# 4 0.0000 0.0000 0.0000 31.0592 0.0000 -1.5360
# 5 5.3304 3.6981 3.3651 0.0000 37.2923 0.0000
# 6 0.0000 0.0000 0.0000 -1.5360 0.0000 17.4917
#
#
#
# Elastic Compliance Matrix: (Units=1/GPa)
#
#
# Indices 1 2 3 4 5 6 
#
# 1 0.013349 -0.002373 0.000151 0.000000 -0.001686 0.000000
# 2 -0.002373 0.007562 -0.002508 0.000000 -0.000184 0.000000
# 3 0.000151 -0.002508 0.013260 0.000000 -0.000969 0.000000
# 4 0.000000 0.000000 0.000000 0.032337 0.000000 0.002840
# 5 -0.001686 -0.000184 -0.000969 0.000000 0.027162 0.000000
# 6 0.000000 0.000000 0.000000 0.002840 0.000000 0.057419
#
#
# Mechanical properties :
#
#
# Convention : Reuss Voigt Hill
#
# Bulk Modulus (GPa) = 40.46721 47.88371 44.17546
# Shear Modulus (GPa) = 29.62336 33.94779 31.78558
#
# Velocity S-wave (km/s) = 3.64419 3.90112 3.77484
# Velocity P-wave (km/s) = 5.98734 6.46204 6.22921
#
# Compressibility (1/GPa) = 0.02471137
#
# Stress axis : x y z
#
# Youngs Moduli (GPa) = 74.91256 132.24654 75.41308
#
# Poissons Ratio (x) = 0.31384 -0.01138
# Poissons Ratio (y) = 0.17778 0.18910
# Poissons Ratio (z) = -0.01131 0.33161
#
# Static dielectric constant tensor:
#      x y z
#    x 3.955590 0.000000 0.073480 
#    y 0.000000 3.925640 0.000000 
#    z 0.073480 0.000000 3.950740 
# 
# 
# High freq. dielectric constant tensor:
#      x y z
#    x 1.882310 0.000000 0.004490 
#    y 0.000000 1.875240 0.000000 
#    z 0.004490 0.000000 1.886410 
# 
# From -- ./inp_files/30312.got.cif
#   From: 2010.03.12/outbox.cif.g09.slc.cpg/sg8_16_cif.got.tgz:30312.got - 2010.03.31 10:45:26.
