data_PCOD8053258
_publ_section_title
;
Structure prediction by ZEFSAII (Michael W. Deem and Ramdas Pophale) SiO2 
 PCOD8053258
Probable space group: C M
;
_chemical_formula_sum "Si O2"
_cell_formula_units_Z 32
_cell_length_a 24.262683
_cell_length_b 8.859584
_cell_length_c 19.574735
_cell_angle_alpha 90.000000
_cell_angle_beta 22.922089
_cell_angle_gamma 90.000000
_cell_volume 1638.823417
_symmetry_space_group_name_H-M "C M"
_symmetry_group_IT_number 8
_symmetry_cell_setting 'monoclinic'
loop_
_space_group_symop_operation_xyz
x,y,z
x,-y,z
1/2+x,1/2+y,z
1/2+x,1/2-y,z
loop_
_atom_site_type_symbol
_atom_site_label
_atom_site_fract_x
_atom_site_fract_y
_atom_site_fract_z
Si Si1 0.071590 0.332257 0.978490
Si Si2 0.600329 0.320016 0.463107
Si Si3 0.782425 0.821803 0.851942
Si Si4 0.122246 0.179008 0.161905
Si Si5 0.038415 0.824792 0.878336
Si Si6 0.759662 0.321270 0.147127
Si Si7 0.321232 0.821012 0.480948
Si Si8 0.780290 0.331989 0.380120
O O1 0.096620 0.500000 0.918603
O O2 0.205776 0.277280 0.868802
O O3 0.031693 0.215657 0.965422
O O4 0.945141 0.337323 0.176169
O O5 0.611972 0.500000 0.448264
O O6 0.441568 0.265352 0.657880
O O7 0.662320 0.257959 0.320541
O O8 0.692852 0.249340 0.419776
O O9 0.772073 0.000000 0.877418
O O10 0.715194 0.738339 0.993093
O O11 0.194530 0.233869 0.149854
O O12 0.963704 0.241998 0.343039
O O13 0.115068 0.000000 0.165725
O O14 0.195663 0.778738 0.675582
O O15 0.009757 0.000000 0.900439
O O16 0.919289 0.738856 0.971179
O O17 0.766712 0.500000 0.142405
O O18 0.269774 0.754359 0.466310
O O19 0.349586 0.000000 0.443635
O O20 0.716240 0.500000 0.459219
#
# Coordination Sequence:
#
# PCOD8053258 Si02
#       8
#     4   4   4   4   4   4   4   4
#     4  10  19  36  62  84 111 153 198 242 286 345
#     4   9  18  34  60  86 106 145 200 242 276 334
#     4  10  21  37  62  87 112 154 201 240 285 346
#     4  11  24  39  59  87 122 157 191 243 299 345
#     4  11  24  38  59  90 120 153 193 246 300 343
#     4  10  22  41  60  83 118 157 199 240 288 354
#     4  10  22  40  60  86 117 154 200 240 289 354
#     4   9  16  33  60  83 104 143 198 243 275 329
#
# _framework density 19.526204
#
# number of rings (size 3 to 8) (size 9 to 14) (size 15 to 20)
#    0.000    2.000    2.500    0.750    3.500    2.500 
#    0.000    0.625    0.000    0.000    0.000    0.000 
#    0.000    0.000    0.000    0.000    0.000    0.000 
#
# Total GULP energy -198370.344683 kJ/mol
# GULP energy per Si atom -12398.146543 kJ/mol
# Density = 1.948176 g / cm^3
# Si number density = 19.526204 Si / 1000 Ang^3
#
#
#
# Elastic Constant Matrix: (Units=GPa)
#
#
# Indices 1 2 3 4 5 6 
#
# 1 137.6857 32.4854 47.6648 0.0013 -12.8879 -0.0003
# 2 32.4854 33.6645 27.7837 0.0009 -0.5779 0.0000
# 3 47.6648 27.7837 105.7436 0.0019 -14.2687 -0.0004
# 4 0.0013 0.0009 0.0019 24.5986 -0.0003 -1.3970
# 5 -12.8879 -0.5779 -14.2687 -0.0003 36.0845 0.0000
# 6 -0.0003 0.0000 -0.0004 -1.3970 0.0000 25.7983
#
#
#
# Elastic Compliance Matrix: (Units=1/GPa)
#
#
# Indices 1 2 3 4 5 6 
#
# 1 0.010125 -0.007986 -0.002108 0.000000 0.002655 0.000000
# 2 -0.007986 0.044656 -0.008897 -0.000001 -0.005655 0.000000
# 3 -0.002108 -0.008897 0.013335 -0.000001 0.004378 0.000000
# 4 0.000000 -0.000001 -0.000001 0.040778 0.000000 0.002208
# 5 0.002655 -0.005655 0.004378 0.000000 0.030301 0.000000
# 6 0.000000 0.000000 0.000000 0.002208 0.000000 0.038882
#
#
# Mechanical properties :
#
#
# Convention : Reuss Voigt Hill
#
# Bulk Modulus (GPa) = 33.18201 54.77351 43.97776
# Shear Modulus (GPa) = 22.11381 28.57361 25.34371
#
# Velocity S-wave (km/s) = 3.36894 3.82952 3.60659
# Velocity P-wave (km/s) = 5.67129 6.90404 6.31781
#
# Compressibility (1/GPa) = 0.03013682
#
# Stress axis : x y z
#
# Youngs Moduli (GPa) = 98.76406 22.39333 74.98982
#
# Poissons Ratio (x) = 0.17882 0.15805
# Poissons Ratio (y) = 0.78868 0.66716
# Poissons Ratio (z) = 0.20815 0.19923
#
# Static dielectric constant tensor:
#      x y z
#    x 3.789910 0.000000 -0.029880 
#    y 0.000000 3.226080 0.000000 
#    z -0.029880 0.000000 3.640590 
# 
# 
# High freq. dielectric constant tensor:
#      x y z
#    x 1.778130 0.000000 -0.003090 
#    y 0.000000 1.722240 0.000000 
#    z -0.003090 0.000000 1.769030 
# 
# From -- ./inp_files/31626.got.cif
#   From: 2010.03.12/outbox.cif.g09.slc.cpg/sg8_16_cif.got.tgz:31626.got - 2010.03.31 10:45:26.
