data_PCOD8053453
_publ_section_title
;
Structure prediction by ZEFSAII (Michael W. Deem and Ramdas Pophale) SiO2 
 PCOD8053453
Probable space group: C M
;
_chemical_formula_sum "Si O2"
_cell_formula_units_Z 32
_cell_length_a 8.201646
_cell_length_b 12.855222
_cell_length_c 14.678247
_cell_angle_alpha 90.000000
_cell_angle_beta 117.436420
_cell_angle_gamma 90.000000
_cell_volume 1373.517677
_symmetry_space_group_name_H-M "C M"
_symmetry_group_IT_number 8
_symmetry_cell_setting 'monoclinic'
loop_
_space_group_symop_operation_xyz
x,y,z
x,-y,z
1/2+x,1/2+y,z
1/2+x,1/2-y,z
loop_
_atom_site_type_symbol
_atom_site_label
_atom_site_fract_x
_atom_site_fract_y
_atom_site_fract_z
Si Si1 0.500000 0.740830 0.902290
Si Si2 0.752077 0.624338 0.359539
Si Si3 0.407927 0.619843 0.378145
Si Si4 0.582462 0.115399 0.558213
Si Si5 0.119464 0.300144 0.750783
Si Si6 0.995192 0.623761 0.254892
Si Si7 0.871012 0.377302 0.023264
Si Si8 0.475003 0.619369 0.601407
O O1 0.311822 0.676039 0.851657
O O2 0.483631 0.800454 0.801222
O O3 0.664420 0.659170 0.950802
O O4 0.508451 0.822667 0.987292
O O5 0.739410 0.500000 0.363792
O O6 0.547407 0.666573 0.335682
O O7 0.834101 0.661602 0.283043
O O8 0.904461 0.672100 0.469163
O O9 0.373093 0.500000 0.345550
O O10 0.507513 0.630240 0.501639
O O11 0.202364 0.672581 0.325532
O O12 0.567827 0.111721 0.664372
O O13 0.773404 0.165126 0.574773
O O14 0.580845 0.000000 0.517123
O O15 0.117630 0.190543 0.693696
O O16 0.009197 0.500000 0.268136
O O17 0.931575 0.658372 0.138839
O O18 0.884410 0.500000 0.013715
O O19 0.498059 0.500000 0.639660
#
# Coordination Sequence:
#
# PCOD8053453 Si02
#       8
#     4   4   4   4   4   4   4   4
#     4  10  24  43  64  93 130 163 226 296 331 392
#     4   9  17  31  55  91 130 165 210 263 318 396
#     4   9  17  31  56  93 130 166 215 266 314 399
#     4  10  20  35  57  86 125 171 210 254 321 397
#     4  11  22  39  59  88 127 167 211 274 327 384
#     4   9  17  36  64  91 125 171 215 266 338 401
#     4  10  23  47  74  95 128 177 222 284 357 403
#     4  10  20  36  60  87 125 178 216 255 327 400
#
# _framework density 23.297844000000001
#
# number of rings (size 3 to 8) (size 9 to 14) (size 15 to 20)
#    0.000    2.250    2.500    0.000    1.750    3.000 
#    4.500    3.125    0.000    0.000    0.000    0.000 
#    0.000    0.000    0.000    0.000    0.000    0.000 
#
# Total GULP energy -198257.186426 kJ/mol
# GULP energy per Si atom -12391.074152 kJ/mol
# Density = 2.324482 g / cm^3
# Si number density = 23.297844 Si / 1000 Ang^3
#
#
#
# Elastic Constant Matrix: (Units=GPa)
#
#
# Indices 1 2 3 4 5 6 
#
# 1 115.6224 20.7874 39.8287 0.0000 -19.8495 0.0000
# 2 20.7874 34.0879 -1.9505 0.0000 -2.8923 0.0000
# 3 39.8287 -1.9505 129.8579 0.0000 -24.7577 0.0000
# 4 0.0000 0.0000 0.0000 73.0053 0.0000 -6.3837
# 5 -19.8495 -2.8923 -24.7577 0.0000 46.0289 0.0000
# 6 0.0000 0.0000 0.0000 -6.3837 0.0000 35.5024
#
#
#
# Elastic Compliance Matrix: (Units=1/GPa)
#
#
# Indices 1 2 3 4 5 6 
#
# 1 0.011437 -0.006908 -0.003069 0.000000 0.002847 0.000000
# 2 -0.006908 0.033758 0.002744 0.000000 0.000618 0.000000
# 3 -0.003069 0.002744 0.009431 0.000000 0.003922 0.000000
# 4 0.000000 0.000000 0.000000 0.013916 0.000000 0.002502
# 5 0.002847 0.000618 0.003922 0.000000 0.025102 0.000000
# 6 0.000000 0.000000 0.000000 0.002502 0.000000 0.028617
#
#
# Mechanical properties :
#
#
# Convention : Reuss Voigt Hill
#
# Bulk Modulus (GPa) = 24.90099 44.09995 34.50047
# Shear Modulus (GPa) = 33.30808 45.63415 39.47112
#
# Velocity S-wave (km/s) = 3.78519 4.43055 4.12053
# Velocity P-wave (km/s) = 5.46030 6.71885 6.12200
#
# Compressibility (1/GPa) = 0.04015904
#
# Stress axis : x y z
#
# Youngs Moduli (GPa) = 87.43734 29.62251 106.03556
#
# Poissons Ratio (x) = 0.20464 0.32539
# Poissons Ratio (y) = 0.60405 -0.29093
# Poissons Ratio (z) = 0.26832 -0.08128
#
# Static dielectric constant tensor:
#      x y z
#    x 4.526860 0.000000 -0.095150 
#    y 0.000000 3.909210 0.000000 
#    z -0.095150 0.000000 4.155630 
# 
# 
# High freq. dielectric constant tensor:
#      x y z
#    x 1.937480 0.000000 -0.005380 
#    y 0.000000 1.917150 0.000000 
#    z -0.005380 0.000000 1.907990 
# 
# From -- ./inp_files/25375.got.cif
#   From: 2010.03.12/outbox.cif.g09.slc.cpg/sg8_13_cif.got.tgz:25375.got - 2010.03.31 10:45:26.
