data_PCOD8053396
_publ_section_title
;
Structure prediction by ZEFSAII (Michael W. Deem and Ramdas Pophale) SiO2 
 PCOD8053396
Probable space group: C M
;
_chemical_formula_sum "Si O2"
_cell_formula_units_Z 28
_cell_length_a 17.597981
_cell_length_b 14.132564
_cell_length_c 7.467233
_cell_angle_alpha 90.000000
_cell_angle_beta 50.594692
_cell_angle_gamma 90.000000
_cell_volume 1434.961464
_symmetry_space_group_name_H-M "C M"
_symmetry_group_IT_number 8
_symmetry_cell_setting 'monoclinic'
loop_
_space_group_symop_operation_xyz
x,y,z
x,-y,z
1/2+x,1/2+y,z
1/2+x,1/2-y,z
loop_
_atom_site_type_symbol
_atom_site_label
_atom_site_fract_x
_atom_site_fract_y
_atom_site_fract_z
Si Si1 0.963240 0.891037 0.340660
Si Si2 0.839105 0.395224 0.409915
Si Si3 0.490584 0.279965 0.652288
Si Si4 0.683287 0.765344 0.227300
Si Si5 0.513480 0.106534 0.418674
Si Si6 0.190897 0.891369 0.946166
Si Si7 0.863813 0.211155 0.172086
O O1 0.945905 0.845161 0.560994
O O2 0.884653 0.845700 0.321639
O O3 0.073642 0.874608 0.101629
O O4 0.936766 0.000000 0.397394
O O5 0.824391 0.500000 0.350773
O O6 0.844754 0.321606 0.239906
O O7 0.943972 0.390383 0.351331
O O8 0.747228 0.371890 0.676949
O O9 0.609423 0.290846 0.472945
O O10 0.463088 0.169714 0.650997
O O11 0.453467 0.308069 0.902687
O O12 0.618662 0.843599 0.213564
O O13 0.732041 0.686679 0.024418
O O14 0.765411 0.822297 0.216400
O O15 0.529278 0.000000 0.464528
O O16 0.211830 0.000000 0.978503
#
# Coordination Sequence:
#
# PCOD8053396 Si02
#       7
#     4   4   4   4   4   4   4
#     4  10  22  41  61  85 119 153 197 243 289 350
#     4  10  20  34  59  91 118 152 196 241 296 350
#     4   9  21  40  58  85 112 161 193 236 293 337
#     4   9  21  35  56  87 117 154 195 243 285 347
#     4   9  18  38  58  80 118 154 193 237 283 344
#     4   9  18  36  61  84 116 158 194 242 298 343
#     4  12  22  36  63  88 120 152 194 242 298 343
#
# _framework density 19.512718
#
# number of rings (size 3 to 8) (size 9 to 14) (size 15 to 20)
#    0.857    1.429    1.429    0.857    2.000    2.286 
#    0.000    0.000    0.000    0.000    0.000    0.000 
#    0.000    0.000    0.000    0.000    0.000    0.000 
#
# Total GULP energy -173459.373679 kJ/mol
# GULP energy per Si atom -12389.955263 kJ/mol
# Density = 1.946831 g / cm^3
# Si number density = 19.512718 Si / 1000 Ang^3
#
#
#
# Elastic Constant Matrix: (Units=GPa)
#
#
# Indices 1 2 3 4 5 6 
#
# 1 58.7262 22.6186 13.7654 0.0000 -5.1954 0.0000
# 2 22.6186 114.1038 34.2918 0.0000 2.8721 0.0000
# 3 13.7654 34.2918 91.0790 0.0000 -1.0131 0.0000
# 4 0.0000 0.0000 0.0000 22.0592 0.0000 -1.9255
# 5 -5.1954 2.8721 -1.0131 0.0000 17.6132 0.0000
# 6 0.0000 0.0000 0.0000 -1.9255 0.0000 17.1961
#
#
#
# Elastic Compliance Matrix: (Units=1/GPa)
#
#
# Indices 1 2 3 4 5 6 
#
# 1 0.019287 -0.003522 -0.001520 0.000000 0.006176 0.000000
# 2 -0.003522 0.010584 -0.003486 0.000000 -0.002965 0.000000
# 3 -0.001520 -0.003486 0.012531 0.000000 0.000841 0.000000
# 4 0.000000 0.000000 0.000000 0.045780 0.000000 0.005126
# 5 0.006176 -0.002965 0.000841 0.000000 0.059129 0.000000
# 6 0.000000 0.000000 0.000000 0.005126 0.000000 0.058727
#
#
# Mechanical properties :
#
#
# Convention : Reuss Voigt Hill
#
# Bulk Modulus (GPa) = 39.45270 45.02896 42.24083
# Shear Modulus (GPa) = 21.59424 24.25593 22.92509
#
# Velocity S-wave (km/s) = 3.33028 3.52956 3.43137
# Velocity P-wave (km/s) = 5.92035 6.30375 6.11506
#
# Compressibility (1/GPa) = 0.02534681
#
# Stress axis : x y z
#
# Youngs Moduli (GPa) = 51.84741 94.47955 79.80194
#
# Poissons Ratio (x) = 0.33274 0.12133
# Poissons Ratio (y) = 0.18260 0.27817
# Poissons Ratio (z) = 0.07883 0.32933
#
# Static dielectric constant tensor:
#      x y z
#    x 3.423490 0.000000 -0.140430 
#    y 0.000000 3.646230 0.000000 
#    z -0.140430 0.000000 3.236260 
# 
# 
# High freq. dielectric constant tensor:
#      x y z
#    x 1.756160 0.000000 -0.009370 
#    y 0.000000 1.758520 0.000000 
#    z -0.009370 0.000000 1.734020 
# 
# From -- ./inp_files/4936.got.cif
#   From: 2010.03.12/outbox.cif.g09.slc.cpg/sg8_3_cif.got.tgz:4936.got - 2010.03.31 10:45:26.
