data_PCOD8053100
_publ_section_title
;
Structure prediction by ZEFSAII (Michael W. Deem and Ramdas Pophale) SiO2 
 PCOD8053100
Probable space group: C M
;
_chemical_formula_sum "Si O2"
_cell_formula_units_Z 32
_cell_length_a 28.667343
_cell_length_b 8.791664
_cell_length_c 14.348741
_cell_angle_alpha 90.000000
_cell_angle_beta 29.144772
_cell_angle_gamma 90.000000
_cell_volume 1761.235158
_symmetry_space_group_name_H-M "C M"
_symmetry_group_IT_number 8
_symmetry_cell_setting 'monoclinic'
loop_
_space_group_symop_operation_xyz
x,y,z
x,-y,z
1/2+x,1/2+y,z
1/2+x,1/2-y,z
loop_
_atom_site_type_symbol
_atom_site_label
_atom_site_fract_x
_atom_site_fract_y
_atom_site_fract_z
Si Si1 0.354850 0.821523 0.745420
Si Si2 0.820092 0.180152 0.607693
Si Si3 0.152710 0.680391 0.435994
Si Si4 0.472714 0.669491 0.684606
Si Si5 0.246713 0.680409 0.461559
Si Si6 0.763644 0.170001 0.064795
Si Si7 0.920809 0.318791 0.258678
Si Si8 0.129962 0.321135 0.841820
O O1 0.345796 0.735119 0.664871
O O2 0.453961 0.765400 0.621608
O O3 0.356856 0.000000 0.724891
O O4 0.264587 0.774795 0.969900
O O5 0.893881 0.255233 0.406914
O O6 0.711205 0.231127 0.773943
O O7 0.831306 0.000000 0.580365
O O8 0.148391 0.500000 0.445027
O O9 0.212395 0.738459 0.420453
O O10 0.199228 0.741705 0.258676
O O11 0.046268 0.747222 0.624810
O O12 0.509006 0.500000 0.595628
O O13 0.372175 0.660793 0.915781
O O14 0.263008 0.500000 0.437046
O O15 0.346895 0.760947 0.309463
O O16 0.165011 0.730502 0.678037
O O17 0.728043 0.000000 0.099950
O O18 0.919179 0.500000 0.264421
O O19 0.026117 0.252343 0.048430
O O20 0.119248 0.500000 0.863150
#
# Coordination Sequence:
#
# PCOD8053100 Si02
#       8
#     4   4   4   4   4   4   4   4
#     4  10  19  35  56  79 106 140 178 221 265 315
#     4  10  19  36  57  77 105 140 173 214 269 322
#     4  10  19  34  56  79 106 144 185 218 264 318
#     4   9  19  35  52  74 107 140 176 220 267 310
#     4   9  19  35  54  77 108 143 175 214 264 317
#     4   8  18  35  51  73 107 143 174 218 267 309
#     4  10  19  34  54  79 106 136 176 221 261 313
#     4   8  17  34  54  76 105 138 171 210 263 316
#
# _framework density 18.169067999999999
#
# number of rings (size 3 to 8) (size 9 to 14) (size 15 to 20)
#    0.750    2.000    0.000    2.625    0.000    2.000 
#    2.250    6.250    0.000    0.000    0.000    0.000 
#    0.000    0.000    0.000    0.000    0.000    0.000 
#
# Total GULP energy -198273.273109 kJ/mol
# GULP energy per Si atom -12392.079569 kJ/mol
# Density = 1.812771 g / cm^3
# Si number density = 18.169068 Si / 1000 Ang^3
#
#
#
# Elastic Constant Matrix: (Units=GPa)
#
#
# Indices 1 2 3 4 5 6 
#
# 1 85.7260 25.4807 23.7200 0.0000 -0.6614 0.0000
# 2 25.4807 49.4472 24.8128 0.0000 -1.8289 0.0000
# 3 23.7200 24.8128 91.4114 0.0000 -7.3856 0.0000
# 4 0.0000 0.0000 0.0000 22.6039 0.0000 -2.4643
# 5 -0.6614 -1.8289 -7.3856 0.0000 21.8537 0.0000
# 6 0.0000 0.0000 0.0000 -2.4643 0.0000 29.6896
#
#
#
# Elastic Compliance Matrix: (Units=1/GPa)
#
#
# Indices 1 2 3 4 5 6 
#
# 1 0.014081 -0.006275 -0.002014 0.000000 -0.000779 0.000000
# 2 -0.006275 0.026209 -0.005474 0.000000 0.000154 0.000000
# 3 -0.002014 -0.005474 0.013268 0.000000 0.003965 0.000000
# 4 0.000000 0.000000 0.000000 0.044644 0.000000 0.003706
# 5 -0.000779 0.000154 0.003965 0.000000 0.047088 0.000000
# 6 0.000000 0.000000 0.000000 0.003706 0.000000 0.033989
#
#
# Mechanical properties :
#
#
# Convention : Reuss Voigt Hill
#
# Bulk Modulus (GPa) = 38.41001 41.62350 40.01675
# Shear Modulus (GPa) = 23.20372 25.00086 24.10229
#
# Velocity S-wave (km/s) = 3.57753 3.71349 3.64614
# Velocity P-wave (km/s) = 6.18475 6.43004 6.30859
#
# Compressibility (1/GPa) = 0.02603488
#
# Stress axis : x y z
#
# Youngs Moduli (GPa) = 71.01643 38.15433 75.36802
#
# Poissons Ratio (x) = 0.23940 0.15177
# Poissons Ratio (y) = 0.44560 0.41254
# Poissons Ratio (z) = 0.14301 0.20885
#
# Static dielectric constant tensor:
#      x y z
#    x 3.300970 0.000000 -0.010830 
#    y 0.000000 3.190480 0.000000 
#    z -0.010830 0.000000 3.414280 
# 
# 
# High freq. dielectric constant tensor:
#      x y z
#    x 1.697620 0.000000 0.000010 
#    y 0.000000 1.695770 0.000000 
#    z 0.000010 0.000000 1.695240 
# 
# From -- ./inp_files/28322.got.cif
#   From: 2010.03.12/outbox.cif.g09.slc.cpg/sg8_15_cif.got.tgz:28322.got - 2010.03.31 10:45:26.
