data_PCOD8053814
_publ_section_title
;
Structure prediction by ZEFSAII (Michael W. Deem and Ramdas Pophale) SiO2 
 PCOD8053814
Probable space group: C M
;
_chemical_formula_sum "Si O2"
_cell_formula_units_Z 28
_cell_length_a 12.887646
_cell_length_b 20.041917
_cell_length_c 4.995762
_cell_angle_alpha 90.000000
_cell_angle_beta 105.008346
_cell_angle_gamma 90.000000
_cell_volume 1246.354024
_symmetry_space_group_name_H-M "C M"
_symmetry_group_IT_number 8
_symmetry_cell_setting 'monoclinic'
loop_
_space_group_symop_operation_xyz
x,y,z
x,-y,z
1/2+x,1/2+y,z
1/2+x,1/2-y,z
loop_
_atom_site_type_symbol
_atom_site_label
_atom_site_fract_x
_atom_site_fract_y
_atom_site_fract_z
Si Si1 0.549760 0.500000 0.809041
Si Si2 0.249883 0.821970 0.514105
Si Si3 0.421946 0.074380 0.524159
Si Si4 0.285312 0.630061 0.246367
Si Si5 0.407189 0.500000 0.202201
Si Si6 0.558684 0.075886 0.129097
Si Si7 0.113655 0.849418 0.919336
Si Si8 0.372406 0.305445 0.799875
O O1 0.507709 0.500000 0.474668
O O2 0.613993 0.431003 0.917653
O O3 0.447387 0.500000 0.928110
O O4 0.319654 0.888391 0.571726
O O5 0.151657 0.825137 0.654688
O O6 0.332916 0.762628 0.633671
O O7 0.197755 0.818543 0.185956
O O8 0.469607 0.104060 0.278301
O O9 0.380751 0.000000 0.443325
O O10 0.516533 0.076582 0.801476
O O11 0.330455 0.562290 0.163777
O O12 0.157839 0.626552 0.199399
O O13 0.335284 0.637350 0.572634
O O14 0.318099 0.687775 0.056437
O O15 0.590597 0.000000 0.236388
O O16 0.000553 0.813891 0.909946
#
# Coordination Sequence:
#
# PCOD8053814 Si02
#       8
#     2   4   4   4   2   4   4   4
#     4  12  24  42  74 109 140 179 232 302 356 408
#     4  12  28  47  70  99 137 190 228 291 352 417
#     4  10  23  42  64  96 132 175 232 286 339 411
#     4  12  22  41  69 104 140 184 226 290 348 413
#     4  12  20  40  68 107 140 181 222 300 366 396
#     4  10  21  38  65  98 132 172 221 273 340 411
#     4  12  26  46  73 105 140 183 237 290 354 417
#     4  12  27  46  67 102 143 178 242 282 341 432
#
# _framework density 22.465527000000002
#
# number of rings (size 3 to 8) (size 9 to 14) (size 15 to 20)
#    0.000    0.571    3.571    4.286    2.000    3.429 
#    0.000    0.000    0.000    0.000    0.000    0.000 
#    0.000    0.000    0.000    0.000    0.000    0.000 
#
# Total GULP energy -173600.667033 kJ/mol
# GULP energy per Si atom -12400.047645 kJ/mol
# Density = 2.241439 g / cm^3
# Si number density = 22.465527 Si / 1000 Ang^3
#
#
#
# Elastic Constant Matrix: (Units=GPa)
#
#
# Indices 1 2 3 4 5 6 
#
# 1 101.3916 35.9724 14.9146 0.0000 -1.5570 0.0000
# 2 35.9724 86.1240 18.9044 0.0000 9.9212 0.0000
# 3 14.9146 18.9044 91.0808 0.0000 1.1104 0.0000
# 4 0.0000 0.0000 0.0000 28.4907 0.0000 0.4829
# 5 -1.5570 9.9212 1.1104 0.0000 42.7133 0.0000
# 6 0.0000 0.0000 0.0000 0.4829 0.0000 35.2798
#
#
#
# Elastic Compliance Matrix: (Units=1/GPa)
#
#
# Indices 1 2 3 4 5 6 
#
# 1 0.011759 -0.004890 -0.000930 0.000000 0.001589 0.000000
# 2 -0.004890 0.014534 -0.002173 0.000000 -0.003498 0.000000
# 3 -0.000930 -0.002173 0.011581 0.000000 0.000170 0.000000
# 4 0.000000 0.000000 0.000000 0.035107 0.000000 -0.000481
# 5 0.001589 -0.003498 0.000170 0.000000 0.024278 0.000000
# 6 0.000000 0.000000 0.000000 -0.000481 0.000000 0.028351
#
#
# Mechanical properties :
#
#
# Convention : Reuss Voigt Hill
#
# Bulk Modulus (GPa) = 45.69050 46.46435 46.07743
# Shear Modulus (GPa) = 33.58139 35.21710 34.39924
#
# Velocity S-wave (km/s) = 3.87045 3.96360 3.91730
# Velocity P-wave (km/s) = 6.35264 6.45556 6.40431
#
# Compressibility (1/GPa) = 0.02188639
#
# Stress axis : x y z
#
# Youngs Moduli (GPa) = 85.04136 68.80554 86.35202
#
# Poissons Ratio (x) = 0.33649 0.08030
# Poissons Ratio (y) = 0.41589 0.18765
# Poissons Ratio (z) = 0.07908 0.14952
#
# Static dielectric constant tensor:
#      x y z
#    x 4.036410 0.000000 -0.137280 
#    y 0.000000 4.094960 0.000000 
#    z -0.137280 0.000000 4.088960 
# 
# 
# High freq. dielectric constant tensor:
#      x y z
#    x 1.889410 0.000000 -0.010100 
#    y 0.000000 1.879160 0.000000 
#    z -0.010100 0.000000 1.899620 
# 
# From -- ./inp_files/2972.got.cif
#   From: 2010.03.12/outbox.cif.g09.slc.cpg/sg8_2_cif.got.tgz:2972.got - 2010.03.31 10:45:26.
