data_PCOD8053583
_publ_section_title
;
Structure prediction by ZEFSAII (Michael W. Deem and Ramdas Pophale) SiO2 
 PCOD8053583
Probable space group: C M
;
_chemical_formula_sum "Si O2"
_cell_formula_units_Z 28
_cell_length_a 19.199998
_cell_length_b 13.331636
_cell_length_c 8.999215
_cell_angle_alpha 90.000000
_cell_angle_beta 39.857463
_cell_angle_gamma 90.000000
_cell_volume 1476.270399
_symmetry_space_group_name_H-M "C M"
_symmetry_group_IT_number 8
_symmetry_cell_setting 'monoclinic'
loop_
_space_group_symop_operation_xyz
x,y,z
x,-y,z
1/2+x,1/2+y,z
1/2+x,1/2-y,z
loop_
_atom_site_type_symbol
_atom_site_label
_atom_site_fract_x
_atom_site_fract_y
_atom_site_fract_z
Si Si1 0.710620 0.734791 0.009510
Si Si2 0.405509 0.882071 0.570486
Si Si3 0.012046 0.285060 0.126327
Si Si4 0.627514 0.886028 0.675455
Si Si5 0.867194 0.115077 0.893393
Si Si6 0.865930 0.112645 0.237654
Si Si7 0.060813 0.746276 0.512710
O O1 0.618931 0.752117 0.038208
O O2 0.656989 0.706364 0.255482
O O3 0.786821 0.645106 0.827592
O O4 0.782149 0.834487 0.919441
O O5 0.422780 0.837049 0.377667
O O6 0.498307 0.839825 0.525263
O O7 0.417919 0.000000 0.543123
O O8 0.958287 0.187489 0.141237
O O9 0.048415 0.364155 0.942511
O O10 0.754414 0.874594 0.514018
O O11 0.606062 0.804660 0.584973
O O12 0.605048 0.000000 0.657441
O O13 0.985929 0.160823 0.677959
O O14 0.871550 0.000000 0.839942
O O15 0.832512 0.131192 0.120765
O O16 0.912847 0.000000 0.179977
#
# Coordination Sequence:
#
# PCOD8053583 Si02
#       7
#     4   4   4   4   4   4   4
#     4  10  22  38  60  83 117 156 191 245 291 346
#     4  10  22  39  57  83 117 157 196 237 292 351
#     4  11  22  39  58  87 122 154 195 244 297 345
#     4  11  21  35  59  88 117 155 198 243 292 349
#     4  10  20  37  61  88 114 150 196 241 289 348
#     4  10  21  37  60  88 119 154 195 244 292 347
#     4  10  20  37  59  87 116 150 193 248 291 346
#
# _framework density 18.966716000000002
#
# number of rings (size 3 to 8) (size 9 to 14) (size 15 to 20)
#    0.000    1.714    2.857    1.714    0.000    4.000 
#    0.000    8.571    0.000    0.857    0.000    0.000 
#    0.000    0.000    0.000    0.000    0.000    0.000 
#
# Total GULP energy -173611.027109 kJ/mol
# GULP energy per Si atom -12400.787651 kJ/mol
# Density = 1.892355 g / cm^3
# Si number density = 18.966716 Si / 1000 Ang^3
#
#
#
# Elastic Constant Matrix: (Units=GPa)
#
#
# Indices 1 2 3 4 5 6 
#
# 1 72.2153 25.0147 9.7486 0.0000 -5.0172 0.0000
# 2 25.0147 87.4630 13.6293 0.0000 -10.1629 0.0000
# 3 9.7486 13.6293 91.3292 0.0000 -4.7410 0.0000
# 4 0.0000 0.0000 0.0000 29.1222 0.0000 1.7243
# 5 -5.0172 -10.1629 -4.7410 0.0000 27.9405 0.0000
# 6 0.0000 0.0000 0.0000 1.7243 0.0000 22.2773
#
#
#
# Elastic Compliance Matrix: (Units=1/GPa)
#
#
# Indices 1 2 3 4 5 6 
#
# 1 0.015494 -0.004150 -0.000977 0.000000 0.001107 0.000000
# 2 -0.004150 0.013277 -0.001338 0.000000 0.003857 0.000000
# 3 -0.000977 -0.001338 0.011319 0.000000 0.001258 0.000000
# 4 0.000000 0.000000 0.000000 0.034496 0.000000 -0.002670
# 5 0.001107 0.003857 0.001258 0.000000 0.037606 0.000000
# 6 0.000000 0.000000 0.000000 -0.002670 0.000000 0.045095
#
#
# Mechanical properties :
#
#
# Convention : Reuss Voigt Hill
#
# Bulk Modulus (GPa) = 36.82082 38.64366 37.73224
# Shear Modulus (GPa) = 27.89074 29.37566 28.63320
#
# Velocity S-wave (km/s) = 3.83888 3.93975 3.88964
# Velocity P-wave (km/s) = 6.25339 6.41204 6.33321
#
# Compressibility (1/GPa) = 0.02715855
#
# Stress axis : x y z
#
# Youngs Moduli (GPa) = 64.54133 75.31739 88.34933
#
# Poissons Ratio (x) = 0.31260 0.08632
# Poissons Ratio (y) = 0.26788 0.11822
# Poissons Ratio (z) = 0.06306 0.10079
#
# Static dielectric constant tensor:
#      x y z
#    x 3.346430 0.000000 0.084450 
#    y 0.000000 3.315070 0.000000 
#    z 0.084450 0.000000 3.813480 
# 
# 
# High freq. dielectric constant tensor:
#      x y z
#    x 1.729690 0.000000 0.002560 
#    y 0.000000 1.730240 0.000000 
#    z 0.002560 0.000000 1.756060 
# 
# From -- ./inp_files/10498.got.cif
#   From: 2010.03.12/outbox.cif.g09.slc.cpg/sg8_6_cif.got.tgz:10498.got - 2010.03.31 10:45:26.
