data_PCOD8053085
_publ_section_title
;
Structure prediction by ZEFSAII (Michael W. Deem and Ramdas Pophale) SiO2 
 PCOD8053085
Probable space group: C M
;
_chemical_formula_sum "Si O2"
_cell_formula_units_Z 26
_cell_length_a 27.020481
_cell_length_b 7.801669
_cell_length_c 16.781498
_cell_angle_alpha 90.000000
_cell_angle_beta 23.722774
_cell_angle_gamma 90.000000
_cell_volume 1423.226392
_symmetry_space_group_name_H-M "C M"
_symmetry_group_IT_number 8
_symmetry_cell_setting 'monoclinic'
loop_
_space_group_symop_operation_xyz
x,y,z
x,-y,z
1/2+x,1/2+y,z
1/2+x,1/2-y,z
loop_
_atom_site_type_symbol
_atom_site_label
_atom_site_fract_x
_atom_site_fract_y
_atom_site_fract_z
Si Si1 0.484228 0.500000 0.581248
Si Si2 0.123609 0.694075 0.994559
Si Si3 0.239161 0.000000 0.267641
Si Si4 0.802816 0.683857 0.861155
Si Si5 0.127878 0.703399 0.808834
Si Si6 0.361914 0.695032 0.180242
Si Si7 0.697421 0.500000 0.154552
Si Si8 0.358572 0.299172 0.367983
O O1 0.589800 0.500000 0.493768
O O2 0.401687 0.332941 0.714057
O O3 0.551834 0.500000 0.394463
O O4 0.169289 0.500000 0.934957
O O5 0.978234 0.705153 0.226425
O O6 0.199867 0.801543 0.945209
O O7 0.148764 0.765590 0.868658
O O8 0.288185 0.826066 0.234074
O O9 0.278591 0.000000 0.116074
O O10 0.870688 0.500000 0.746678
O O11 0.731172 0.670107 0.052381
O O12 0.109302 0.500000 0.832716
O O13 0.242485 0.767848 0.588519
O O14 0.007360 0.791000 0.949288
O O15 0.318704 0.500000 0.226081
O O16 0.335319 0.748169 0.310461
O O17 0.379248 0.500000 0.348505
#
# Coordination Sequence:
#
# PCOD8053085 Si02
#       8
#     2   4   2   4   4   4   2   4
#     4  10  22  46  64  90 124 158 212 274 318 367
#     4  10  19  33  58  86 126 161 195 247 306 359
#     4  10  22  46  59  84 125 154 203 278 307 359
#     4  10  21  43  64  90 124 165 209 267 313 376
#     4   9  18  35  56  86 126 161 192 243 296 369
#     4  10  20  38  60  85 119 160 198 247 310 360
#     4   8  24  44  63  90 121 162 211 272 309 374
#     4   9  19  34  54  88 124 158 198 239 293 377
#
# _framework density 18.268350999999999
#
# number of rings (size 3 to 8) (size 9 to 14) (size 15 to 20)
#    0.923    1.538    1.538    0.462    1.077    3.077 
#    5.538    1.538    0.000    0.000    0.000    0.000 
#    0.000    0.000    0.000    0.000    0.000    0.000 
#
# Total GULP energy -161120.204027 kJ/mol
# GULP energy per Si atom -12393.861848 kJ/mol
# Density = 1.822677 g / cm^3
# Si number density = 18.268351 Si / 1000 Ang^3
#
#
#
# Elastic Constant Matrix: (Units=GPa)
#
#
# Indices 1 2 3 4 5 6 
#
# 1 121.4465 56.7316 58.3764 0.0001 -9.6000 0.0000
# 2 56.7316 107.4105 48.6174 -0.0006 -8.4355 0.0001
# 3 58.3764 48.6174 145.7225 -0.0003 7.7091 0.0000
# 4 0.0001 -0.0006 -0.0003 29.8474 0.0002 0.1452
# 5 -9.6000 -8.4355 7.7091 0.0002 20.7298 0.0000
# 6 0.0000 0.0001 0.0000 0.1452 0.0000 29.9834
#
#
#
# Elastic Compliance Matrix: (Units=1/GPa)
#
#
# Indices 1 2 3 4 5 6 
#
# 1 0.012609 -0.004495 -0.003839 0.000000 0.005438 0.000000
# 2 -0.004495 0.013336 -0.002882 0.000000 0.004417 0.000000
# 3 -0.003839 -0.002882 0.009709 0.000000 -0.006561 0.000000
# 4 0.000000 0.000000 0.000000 0.033505 0.000000 -0.000162
# 5 0.005438 0.004417 -0.006561 0.000000 0.054995 0.000000
# 6 0.000000 0.000000 0.000000 -0.000162 0.000000 0.033353
#
#
# Mechanical properties :
#
#
# Convention : Reuss Voigt Hill
#
# Bulk Modulus (GPa) = 75.63683 78.00338 76.82011
# Shear Modulus (GPa) = 27.12291 30.16908 28.64600
#
# Velocity S-wave (km/s) = 3.85735 4.06820 3.96418
# Velocity P-wave (km/s) = 7.83147 8.05347 7.94325
#
# Compressibility (1/GPa) = 0.01322107
#
# Stress axis : x y z
#
# Youngs Moduli (GPa) = 79.30774 74.98698 102.99693
#
# Poissons Ratio (x) = 0.33707 0.39543
# Poissons Ratio (y) = 0.35649 0.29685
# Poissons Ratio (z) = 0.30448 0.21612
#
# Static dielectric constant tensor:
#      x y z
#    x 3.278330 0.000000 0.074810 
#    y 0.000000 3.300080 0.000000 
#    z 0.074810 0.000000 3.353920 
# 
# 
# High freq. dielectric constant tensor:
#      x y z
#    x 1.699070 0.000000 0.000780 
#    y 0.000000 1.710240 0.000000 
#    z 0.000780 0.000000 1.700760 
# 
# From -- ./inp_files/30214.got.cif
#   From: 2010.03.12/outbox.cif.g09.slc.cpg/sg8_16_cif.got.tgz:30214.got - 2010.03.31 10:45:26.
