data_PCOD8053882
_publ_section_title
;
Structure prediction by ZEFSAII (Michael W. Deem and Ramdas Pophale) SiO2 
 PCOD8053882
Probable space group: C M
;
_chemical_formula_sum "Si O2"
_cell_formula_units_Z 28
_cell_length_a 9.106514
_cell_length_b 29.979608
_cell_length_c 5.188974
_cell_angle_alpha 90.000000
_cell_angle_beta 123.632527
_cell_angle_gamma 90.000000
_cell_volume 1179.504584
_symmetry_space_group_name_H-M "C M"
_symmetry_group_IT_number 8
_symmetry_cell_setting 'monoclinic'
loop_
_space_group_symop_operation_xyz
x,y,z
x,-y,z
1/2+x,1/2+y,z
1/2+x,1/2-y,z
loop_
_atom_site_type_symbol
_atom_site_label
_atom_site_fract_x
_atom_site_fract_y
_atom_site_fract_z
Si Si1 0.099780 0.884485 0.287180
Si Si2 0.660408 0.708767 0.483022
Si Si3 0.788070 0.130926 0.656888
Si Si4 0.449867 0.277942 0.760074
Si Si5 0.017281 0.451314 0.865692
Si Si6 0.417935 0.095866 0.276438
Si Si7 0.899976 0.051266 0.399711
O O1 0.188122 0.844786 0.539128
O O2 0.220030 0.886985 0.143906
O O3 0.076731 0.930922 0.423365
O O4 0.898803 0.869546 0.029612
O O5 0.604463 0.727224 0.705083
O O6 0.843675 0.732742 0.609619
O O7 0.524317 0.719493 0.120983
O O8 0.835606 0.177995 0.568061
O O9 0.576446 0.130814 0.492331
O O10 0.854785 0.085459 0.584293
O O11 0.961357 0.500000 0.905890
O O12 0.228997 0.447801 0.048811
O O13 0.931319 0.417930 0.991163
O O14 0.943035 0.443714 0.508124
O O15 0.935451 0.000000 0.530402
#
# Coordination Sequence:
#
# PCOD8053882 Si02
#       7
#     4   4   4   4   4   4   4
#     4  11  24  43  66 101 136 173 230 282 336 405
#     4  11  25  45  71 104 140 176 228 282 346 419
#     4  10  23  45  65  96 140 177 225 279 341 399
#     4  11  24  45  71 101 141 178 223 285 346 413
#     4  10  22  42  63  92 130 173 227 280 329 396
#     4  11  24  39  67  94 128 177 220 272 343 394
#     4  10  21  41  67  92 133 184 227 276 337 396
#
# _framework density 23.738779999999998
#
# number of rings (size 3 to 8) (size 9 to 14) (size 15 to 20)
#    0.000    1.429    2.857    1.286    4.000    2.286 
#    5.143    0.000    0.000    0.000    0.000    0.000 
#    0.000    0.000    0.000    0.000    0.000    0.000 
#
# Total GULP energy -173470.981795 kJ/mol
# GULP energy per Si atom -12390.784414 kJ/mol
# Density = 2.368475 g / cm^3
# Si number density = 23.738780 Si / 1000 Ang^3
#
#
#
# Elastic Constant Matrix: (Units=GPa)
#
#
# Indices 1 2 3 4 5 6 
#
# 1 104.4793 14.7571 -7.0786 0.0000 -9.3926 0.0000
# 2 14.7571 98.3563 8.6022 0.0000 -5.2861 0.0000
# 3 -7.0786 8.6022 45.9697 0.0000 -4.6442 0.0000
# 4 0.0000 0.0000 0.0000 24.9301 0.0000 1.7911
# 5 -9.3926 -5.2861 -4.6442 0.0000 31.1744 0.0000
# 6 0.0000 0.0000 0.0000 1.7911 0.0000 32.5819
#
#
#
# Elastic Compliance Matrix: (Units=1/GPa)
#
#
# Indices 1 2 3 4 5 6 
#
# 1 0.010221 -0.001556 0.002182 0.000000 0.003141 0.000000
# 2 -0.001556 0.010641 -0.002128 0.000000 0.001019 0.000000
# 3 0.002182 -0.002128 0.022862 0.000000 0.003702 0.000000
# 4 0.000000 0.000000 0.000000 0.040271 0.000000 -0.002214
# 5 0.003141 0.001019 0.003702 0.000000 0.033748 0.000000
# 6 0.000000 0.000000 0.000000 -0.002214 0.000000 0.030814
#
#
# Mechanical properties :
#
#
# Convention : Reuss Voigt Hill
#
# Bulk Modulus (GPa) = 24.55683 31.26298 27.90990
# Shear Modulus (GPa) = 30.27849 33.23892 31.75871
#
# Velocity S-wave (km/s) = 3.57527 3.74598 3.66162
# Velocity P-wave (km/s) = 5.23550 5.64871 5.44603
#
# Compressibility (1/GPa) = 0.04072187
#
# Stress axis : x y z
#
# Youngs Moduli (GPa) = 97.83578 93.97278 43.74121
#
# Poissons Ratio (x) = 0.14619 -0.09546
# Poissons Ratio (y) = 0.15220 0.09308
# Poissons Ratio (z) = -0.21351 0.19997
#
# Static dielectric constant tensor:
#      x y z
#    x 4.341260 0.000000 0.176370 
#    y 0.000000 4.516350 0.000000 
#    z 0.176370 0.000000 4.009000 
# 
# 
# High freq. dielectric constant tensor:
#      x y z
#    x 1.941910 0.000000 0.003750 
#    y 0.000000 1.938520 0.000000 
#    z 0.003750 0.000000 1.928160 
# 
# From -- ./inp_files/1837.got.cif
#   From: 2010.03.12/outbox.cif.g09.slc.cpg/sg8_1_cif.got.tgz:1837.got - 2010.03.31 10:45:26.
