data_PCOD8053865
_publ_section_title
;
Structure prediction by ZEFSAII (Michael W. Deem and Ramdas Pophale) SiO2 
 PCOD8053865
Probable space group: C M
;
_chemical_formula_sum "Si O2"
_cell_formula_units_Z 32
_cell_length_a 27.083079
_cell_length_b 8.741757
_cell_length_c 20.478160
_cell_angle_alpha 90.000000
_cell_angle_beta 19.140269
_cell_angle_gamma 90.000000
_cell_volume 1589.663535
_symmetry_space_group_name_H-M "C M"
_symmetry_group_IT_number 8
_symmetry_cell_setting 'monoclinic'
loop_
_space_group_symop_operation_xyz
x,y,z
x,-y,z
1/2+x,1/2+y,z
1/2+x,1/2-y,z
loop_
_atom_site_type_symbol
_atom_site_label
_atom_site_fract_x
_atom_site_fract_y
_atom_site_fract_z
Si Si1 0.860290 0.822665 0.820420
Si Si2 0.205681 0.177593 0.135038
Si Si3 0.356086 0.321412 0.562105
Si Si4 0.200038 0.821913 0.634322
Si Si5 0.213022 0.176061 0.376105
Si Si6 0.196779 0.320335 0.893392
Si Si7 0.850884 0.178154 0.077940
Si Si8 0.369741 0.678753 0.301923
O O1 0.787242 0.767497 0.844116
O O2 0.036512 0.793887 0.594603
O O3 0.823762 0.000000 0.881199
O O4 0.795605 0.715626 0.957366
O O5 0.267461 0.283017 0.115292
O O6 0.031864 0.216753 0.340691
O O7 0.228048 0.000000 0.125307
O O8 0.325519 0.500000 0.587470
O O9 0.273948 0.222944 0.610130
O O10 0.290555 0.266918 0.713263
O O11 0.276127 0.731911 0.480835
O O12 0.224981 0.000000 0.590325
O O13 0.025259 0.778522 0.853480
O O14 0.281374 0.219652 0.221405
O O15 0.284780 0.278667 0.342190
O O16 0.250350 0.000000 0.344445
O O17 0.175728 0.500000 0.919138
O O18 0.034312 0.247628 0.096532
O O19 0.829217 0.000000 0.121341
O O20 0.387802 0.500000 0.283197
#
# Coordination Sequence:
#
# PCOD8053865 Si02
#       8
#     4   4   4   4   4   4   4   4
#     4  10  22  40  62  89 120 156 199 245 294 351
#     4  11  23  39  61  90 122 157 198 243 294 352
#     4  10  22  40  62  90 121 155 198 245 294 352
#     4  11  24  41  61  87 119 157 200 245 296 352
#     4  11  23  41  64  89 120 157 197 243 296 353
#     4  10  21  40  64  88 119 158 197 242 298 353
#     4  11  24  41  62  90 121 154 198 247 294 351
#     4  12  25  40  60  89 122 156 199 246 292 350
#
# _framework density 20.130047000000001
#
# number of rings (size 3 to 8) (size 9 to 14) (size 15 to 20)
#    0.000    1.250    0.000    5.625    0.000   14.000 
#    0.000    1.250    0.000    0.000    0.000    0.000 
#    0.000    0.000    0.000    0.000    0.000    0.000 
#
# Total GULP energy -198514.016124 kJ/mol
# GULP energy per Si atom -12407.126008 kJ/mol
# Density = 2.008423 g / cm^3
# Si number density = 20.130047 Si / 1000 Ang^3
#
#
#
# Elastic Constant Matrix: (Units=GPa)
#
#
# Indices 1 2 3 4 5 6 
#
# 1 159.3626 74.9589 103.2782 0.0002 2.7014 0.0003
# 2 74.9589 186.9654 148.4980 0.0005 -1.9591 0.0003
# 3 103.2782 148.4980 241.2729 0.0002 1.1201 0.0003
# 4 0.0002 0.0005 0.0002 45.3515 -0.0001 5.0733
# 5 2.7014 -1.9591 1.1201 -0.0001 42.6309 -0.0001
# 6 0.0003 0.0003 0.0003 5.0733 -0.0001 44.7681
#
#
#
# Elastic Compliance Matrix: (Units=1/GPa)
#
#
# Indices 1 2 3 4 5 6 
#
# 1 0.008799 -0.001064 -0.003110 0.000000 -0.000525 0.000000
# 2 -0.001064 0.010610 -0.006078 0.000000 0.000715 0.000000
# 3 -0.003110 -0.006078 0.009218 0.000000 -0.000325 0.000000
# 4 0.000000 0.000000 0.000000 0.022333 0.000000 -0.002531
# 5 -0.000525 0.000715 -0.000325 0.000000 0.023532 0.000000
# 6 0.000000 0.000000 0.000000 -0.002531 0.000000 0.022624
#
#
# Mechanical properties :
#
#
# Convention : Reuss Voigt Hill
#
# Bulk Modulus (GPa) = 123.07864 137.89679 130.48771
# Shear Modulus (GPa) = 41.55284 43.94116 42.74700
#
# Velocity S-wave (km/s) = 4.54830 4.67718 4.61319
# Velocity P-wave (km/s) = 9.42641 9.89039 9.66118
#
# Compressibility (1/GPa) = 0.00812489
#
# Stress axis : x y z
#
# Youngs Moduli (GPa) = 113.64416 94.24771 108.47844
#
# Poissons Ratio (x) = 0.10024 0.33732
# Poissons Ratio (y) = 0.12087 0.65938
# Poissons Ratio (z) = 0.35339 0.57288
#
# Static dielectric constant tensor:
#      x y z
#    x 3.748060 0.000000 -0.047950 
#    y 0.000000 3.593890 0.000000 
#    z -0.047950 0.000000 3.815950 
# 
# 
# High freq. dielectric constant tensor:
#      x y z
#    x 1.804770 0.000000 -0.000120 
#    y 0.000000 1.788070 0.000000 
#    z -0.000120 0.000000 1.806180 
# 
# From -- ./inp_files/21570.got.cif
#   From: 2010.03.12/outbox.cif.g09.slc.cpg/sg8_11_cif.got.tgz:21570.got - 2010.03.31 10:45:26.
