data_PCOD8053031
_publ_section_title
;
Structure prediction by ZEFSAII (Michael W. Deem and Ramdas Pophale) SiO2 
 PCOD8053031
Probable space group: C M
;
_chemical_formula_sum "Si O2"
_cell_formula_units_Z 32
_cell_length_a 14.186282
_cell_length_b 8.869681
_cell_length_c 19.770840
_cell_angle_alpha 90.000000
_cell_angle_beta 134.375712
_cell_angle_gamma 90.000000
_cell_volume 1778.146523
_symmetry_space_group_name_H-M "C M"
_symmetry_group_IT_number 8
_symmetry_cell_setting 'monoclinic'
loop_
_space_group_symop_operation_xyz
x,y,z
x,-y,z
1/2+x,1/2+y,z
1/2+x,1/2-y,z
loop_
_atom_site_type_symbol
_atom_site_label
_atom_site_fract_x
_atom_site_fract_y
_atom_site_fract_z
Si Si1 0.258730 0.323749 0.794320
Si Si2 0.266944 0.677416 0.953382
Si Si3 0.542047 0.176961 0.436592
Si Si4 0.528979 0.824054 0.927212
Si Si5 0.028954 0.678522 0.581697
Si Si6 0.746180 0.321157 0.290054
Si Si7 0.039411 0.676672 0.088406
Si Si8 0.251111 0.320228 0.434936
O O1 0.273614 0.500000 0.791335
O O2 0.231036 0.281271 0.858239
O O3 0.393829 0.251901 0.835275
O O4 0.137365 0.262304 0.689099
O O5 0.292803 0.500000 0.975450
O O6 0.148150 0.735780 0.940698
O O7 0.397026 0.766284 0.041823
O O8 0.578027 0.224051 0.531320
O O9 0.394030 0.231403 0.344740
O O10 0.646757 0.246276 0.436918
O O11 0.549191 0.000000 0.432569
O O12 0.509892 0.000000 0.907314
O O13 0.560304 0.783162 0.020351
O O14 0.004366 0.500000 0.574851
O O15 0.893159 0.762042 0.530080
O O16 0.736925 0.500000 0.294017
O O17 0.651219 0.266037 0.183709
O O18 0.705843 0.245343 0.340366
O O19 0.051652 0.500000 0.109061
O O20 0.252209 0.500000 0.431791
#
# Coordination Sequence:
#
# PCOD8053031 Si02
#       8
#     4   4   4   4   4   4   4   4
#     4   9  18  32  52  74 100 133 169 203 241 292
#     4   9  18  34  52  73 101 134 166 201 246 294
#     4   8  17  33  51  70  98 131 162 197 243 292
#     4   9  19  34  51  72 102 132 164 206 248 287
#     4   9  18  34  51  72 102 135 166 200 244 295
#     4  10  20  36  54  72  98 132 162 198 248 301
#     4  10  20  34  51  74 100 128 164 207 245 288
#     4  10  19  33  52  75  99 127 165 208 245 287
#
# _framework density 17.996268000000001
#
# number of rings (size 3 to 8) (size 9 to 14) (size 15 to 20)
#    0.000    2.750    0.000    1.875    0.000    3.500 
#    0.000    8.750    0.000    0.000    0.000    0.000 
#    0.000    0.000    0.000    0.000    0.000    0.000 
#
# Total GULP energy -198403.310393 kJ/mol
# GULP energy per Si atom -12400.206900 kJ/mol
# Density = 1.795531 g / cm^3
# Si number density = 17.996268 Si / 1000 Ang^3
#
#
#
# Elastic Constant Matrix: (Units=GPa)
#
#
# Indices 1 2 3 4 5 6 
#
# 1 158.8023 36.3080 62.7311 0.0000 10.8929 0.0000
# 2 36.3080 48.2758 38.3821 0.0000 3.1375 0.0000
# 3 62.7311 38.3821 141.5966 0.0000 6.3852 0.0000
# 4 0.0000 0.0000 0.0000 28.3586 0.0000 5.3229
# 5 10.8929 3.1375 6.3852 0.0000 13.7998 0.0000
# 6 0.0000 0.0000 0.0000 5.3229 0.0000 25.1533
#
#
#
# Elastic Compliance Matrix: (Units=1/GPa)
#
#
# Indices 1 2 3 4 5 6 
#
# 1 0.008535 -0.004177 -0.002439 0.000000 -0.004659 0.000000
# 2 -0.004177 0.028552 -0.005867 0.000000 -0.000479 0.000000
# 3 -0.002439 -0.005867 0.009791 0.000000 -0.001271 0.000000
# 4 0.000000 0.000000 0.000000 0.036721 0.000000 -0.007771
# 5 -0.004659 -0.000479 -0.001271 0.000000 0.076839 0.000000
# 6 0.000000 0.000000 0.000000 -0.007771 0.000000 0.041401
#
#
# Mechanical properties :
#
#
# Convention : Reuss Voigt Hill
#
# Bulk Modulus (GPa) = 45.63960 69.27967 57.45963
# Shear Modulus (GPa) = 21.35750 27.54591 24.45171
#
# Velocity S-wave (km/s) = 3.44870 3.91659 3.69007
# Velocity P-wave (km/s) = 6.42446 7.68330 7.08191
#
# Compressibility (1/GPa) = 0.02191080
#
# Stress axis : x y z
#
# Youngs Moduli (GPa) = 117.16092 35.02379 102.13977
#
# Poissons Ratio (x) = 0.14631 0.24911
# Poissons Ratio (y) = 0.48944 0.59927
# Poissons Ratio (z) = 0.28574 0.20549
#
# Static dielectric constant tensor:
#      x y z
#    x 3.569140 0.000000 0.033440 
#    y 0.000000 3.183420 0.000000 
#    z 0.033440 0.000000 3.398260 
# 
# 
# High freq. dielectric constant tensor:
#      x y z
#    x 1.700160 0.000000 0.002680 
#    y 0.000000 1.686690 0.000000 
#    z 0.002680 0.000000 1.700380 
# 
# From -- ./inp_files/26404.got.cif
#   From: 2010.03.12/outbox.cif.g09.slc.cpg/sg8_14_cif.got.tgz:26404.got - 2010.03.31 10:45:26.
