data_PCOD8053655
_publ_section_title
;
Structure prediction by ZEFSAII (Michael W. Deem and Ramdas Pophale) SiO2 
 PCOD8053655
Probable space group: C M
;
_chemical_formula_sum "Si O2"
_cell_formula_units_Z 32
_cell_length_a 24.905083
_cell_length_b 8.577413
_cell_length_c 16.600860
_cell_angle_alpha 90.000000
_cell_angle_beta 154.453291
_cell_angle_gamma 90.000000
_cell_volume 1529.328394
_symmetry_space_group_name_H-M "C M"
_symmetry_group_IT_number 8
_symmetry_cell_setting 'monoclinic'
loop_
_space_group_symop_operation_xyz
x,y,z
x,-y,z
1/2+x,1/2+y,z
1/2+x,1/2-y,z
loop_
_atom_site_type_symbol
_atom_site_label
_atom_site_fract_x
_atom_site_fract_y
_atom_site_fract_z
Si Si1 0.614670 0.823872 0.473890
Si Si2 0.227420 0.818840 0.899871
Si Si3 0.757073 0.319649 0.359111
Si Si4 0.497288 0.818137 0.975865
Si Si5 0.304672 0.317006 0.595484
Si Si6 0.386292 0.679421 0.242565
Si Si7 0.465594 0.179612 0.512730
Si Si8 0.838494 0.821680 0.897152
O O1 0.685397 0.771998 0.488476
O O2 0.500695 0.708994 0.336176
O O3 0.707783 0.812516 0.674705
O O4 0.564077 0.000000 0.397144
O O5 0.086473 0.786072 0.684328
O O6 0.323974 0.764371 0.962151
O O7 0.246225 0.000000 0.940358
O O8 0.259394 0.727332 0.025427
O O9 0.718772 0.500000 0.302179
O O10 0.796030 0.278678 0.502203
O O11 0.874736 0.281442 0.463005
O O12 0.643652 0.216514 0.172730
O O13 0.430780 0.726337 0.813335
O O14 0.445870 0.764539 0.992755
O O15 0.472809 0.000000 0.930559
O O16 0.306963 0.500000 0.579930
O O17 0.381349 0.500000 0.260936
O O18 0.396924 0.783476 0.336419
O O19 0.507449 0.000000 0.569235
O O20 0.879156 0.000000 0.965869
#
# Coordination Sequence:
#
# PCOD8053655 Si02
#       8
#     4   4   4   4   4   4   4   4
#     4   9  19  37  62  91 130 168 205 258 318 378
#     4  12  25  41  65  95 128 168 213 262 320 383
#     4  11  25  44  68  94 126 171 218 265 319 380
#     4  11  23  40  64  95 132 170 212 262 316 378
#     4  10  22  41  65  94 130 169 211 264 320 377
#     4  12  25  40  64  95 128 169 213 263 319 380
#     4  11  25  47  68  91 128 169 215 270 321 378
#     4  10  20  38  64  93 132 170 207 260 319 380
#
# _framework density 20.924216999999999
#
# number of rings (size 3 to 8) (size 9 to 14) (size 15 to 20)
#    0.000    1.250    1.250    5.625    1.750    5.500 
#    0.000    0.000    0.000    0.000    0.000    0.000 
#    0.000    0.000    0.000    0.000    0.000    0.000 
#
# Total GULP energy -198511.403612 kJ/mol
# GULP energy per Si atom -12406.962726 kJ/mol
# Density = 2.087659 g / cm^3
# Si number density = 20.924217 Si / 1000 Ang^3
#
#
#
# Elastic Constant Matrix: (Units=GPa)
#
#
# Indices 1 2 3 4 5 6 
#
# 1 100.5973 25.8999 29.5591 0.0000 -14.2039 0.0000
# 2 25.8999 83.2272 8.2600 0.0000 8.3794 0.0000
# 3 29.5591 8.2600 62.1589 0.0000 -14.5669 0.0000
# 4 0.0000 0.0000 0.0000 36.5232 0.0000 -2.5842
# 5 -14.2039 8.3794 -14.5669 0.0000 23.9496 0.0000
# 6 0.0000 0.0000 0.0000 -2.5842 0.0000 31.8730
#
#
#
# Elastic Compliance Matrix: (Units=1/GPa)
#
#
# Indices 1 2 3 4 5 6 
#
# 1 0.013258 -0.004415 -0.004097 0.000000 0.006916 0.000000
# 2 -0.004415 0.014466 -0.001892 0.000000 -0.008831 0.000000
# 3 -0.004097 -0.001892 0.020844 0.000000 0.010910 0.000000
# 4 0.000000 0.000000 0.000000 0.027538 0.000000 0.002233
# 5 0.006916 -0.008831 0.010910 0.000000 0.055582 0.000000
# 6 0.000000 0.000000 0.000000 0.002233 0.000000 0.031556
#
#
# Mechanical properties :
#
#
# Convention : Reuss Voigt Hill
#
# Bulk Modulus (GPa) = 36.02441 41.49128 38.75785
# Shear Modulus (GPa) = 25.86573 30.62012 28.24292
#
# Velocity S-wave (km/s) = 3.51972 3.82957 3.67791
# Velocity P-wave (km/s) = 5.81136 6.27905 6.04973
#
# Compressibility (1/GPa) = 0.02775895
#
# Stress axis : x y z
#
# Youngs Moduli (GPa) = 75.42740 69.12645 47.97430
#
# Poissons Ratio (x) = 0.30522 0.19656
# Poissons Ratio (y) = 0.33304 0.09078
# Poissons Ratio (z) = 0.30904 0.13080
#
# Static dielectric constant tensor:
#      x y z
#    x 3.807660 0.000000 -0.053900 
#    y 0.000000 3.765540 0.000000 
#    z -0.053900 0.000000 3.704390 
# 
# 
# High freq. dielectric constant tensor:
#      x y z
#    x 1.816580 0.000000 -0.006920 
#    y 0.000000 1.826980 0.000000 
#    z -0.006920 0.000000 1.823920 
# 
# From -- ./inp_files/28212.got.cif
#   From: 2010.03.12/outbox.cif.g09.slc.cpg/sg8_15_cif.got.tgz:28212.got - 2010.03.31 10:45:26.
