data_PCOD8053525
_publ_section_title
;
Structure prediction by ZEFSAII (Michael W. Deem and Ramdas Pophale) SiO2 
 PCOD8053525
Probable space group: C M
;
_chemical_formula_sum "Si O2"
_cell_formula_units_Z 32
_cell_length_a 15.349130
_cell_length_b 8.880067
_cell_length_c 22.457086
_cell_angle_alpha 90.000000
_cell_angle_beta 32.201273
_cell_angle_gamma 90.000000
_cell_volume 1631.154569
_symmetry_space_group_name_H-M "C M"
_symmetry_group_IT_number 8
_symmetry_cell_setting 'monoclinic'
loop_
_space_group_symop_operation_xyz
x,y,z
x,-y,z
1/2+x,1/2+y,z
1/2+x,1/2-y,z
loop_
_atom_site_type_symbol
_atom_site_label
_atom_site_fract_x
_atom_site_fract_y
_atom_site_fract_z
Si Si1 0.685800 0.672709 0.447020
Si Si2 0.012806 0.177861 0.426295
Si Si3 0.308206 0.677847 0.194404
Si Si4 0.345603 0.178589 0.836476
Si Si5 0.990945 0.325816 0.194445
Si Si6 0.662748 0.177797 0.585259
Si Si7 0.811388 0.327549 0.991263
Si Si8 0.024735 0.672605 0.974973
O O1 0.655100 0.500000 0.481728
O O2 0.565438 0.722284 0.462897
O O3 0.646030 0.771699 0.526990
O O4 0.874083 0.699744 0.318874
O O5 0.829439 0.235366 0.519868
O O6 0.127849 0.260362 0.312148
O O7 0.034130 0.000000 0.404635
O O8 0.301147 0.500000 0.190804
O O9 0.433954 0.721342 0.173394
O O10 0.374168 0.751408 0.096181
O O11 0.511080 0.241780 0.710877
O O12 0.343286 0.232786 0.906203
O O13 0.336896 0.000000 0.837450
O O14 0.194176 0.244076 0.887757
O O15 0.983318 0.500000 0.179136
O O16 0.174535 0.274856 0.102988
O O17 0.660940 0.000000 0.587071
O O18 0.750183 0.500000 0.025612
O O19 0.979583 0.314239 0.931133
O O20 0.042397 0.500000 0.985021
#
# Coordination Sequence:
#
# PCOD8053525 Si02
#       8
#     4   4   4   4   4   4   4   4
#     4   9  20  37  57  85 119 152 191 239 294 351
#     4   9  20  39  59  84 117 157 196 240 294 352
#     4  11  21  35  58  87 122 158 193 242 299 352
#     4  10  22  42  61  84 118 157 199 247 298 347
#     4  10  20  36  59  87 122 155 192 242 298 353
#     4  10  22  39  62  86 115 156 202 244 290 350
#     4  10  22  38  59  86 117 155 197 241 296 356
#     4  11  23  38  59  89 118 154 200 245 295 355
#
# _framework density 19.618006000000001
#
# number of rings (size 3 to 8) (size 9 to 14) (size 15 to 20)
#    0.000    2.000    1.250    2.625    1.750    5.500 
#    0.000    2.500    0.000    0.000    0.000    0.000 
#    0.000    0.000    0.000    0.000    0.000    0.000 
#
# Total GULP energy -198427.228559 kJ/mol
# GULP energy per Si atom -12401.701785 kJ/mol
# Density = 1.957335 g / cm^3
# Si number density = 19.618006 Si / 1000 Ang^3
#
#
#
# Elastic Constant Matrix: (Units=GPa)
#
#
# Indices 1 2 3 4 5 6 
#
# 1 103.1947 18.4299 67.9610 -0.0004 -10.1312 0.0001
# 2 18.4299 34.9424 31.3605 -0.0001 -0.3091 0.0001
# 3 67.9610 31.3605 147.8999 -0.0003 -9.4095 0.0000
# 4 -0.0004 -0.0001 -0.0003 28.4544 0.0001 -0.9693
# 5 -10.1312 -0.3091 -9.4095 0.0001 26.1424 -0.0001
# 6 0.0001 0.0001 0.0000 -0.9693 -0.0001 30.8311
#
#
#
# Elastic Compliance Matrix: (Units=1/GPa)
#
#
# Indices 1 2 3 4 5 6 
#
# 1 0.014294 -0.002233 -0.005879 0.000000 0.003397 0.000000
# 2 -0.002233 0.035833 -0.006755 0.000000 -0.002873 0.000000
# 3 -0.005879 -0.006755 0.010997 0.000000 0.001600 0.000000
# 4 0.000000 0.000000 0.000000 0.035182 0.000000 0.001106
# 5 0.003397 -0.002873 0.001600 0.000000 0.040110 0.000000
# 6 0.000000 0.000000 0.000000 0.001106 0.000000 0.032470
#
#
# Mechanical properties :
#
#
# Convention : Reuss Voigt Hill
#
# Bulk Modulus (GPa) = 31.85613 57.94886 44.90250
# Shear Modulus (GPa) = 23.91399 28.30463 26.10931
#
# Velocity S-wave (km/s) = 3.49518 3.80253 3.65209
# Velocity P-wave (km/s) = 5.70630 6.99154 6.38136
#
# Compressibility (1/GPa) = 0.03139113
#
# Stress axis : x y z
#
# Youngs Moduli (GPa) = 69.95793 27.90702 90.93687
#
# Poissons Ratio (x) = 0.06232 0.53459
# Poissons Ratio (y) = 0.15624 0.61424
# Poissons Ratio (z) = 0.41126 0.18850
#
# Static dielectric constant tensor:
#      x y z
#    x 3.550290 0.000000 -0.051220 
#    y 0.000000 3.456560 0.000000 
#    z -0.051220 0.000000 3.733260 
# 
# 
# High freq. dielectric constant tensor:
#      x y z
#    x 1.767510 0.000000 -0.003980 
#    y 0.000000 1.757690 0.000000 
#    z -0.003980 0.000000 1.761630 
# 
# From -- ./inp_files/24778.got.cif
#   From: 2010.03.12/outbox.cif.g09.slc.cpg/sg8_13_cif.got.tgz:24778.got - 2010.03.31 10:45:26.
