data_PCOD8053036
_publ_section_title
;
Structure prediction by ZEFSAII (Michael W. Deem and Ramdas Pophale) SiO2 
 PCOD8053036
Probable space group: C M
;
_chemical_formula_sum "Si O2"
_cell_formula_units_Z 28
_cell_length_a 18.515235
_cell_length_b 18.989541
_cell_length_c 11.934623
_cell_angle_alpha 90.000000
_cell_angle_beta 158.588761
_cell_angle_gamma 90.000000
_cell_volume 1531.848972
_symmetry_space_group_name_H-M "C M"
_symmetry_group_IT_number 8
_symmetry_cell_setting 'monoclinic'
loop_
_space_group_symop_operation_xyz
x,y,z
x,-y,z
1/2+x,1/2+y,z
1/2+x,1/2-y,z
loop_
_atom_site_type_symbol
_atom_site_label
_atom_site_fract_x
_atom_site_fract_y
_atom_site_fract_z
Si Si1 0.172150 0.156970 0.353150
Si Si2 0.314051 0.304547 0.465748
Si Si3 0.906555 0.422908 0.066486
Si Si4 0.496010 0.916597 0.944719
Si Si5 0.647945 0.696128 0.770001
Si Si6 0.297741 0.357244 0.683054
Si Si7 0.035875 0.771283 0.369650
O O1 0.211460 0.228175 0.337436
O O2 0.358451 0.104080 0.638672
O O3 0.115761 0.171318 0.399648
O O4 0.989055 0.117019 0.029062
O O5 0.512058 0.294457 0.681298
O O6 0.377675 0.334068 0.677424
O O7 0.178681 0.361577 0.204559
O O8 0.826300 0.500000 0.970927
O O9 0.136818 0.418974 0.436312
O O10 0.889797 0.402081 0.910998
O O11 0.764879 0.377320 0.940397
O O12 0.557304 0.000000 0.023804
O O13 0.520182 0.700224 0.472771
O O14 0.814020 0.755836 0.010321
O O15 0.186651 0.293957 0.585343
#
# Coordination Sequence:
#
# PCOD8053036 Si02
#       7
#     4   4   4   4   4   4   4
#     4  11  19  35  57  84 113 147 186 235 278 332
#     4  10  22  34  55  84 115 150 184 230 278 341
#     4   9  19  37  57  77 105 146 191 224 272 339
#     4  10  21  38  58  83 113 151 193 232 278 336
#     4  11  21  33  55  84 113 139 182 234 284 320
#     4   9  19  34  52  78 109 143 180 225 273 325
#     4  10  19  33  52  82 109 140 182 234 274 323
#
# _framework density 18.278563999999999
#
# number of rings (size 3 to 8) (size 9 to 14) (size 15 to 20)
#    0.000    2.000    2.857    2.571    4.000    1.143 
#    0.000    0.000    0.000    0.000    0.000    0.000 
#    0.000    0.000    0.000    0.000    0.000    0.000 
#
# Total GULP energy -173492.513206 kJ/mol
# GULP energy per Si atom -12392.322372 kJ/mol
# Density = 1.823696 g / cm^3
# Si number density = 18.278564 Si / 1000 Ang^3
#
#
#
# Elastic Constant Matrix: (Units=GPa)
#
#
# Indices 1 2 3 4 5 6 
#
# 1 76.4977 15.1824 23.5375 0.0000 9.3875 0.0000
# 2 15.1824 63.4393 29.6745 0.0000 -2.7329 0.0000
# 3 23.5375 29.6745 101.8034 -0.0001 -19.0610 0.0000
# 4 0.0000 0.0000 -0.0001 19.0012 0.0000 -2.9864
# 5 9.3875 -2.7329 -19.0610 0.0000 29.7703 0.0000
# 6 0.0000 0.0000 0.0000 -2.9864 0.0000 9.8990
#
#
#
# Elastic Compliance Matrix: (Units=1/GPa)
#
#
# Indices 1 2 3 4 5 6 
#
# 1 0.015889 -0.001993 -0.004619 0.000000 -0.008151 0.000000
# 2 -0.001993 0.018604 -0.005141 0.000000 -0.000955 0.000000
# 3 -0.004619 -0.005141 0.014286 0.000000 0.010131 0.000000
# 4 0.000000 0.000000 0.000000 0.055248 0.000000 0.016668
# 5 -0.008151 -0.000955 0.010131 0.000000 0.042560 0.000000
# 6 0.000000 0.000000 0.000000 0.016668 0.000000 0.106049
#
#
# Mechanical properties :
#
#
# Convention : Reuss Voigt Hill
#
# Bulk Modulus (GPa) = 39.56703 42.05879 40.81291
# Shear Modulus (GPa) = 17.57063 23.29049 20.43056
#
# Velocity S-wave (km/s) = 3.10380 3.57346 3.34688
# Velocity P-wave (km/s) = 5.87694 6.33135 6.10837
#
# Compressibility (1/GPa) = 0.02527357
#
# Stress axis : x y z
#
# Youngs Moduli (GPa) = 62.93568 53.75305 69.99799
#
# Poissons Ratio (x) = 0.10715 0.32330
# Poissons Ratio (y) = 0.12545 0.35984
# Poissons Ratio (z) = 0.29068 0.27633
#
# Static dielectric constant tensor:
#      x y z
#    x 3.155920 0.000000 -0.110940 
#    y 0.000000 3.187890 0.000000 
#    z -0.110940 0.000000 3.341740 
# 
# 
# High freq. dielectric constant tensor:
#      x y z
#    x 1.691630 0.000000 -0.011240 
#    y 0.000000 1.686750 0.000000 
#    z -0.011240 0.000000 1.713610 
# 
# From -- ./inp_files/8307.got.cif
#   From: 2010.03.12/outbox.cif.g09.slc.cpg/sg8_5_cif.got.tgz:8307.got - 2010.03.31 10:45:26.
