data_PCOD8053890
_publ_section_title
;
Structure prediction by ZEFSAII (Michael W. Deem and Ramdas Pophale) SiO2 
 PCOD8053890
Probable space group: C M
;
_chemical_formula_sum "Si O2"
_cell_formula_units_Z 20
_cell_length_a 5.606363
_cell_length_b 24.143129
_cell_length_c 6.604079
_cell_angle_alpha 90.000000
_cell_angle_beta 109.262913
_cell_angle_gamma 90.000000
_cell_volume 843.851025
_symmetry_space_group_name_H-M "C M"
_symmetry_group_IT_number 8
_symmetry_cell_setting 'monoclinic'
loop_
_space_group_symop_operation_xyz
x,y,z
x,-y,z
1/2+x,1/2+y,z
1/2+x,1/2-y,z
loop_
_atom_site_type_symbol
_atom_site_label
_atom_site_fract_x
_atom_site_fract_y
_atom_site_fract_z
Si Si1 0.921070 0.626296 0.140460
Si Si2 0.605633 0.439717 0.315694
Si Si3 0.663223 0.063928 0.867908
Si Si4 0.086686 0.782785 0.899248
Si Si5 0.856418 0.865107 0.545563
O O1 0.863314 0.575450 0.274331
O O2 0.163947 0.654606 0.313758
O O3 0.682112 0.668198 0.073365
O O4 0.952217 0.601419 0.923062
O O5 0.634343 0.500000 0.418455
O O6 0.573608 0.400643 0.499729
O O7 0.388220 0.437148 0.089535
O O8 0.730679 0.096998 0.684080
O O9 0.578743 0.000000 0.796761
O O10 0.344639 0.747597 0.931489
O O11 0.982587 0.808989 0.662865
#
# Coordination Sequence:
#
# PCOD8053890 Si02
#       5
#     4   4   4   4   4
#     4  11  25  45  72 104 150 187 245 306 364 441
#     4  10  22  41  70 109 148 188 232 292 372 450
#     4  10  21  42  70 106 152 197 233 291 369 449
#     4  12  29  51  76 105 144 199 259 315 371 424
#     4  11  25  45  73 104 147 189 247 302 366 442
#
# _framework density 23.700866000000001
#
# number of rings (size 3 to 8) (size 9 to 14) (size 15 to 20)
#    0.000    1.200    2.000    2.400    8.400    4.000 
#    0.000    0.000    0.000    0.000    0.000    0.000 
#    0.000    0.000    0.000    0.000    0.000    0.000 
#
# Total GULP energy -123905.866464 kJ/mol
# GULP energy per Si atom -12390.586646 kJ/mol
# Density = 2.364692 g / cm^3
# Si number density = 23.700866 Si / 1000 Ang^3
#
#
#
# Elastic Constant Matrix: (Units=GPa)
#
#
# Indices 1 2 3 4 5 6 
#
# 1 101.1451 37.5268 23.3966 0.0000 -16.6293 0.0000
# 2 37.5268 90.6533 14.0483 0.0000 1.3377 0.0000
# 3 23.3966 14.0483 85.9056 0.0000 -4.8110 0.0000
# 4 0.0000 0.0000 0.0000 37.0265 0.0000 -3.8437
# 5 -16.6293 1.3377 -4.8110 0.0000 51.4382 0.0000
# 6 0.0000 0.0000 0.0000 -3.8437 0.0000 36.6020
#
#
#
# Elastic Compliance Matrix: (Units=1/GPa)
#
#
# Indices 1 2 3 4 5 6 
#
# 1 0.013016 -0.005063 -0.002487 0.000000 0.004107 0.000000
# 2 -0.005063 0.013299 -0.000912 0.000000 -0.002068 0.000000
# 3 -0.002487 -0.000912 0.012489 0.000000 0.000388 0.000000
# 4 0.000000 0.000000 0.000000 0.027305 0.000000 0.002867
# 5 0.004107 -0.002068 0.000388 0.000000 0.020859 0.000000
# 6 0.000000 0.000000 0.000000 0.002867 0.000000 0.027622
#
#
# Mechanical properties :
#
#
# Convention : Reuss Voigt Hill
#
# Bulk Modulus (GPa) = 45.70396 47.51638 46.61017
# Shear Modulus (GPa) = 36.02145 38.52882 37.27514
#
# Velocity S-wave (km/s) = 3.90274 4.03628 3.97007
# Velocity P-wave (km/s) = 6.29556 6.46638 6.38154
#
# Compressibility (1/GPa) = 0.02187994
#
# Stress axis : x y z
#
# Youngs Moduli (GPa) = 76.82955 75.19474 80.07183
#
# Poissons Ratio (x) = 0.38073 0.19913
# Poissons Ratio (y) = 0.38901 0.07299
# Poissons Ratio (z) = 0.19107 0.06855
#
# Static dielectric constant tensor:
#      x y z
#    x 4.455230 0.000000 0.080590 
#    y 0.000000 4.454930 0.000000 
#    z 0.080590 0.000000 4.252920 
# 
# 
# High freq. dielectric constant tensor:
#      x y z
#    x 1.945940 0.000000 0.008630 
#    y 0.000000 1.934620 0.000000 
#    z 0.008630 0.000000 1.951100 
# 
# From -- ./inp_files/517.got.cif
#   From: 2010.03.12/outbox.cif.g09.slc.cpg/sg8_1_cif.got.tgz:517.got - 2010.03.31 10:45:26.
