data_PCOD8053033
_publ_section_title
;
Structure prediction by ZEFSAII (Michael W. Deem and Ramdas Pophale) SiO2 
 PCOD8053033
Probable space group: C M
;
_chemical_formula_sum "Si O2"
_cell_formula_units_Z 32
_cell_length_a 12.075269
_cell_length_b 14.188738
_cell_length_c 17.936296
_cell_angle_alpha 90.000000
_cell_angle_beta 30.537456
_cell_angle_gamma 90.000000
_cell_volume 1561.434773
_symmetry_space_group_name_H-M "C M"
_symmetry_group_IT_number 8
_symmetry_cell_setting 'monoclinic'
loop_
_space_group_symop_operation_xyz
x,y,z
x,-y,z
1/2+x,1/2+y,z
1/2+x,1/2-y,z
loop_
_atom_site_type_symbol
_atom_site_label
_atom_site_fract_x
_atom_site_fract_y
_atom_site_fract_z
Si Si1 0.945760 0.213677 0.807930
Si Si2 0.863305 0.603789 0.042286
Si Si3 0.163515 0.609163 0.516398
Si Si4 0.723526 0.107883 0.643668
Si Si5 0.418262 0.392979 0.227549
Si Si6 0.981362 0.228736 0.057661
Si Si7 0.668306 0.611843 0.812546
Si Si8 0.864100 0.105545 0.714145
O O1 0.988148 0.175601 0.698335
O O2 0.029095 0.319238 0.769969
O O3 0.055604 0.140552 0.800635
O O4 0.689019 0.217467 0.972727
O O5 0.846543 0.500000 0.090279
O O6 0.679414 0.611391 0.085611
O O7 0.818912 0.687546 0.126793
O O8 0.101912 0.619095 0.868911
O O9 0.140288 0.500000 0.512222
O O10 0.302526 0.624305 0.512523
O O11 0.296365 0.652917 0.370057
O O12 0.917922 0.649697 0.666184
O O13 0.912276 0.124918 0.597479
O O14 0.633614 0.000000 0.704258
O O15 0.341932 0.500000 0.257734
O O16 0.353860 0.331993 0.192991
O O17 0.048069 0.161996 0.950440
O O18 0.652957 0.500000 0.832570
O O19 0.933152 0.000000 0.696651
#
# Coordination Sequence:
#
# PCOD8053033 Si02
#       8
#     4   4   4   4   4   4   4   4
#     4  11  20  33  54  80 114 140 176 219 279 321
#     4   9  19  34  54  80 110 141 177 226 274 316
#     4   9  20  37  55  79 111 144 181 227 275 320
#     4  10  19  33  52  76 107 140 179 224 264 316
#     4  10  20  37  57  78 107 144 182 225 275 321
#     4  11  20  34  56  86 108 140 187 226 263 326
#     4  11  22  36  55  83 115 145 179 224 274 325
#     4   9  18  32  52  80 108 138 176 221 267 319
#
# _framework density 20.493970999999998
#
# number of rings (size 3 to 8) (size 9 to 14) (size 15 to 20)
#    0.000    2.000    1.250    3.750    0.000    2.000 
#    2.250    0.000    0.000    0.000    0.000    0.875 
#    0.000    0.000    0.000    0.000    0.000    0.000 
#
# Total GULP energy -198253.090602 kJ/mol
# GULP energy per Si atom -12390.818163 kJ/mol
# Density = 2.044733 g / cm^3
# Si number density = 20.493971 Si / 1000 Ang^3
#
#
#
# Elastic Constant Matrix: (Units=GPa)
#
#
# Indices 1 2 3 4 5 6 
#
# 1 136.3983 56.4553 33.9319 -0.0030 32.8295 -0.0004
# 2 56.4553 110.7302 20.6475 -0.0250 16.2085 0.0029
# 3 33.9319 20.6475 49.8467 -0.0507 24.8280 0.0032
# 4 -0.0030 -0.0250 -0.0507 10.6848 0.0031 4.1215
# 5 32.8295 16.2085 24.8280 0.0031 30.6899 -0.0001
# 6 -0.0004 0.0029 0.0032 4.1215 -0.0001 42.7803
#
#
#
# Elastic Compliance Matrix: (Units=1/GPa)
#
#
# Indices 1 2 3 4 5 6 
#
# 1 0.011680 -0.004340 -0.001795 -0.000014 -0.008751 0.000002
# 2 -0.004340 0.011586 -0.001858 0.000018 0.000026 -0.000002
# 3 -0.001795 -0.001858 0.034517 0.000174 -0.025022 -0.000019
# 4 -0.000014 0.000018 0.000174 0.097204 -0.000146 -0.009365
# 5 -0.008751 0.000026 -0.025022 -0.000146 0.062174 0.000016
# 6 0.000002 -0.000002 -0.000019 -0.009365 0.000016 0.024277
#
#
# Mechanical properties :
#
#
# Convention : Reuss Voigt Hill
#
# Bulk Modulus (GPa) = 23.92501 57.67163 40.79832
# Shear Modulus (GPa) = 18.42598 29.22703 23.82650
#
# Velocity S-wave (km/s) = 3.00174 3.78051 3.41341
# Velocity P-wave (km/s) = 4.86964 6.87446 5.95700
#
# Compressibility (1/GPa) = 0.04179727
#
# Stress axis : x y z
#
# Youngs Moduli (GPa) = 85.61401 86.31016 28.97165
#
# Poissons Ratio (x) = 0.37455 0.05200
# Poissons Ratio (y) = 0.37153 0.05384
# Poissons Ratio (z) = 0.15368 0.16039
#
# Static dielectric constant tensor:
#      x y z
#    x 3.954070 -0.000010 0.229880 
#    y -0.000010 3.917140 0.000030 
#    z 0.229880 0.000030 3.369090 
# 
# 
# High freq. dielectric constant tensor:
#      x y z
#    x 1.808520 0.000000 0.020200 
#    y 0.000000 1.812650 0.000000 
#    z 0.020200 0.000000 1.744280 
# 
# From -- ./inp_files/10763.got.cif
#   From: 2010.03.12/outbox.cif.g09.slc.cpg/sg8_6_cif.got.tgz:10763.got - 2010.03.31 10:45:26.
