data_PCOD8053963
_publ_section_title
;
Structure prediction by ZEFSAII (Michael W. Deem and Ramdas Pophale) SiO2 
 PCOD8053963
Probable space group: C M
;
_chemical_formula_sum "Si O2"
_cell_formula_units_Z 32
_cell_length_a 33.066539
_cell_length_b 8.625162
_cell_length_c 12.545469
_cell_angle_alpha 90.000000
_cell_angle_beta 153.659037
_cell_angle_gamma 90.000000
_cell_volume 1587.610958
_symmetry_space_group_name_H-M "C M"
_symmetry_group_IT_number 8
_symmetry_cell_setting 'monoclinic'
loop_
_space_group_symop_operation_xyz
x,y,z
x,-y,z
1/2+x,1/2+y,z
1/2+x,1/2-y,z
loop_
_atom_site_type_symbol
_atom_site_label
_atom_site_fract_x
_atom_site_fract_y
_atom_site_fract_z
Si Si1 0.059240 0.174860 0.928160
Si Si2 0.370101 0.822026 0.795880
Si Si3 0.555425 0.681946 0.301849
Si Si4 0.173823 0.182399 0.390062
Si Si5 0.862425 0.826852 0.558621
Si Si6 0.304599 0.317052 0.193480
Si Si7 0.614526 0.683272 0.671994
Si Si8 0.990555 0.681098 0.557619
O O1 0.968726 0.173161 0.784421
O O2 0.049102 0.283899 0.801753
O O3 0.081926 0.000000 0.942381
O O4 0.136678 0.246799 0.188718
O O5 0.280819 0.782100 0.655137
O O6 0.344470 0.790033 0.612603
O O7 0.398607 0.000000 0.875524
O O8 0.450578 0.716769 0.029695
O O9 0.569014 0.500000 0.334474
O O10 0.620512 0.757143 0.364609
O O11 0.583866 0.746740 0.484068
O O12 0.153987 0.000000 0.340063
O O13 0.806768 0.768978 0.323357
O O14 0.831576 0.000000 0.519008
O O15 0.321402 0.500000 0.222485
O O16 0.385700 0.232641 0.321539
O O17 0.208180 0.269139 0.919314
O O18 0.630931 0.500000 0.712686
O O19 0.534513 0.726817 0.563837
O O20 0.994936 0.500000 0.543304
#
# Coordination Sequence:
#
# PCOD8053963 Si02
#       8
#     4   4   4   4   4   4   4   4
#     4   9  17  35  61  84 117 161 200 245 301 363
#     4  11  22  34  57  92 121 152 196 249 300 354
#     4  10  22  44  64  81 116 163 205 244 298 363
#     4   9  19  37  59  84 115 156 196 240 299 358
#     4   9  18  35  59  84 118 160 195 238 299 363
#     4  10  22  41  63  90 124 162 204 255 310 364
#     4  11  24  41  65  91 118 163 215 258 305 366
#     4  11  23  39  60  90 127 163 203 253 306 367
#
# _framework density 20.156071000000001
#
# number of rings (size 3 to 8) (size 9 to 14) (size 15 to 20)
#    0.000    2.000    1.250    3.000    1.750    4.500 
#    0.000    3.125    0.000    0.000    0.000    0.000 
#    0.000    0.000    0.000    0.000    0.000    0.000 
#
# Total GULP energy -198411.140284 kJ/mol
# GULP energy per Si atom -12400.696268 kJ/mol
# Density = 2.011019 g / cm^3
# Si number density = 20.156071 Si / 1000 Ang^3
#
#
#
# Elastic Constant Matrix: (Units=GPa)
#
#
# Indices 1 2 3 4 5 6 
#
# 1 100.9219 10.8393 60.4992 0.0000 -7.1372 0.0000
# 2 10.8393 35.2896 8.0635 0.0000 -0.7797 0.0000
# 3 60.4992 8.0635 117.4777 0.0000 -7.3401 0.0000
# 4 0.0000 0.0000 0.0000 30.5310 0.0000 4.4546
# 5 -7.1372 -0.7797 -7.3401 0.0000 25.6871 0.0000
# 6 0.0000 0.0000 0.0000 4.4546 0.0000 20.7364
#
#
#
# Elastic Compliance Matrix: (Units=1/GPa)
#
#
# Indices 1 2 3 4 5 6 
#
# 1 0.014696 -0.002814 -0.007255 0.000000 0.001925 0.000000
# 2 -0.002814 0.029330 -0.000568 0.000000 -0.000054 0.000000
# 3 -0.007255 -0.000568 0.012381 0.000000 0.001505 0.000000
# 4 0.000000 0.000000 0.000000 0.033813 0.000000 -0.007264
# 5 0.001925 -0.000054 0.001505 0.000000 0.039893 0.000000
# 6 0.000000 0.000000 0.000000 -0.007264 0.000000 0.049785
#
#
# Mechanical properties :
#
#
# Convention : Reuss Voigt Hill
#
# Bulk Modulus (GPa) = 28.46164 45.83258 37.14711
# Shear Modulus (GPa) = 23.48717 27.01004 25.24860
#
# Velocity S-wave (km/s) = 3.41730 3.66463 3.54313
# Velocity P-wave (km/s) = 5.45178 6.37921 5.93364
#
# Compressibility (1/GPa) = 0.03513501
#
# Stress axis : x y z
#
# Youngs Moduli (GPa) = 68.04580 34.09517 80.76657
#
# Poissons Ratio (x) = 0.09593 0.58595
# Poissons Ratio (y) = 0.19146 0.04584
# Poissons Ratio (z) = 0.49366 0.01935
#
# Static dielectric constant tensor:
#      x y z
#    x 3.831380 0.000000 -0.113750 
#    y 0.000000 3.438550 0.000000 
#    z -0.113750 0.000000 3.665600 
# 
# 
# High freq. dielectric constant tensor:
#      x y z
#    x 1.788110 0.000000 0.002060 
#    y 0.000000 1.769270 0.000000 
#    z 0.002060 0.000000 1.791570 
# 
# From -- ./inp_files/24792.got.cif
#   From: 2010.03.12/outbox.cif.g09.slc.cpg/sg8_13_cif.got.tgz:24792.got - 2010.03.31 10:45:26.
