data_PCOD8053504
_publ_section_title
;
Structure prediction by ZEFSAII (Michael W. Deem and Ramdas Pophale) SiO2 
 PCOD8053504
Probable space group: C M
;
_chemical_formula_sum "Si O2"
_cell_formula_units_Z 24
_cell_length_a 18.746456
_cell_length_b 8.828849
_cell_length_c 11.890825
_cell_angle_alpha 90.000000
_cell_angle_beta 140.467240
_cell_angle_gamma 90.000000
_cell_volume 1252.699302
_symmetry_space_group_name_H-M "C M"
_symmetry_group_IT_number 8
_symmetry_cell_setting 'monoclinic'
loop_
_space_group_symop_operation_xyz
x,y,z
x,-y,z
1/2+x,1/2+y,z
1/2+x,1/2-y,z
loop_
_atom_site_type_symbol
_atom_site_label
_atom_site_fract_x
_atom_site_fract_y
_atom_site_fract_z
Si Si1 0.468710 0.821030 0.195670
Si Si2 0.295348 0.675864 0.148223
Si Si3 0.202930 0.179410 0.486626
Si Si4 0.910021 0.321982 0.880685
Si Si5 0.038515 0.323304 0.820554
Si Si6 0.839362 0.822449 0.458443
O O1 0.372518 0.780096 0.165948
O O2 0.584146 0.747515 0.376634
O O3 0.484050 0.000000 0.209906
O O4 0.436731 0.750497 0.034711
O O5 0.323552 0.500000 0.162247
O O6 0.315686 0.720980 0.301493
O O7 0.168096 0.712901 0.958603
O O8 0.289426 0.233176 0.688579
O O9 0.245240 0.239997 0.418103
O O10 0.195057 0.000000 0.470000
O O11 0.908370 0.500000 0.894109
O O12 0.005273 0.273940 0.906961
O O13 0.010759 0.500000 0.770302
O O14 0.964960 0.230573 0.641628
O O15 0.827382 0.000000 0.464763
#
# Coordination Sequence:
#
# PCOD8053504 Si02
#       6
#     4   4   4   4   4   4
#     4  11  22  36  55  80 110 143 182 223 264 316
#     4  10  22  38  54  76 112 151 179 213 269 325
#     4  10  20  37  59  81 108 141 178 220 270 323
#     4   8  17  35  57  78 103 138 175 217 270 320
#     4   9  18  36  59  79 103 139 182 224 268 318
#     4  10  20  36  58  82 108 140 180 223 267 316
#
# _framework density 19.158626999999999
#
# number of rings (size 3 to 8) (size 9 to 14) (size 15 to 20)
#    0.000    2.333    0.000    3.500    0.000    6.000 
#    0.000   16.667    0.000    0.000    0.000    0.000 
#    0.000    0.000    0.000    0.000    0.000    0.000 
#
# Total GULP energy -148817.376576 kJ/mol
# GULP energy per Si atom -12401.448048 kJ/mol
# Density = 1.911502 g / cm^3
# Si number density = 19.158627 Si / 1000 Ang^3
#
#
#
# Elastic Constant Matrix: (Units=GPa)
#
#
# Indices 1 2 3 4 5 6 
#
# 1 88.2212 32.5690 35.2156 0.0000 23.4030 0.0000
# 2 32.5690 54.8777 21.9042 0.0000 2.8338 0.0000
# 3 35.2156 21.9042 69.1838 0.0000 12.9408 0.0000
# 4 0.0000 0.0000 0.0000 26.5883 0.0000 0.4215
# 5 23.4030 2.8338 12.9408 0.0000 26.9201 0.0000
# 6 0.0000 0.0000 0.0000 0.4215 0.0000 32.5539
#
#
#
# Elastic Compliance Matrix: (Units=1/GPa)
#
#
# Indices 1 2 3 4 5 6 
#
# 1 0.020670 -0.009622 -0.004728 0.000000 -0.014684 0.000000
# 2 -0.009622 0.025365 -0.004613 0.000000 0.007912 0.000000
# 3 -0.004728 -0.004613 0.019187 0.000000 -0.004627 0.000000
# 4 0.000000 0.000000 0.000000 0.037618 0.000000 -0.000487
# 5 -0.014684 0.007912 -0.004627 0.000000 0.051304 0.000000
# 6 0.000000 0.000000 0.000000 -0.000487 0.000000 0.030725
#
#
# Mechanical properties :
#
#
# Convention : Reuss Voigt Hill
#
# Bulk Modulus (GPa) = 36.63574 43.51781 40.07678
# Shear Modulus (GPa) = 21.56155 25.38540 23.47348
#
# Velocity S-wave (km/s) = 3.35837 3.64402 3.50411
# Velocity P-wave (km/s) = 5.84825 6.36152 6.11028
#
# Compressibility (1/GPa) = 0.02729575
#
# Stress axis : x y z
#
# Youngs Moduli (GPa) = 48.37963 39.42376 52.11797
#
# Poissons Ratio (x) = 0.37932 0.24644
# Poissons Ratio (y) = 0.46549 0.24044
# Poissons Ratio (z) = 0.22876 0.18187
#
# Static dielectric constant tensor:
#      x y z
#    x 3.446630 0.000000 0.004360 
#    y 0.000000 3.336600 0.000000 
#    z 0.004360 0.000000 3.779170 
# 
# 
# High freq. dielectric constant tensor:
#      x y z
#    x 1.741550 0.000000 0.005800 
#    y 0.000000 1.732260 0.000000 
#    z 0.005800 0.000000 1.757610 
# 
# From -- ./inp_files/22692.got.cif
#   From: 2010.03.12/outbox.cif.g09.slc.cpg/sg8_12_cif.got.tgz:22692.got - 2010.03.31 10:45:26.
