data_PCOD8053499
_publ_section_title
;
Structure prediction by ZEFSAII (Michael W. Deem and Ramdas Pophale) SiO2 
 PCOD8053499
Probable space group: C M
;
_chemical_formula_sum "Si O2"
_cell_formula_units_Z 32
_cell_length_a 14.424806
_cell_length_b 8.916040
_cell_length_c 28.382438
_cell_angle_alpha 90.000000
_cell_angle_beta 152.205552
_cell_angle_gamma 90.000000
_cell_volume 1702.150516
_symmetry_space_group_name_H-M "C M"
_symmetry_group_IT_number 8
_symmetry_cell_setting 'monoclinic'
loop_
_space_group_symop_operation_xyz
x,y,z
x,-y,z
1/2+x,1/2+y,z
1/2+x,1/2-y,z
loop_
_atom_site_type_symbol
_atom_site_label
_atom_site_fract_x
_atom_site_fract_y
_atom_site_fract_z
Si Si1 0.323140 0.324446 0.189080
Si Si2 0.526395 0.176156 0.190774
Si Si3 0.498597 0.171146 0.833145
Si Si4 0.327667 0.669447 0.566329
Si Si5 0.698956 0.176309 0.758761
Si Si6 0.964519 0.170732 0.356525
Si Si7 0.963536 0.169686 0.725311
Si Si8 0.444518 0.326711 0.057643
O O1 0.299456 0.500000 0.167796
O O2 0.443176 0.247098 0.201083
O O3 0.441145 0.296414 0.290626
O O4 0.104528 0.253857 0.096115
O O5 0.762084 0.206588 0.293513
O O6 0.423491 0.251100 0.099348
O O7 0.479363 0.000000 0.168692
O O8 0.412779 0.270162 0.837017
O O9 0.398157 0.231837 0.740199
O O10 0.434520 0.000000 0.811885
O O11 0.734832 0.190495 0.937198
O O12 0.373966 0.500000 0.570994
O O13 0.522987 0.771352 0.643146
O O14 0.292828 0.674845 0.607779
O O15 0.134350 0.723277 0.452517
O O16 0.663833 0.256974 0.793281
O O17 0.695024 0.000000 0.763800
O O18 0.028537 0.000000 0.393886
O O19 0.006985 0.000000 0.761302
O O20 0.504522 0.500000 0.091274
#
# Coordination Sequence:
#
# PCOD8053499 Si02
#       8
#     4   4   4   4   4   4   4   4
#     4  10  21  38  59  85 114 146 185 229 277 332
#     4  10  21  38  59  85 114 146 186 228 276 334
#     4  11  22  37  58  84 111 147 190 230 278 332
#     4   9  19  36  57  82 113 148 185 229 278 326
#     4  10  20  36  57  79 110 148 185 229 275 323
#     4   9  19  36  57  82 112 147 186 228 277 329
#     4   9  20  37  55  80 111 145 186 228 274 325
#     4  10  22  38  58  83 113 147 185 231 281 331
#
# _framework density 18.799748000000001
#
# number of rings (size 3 to 8) (size 9 to 14) (size 15 to 20)
#    0.750    1.500    0.000    3.750    0.000    6.000 
#    2.250    0.000    0.000    0.000    0.000    0.000 
#    0.000    0.000    0.000    0.000    0.000    0.000 
#
# Total GULP energy -198329.658100 kJ/mol
# GULP energy per Si atom -12395.603631 kJ/mol
# Density = 1.875696 g / cm^3
# Si number density = 18.799748 Si / 1000 Ang^3
#
#
#
# Elastic Constant Matrix: (Units=GPa)
#
#
# Indices 1 2 3 4 5 6 
#
# 1 99.0180 29.7187 9.8341 0.0003 -4.7694 0.0001
# 2 29.7187 111.5397 33.1715 -0.0003 0.1461 0.0000
# 3 9.8341 33.1715 51.4693 -0.0006 1.1717 -0.0003
# 4 0.0003 -0.0003 -0.0006 32.5858 -0.0003 0.5282
# 5 -4.7694 0.1461 1.1717 -0.0003 18.4192 -0.0002
# 6 0.0001 0.0000 -0.0003 0.5282 -0.0002 37.6654
#
#
#
# Elastic Compliance Matrix: (Units=1/GPa)
#
#
# Indices 1 2 3 4 5 6 
#
# 1 0.011135 -0.002868 -0.000346 0.000000 0.002928 0.000000
# 2 -0.002868 0.011832 -0.007069 0.000000 -0.000387 0.000000
# 3 -0.000346 -0.007069 0.024087 0.000000 -0.001566 0.000000
# 4 0.000000 0.000000 0.000000 0.030695 0.000000 -0.000430
# 5 0.002928 -0.000387 -0.001566 0.000000 0.055152 0.000000
# 6 0.000000 0.000000 0.000000 -0.000430 0.000000 0.026556
#
#
# Mechanical properties :
#
#
# Convention : Reuss Voigt Hill
#
# Bulk Modulus (GPa) = 37.75200 45.27507 41.51353
# Shear Modulus (GPa) = 26.47567 30.35426 28.41496
#
# Velocity S-wave (km/s) = 3.75680 4.02258 3.89196
# Velocity P-wave (km/s) = 6.24042 6.76091 6.50587
#
# Compressibility (1/GPa) = 0.02648866
#
# Stress axis : x y z
#
# Youngs Moduli (GPa) = 89.80446 84.51399 41.51653
#
# Poissons Ratio (x) = 0.24237 0.01436
# Poissons Ratio (y) = 0.25755 0.29348
# Poissons Ratio (z) = 0.03107 0.59744
#
# Static dielectric constant tensor:
#      x y z
#    x 3.350650 0.000000 -0.029150 
#    y 0.000000 3.547680 0.000000 
#    z -0.029150 0.000000 3.207140 
# 
# 
# High freq. dielectric constant tensor:
#      x y z
#    x 1.723200 0.000000 -0.002420 
#    y 0.000000 1.748920 0.000000 
#    z -0.002420 0.000000 1.712390 
# 
# From -- ./inp_files/26433.got.cif
#   From: 2010.03.12/outbox.cif.g09.slc.cpg/sg8_14_cif.got.tgz:26433.got - 2010.03.31 10:45:26.
