data_PCOD8053734
_publ_section_title
;
Structure prediction by ZEFSAII (Michael W. Deem and Ramdas Pophale) SiO2 
 PCOD8053734
Probable space group: C M
;
_chemical_formula_sum "Si O2"
_cell_formula_units_Z 32
_cell_length_a 24.445536
_cell_length_b 9.344749
_cell_length_c 23.326695
_cell_angle_alpha 90.000000
_cell_angle_beta 161.750396
_cell_angle_gamma 90.000000
_cell_volume 1668.717714
_symmetry_space_group_name_H-M "C M"
_symmetry_group_IT_number 8
_symmetry_cell_setting 'monoclinic'
loop_
_space_group_symop_operation_xyz
x,y,z
x,-y,z
1/2+x,1/2+y,z
1/2+x,1/2-y,z
loop_
_atom_site_type_symbol
_atom_site_label
_atom_site_fract_x
_atom_site_fract_y
_atom_site_fract_z
Si Si1 0.585180 0.836870 0.976630
Si Si2 0.591607 0.165607 0.359777
Si Si3 0.924745 0.664368 0.701345
Si Si4 0.585051 0.830200 0.105426
Si Si5 0.939435 0.332760 0.453372
Si Si6 0.781062 0.836491 0.995876
Si Si7 0.780825 0.163961 0.861624
Si Si8 0.918938 0.337791 0.303792
O O1 0.432281 0.812923 0.777966
O O2 0.645510 0.000000 0.038247
O O3 0.527704 0.789325 0.983194
O O4 0.752829 0.753831 0.120971
O O5 0.773214 0.239357 0.523540
O O6 0.437889 0.235019 0.170335
O O7 0.566505 0.189040 0.403012
O O8 0.601216 0.000000 0.352654
O O9 0.884212 0.500000 0.645664
O O10 0.106094 0.713439 0.853752
O O11 0.772401 0.760230 0.306103
O O12 0.596424 0.000000 0.126546
O O13 0.441254 0.764371 0.004011
O O14 0.895563 0.500000 0.419177
O O15 0.989839 0.298577 0.437473
O O16 0.104457 0.283910 0.654942
O O17 0.827403 0.000000 0.058389
O O18 0.747654 0.819861 0.895546
O O19 0.823826 0.000000 0.887330
O O20 0.853551 0.500000 0.237501
#
# Coordination Sequence:
#
# PCOD8053734 Si02
#       8
#     4   4   4   4   4   4   4   4
#     4   9  18  34  56  83 116 152 189 229 280 336
#     4  11  23  36  56  88 119 150 186 233 292 346
#     4  10  21  37  58  83 113 152 194 238 281 333
#     4  10  21  36  56  87 121 151 185 232 289 343
#     4   9  19  37  58  83 115 151 192 237 279 331
#     4  10  22  42  62  81 110 152 200 240 276 330
#     4  10  22  39  62  85 109 151 200 238 276 333
#     4   9  18  33  54  82 117 151 184 229 287 340
#
# _framework density 19.176400999999998
#
# number of rings (size 3 to 8) (size 9 to 14) (size 15 to 20)
#    0.000    2.250    1.250    0.750    1.750    4.000 
#    0.000    2.500    0.000    0.000    0.000    0.000 
#    0.000    0.000    0.000    0.000    0.000    0.000 
#
# Total GULP energy -198413.134394 kJ/mol
# GULP energy per Si atom -12400.820900 kJ/mol
# Density = 1.913275 g / cm^3
# Si number density = 19.176401 Si / 1000 Ang^3
#
#
#
# Elastic Constant Matrix: (Units=GPa)
#
#
# Indices 1 2 3 4 5 6 
#
# 1 68.1048 30.0113 40.3572 -0.0019 -3.2982 -0.0024
# 2 30.0113 82.0198 64.4923 0.0141 1.2133 0.0055
# 3 40.3572 64.4923 131.3034 0.0120 -4.0145 0.0086
# 4 -0.0019 0.0141 0.0120 31.9108 0.0053 1.4224
# 5 -3.2982 1.2133 -4.0145 0.0053 22.4544 0.0026
# 6 -0.0024 0.0055 0.0086 1.4224 0.0026 26.3829
#
#
#
# Elastic Compliance Matrix: (Units=1/GPa)
#
#
# Indices 1 2 3 4 5 6 
#
# 1 0.018759 -0.003942 -0.003759 0.000004 0.002296 0.000003
# 2 -0.003942 0.020873 -0.009143 -0.000005 -0.003341 -0.000001
# 3 -0.003759 -0.009143 0.013333 -0.000001 0.002326 -0.000003
# 4 0.000004 -0.000005 -0.000001 0.031413 -0.000007 -0.001694
# 5 0.002296 -0.003341 0.002326 -0.000007 0.045468 -0.000004
# 6 0.000003 -0.000001 -0.000003 -0.001694 -0.000004 0.037995
#
#
# Mechanical properties :
#
#
# Convention : Reuss Voigt Hill
#
# Bulk Modulus (GPa) = 51.87499 61.23884 56.55691
# Shear Modulus (GPa) = 24.04365 25.92077 24.98221
#
# Velocity S-wave (km/s) = 3.54477 3.68054 3.61329
# Velocity P-wave (km/s) = 6.62299 7.07571 6.85309
#
# Compressibility (1/GPa) = 0.01927711
#
# Stress axis : x y z
#
# Youngs Moduli (GPa) = 53.30687 47.90898 75.00100
#
# Poissons Ratio (x) = 0.18886 0.28196
# Poissons Ratio (y) = 0.21014 0.68571
# Poissons Ratio (z) = 0.20040 0.43802
#
# Static dielectric constant tensor:
#      x y z
#    x 3.554410 0.000000 -0.078650 
#    y 0.000000 3.520360 0.000020 
#    z -0.078650 0.000020 3.343330 
# 
# 
# High freq. dielectric constant tensor:
#      x y z
#    x 1.746510 0.000000 -0.004590 
#    y 0.000000 1.744360 0.000000 
#    z -0.004590 0.000000 1.738590 
# 
# From -- ./inp_files/32432.got.cif
#   From: 2010.03.12/outbox.cif.g09.slc.cpg/sg8_17_cif.got.tgz:32432.got - 2010.03.31 10:45:26.
