data_PCOD8053755
_publ_section_title
;
Structure prediction by ZEFSAII (Michael W. Deem and Ramdas Pophale) SiO2 
 PCOD8053755
Probable space group: C M
;
_chemical_formula_sum "Si O2"
_cell_formula_units_Z 32
_cell_length_a 28.098880
_cell_length_b 9.283750
_cell_length_c 9.220413
_cell_angle_alpha 90.000000
_cell_angle_beta 132.609874
_cell_angle_gamma 90.000000
_cell_volume 1770.227511
_symmetry_space_group_name_H-M "C M"
_symmetry_group_IT_number 8
_symmetry_cell_setting 'monoclinic'
loop_
_space_group_symop_operation_xyz
x,y,z
x,-y,z
1/2+x,1/2+y,z
1/2+x,1/2-y,z
loop_
_atom_site_type_symbol
_atom_site_label
_atom_site_fract_x
_atom_site_fract_y
_atom_site_fract_z
Si Si1 0.440410 0.165307 0.976760
Si Si2 0.825929 0.328787 0.536819
Si Si3 0.840718 0.168203 0.268701
Si Si4 0.582068 0.162143 0.262479
Si Si5 0.719921 0.836687 0.485880
Si Si6 0.956640 0.166554 0.305552
Si Si7 0.720683 0.166408 0.826479
Si Si8 0.098933 0.166349 0.580266
O O1 0.386377 0.227280 0.757148
O O2 0.424966 0.000000 0.978879
O O3 0.511112 0.182234 0.044283
O O4 0.437861 0.245386 0.124263
O O5 0.823688 0.500000 0.520718
O O6 0.833022 0.263964 0.393442
O O7 0.759814 0.273623 0.471552
O O8 0.909285 0.207381 0.338652
O O9 0.835960 0.000000 0.299637
O O10 0.785511 0.213896 0.041122
O O11 0.643741 0.178330 0.282278
O O12 0.589225 0.285323 0.395587
O O13 0.586037 0.000000 0.340371
O O14 0.728049 0.795477 0.671948
O O15 0.744246 0.000000 0.508407
O O16 0.029688 0.198081 0.514134
O O17 0.948913 0.000000 0.245829
O O18 0.659401 0.247856 0.773229
O O19 0.706423 0.000000 0.819295
O O20 0.117260 0.000000 0.623706
#
# Coordination Sequence:
#
# PCOD8053755 Si02
#       8
#     4   4   4   4   4   4   4   4
#     4   9  18  33  53  76 101 129 162 202 247 293
#     4  11  23  35  48  72 104 133 164 205 251 294
#     4  10  21  37  53  69  96 135 174 206 238 286
#     4   8  15  30  51  73  98 128 164 202 238 286
#     4   9  17  32  55  77  97 126 163 203 245 291
#     4   9  18  33  54  78 100 126 164 205 244 291
#     4   9  18  33  54  77  98 127 168 205 239 289
#     4   9  16  27  48  78 106 126 151 198 254 296
#
# _framework density 18.076774
#
# number of rings (size 3 to 8) (size 9 to 14) (size 15 to 20)
#    0.000    2.750    0.000    2.250    0.000    5.500 
#    0.000    1.250    0.000    4.500    0.000    0.000 
#    0.000    0.000    0.000    0.000    0.000    0.000 
#
# Total GULP energy -198288.274264 kJ/mol
# GULP energy per Si atom -12393.017141 kJ/mol
# Density = 1.803563 g / cm^3
# Si number density = 18.076774 Si / 1000 Ang^3
#
#
#
# Elastic Constant Matrix: (Units=GPa)
#
#
# Indices 1 2 3 4 5 6 
#
# 1 137.6886 58.2820 63.8779 0.0000 21.2905 0.0000
# 2 58.2820 63.8379 32.9250 0.0000 4.4012 0.0000
# 3 63.8779 32.9250 41.3462 0.0000 8.1303 0.0000
# 4 0.0000 0.0000 0.0000 26.3526 0.0000 1.7011
# 5 21.2905 4.4012 8.1303 0.0000 27.3474 0.0000
# 6 0.0000 0.0000 0.0000 1.7011 0.0000 28.6586
#
#
#
# Elastic Compliance Matrix: (Units=1/GPa)
#
#
# Indices 1 2 3 4 5 6 
#
# 1 0.029170 -0.006322 -0.037987 0.000000 -0.010399 0.000000
# 2 -0.006322 0.028071 -0.013452 0.000000 0.004404 0.000000
# 3 -0.037987 -0.013452 0.092769 0.000000 0.004159 0.000000
# 4 0.000000 0.000000 0.000000 0.038093 0.000000 -0.002261
# 5 -0.010399 0.004404 0.004159 0.000000 0.042717 0.000000
# 6 0.000000 0.000000 0.000000 -0.002261 0.000000 0.035028
#
#
# Mechanical properties :
#
#
# Convention : Reuss Voigt Hill
#
# Bulk Modulus (GPa) = 28.99626 61.44915 45.22270
# Shear Modulus (GPa) = 12.72696 22.32425 17.52560
#
# Velocity S-wave (km/s) = 2.65627 3.51802 3.11707
# Velocity P-wave (km/s) = 5.04808 7.11120 6.16654
#
# Compressibility (1/GPa) = 0.03448721
#
# Stress axis : x y z
#
# Youngs Moduli (GPa) = 34.28137 35.62379 10.77947
#
# Poissons Ratio (x) = 0.22523 0.40948
# Poissons Ratio (y) = 0.21674 0.14500
# Poissons Ratio (z) = 1.30226 0.47921
#
# Static dielectric constant tensor:
#      x y z
#    x 3.498120 0.000000 0.481180 
#    y 0.000000 3.324780 0.000000 
#    z 0.481180 0.000000 3.367610 
# 
# 
# High freq. dielectric constant tensor:
#      x y z
#    x 1.696720 0.000000 0.037410 
#    y 0.000000 1.700480 0.000000 
#    z 0.037410 0.000000 1.680660 
# 
# From -- ./inp_files/15829.got.cif
#   From: 2010.03.12/outbox.cif.g09.slc.cpg/sg8_8_cif.got.tgz:15829.got - 2010.03.31 10:45:26.
