data_PCOD8053463
_publ_section_title
;
Structure prediction by ZEFSAII (Michael W. Deem and Ramdas Pophale) SiO2 
 PCOD8053463
Probable space group: C M
;
_chemical_formula_sum "Si O2"
_cell_formula_units_Z 32
_cell_length_a 20.332508
_cell_length_b 8.862845
_cell_length_c 12.067857
_cell_angle_alpha 90.000000
_cell_angle_beta 52.187798
_cell_angle_gamma 90.000000
_cell_volume 1718.046059
_symmetry_space_group_name_H-M "C M"
_symmetry_group_IT_number 8
_symmetry_cell_setting 'monoclinic'
loop_
_space_group_symop_operation_xyz
x,y,z
x,-y,z
1/2+x,1/2+y,z
1/2+x,1/2-y,z
loop_
_atom_site_type_symbol
_atom_site_label
_atom_site_fract_x
_atom_site_fract_y
_atom_site_fract_z
Si Si1 0.668070 0.174488 0.953270
Si Si2 0.842981 0.322666 0.808150
Si Si3 0.099915 0.826553 0.811010
Si Si4 0.902002 0.176945 0.533900
Si Si5 0.010247 0.326746 0.249799
Si Si6 0.413391 0.324402 0.951286
Si Si7 0.766753 0.327739 0.526194
Si Si8 0.373271 0.826195 0.214350
O O1 0.747771 0.277858 0.885717
O O2 0.618954 0.217796 0.893270
O O3 0.695066 0.000000 0.918034
O O4 0.606577 0.201682 0.120984
O O5 0.850801 0.500000 0.790658
O O6 0.903111 0.249190 0.654532
O O7 0.870379 0.270298 0.900255
O O8 0.168570 0.800393 0.643865
O O9 0.010937 0.782690 0.852530
O O10 0.100242 0.000000 0.851817
O O11 0.817733 0.223177 0.557635
O O12 0.984433 0.228321 0.382599
O O13 0.903972 0.000000 0.546301
O O14 0.992730 0.500000 0.297818
O O15 0.954080 0.281003 0.202481
O O16 0.398342 0.500000 0.944454
O O17 0.369471 0.280290 0.111799
O O18 0.791800 0.500000 0.528991
O O19 0.791095 0.293444 0.373687
O O20 0.377486 0.000000 0.171719
#
# Coordination Sequence:
#
# PCOD8053463 Si02
#       8
#     4   4   4   4   4   4   4   4
#     4  11  21  36  60  89 117 147 192 243 285 339
#     4  12  25  41  59  80 115 159 197 237 295 349
#     4  10  20  35  58  86 116 151 190 236 285 337
#     4  11  21  34  56  86 116 149 192 239 285 338
#     4   9  19  35  57  85 118 151 185 232 288 343
#     4  11  23  38  57  84 116 151 195 241 286 341
#     4   9  18  34  56  83 115 151 188 232 284 339
#     4   9  17  33  55  81 113 151 189 226 284 346
#
# _framework density 18.625810000000001
#
# number of rings (size 3 to 8) (size 9 to 14) (size 15 to 20)
#    0.000    1.750    2.500    3.750    0.000    3.500 
#    0.000    1.250    0.000    4.500    0.000    0.000 
#    0.000    0.000    0.000    0.000    0.000    0.000 
#
# Total GULP energy -198443.639406 kJ/mol
# GULP energy per Si atom -12402.727463 kJ/mol
# Density = 1.858342 g / cm^3
# Si number density = 18.625810 Si / 1000 Ang^3
#
#
#
# Elastic Constant Matrix: (Units=GPa)
#
#
# Indices 1 2 3 4 5 6 
#
# 1 46.1500 30.7224 28.1080 0.0000 7.5327 0.0000
# 2 30.7224 112.6665 50.3362 0.0000 10.0685 0.0000
# 3 28.1080 50.3362 121.2505 0.0000 5.2810 0.0000
# 4 0.0000 0.0000 0.0000 32.8941 0.0000 1.7575
# 5 7.5327 10.0685 5.2810 0.0000 24.4983 0.0000
# 6 0.0000 0.0000 0.0000 1.7575 0.0000 25.4966
#
#
#
# Elastic Compliance Matrix: (Units=1/GPa)
#
#
# Indices 1 2 3 4 5 6 
#
# 1 0.028775 -0.005485 -0.004145 0.000000 -0.005700 0.000000
# 2 -0.005485 0.012255 -0.003705 0.000000 -0.002551 0.000000
# 3 -0.004145 -0.003705 0.010725 0.000000 0.000485 0.000000
# 4 0.000000 0.000000 0.000000 0.030513 0.000000 -0.002103
# 5 -0.005700 -0.002551 0.000485 0.000000 0.043516 0.000000
# 6 0.000000 0.000000 0.000000 -0.002103 0.000000 0.039366
#
#
# Mechanical properties :
#
#
# Convention : Reuss Voigt Hill
#
# Bulk Modulus (GPa) = 39.86507 55.37780 47.62143
# Shear Modulus (GPa) = 24.97739 27.97115 26.47427
#
# Velocity S-wave (km/s) = 3.66595 3.87944 3.77420
# Velocity P-wave (km/s) = 6.27444 7.06137 6.67950
#
# Compressibility (1/GPa) = 0.02508462
#
# Stress axis : x y z
#
# Youngs Moduli (GPa) = 34.75245 81.60178 93.23854
#
# Poissons Ratio (x) = 0.44760 0.38649
# Poissons Ratio (y) = 0.19062 0.34542
# Poissons Ratio (z) = 0.14405 0.30231
#
# Static dielectric constant tensor:
#      x y z
#    x 3.136400 0.000000 -0.120380 
#    y 0.000000 3.402690 0.000000 
#    z -0.120380 0.000000 3.720310 
# 
# 
# High freq. dielectric constant tensor:
#      x y z
#    x 1.687490 0.000000 -0.007350 
#    y 0.000000 1.726860 0.000000 
#    z -0.007350 0.000000 1.741350 
# 
# From -- ./inp_files/23864.got.cif
#   From: 2010.03.12/outbox.cif.g09.slc.cpg/sg8_12_cif.got.tgz:23864.got - 2010.03.31 10:45:26.
