data_PCOD8053783
_publ_section_title
;
Structure prediction by ZEFSAII (Michael W. Deem and Ramdas Pophale) SiO2 
 PCOD8053783
Probable space group: C M
;
_chemical_formula_sum "Si O2"
_cell_formula_units_Z 32
_cell_length_a 12.043836
_cell_length_b 19.910638
_cell_length_c 8.789058
_cell_angle_alpha 90.000000
_cell_angle_beta 132.945441
_cell_angle_gamma 90.000000
_cell_volume 1542.783827
_symmetry_space_group_name_H-M "C M"
_symmetry_group_IT_number 8
_symmetry_cell_setting 'monoclinic'
loop_
_space_group_symop_operation_xyz
x,y,z
x,-y,z
1/2+x,1/2+y,z
1/2+x,1/2-y,z
loop_
_atom_site_type_symbol
_atom_site_label
_atom_site_fract_x
_atom_site_fract_y
_atom_site_fract_z
Si Si1 0.584950 0.341703 0.131560
Si Si2 0.735963 0.194204 0.776188
Si Si3 0.283281 0.254531 0.513048
Si Si4 0.043178 0.656201 0.846394
Si Si5 0.780811 0.687221 0.031625
Si Si6 0.064050 0.924198 0.383114
Si Si7 0.847906 0.424140 0.863746
Si Si8 0.348907 0.306021 0.275535
O O1 0.655411 0.282006 0.296544
O O2 0.621983 0.409325 0.264488
O O3 0.405333 0.332315 0.955171
O O4 0.655714 0.345293 0.029025
O O5 0.699861 0.201220 0.564229
O O6 0.615435 0.143198 0.745080
O O7 0.705505 0.265750 0.831417
O O8 0.398713 0.205619 0.707835
O O9 0.375669 0.301780 0.481595
O O10 0.984849 0.588196 0.871598
O O11 0.169394 0.689665 0.071770
O O12 0.863378 0.625580 0.022939
O O13 0.897195 0.735187 0.238054
O O14 0.930601 0.871341 0.288788
O O15 0.191241 0.912695 0.628388
O O16 0.001222 0.000000 0.332339
O O17 0.861357 0.500000 0.936810
#
# Coordination Sequence:
#
# PCOD8053783 Si02
#       8
#     4   4   4   4   4   4   4   4
#     4  11  22  39  59  93 127 161 208 261 305 382
#     4  11  21  35  60  93 127 155 207 259 327 357
#     4  11  22  35  62  92 132 157 202 270 315 367
#     4  11  22  38  59  94 124 164 203 260 320 368
#     4  10  21  37  63  91 127 154 213 260 312 361
#     4  11  23  43  65  89 128 174 211 253 313 387
#     4  11  25  44  65  89 128 175 214 251 317 389
#     4  10  24  37  63 101 123 160 214 264 321 363
#
# _framework density 20.741727000000001
#
# number of rings (size 3 to 8) (size 9 to 14) (size 15 to 20)
#    0.000    1.250    5.000    2.250    7.000    1.000 
#    0.000    0.000    0.000    0.750    0.000    0.000 
#    0.000    0.000    0.000    0.000    0.000    0.000 
#
# Total GULP energy -198251.513049 kJ/mol
# GULP energy per Si atom -12390.719566 kJ/mol
# Density = 2.069452 g / cm^3
# Si number density = 20.741727 Si / 1000 Ang^3
#
#
#
# Elastic Constant Matrix: (Units=GPa)
#
#
# Indices 1 2 3 4 5 6 
#
# 1 147.4134 67.4197 37.7042 0.0000 -28.0373 0.0000
# 2 67.4197 120.2678 30.6975 0.0000 -18.3884 0.0000
# 3 37.7042 30.6975 62.2146 0.0000 -21.2095 0.0000
# 4 0.0000 0.0000 0.0000 17.2393 0.0000 0.1870
# 5 -28.0373 -18.3884 -21.2095 0.0000 43.3340 0.0000
# 6 0.0000 0.0000 0.0000 0.1870 0.0000 27.4563
#
#
#
# Elastic Compliance Matrix: (Units=1/GPa)
#
#
# Indices 1 2 3 4 5 6 
#
# 1 0.010187 -0.004482 -0.002837 0.000000 0.003301 0.000000
# 2 -0.004482 0.011645 -0.002801 0.000000 0.000671 0.000000
# 3 -0.002837 -0.002801 0.021777 0.000000 0.007635 0.000000
# 4 0.000000 0.000000 0.000000 0.058011 0.000000 -0.000395
# 5 0.003301 0.000671 0.007635 0.000000 0.029233 0.000000
# 6 0.000000 0.000000 0.000000 -0.000395 0.000000 0.036424
#
#
# Mechanical properties :
#
#
# Convention : Reuss Voigt Hill
#
# Bulk Modulus (GPa) = 42.79057 66.83761 54.81409
# Shear Modulus (GPa) = 25.60074 30.54420 28.07247
#
# Velocity S-wave (km/s) = 3.51702 3.84161 3.68289
# Velocity P-wave (km/s) = 6.09652 7.20909 6.67602
#
# Compressibility (1/GPa) = 0.02336964
#
# Stress axis : x y z
#
# Youngs Moduli (GPa) = 98.16692 85.87680 45.91904
#
# Poissons Ratio (x) = 0.38488 0.13027
# Poissons Ratio (y) = 0.43996 0.12861
# Poissons Ratio (z) = 0.27850 0.24053
#
# Static dielectric constant tensor:
#      x y z
#    x 4.239260 0.000000 -0.357130 
#    y 0.000000 3.589210 0.000000 
#    z -0.357130 0.000000 3.796860 
# 
# 
# High freq. dielectric constant tensor:
#      x y z
#    x 1.828740 0.000000 -0.011350 
#    y 0.000000 1.765050 0.000000 
#    z -0.011350 0.000000 1.811740 
# 
# From -- ./inp_files/11465.got.cif
#   From: 2010.03.12/outbox.cif.g09.slc.cpg/sg8_6_cif.got.tgz:11465.got - 2010.03.31 10:45:26.
