data_PCOD8053810
_publ_section_title
;
Structure prediction by ZEFSAII (Michael W. Deem and Ramdas Pophale) SiO2 
 PCOD8053810
Probable space group: C M
;
_chemical_formula_sum "Si O2"
_cell_formula_units_Z 32
_cell_length_a 19.430361
_cell_length_b 8.781388
_cell_length_c 11.909863
_cell_angle_alpha 90.000000
_cell_angle_beta 51.595753
_cell_angle_gamma 90.000000
_cell_volume 1592.470904
_symmetry_space_group_name_H-M "C M"
_symmetry_group_IT_number 8
_symmetry_cell_setting 'monoclinic'
loop_
_space_group_symop_operation_xyz
x,y,z
x,-y,z
1/2+x,1/2+y,z
1/2+x,1/2-y,z
loop_
_atom_site_type_symbol
_atom_site_label
_atom_site_fract_x
_atom_site_fract_y
_atom_site_fract_z
Si Si1 0.064360 0.680070 0.697110
Si Si2 0.076605 0.320832 0.944340
Si Si3 0.425579 0.321639 0.681232
Si Si4 0.224466 0.319111 0.383543
Si Si5 0.013218 0.172148 0.359906
Si Si6 0.188158 0.677233 0.170630
Si Si7 0.417661 0.674751 0.235487
Si Si8 0.244128 0.179430 0.896434
O O1 0.054311 0.500000 0.692388
O O2 0.074387 0.727242 0.816278
O O3 0.149822 0.743381 0.543696
O O4 0.976364 0.757211 0.737949
O O5 0.087661 0.500000 0.947188
O O6 0.159701 0.243430 0.918112
O O7 0.986233 0.269844 0.092962
O O8 0.409274 0.500000 0.713230
O O9 0.482256 0.282704 0.514501
O O10 0.333123 0.240740 0.751778
O O11 0.222860 0.500000 0.390075
O O12 0.206246 0.259839 0.276653
O O13 0.320250 0.256718 0.319510
O O14 0.086861 0.290130 0.244837
O O15 0.934554 0.187157 0.351179
O O16 0.051203 0.000000 0.319616
O O17 0.209271 0.500000 0.137099
O O18 0.247718 0.768020 0.022413
O O19 0.422888 0.500000 0.188917
O O20 0.240579 0.000000 0.892283
#
# Coordination Sequence:
#
# PCOD8053810 Si02
#       8
#     4   4   4   4   4   4   4   4
#     4  10  22  42  64  89 125 166 206 253 309 365
#     4  11  24  41  63  91 124 162 207 258 309 367
#     4  11  24  41  64  94 126 163 210 256 306 368
#     4   9  20  38  63  91 120 161 203 246 302 363
#     4  10  21  38  63  91 122 160 203 257 309 363
#     4  11  21  38  65  92 122 158 206 258 307 366
#     4  10  21  39  63  89 122 164 204 247 307 367
#     4  12  26  43  63  89 125 166 209 257 315 369
#
# _framework density 20.094557999999999
#
# number of rings (size 3 to 8) (size 9 to 14) (size 15 to 20)
#    0.000    1.500    2.500    2.250    3.500    1.500 
#    0.000    1.250    0.000    0.000    0.000    0.000 
#    0.000    0.000    0.000    0.000    0.000    0.000 
#
# Total GULP energy -198450.714262 kJ/mol
# GULP energy per Si atom -12403.169641 kJ/mol
# Density = 2.004882 g / cm^3
# Si number density = 20.094558 Si / 1000 Ang^3
#
#
#
# Elastic Constant Matrix: (Units=GPa)
#
#
# Indices 1 2 3 4 5 6 
#
# 1 108.0912 31.1304 39.0392 0.0000 -5.6138 0.0000
# 2 31.1304 77.7780 34.3746 0.0000 1.9071 0.0000
# 3 39.0392 34.3746 82.1313 0.0000 7.6529 0.0000
# 4 0.0000 0.0000 0.0000 32.7681 0.0000 -3.0273
# 5 -5.6138 1.9071 7.6529 0.0000 39.8399 0.0000
# 6 0.0000 0.0000 0.0000 -3.0273 0.0000 25.5013
#
#
#
# Elastic Compliance Matrix: (Units=1/GPa)
#
#
# Indices 1 2 3 4 5 6 
#
# 1 0.011900 -0.002721 -0.004771 0.000000 0.002724 0.000000
# 2 -0.002721 0.016408 -0.005565 0.000000 -0.000100 0.000000
# 3 -0.004771 -0.005565 0.017117 0.000000 -0.003694 0.000000
# 4 0.000000 0.000000 0.000000 0.030856 0.000000 0.003663
# 5 0.002724 -0.000100 -0.003694 0.000000 0.026199 0.000000
# 6 0.000000 0.000000 0.000000 0.003663 0.000000 0.039649
#
#
# Mechanical properties :
#
#
# Convention : Reuss Voigt Hill
#
# Bulk Modulus (GPa) = 51.78448 53.00986 52.39717
# Shear Modulus (GPa) = 28.62413 30.51896 29.57155
#
# Velocity S-wave (km/s) = 3.77831 3.90136 3.84033
# Velocity P-wave (km/s) = 6.69780 6.83606 6.76728
#
# Compressibility (1/GPa) = 0.01931080
#
# Stress axis : x y z
#
# Youngs Moduli (GPa) = 84.03536 60.94623 58.42253
#
# Poissons Ratio (x) = 0.16583 0.27875
# Poissons Ratio (y) = 0.22865 0.32510
# Poissons Ratio (z) = 0.40095 0.33914
#
# Static dielectric constant tensor:
#      x y z
#    x 3.747330 0.000000 0.052490 
#    y 0.000000 3.499640 0.000000 
#    z 0.052490 0.000000 3.819640 
# 
# 
# High freq. dielectric constant tensor:
#      x y z
#    x 1.794510 0.000000 0.003090 
#    y 0.000000 1.771340 0.000000 
#    z 0.003090 0.000000 1.794200 
# 
# From -- ./inp_files/23850.got.cif
#   From: 2010.03.12/outbox.cif.g09.slc.cpg/sg8_12_cif.got.tgz:23850.got - 2010.03.31 10:45:26.
