data_PCOD8053156
_publ_section_title
;
Structure prediction by ZEFSAII (Michael W. Deem and Ramdas Pophale) SiO2 
 PCOD8053156
Probable space group: C M
;
_chemical_formula_sum "Si O2"
_cell_formula_units_Z 32
_cell_length_a 24.534019
_cell_length_b 8.891477
_cell_length_c 23.480419
_cell_angle_alpha 90.000000
_cell_angle_beta 18.079668
_cell_angle_gamma 90.000000
_cell_volume 1589.589404
_symmetry_space_group_name_H-M "C M"
_symmetry_group_IT_number 8
_symmetry_cell_setting 'monoclinic'
loop_
_space_group_symop_operation_xyz
x,y,z
x,-y,z
1/2+x,1/2+y,z
1/2+x,1/2-y,z
loop_
_atom_site_type_symbol
_atom_site_label
_atom_site_fract_x
_atom_site_fract_y
_atom_site_fract_z
Si Si1 0.987250 0.176847 0.974730
Si Si2 0.325318 0.329663 0.434198
Si Si3 0.776645 0.173964 0.610287
Si Si4 0.165291 0.329484 0.474883
Si Si5 0.681219 0.173610 0.082808
Si Si6 0.477824 0.823388 0.105017
Si Si7 0.145336 0.675525 0.246440
Si Si8 0.278209 0.825788 0.878892
O O1 0.135579 0.230823 0.784381
O O2 0.005726 0.000000 0.963258
O O3 0.018409 0.251858 0.004175
O O4 0.794302 0.220821 0.143604
O O5 0.402163 0.500000 0.357105
O O6 0.235269 0.298810 0.584608
O O7 0.186685 0.305597 0.521425
O O8 0.478619 0.210716 0.271262
O O9 0.972570 0.228336 0.431507
O O10 0.760498 0.000000 0.643335
O O11 0.215155 0.500000 0.408392
O O12 0.284470 0.220210 0.319059
O O13 0.961075 0.297070 0.664169
O O14 0.722825 0.214306 0.106990
O O15 0.716730 0.000000 0.034356
O O16 0.800996 0.272853 0.921780
O O17 0.488747 0.000000 0.088117
O O18 0.623720 0.768927 0.004223
O O19 0.095381 0.500000 0.299459
O O20 0.225800 0.000000 0.929410
#
# Coordination Sequence:
#
# PCOD8053156 Si02
#       8
#     4   4   4   4   4   4   4   4
#     4  11  24  43  66  88 119 167 210 251 301 367
#     4   9  18  35  59  88 125 163 199 245 303 362
#     4  10  21  37  61  94 127 160 201 254 304 355
#     4  10  22  40  63  90 121 162 206 247 301 369
#     4  10  19  34  58  91 127 161 199 250 305 357
#     4  12  26  44  64  89 122 160 205 263 310 356
#     4   9  21  40  61  89 124 163 205 248 303 364
#     4  11  23  39  62  91 123 164 205 246 303 370
#
# _framework density 20.130984999999999
#
# number of rings (size 3 to 8) (size 9 to 14) (size 15 to 20)
#    0.000    1.750    1.250    2.625    1.750    4.000 
#    0.000    1.250    0.000    0.000    0.000    0.000 
#    0.000    0.000    0.000    0.000    0.000    0.000 
#
# Total GULP energy -198437.674072 kJ/mol
# GULP energy per Si atom -12402.354629 kJ/mol
# Density = 2.008517 g / cm^3
# Si number density = 20.130985 Si / 1000 Ang^3
#
#
#
# Elastic Constant Matrix: (Units=GPa)
#
#
# Indices 1 2 3 4 5 6 
#
# 1 57.5437 35.5422 20.7219 -0.0199 12.2538 0.0054
# 2 35.5422 101.7144 47.4346 0.0116 6.5157 -0.0046
# 3 20.7219 47.4346 87.4980 -0.0032 12.1314 0.0016
# 4 -0.0199 0.0116 -0.0032 32.0113 -0.0024 8.4986
# 5 12.2538 6.5157 12.1314 -0.0024 25.8200 -0.0009
# 6 0.0054 -0.0046 0.0016 8.4986 -0.0009 29.9410
#
#
#
# Elastic Compliance Matrix: (Units=1/GPa)
#
#
# Indices 1 2 3 4 5 6 
#
# 1 0.024272 -0.007771 -0.000225 0.000020 -0.009452 -0.000012
# 2 -0.007771 0.015646 -0.007066 -0.000013 0.003060 0.000008
# 3 -0.000225 -0.007066 0.016099 0.000005 -0.005674 -0.000003
# 4 0.000020 -0.000013 0.000005 0.033785 -0.000006 -0.009590
# 5 -0.009452 0.003060 -0.005674 -0.000006 0.045110 0.000005
# 6 -0.000012 0.000008 -0.000003 -0.009590 0.000005 0.036121
#
#
# Mechanical properties :
#
#
# Convention : Reuss Voigt Hill
#
# Bulk Modulus (GPa) = 38.61930 50.46149 44.54040
# Shear Modulus (GPa) = 23.83365 27.09162 25.46263
#
# Velocity S-wave (km/s) = 3.44456 3.67245 3.56033
# Velocity P-wave (km/s) = 5.91994 6.56533 6.25097
#
# Compressibility (1/GPa) = 0.02589379
#
# Stress axis : x y z
#
# Youngs Moduli (GPa) = 41.20024 63.91376 62.11402
#
# Poissons Ratio (x) = 0.49667 0.01397
# Poissons Ratio (y) = 0.32016 0.43889
# Poissons Ratio (z) = 0.00926 0.45161
#
# Static dielectric constant tensor:
#      x y z
#    x 3.749600 0.000000 0.036360 
#    y 0.000000 3.676150 0.000040 
#    z 0.036360 0.000040 3.515700 
# 
# 
# High freq. dielectric constant tensor:
#      x y z
#    x 1.785650 0.000000 0.004990 
#    y 0.000000 1.789390 0.000000 
#    z 0.004990 0.000000 1.783090 
# 
# From -- ./inp_files/32409.got.cif
#   From: 2010.03.12/outbox.cif.g09.slc.cpg/sg8_17_cif.got.tgz:32409.got - 2010.03.31 10:45:26.
