data_PCOD8053487
_publ_section_title
;
Structure prediction by ZEFSAII (Michael W. Deem and Ramdas Pophale) SiO2 
 PCOD8053487
Probable space group: C M
;
_chemical_formula_sum "Si O2"
_cell_formula_units_Z 32
_cell_length_a 14.460051
_cell_length_b 8.966659
_cell_length_c 28.769415
_cell_angle_alpha 90.000000
_cell_angle_beta 152.274501
_cell_angle_gamma 90.000000
_cell_volume 1735.421034
_symmetry_space_group_name_H-M "C M"
_symmetry_group_IT_number 8
_symmetry_cell_setting 'monoclinic'
loop_
_space_group_symop_operation_xyz
x,y,z
x,-y,z
1/2+x,1/2+y,z
1/2+x,1/2-y,z
loop_
_atom_site_type_symbol
_atom_site_label
_atom_site_fract_x
_atom_site_fract_y
_atom_site_fract_z
Si Si1 0.740320 0.830747 0.973010
Si Si2 0.023256 0.323726 0.032363
Si Si3 0.573381 0.673868 0.403956
Si Si4 0.458510 0.323471 0.252937
Si Si5 0.373086 0.824584 0.402564
Si Si6 0.311172 0.167889 0.762049
Si Si7 0.507373 0.827608 0.563991
Si Si8 0.460867 0.323088 0.911680
O O1 0.546084 0.831419 0.852583
O O2 0.672014 0.752207 0.990817
O O3 0.813572 0.000000 0.015257
O O4 0.916733 0.730686 0.031630
O O5 0.998084 0.500000 0.014990
O O6 0.253420 0.274764 0.137856
O O7 0.915060 0.236456 0.942635
O O8 0.531388 0.500000 0.390823
O O9 0.469901 0.737736 0.310991
O O10 0.484489 0.752362 0.409207
O O11 0.808475 0.706339 0.504811
O O12 0.478113 0.500000 0.265813
O O13 0.644570 0.265729 0.304799
O O14 0.482988 0.781334 0.499406
O O15 0.376314 0.000000 0.396357
O O16 0.187410 0.232743 0.664571
O O17 0.288182 0.266994 0.799160
O O18 0.239404 0.000000 0.740960
O O19 0.564192 0.000000 0.593234
O O20 0.473935 0.500000 0.916930
#
# Coordination Sequence:
#
# PCOD8053487 Si02
#       8
#     4   4   4   4   4   4   4   4
#     4   9  20  37  53  76 108 141 179 225 266 315
#     4  11  20  34  57  82 108 145 183 222 270 319
#     4   9  18  35  55  78 106 137 174 216 261 316
#     4   8  18  35  54  76 108 142 174 213 262 317
#     4   9  18  35  55  78 106 138 174 214 261 317
#     4   9  19  36  56  78 108 140 177 225 267 312
#     4   9  18  34  55  76 105 142 175 210 264 322
#     4  10  20  36  55  76 107 143 180 223 267 316
#
# _framework density 18.439328
#
# number of rings (size 3 to 8) (size 9 to 14) (size 15 to 20)
#    0.750    2.000    0.000    3.375    0.000    2.000 
#    2.250    6.875    0.000    0.000    0.000    0.000 
#    0.000    0.000    0.000    0.000    0.000    0.000 
#
# Total GULP energy -198278.079622 kJ/mol
# GULP energy per Si atom -12392.379976 kJ/mol
# Density = 1.839736 g / cm^3
# Si number density = 18.439328 Si / 1000 Ang^3
#
#
#
# Elastic Constant Matrix: (Units=GPa)
#
#
# Indices 1 2 3 4 5 6 
#
# 1 92.6664 24.8659 9.0303 0.0000 -7.4576 0.0000
# 2 24.8659 86.3173 29.4421 0.0000 -2.8430 0.0000
# 3 9.0303 29.4421 53.2768 0.0001 -3.2925 0.0002
# 4 0.0000 0.0000 0.0001 22.9568 0.0002 -1.2205
# 5 -7.4576 -2.8430 -3.2925 0.0002 19.1014 0.0000
# 6 0.0000 0.0000 0.0002 -1.2205 0.0000 35.5824
#
#
#
# Elastic Compliance Matrix: (Units=1/GPa)
#
#
# Indices 1 2 3 4 5 6 
#
# 1 0.012022 -0.003350 0.000073 0.000000 0.004208 0.000000
# 2 -0.003350 0.015221 -0.007868 0.000000 -0.000399 0.000000
# 3 0.000073 -0.007868 0.023283 0.000000 0.002871 0.000000
# 4 0.000000 0.000000 0.000000 0.043640 0.000000 0.001497
# 5 0.004208 -0.000399 0.002871 0.000000 0.054430 0.000000
# 6 0.000000 0.000000 0.000000 0.001497 0.000000 0.028155
#
#
# Mechanical properties :
#
#
# Convention : Reuss Voigt Hill
#
# Bulk Modulus (GPa) = 35.41489 39.88188 37.64839
# Shear Modulus (GPa) = 23.98634 26.78959 25.38797
#
# Velocity S-wave (km/s) = 3.61061 3.81576 3.71460
# Velocity P-wave (km/s) = 6.05226 6.41007 6.23374
#
# Compressibility (1/GPa) = 0.02823671
#
# Stress axis : x y z
#
# Youngs Moduli (GPa) = 83.18292 65.69964 42.94963
#
# Poissons Ratio (x) = 0.22007 -0.00316
# Poissons Ratio (y) = 0.27863 0.33794
# Poissons Ratio (z) = -0.00611 0.51694
#
# Static dielectric constant tensor:
#      x y z
#    x 3.283110 0.000000 0.010050 
#    y 0.000000 3.199270 0.000000 
#    z 0.010050 0.000000 3.319130 
# 
# 
# High freq. dielectric constant tensor:
#      x y z
#    x 1.706620 0.000000 -0.003840 
#    y 0.000000 1.707820 0.000000 
#    z -0.003840 0.000000 1.705130 
# 
# From -- ./inp_files/32867.got.cif
#   From: 2010.03.12/outbox.cif.g09.slc.cpg/sg8_17_cif.got.tgz:32867.got - 2010.03.31 10:45:26.
