data_PCOD8053401
_publ_section_title
;
Structure prediction by ZEFSAII (Michael W. Deem and Ramdas Pophale) SiO2 
 PCOD8053401
Probable space group: C M
;
_chemical_formula_sum "Si O2"
_cell_formula_units_Z 32
_cell_length_a 27.702322
_cell_length_b 8.969986
_cell_length_c 22.641395
_cell_angle_alpha 90.000000
_cell_angle_beta 17.949630
_cell_angle_gamma 90.000000
_cell_volume 1733.870549
_symmetry_space_group_name_H-M "C M"
_symmetry_group_IT_number 8
_symmetry_cell_setting 'monoclinic'
loop_
_space_group_symop_operation_xyz
x,y,z
x,-y,z
1/2+x,1/2+y,z
1/2+x,1/2-y,z
loop_
_atom_site_type_symbol
_atom_site_label
_atom_site_fract_x
_atom_site_fract_y
_atom_site_fract_z
Si Si1 0.710710 0.174967 0.592050
Si Si2 0.568643 0.332417 0.861739
Si Si3 0.535793 0.324713 0.269526
Si Si4 0.244672 0.176890 0.825428
Si Si5 0.666443 0.823789 0.507810
Si Si6 0.328563 0.176770 0.857592
Si Si7 0.447738 0.822649 0.113287
Si Si8 0.910423 0.664525 0.519717
O O1 0.578883 0.255967 0.785362
O O2 0.884656 0.228203 0.408235
O O3 0.686747 0.220191 0.552371
O O4 0.690017 0.000000 0.626388
O O5 0.502016 0.500000 0.932587
O O6 0.739821 0.334641 0.689955
O O7 0.457068 0.239370 0.035461
O O8 0.546532 0.500000 0.257913
O O9 0.525875 0.271473 0.349058
O O10 0.690821 0.256159 0.059035
O O11 0.086426 0.261612 0.992959
O O12 0.208577 0.000000 0.865458
O O13 0.301518 0.233982 0.822671
O O14 0.386483 0.217317 0.615241
O O15 0.494883 0.769107 0.688025
O O16 0.785771 0.731778 0.329332
O O17 0.692356 0.000000 0.467845
O O18 0.319941 0.000000 0.868593
O O19 0.455224 0.000000 0.102665
O O20 0.984384 0.500000 0.431442
#
# Coordination Sequence:
#
# PCOD8053401 Si02
#       8
#     4   4   4   4   4   4   4   4
#     4   9  17  30  51  77 103 131 166 209 255 304
#     4   9  17  31  52  76 101 129 166 212 260 307
#     4   9  16  28  48  72  96 124 160 202 245 293
#     4   9  17  33  55  76  99 130 171 212 252 302
#     4  10  20  35  53  73 103 142 177 209 252 304
#     4   9  18  33  53  74  98 134 176 210 244 297
#     4  11  21  33  52  78 105 133 171 216 259 303
#     4   8  15  27  46  72  97 121 153 200 251 296
#
# _framework density 18.455818000000001
#
# number of rings (size 3 to 8) (size 9 to 14) (size 15 to 20)
#    0.000    2.750    0.000    3.000    0.000    5.500 
#    0.000    5.625    0.000    3.000    0.000    0.000 
#    0.000    0.000    0.000    0.000    0.000    0.000 
#
# Total GULP energy -198358.134437 kJ/mol
# GULP energy per Si atom -12397.383402 kJ/mol
# Density = 1.841381 g / cm^3
# Si number density = 18.455818 Si / 1000 Ang^3
#
#
#
# Elastic Constant Matrix: (Units=GPa)
#
#
# Indices 1 2 3 4 5 6 
#
# 1 76.6124 37.7227 96.8705 -0.0007 19.8072 0.0003
# 2 37.7227 65.6698 53.2202 -0.0013 9.6713 0.0009
# 3 96.8705 53.2202 142.3752 -0.0011 27.9445 0.0010
# 4 -0.0007 -0.0013 -0.0011 27.9799 0.0008 10.5703
# 5 19.8072 9.6713 27.9445 0.0008 31.0582 -0.0008
# 6 0.0003 0.0009 0.0010 10.5703 -0.0008 18.6030
#
#
#
# Elastic Compliance Matrix: (Units=1/GPa)
#
#
# Indices 1 2 3 4 5 6 
#
# 1 0.094104 -0.003160 -0.062254 -0.000001 -0.003018 0.000002
# 2 -0.003160 0.021963 -0.006210 0.000001 0.000763 -0.000001
# 3 -0.062254 -0.006210 0.052865 0.000001 -0.005930 -0.000003
# 4 -0.000001 0.000001 0.000001 0.045509 -0.000003 -0.025858
# 5 -0.003018 0.000763 -0.005930 -0.000003 0.039220 0.000004
# 6 0.000002 -0.000001 -0.000003 -0.025858 0.000004 0.068448
#
#
# Mechanical properties :
#
#
# Convention : Reuss Voigt Hill
#
# Bulk Modulus (GPa) = 38.93221 73.36492 56.14856
# Shear Modulus (GPa) = 10.55037 21.98447 16.26742
#
# Velocity S-wave (km/s) = 2.39353 3.45511 2.97210
# Velocity P-wave (km/s) = 5.36463 7.46693 6.50132
#
# Compressibility (1/GPa) = 0.02568567
#
# Stress axis : x y z
#
# Youngs Moduli (GPa) = 10.62656 45.53149 18.91594
#
# Poissons Ratio (x) = 0.14388 1.17759
# Poissons Ratio (y) = 0.03358 0.11746
# Poissons Ratio (z) = 0.66154 0.28273
#
# Static dielectric constant tensor:
#      x y z
#    x 3.490980 0.000000 0.318760 
#    y 0.000000 3.247320 0.000000 
#    z 0.318760 0.000000 3.522600 
# 
# 
# High freq. dielectric constant tensor:
#      x y z
#    x 1.704380 0.000000 0.028800 
#    y 0.000000 1.694750 0.000000 
#    z 0.028800 0.000000 1.712920 
# 
# From -- ./inp_files/31645.got.cif
#   From: 2010.03.12/outbox.cif.g09.slc.cpg/sg8_16_cif.got.tgz:31645.got - 2010.03.31 10:45:26.
