data_PCOD8053209
_publ_section_title
;
Structure prediction by ZEFSAII (Michael W. Deem and Ramdas Pophale) SiO2 
 PCOD8053209
Probable space group: C M
;
_chemical_formula_sum "Si O2"
_cell_formula_units_Z 32
_cell_length_a 25.386326
_cell_length_b 8.672460
_cell_length_c 16.841757
_cell_angle_alpha 90.000000
_cell_angle_beta 154.328295
_cell_angle_gamma 90.000000
_cell_volume 1606.320054
_symmetry_space_group_name_H-M "C M"
_symmetry_group_IT_number 8
_symmetry_cell_setting 'monoclinic'
loop_
_space_group_symop_operation_xyz
x,y,z
x,-y,z
1/2+x,1/2+y,z
1/2+x,1/2-y,z
loop_
_atom_site_type_symbol
_atom_site_label
_atom_site_fract_x
_atom_site_fract_y
_atom_site_fract_z
Si Si1 0.614880 0.818962 0.407410
Si Si2 0.061131 0.319193 0.160867
Si Si3 0.173934 0.825327 0.757186
Si Si4 0.231747 0.181872 0.261167
Si Si5 0.687064 0.315399 0.023526
Si Si6 0.879073 0.327025 0.163721
Si Si7 0.504958 0.817190 0.656236
Si Si8 0.301278 0.678991 0.789018
O O1 0.612437 0.753135 0.314414
O O2 0.505804 0.742969 0.312406
O O3 0.744681 0.787790 0.624740
O O4 0.585843 0.000000 0.362358
O O5 0.081739 0.500000 0.181785
O O6 0.132570 0.238465 0.187802
O O7 0.918942 0.283597 0.959406
O O8 0.064492 0.750550 0.657667
O O9 0.197111 0.724382 0.710326
O O10 0.138533 0.000000 0.685994
O O11 0.297242 0.823731 0.974351
O O12 0.196096 0.244808 0.125557
O O13 0.365293 0.238750 0.467740
O O14 0.228257 0.000000 0.253379
O O15 0.680894 0.500000 0.007375
O O16 0.805317 0.249103 0.136444
O O17 0.565770 0.247596 0.818861
O O18 0.908311 0.500000 0.230916
O O19 0.517059 0.000000 0.670322
O O20 0.335857 0.500000 0.845691
#
# Coordination Sequence:
#
# PCOD8053209 Si02
#       8
#     4   4   4   4   4   4   4   4
#     4   9  19  35  58  85 113 152 195 232 286 357
#     4  11  23  42  62  82 116 159 199 242 292 351
#     4  10  19  35  59  86 122 159 193 234 289 356
#     4  10  23  41  61  85 116 157 201 242 290 352
#     4   9  19  36  60  85 115 157 195 234 290 357
#     4   8  14  30  57  82 110 148 189 228 274 342
#     4  10  21  37  59  89 121 151 193 248 297 338
#     4  11  22  36  60  90 117 149 195 248 296 345
#
# _framework density 19.921309999999998
#
# number of rings (size 3 to 8) (size 9 to 14) (size 15 to 20)
#    0.000    2.250    1.250    2.250    1.750    2.500 
#    0.000    6.250    0.000    0.000    0.000    0.000 
#    0.000    0.000    0.000    0.000    0.000    0.000 
#
# Total GULP energy -198363.413739 kJ/mol
# GULP energy per Si atom -12397.713359 kJ/mol
# Density = 1.987597 g / cm^3
# Si number density = 19.921310 Si / 1000 Ang^3
#
#
#
# Elastic Constant Matrix: (Units=GPa)
#
#
# Indices 1 2 3 4 5 6 
#
# 1 128.7055 4.3742 56.1378 0.0000 -17.0914 0.0000
# 2 4.3742 19.1713 12.0647 0.0000 -4.5726 0.0000
# 3 56.1378 12.0647 96.4956 0.0000 -17.5838 0.0000
# 4 0.0000 0.0000 0.0000 27.0156 0.0000 1.4887
# 5 -17.0914 -4.5726 -17.5838 0.0000 28.0858 0.0000
# 6 0.0000 0.0000 0.0000 1.4887 0.0000 28.8219
#
#
#
# Elastic Compliance Matrix: (Units=1/GPa)
#
#
# Indices 1 2 3 4 5 6 
#
# 1 0.010692 0.002023 -0.005901 0.000000 0.003142 0.000000
# 2 0.002023 0.057734 -0.007290 0.000000 0.006067 0.000000
# 3 -0.005901 -0.007290 0.015619 0.000000 0.005001 0.000000
# 4 0.000000 0.000000 0.000000 0.037121 0.000000 -0.001917
# 5 0.003142 0.006067 0.005001 0.000000 0.041635 0.000000
# 6 0.000000 0.000000 0.000000 -0.001917 0.000000 0.034795
#
#
# Mechanical properties :
#
#
# Convention : Reuss Voigt Hill
#
# Bulk Modulus (GPa) = 16.20487 43.28064 29.74275
# Shear Modulus (GPa) = 20.78994 28.23772 24.51383
#
# Velocity S-wave (km/s) = 3.23399 3.76901 3.51170
# Velocity P-wave (km/s) = 4.70075 6.38071 5.60404
#
# Compressibility (1/GPa) = 0.06170986
#
# Stress axis : x y z
#
# Youngs Moduli (GPa) = 93.52990 17.32077 64.02606
#
# Poissons Ratio (x) = -0.03504 0.37779
# Poissons Ratio (y) = -0.18922 0.46674
# Poissons Ratio (z) = 0.55188 0.12627
#
# Static dielectric constant tensor:
#      x y z
#    x 3.759320 0.000000 -0.080400 
#    y 0.000000 3.352150 0.000000 
#    z -0.080400 0.000000 3.659530 
# 
# 
# High freq. dielectric constant tensor:
#      x y z
#    x 1.781120 0.000000 -0.003340 
#    y 0.000000 1.750320 0.000000 
#    z -0.003340 0.000000 1.780700 
# 
# From -- ./inp_files/28211.got.cif
#   From: 2010.03.12/outbox.cif.g09.slc.cpg/sg8_15_cif.got.tgz:28211.got - 2010.03.31 10:45:26.
