data_PCOD8053473
_publ_section_title
;
Structure prediction by ZEFSAII (Michael W. Deem and Ramdas Pophale) SiO2 
 PCOD8053473
Probable space group: C M
;
_chemical_formula_sum "Si O2"
_cell_formula_units_Z 32
_cell_length_a 9.660368
_cell_length_b 18.987686
_cell_length_c 12.737377
_cell_angle_alpha 90.000000
_cell_angle_beta 43.256873
_cell_angle_gamma 90.000000
_cell_volume 1601.060199
_symmetry_space_group_name_H-M "C M"
_symmetry_group_IT_number 8
_symmetry_cell_setting 'monoclinic'
loop_
_space_group_symop_operation_xyz
x,y,z
x,-y,z
1/2+x,1/2+y,z
1/2+x,1/2-y,z
loop_
_atom_site_type_symbol
_atom_site_label
_atom_site_fract_x
_atom_site_fract_y
_atom_site_fract_z
Si Si1 0.361200 0.183528 0.775380
Si Si2 0.175609 0.157394 0.414797
Si Si3 0.431677 0.082913 0.920099
Si Si4 0.883679 0.916934 0.733482
Si Si5 0.583014 0.345269 0.232458
Si Si6 0.156902 0.318466 0.429179
Si Si7 0.956526 0.183428 0.873429
Si Si8 0.100155 0.684628 0.217053
O O1 0.354414 0.116671 0.854977
O O2 0.506860 0.155871 0.602106
O O3 0.415496 0.251128 0.817212
O O4 0.154307 0.201255 0.830645
O O5 0.066294 0.152894 0.365542
O O6 0.187650 0.237619 0.449202
O O7 0.413574 0.138292 0.274805
O O8 0.045722 0.106287 0.558002
O O9 0.655888 0.109694 0.830376
O O10 0.432948 0.000000 0.904836
O O11 0.264421 0.104012 0.098484
O O12 0.966373 0.885409 0.796017
O O13 0.885673 0.000000 0.742314
O O14 0.359077 0.366796 0.317752
O O15 0.611991 0.266242 0.174342
O O16 0.078428 0.323591 0.354150
O O17 0.798989 0.158054 0.049636
#
# Coordination Sequence:
#
# PCOD8053473 Si02
#       8
#     4   4   4   4   4   4   4   4
#     4  12  24  39  66  95 127 167 211 268 323 373
#     4  10  20  35  59  87 125 161 204 260 310 374
#     4  11  24  42  64  93 131 173 215 261 317 380
#     4  11  24  42  64  93 131 173 215 261 317 380
#     4  10  20  35  59  87 125 161 204 260 310 374
#     4  10  21  35  59  91 123 158 203 260 318 370
#     4  12  24  39  66  95 127 167 211 268 323 373
#     4  10  21  35  59  91 123 158 203 260 318 370
#
# _framework density 19.986756
#
# number of rings (size 3 to 8) (size 9 to 14) (size 15 to 20)
#    0.000    1.250    2.500    3.750    7.000    1.000 
#    0.000    1.250    0.000    3.000    0.000    0.000 
#    0.000    0.000    0.000    0.000    0.000    0.000 
#
# Total GULP energy -198236.372261 kJ/mol
# GULP energy per Si atom -12389.773266 kJ/mol
# Density = 1.994127 g / cm^3
# Si number density = 19.986756 Si / 1000 Ang^3
#
#
#
# Elastic Constant Matrix: (Units=GPa)
#
#
# Indices 1 2 3 4 5 6 
#
# 1 119.0825 31.9044 16.6130 -0.0005 -9.4670 0.0003
# 2 31.9044 70.5102 22.1532 0.0002 -0.2082 -0.0001
# 3 16.6130 22.1532 101.6917 -0.0009 -3.5234 0.0005
# 4 -0.0005 0.0002 -0.0009 27.5067 0.0006 -2.3236
# 5 -9.4670 -0.2082 -3.5234 0.0006 37.0258 -0.0003
# 6 0.0003 -0.0001 0.0005 -2.3236 -0.0003 22.8954
#
#
#
# Elastic Compliance Matrix: (Units=1/GPa)
#
#
# Indices 1 2 3 4 5 6 
#
# 1 0.009811 -0.004245 -0.000594 0.000000 0.002428 0.000000
# 2 -0.004245 0.017063 -0.003068 0.000000 -0.001282 0.000000
# 3 -0.000594 -0.003068 0.010628 0.000000 0.000842 0.000000
# 4 0.000000 0.000000 0.000000 0.036669 -0.000001 0.003721
# 5 0.002428 -0.001282 0.000842 -0.000001 0.027702 0.000000
# 6 0.000000 0.000000 0.000000 0.003721 0.000000 0.044055
#
#
# Mechanical properties :
#
#
# Convention : Reuss Voigt Hill
#
# Bulk Modulus (GPa) = 46.10865 48.06953 47.08909
# Shear Modulus (GPa) = 29.59066 32.19316 30.89191
#
# Velocity S-wave (km/s) = 3.85192 4.01774 3.93570
# Velocity P-wave (km/s) = 6.55002 6.75469 6.65314
#
# Compressibility (1/GPa) = 0.02168791
#
# Stress axis : x y z
#
# Youngs Moduli (GPa) = 101.92791 58.60466 94.08933
#
# Poissons Ratio (x) = 0.24881 0.05587
# Poissons Ratio (y) = 0.43273 0.28867
# Poissons Ratio (z) = 0.06052 0.17980
#
# Static dielectric constant tensor:
#      x y z
#    x 3.822760 0.000000 -0.140320 
#    y 0.000000 3.347360 0.000000 
#    z -0.140320 0.000000 3.851330 
# 
# 
# High freq. dielectric constant tensor:
#      x y z
#    x 1.793070 0.000000 -0.000380 
#    y 0.000000 1.737650 0.000000 
#    z -0.000380 0.000000 1.801700 
# 
# From -- ./inp_files/19257.got.cif
#   From: 2010.03.12/outbox.cif.g09.slc.cpg/sg8_10_cif.got.tgz:19257.got - 2010.03.31 10:45:26.
