data_PCOD8053867
_publ_section_title
;
Structure prediction by ZEFSAII (Michael W. Deem and Ramdas Pophale) SiO2 
 PCOD8053867
Probable space group: C M
;
_chemical_formula_sum "Si O2"
_cell_formula_units_Z 32
_cell_length_a 22.159470
_cell_length_b 17.302329
_cell_length_c 9.686655
_cell_angle_alpha 90.000000
_cell_angle_beta 155.493052
_cell_angle_gamma 90.000000
_cell_volume 1540.565861
_symmetry_space_group_name_H-M "C M"
_symmetry_group_IT_number 8
_symmetry_cell_setting 'monoclinic'
loop_
_space_group_symop_operation_xyz
x,y,z
x,-y,z
1/2+x,1/2+y,z
1/2+x,1/2-y,z
loop_
_atom_site_type_symbol
_atom_site_label
_atom_site_fract_x
_atom_site_fract_y
_atom_site_fract_z
Si Si1 0.093810 0.911773 0.807980
Si Si2 0.372937 0.798592 0.691393
Si Si3 0.050161 0.847285 0.004958
Si Si4 0.873028 0.669330 0.006069
Si Si5 0.392382 0.665023 0.175675
Si Si6 0.422542 0.088861 0.555553
Si Si7 0.575115 0.587436 0.344666
Si Si8 0.099416 0.410774 0.655806
O O1 0.019322 0.851703 0.549719
O O2 0.059313 0.000000 0.692092
O O3 0.029073 0.898002 0.824995
O O4 0.265336 0.894929 0.160942
O O5 0.199921 0.799583 0.315495
O O6 0.448141 0.860481 0.745705
O O7 0.419342 0.712811 0.746308
O O8 0.422183 0.816145 0.950517
O O9 0.050076 0.907962 0.129534
O O10 0.889847 0.745112 0.134271
O O11 0.977715 0.604229 0.286515
O O12 0.707261 0.641341 0.669119
O O13 0.427771 0.615850 0.112027
O O14 0.238191 0.641929 0.917098
O O15 0.541415 0.110052 0.687842
O O16 0.433500 0.000000 0.625295
O O17 0.611393 0.500000 0.461780
O O18 0.144669 0.500000 0.742014
#
# Coordination Sequence:
#
# PCOD8053867 Si02
#       8
#     4   4   4   4   4   4   4   4
#     4  10  21  40  64  90 123 164 212 260 316 378
#     4  10  22  40  64  89 125 162 209 262 320 377
#     4  10  22  39  62  92 123 161 212 262 316 376
#     4  11  24  41  64  92 127 169 211 256 314 381
#     4  12  24  40  63  94 130 167 207 261 315 372
#     4   9  21  42  66  92 124 164 215 264 314 381
#     4  11  22  41  67  92 124 167 213 259 312 375
#     4  11  24  41  62  93 130 166 211 260 313 372
#
# _framework density 20.771588999999999
#
# number of rings (size 3 to 8) (size 9 to 14) (size 15 to 20)
#    0.000    1.500    1.250    3.375    3.500    5.500 
#    0.000    0.000    0.000    2.250    0.000    0.000 
#    0.000    0.000    0.000    0.000    0.000    0.000 
#
# Total GULP energy -198481.072074 kJ/mol
# GULP energy per Si atom -12405.067005 kJ/mol
# Density = 2.072431 g / cm^3
# Si number density = 20.771589 Si / 1000 Ang^3
#
#
#
# Elastic Constant Matrix: (Units=GPa)
#
#
# Indices 1 2 3 4 5 6 
#
# 1 116.0311 37.6361 34.3439 0.0000 4.8778 0.0000
# 2 37.6361 101.3620 34.9748 0.0000 -4.9740 0.0000
# 3 34.3439 34.9748 50.0508 0.0000 -4.4183 0.0000
# 4 0.0000 0.0000 0.0000 31.6718 0.0000 -7.6023
# 5 4.8778 -4.9740 -4.4183 0.0000 30.4761 0.0000
# 6 0.0000 0.0000 0.0000 -7.6023 0.0000 35.6384
#
#
#
# Elastic Compliance Matrix: (Units=1/GPa)
#
#
# Indices 1 2 3 4 5 6 
#
# 1 0.011391 -0.002096 -0.006628 0.000000 -0.003126 0.000000
# 2 -0.002096 0.013406 -0.007807 0.000000 0.001392 0.000000
# 3 -0.006628 -0.007807 0.030352 0.000000 0.004187 0.000000
# 4 0.000000 0.000000 0.000000 0.033278 0.000000 0.007099
# 5 -0.003126 0.001392 0.004187 0.000000 0.034147 0.000000
# 6 0.000000 0.000000 0.000000 0.007099 0.000000 0.029574
#
#
# Mechanical properties :
#
#
# Convention : Reuss Voigt Hill
#
# Bulk Modulus (GPa) = 45.27242 53.48371 49.37807
# Shear Modulus (GPa) = 25.96421 30.25651 28.11036
#
# Velocity S-wave (km/s) = 3.53935 3.82072 3.68272
# Velocity P-wave (km/s) = 6.20849 6.72817 6.47355
#
# Compressibility (1/GPa) = 0.02208850
#
# Stress axis : x y z
#
# Youngs Moduli (GPa) = 87.78489 74.59392 32.94636
#
# Poissons Ratio (x) = 0.15636 0.21836
# Poissons Ratio (y) = 0.18402 0.25720
# Poissons Ratio (z) = 0.58182 0.58233
#
# Static dielectric constant tensor:
#      x y z
#    x 4.041000 0.000000 -0.021500 
#    y 0.000000 3.690360 0.000000 
#    z -0.021500 0.000000 3.580800 
# 
# 
# High freq. dielectric constant tensor:
#      x y z
#    x 1.833640 0.000000 -0.002750 
#    y 0.000000 1.815300 0.000000 
#    z -0.002750 0.000000 1.798910 
# 
# From -- ./inp_files/16533.got.cif
#   From: 2010.03.12/outbox.cif.g09.slc.cpg/sg8_9_cif.got.tgz:16533.got - 2010.03.31 10:45:26.
