data_PCOD8053436
_publ_section_title
;
Structure prediction by ZEFSAII (Michael W. Deem and Ramdas Pophale) SiO2 
 PCOD8053436
Probable space group: C M
;
_chemical_formula_sum "Si O2"
_cell_formula_units_Z 32
_cell_length_a 24.117994
_cell_length_b 9.138084
_cell_length_c 25.027395
_cell_angle_alpha 90.000000
_cell_angle_beta 16.817605
_cell_angle_gamma 90.000000
_cell_volume 1595.876725
_symmetry_space_group_name_H-M "C M"
_symmetry_group_IT_number 8
_symmetry_cell_setting 'monoclinic'
loop_
_space_group_symop_operation_xyz
x,y,z
x,-y,z
1/2+x,1/2+y,z
1/2+x,1/2-y,z
loop_
_atom_site_type_symbol
_atom_site_label
_atom_site_fract_x
_atom_site_fract_y
_atom_site_fract_z
Si Si1 0.893180 0.661407 0.104990
Si Si2 0.347777 0.328973 0.556484
Si Si3 0.043605 0.672413 0.076025
Si Si4 0.988233 0.839818 0.536780
Si Si5 0.444388 0.829135 0.878962
Si Si6 0.671284 0.166429 0.455058
Si Si7 0.394038 0.833765 0.803219
Si Si8 0.221485 0.326663 0.171230
O O1 0.949702 0.500000 0.030535
O O2 0.689565 0.651623 0.321167
O O3 0.881183 0.774142 0.067100
O O4 0.042881 0.712821 0.013037
O O5 0.396302 0.500000 0.502592
O O6 0.333581 0.295504 0.633691
O O7 0.511974 0.232882 0.377878
O O8 0.150239 0.282603 0.711772
O O9 0.023830 0.500000 0.101480
O O10 0.865021 0.742269 0.271983
O O11 0.238135 0.726565 0.922417
O O12 0.002377 0.723520 0.571402
O O13 0.937332 0.000000 0.607892
O O14 0.438840 0.787085 0.822070
O O15 0.404439 0.000000 0.925461
O O16 0.280536 0.735479 0.059096
O O17 0.592819 0.180492 0.587554
O O18 0.716905 0.000000 0.397395
O O19 0.316153 0.000000 0.871992
O O20 0.216991 0.500000 0.174334
#
# Coordination Sequence:
#
# PCOD8053436 Si02
#       8
#     4   4   4   4   4   4   4   4
#     4   8  16  33  55  80 111 148 186 217 260 332
#     4   9  19  37  60  82 107 145 189 227 268 328
#     4  10  21  37  59  85 113 147 184 225 275 329
#     4   8  15  30  53  82 111 140 179 223 272 331
#     4  10  22  41  60  77 105 149 197 233 265 323
#     4  10  20  35  56  83 114 145 181 227 278 330
#     4  10  23  40  57  80 109 146 192 234 273 323
#     4  11  22  35  56  87 118 144 176 228 287 330
#
# _framework density 20.051673999999998
#
# number of rings (size 3 to 8) (size 9 to 14) (size 15 to 20)
#    0.000    2.500    0.000    3.375    0.000    9.000 
#    0.000    6.250    0.000    0.000    0.000    0.000 
#    0.000    0.000    0.000    0.000    0.000    0.000 
#
# Total GULP energy -198385.035986 kJ/mol
# GULP energy per Si atom -12399.064749 kJ/mol
# Density = 2.000604 g / cm^3
# Si number density = 20.051674 Si / 1000 Ang^3
#
#
#
# Elastic Constant Matrix: (Units=GPa)
#
#
# Indices 1 2 3 4 5 6 
#
# 1 81.1037 27.6484 11.8023 0.0201 6.2349 -0.0148
# 2 27.6484 97.2886 30.8751 -0.0263 9.7876 -0.0011
# 3 11.8023 30.8751 36.7160 -0.0391 3.8746 0.0142
# 4 0.0201 -0.0263 -0.0391 21.9216 0.0101 -3.4767
# 5 6.2349 9.7876 3.8746 0.0101 35.2813 -0.0062
# 6 -0.0148 -0.0011 0.0142 -3.4767 -0.0062 26.9332
#
#
#
# Elastic Compliance Matrix: (Units=1/GPa)
#
#
# Indices 1 2 3 4 5 6 
#
# 1 0.013779 -0.003300 -0.001511 -0.000018 -0.001354 0.000006
# 2 -0.003300 0.015055 -0.011352 0.000003 -0.002347 0.000005
# 3 -0.001511 -0.011352 0.037340 0.000052 -0.000684 -0.000014
# 4 -0.000018 0.000003 0.000052 0.046571 -0.000016 0.006012
# 5 -0.001354 -0.002347 -0.000684 -0.000016 0.029309 0.000004
# 6 0.000006 0.000005 -0.000014 0.006012 0.000004 0.037905
#
#
# Mechanical properties :
#
#
# Convention : Reuss Voigt Hill
#
# Bulk Modulus (GPa) = 29.54393 39.52889 34.53641
# Shear Modulus (GPa) = 22.36463 26.47938 24.42200
#
# Velocity S-wave (km/s) = 3.34331 3.63789 3.49371
# Velocity P-wave (km/s) = 5.44697 6.11571 5.79100
#
# Compressibility (1/GPa) = 0.03384790
#
# Stress axis : x y z
#
# Youngs Moduli (GPa) = 72.57496 66.42248 26.78093
#
# Poissons Ratio (x) = 0.21919 0.04048
# Poissons Ratio (y) = 0.23950 0.30401
# Poissons Ratio (z) = 0.10969 0.75401
#
# Static dielectric constant tensor:
#      x y z
#    x 3.942160 -0.000030 -0.016410 
#    y -0.000030 3.572370 0.000070 
#    z -0.016410 0.000070 3.457010 
# 
# 
# High freq. dielectric constant tensor:
#      x y z
#    x 1.782750 0.000000 0.001690 
#    y 0.000000 1.771920 0.000000 
#    z 0.001690 0.000000 1.777370 
# 
# From -- ./inp_files/32378.got.cif
#   From: 2010.03.12/outbox.cif.g09.slc.cpg/sg8_17_cif.got.tgz:32378.got - 2010.03.31 10:45:26.
