data_PCOD8053688
_publ_section_title
;
Structure prediction by ZEFSAII (Michael W. Deem and Ramdas Pophale) SiO2 
 PCOD8053688
Probable space group: C M
;
_chemical_formula_sum "Si O2"
_cell_formula_units_Z 16
_cell_length_a 9.433241
_cell_length_b 10.425022
_cell_length_c 11.788024
_cell_angle_alpha 90.000000
_cell_angle_beta 39.564902
_cell_angle_gamma 90.000000
_cell_volume 738.389547
_symmetry_space_group_name_H-M "C M"
_symmetry_group_IT_number 8
_symmetry_cell_setting 'monoclinic'
loop_
_space_group_symop_operation_xyz
x,y,z
x,-y,z
1/2+x,1/2+y,z
1/2+x,1/2-y,z
loop_
_atom_site_type_symbol
_atom_site_label
_atom_site_fract_x
_atom_site_fract_y
_atom_site_fract_z
Si Si1 0.676760 0.000000 0.976891
Si Si2 0.201335 0.500000 0.498786
Si Si3 0.150294 0.000000 0.348439
Si Si4 0.489996 0.000000 0.873368
Si Si5 0.191156 0.751111 0.089280
Si Si6 0.705018 0.227263 0.338027
O O1 0.710553 0.000000 0.819125
O O2 0.403722 0.000000 0.145693
O O3 0.786953 0.876366 0.968764
O O4 0.469467 0.500000 0.355475
O O5 0.114611 0.621534 0.480238
O O6 0.071927 0.500000 0.695312
O O7 0.125645 0.867724 0.434473
O O8 0.357900 0.131120 0.978622
O O9 0.117543 0.713973 0.263210
O O10 0.968349 0.790054 0.161640
#
# Coordination Sequence:
#
# PCOD8053688 Si02
#       6
#     2   2   2   2   4   4
#     4  10  21  39  69  92 118 165 220 259 297 369
#     4  12  25  38  63  96 136 161 198 263 326 366
#     4  10  20  40  65  90 119 165 211 259 293 369
#     4  12  24  41  59  98 137 159 197 267 324 364
#     4  11  20  41  70  91 120 166 219 255 299 375
#     4  11  20  41  69  93 120 166 219 257 298 375
#
# _framework density 21.668779000000001
#
# number of rings (size 3 to 8) (size 9 to 14) (size 15 to 20)
#    0.000    1.000    7.500    1.500    0.000    2.000 
#    0.000    0.000    0.000    0.000    0.000    0.000 
#    0.000    0.000    0.000    0.000    0.000    0.000 
#
# Total GULP energy -99112.568558 kJ/mol
# GULP energy per Si atom -12389.071070 kJ/mol
# Density = 2.161946 g / cm^3
# Si number density = 21.668779 Si / 1000 Ang^3
#
#
#
# Elastic Constant Matrix: (Units=GPa)
#
#
# Indices 1 2 3 4 5 6 
#
# 1 65.5847 52.8334 17.9434 -0.0013 17.6650 0.0010
# 2 52.8334 234.6961 58.3192 -0.0008 37.6686 0.0007
# 3 17.9434 58.3192 80.5504 -0.0016 35.5795 0.0015
# 4 -0.0013 -0.0008 -0.0016 22.4636 0.0013 11.5640
# 5 17.6650 37.6686 35.5795 0.0013 30.2110 -0.0011
# 6 0.0010 0.0007 0.0015 11.5640 -0.0011 39.5690
#
#
#
# Elastic Compliance Matrix: (Units=1/GPa)
#
#
# Indices 1 2 3 4 5 6 
#
# 1 0.020204 -0.003521 0.002767 0.000003 -0.010682 -0.000002
# 2 -0.003521 0.006088 -0.002459 0.000000 -0.002635 0.000000
# 3 0.002767 -0.002459 0.026967 0.000006 -0.030311 -0.000003
# 4 0.000003 0.000000 0.000006 0.052400 -0.000011 -0.015314
# 5 -0.010682 -0.002635 -0.030311 -0.000011 0.078330 0.000007
# 6 -0.000002 0.000000 -0.000003 -0.015314 0.000007 0.029748
#
#
# Mechanical properties :
#
#
# Convention : Reuss Voigt Hill
#
# Bulk Modulus (GPa) = 21.35274 71.00258 46.17766
# Shear Modulus (GPa) = 21.20680 35.23108 28.21894
#
# Velocity S-wave (km/s) = 3.13178 4.03661 3.61263
# Velocity P-wave (km/s) = 4.79092 7.38674 6.22563
#
# Compressibility (1/GPa) = 0.04683240
#
# Stress axis : x y z
#
# Youngs Moduli (GPa) = 49.49435 164.27006 37.08227
#
# Poissons Ratio (x) = 0.57846 -0.10261
# Poissons Ratio (y) = 0.17429 0.09119
# Poissons Ratio (z) = -0.13696 0.40394
#
# Static dielectric constant tensor:
#      x y z
#    x 3.991380 0.000000 0.297740 
#    y 0.000000 4.421580 0.000000 
#    z 0.297740 0.000000 3.482560 
# 
# 
# High freq. dielectric constant tensor:
#      x y z
#    x 1.851900 0.000000 0.027530 
#    y 0.000000 1.878930 0.000000 
#    z 0.027530 0.000000 1.801780 
# 
# From -- ./inp_files/7345.got.cif
#   From: 2010.03.12/outbox.cif.g09.slc.cpg/sg8_4_cif.got.tgz:7345.got - 2010.03.31 10:45:26.
