data_PCOD8053809
_publ_section_title
;
Structure prediction by ZEFSAII (Michael W. Deem and Ramdas Pophale) SiO2 
 PCOD8053809
Probable space group: C M
;
_chemical_formula_sum "Si O2"
_cell_formula_units_Z 32
_cell_length_a 16.137386
_cell_length_b 16.639870
_cell_length_c 12.290028
_cell_angle_alpha 90.000000
_cell_angle_beta 153.167434
_cell_angle_gamma 90.000000
_cell_volume 1489.645464
_symmetry_space_group_name_H-M "C M"
_symmetry_group_IT_number 8
_symmetry_cell_setting 'monoclinic'
loop_
_space_group_symop_operation_xyz
x,y,z
x,-y,z
1/2+x,1/2+y,z
1/2+x,1/2-y,z
loop_
_atom_site_type_symbol
_atom_site_label
_atom_site_fract_x
_atom_site_fract_y
_atom_site_fract_z
Si Si1 0.724920 0.345069 0.757790
Si Si2 0.147728 0.090572 0.442602
Si Si3 0.927641 0.906587 0.983502
Si Si4 0.710731 0.596923 0.138818
Si Si5 0.047741 0.409362 0.831536
Si Si6 0.087410 0.671383 0.652741
Si Si7 0.508933 0.410005 0.689629
Si Si8 0.116623 0.596369 0.156807
O O1 0.649927 0.350656 0.547524
O O2 0.647430 0.263670 0.719078
O O3 0.632382 0.411929 0.725717
O O4 0.946278 0.357202 0.014829
O O5 0.328678 0.094497 0.581022
O O6 0.984564 0.117733 0.172852
O O7 0.121838 0.000000 0.456665
O O8 0.064606 0.870837 0.055212
O O9 0.929928 0.000000 0.967754
O O10 0.723517 0.874271 0.729508
O O11 0.750602 0.500000 0.190352
O O12 0.890342 0.649198 0.373583
O O13 0.626706 0.627773 0.925930
O O14 0.113041 0.500000 0.880967
O O15 0.111241 0.353656 0.806754
O O16 0.129839 0.381306 0.043998
O O17 0.464522 0.500000 0.673046
O O18 0.305687 0.371262 0.432765
O O19 0.085100 0.500000 0.130411
#
# Coordination Sequence:
#
# PCOD8053809 Si02
#       8
#     4   4   4   4   4   4   4   4
#     4  11  24  39  58  98 134 165 199 258 333 395
#     4   9  18  38  67  90 118 158 214 276 311 353
#     4  10  21  38  63  91 119 165 223 271 309 359
#     4  10  22  43  64  90 129 170 219 264 307 378
#     4   9  17  36  65  94 122 159 215 274 315 360
#     4  12  24  37  59  98 133 171 200 251 335 398
#     4  10  22  42  69  92 120 171 223 263 309 377
#     4   9  20  41  69  97 123 163 223 279 317 360
#
# _framework density 21.481621000000001
#
# number of rings (size 3 to 8) (size 9 to 14) (size 15 to 20)
#    0.000    2.000    1.250    3.000    1.750    3.000 
#    4.500    2.500    0.000    0.000    0.000    0.000 
#    0.000    0.000    0.000    0.000    0.000    0.000 
#
# Total GULP energy -198301.375933 kJ/mol
# GULP energy per Si atom -12393.835996 kJ/mol
# Density = 2.143273 g / cm^3
# Si number density = 21.481621 Si / 1000 Ang^3
#
#
#
# Elastic Constant Matrix: (Units=GPa)
#
#
# Indices 1 2 3 4 5 6 
#
# 1 190.1365 -1.4107 104.4576 0.0000 -21.2493 0.0000
# 2 -1.4107 89.0455 1.9334 0.0000 22.6592 0.0000
# 3 104.4576 1.9334 155.9633 0.0000 -4.3302 0.0000
# 4 0.0000 0.0000 0.0000 21.4111 0.0000 4.6294
# 5 -21.2493 22.6592 -4.3302 0.0000 45.2597 0.0000
# 6 0.0000 0.0000 0.0000 4.6294 0.0000 25.3001
#
#
#
# Elastic Compliance Matrix: (Units=1/GPa)
#
#
# Indices 1 2 3 4 5 6 
#
# 1 0.008915 -0.000750 -0.005851 0.000000 0.004001 0.000000
# 2 -0.000750 0.012951 0.000152 0.000000 -0.006821 0.000000
# 3 -0.005851 0.000152 0.010277 0.000000 -0.001840 0.000000
# 4 0.000000 0.000000 0.000000 0.048629 0.000000 -0.008898
# 5 0.004001 -0.006821 -0.001840 0.000000 0.027212 0.000000
# 6 0.000000 0.000000 0.000000 -0.008898 0.000000 0.041154
#
#
# Mechanical properties :
#
#
# Convention : Reuss Voigt Hill
#
# Bulk Modulus (GPa) = 51.95648 71.67844 61.81746
# Shear Modulus (GPa) = 29.68231 40.40516 35.04374
#
# Velocity S-wave (km/s) = 3.72123 4.34166 4.04336
# Velocity P-wave (km/s) = 6.53470 7.65331 7.11602
#
# Compressibility (1/GPa) = 0.01924688
#
# Stress axis : x y z
#
# Youngs Moduli (GPa) = 112.16726 77.21511 97.30156
#
# Poissons Ratio (x) = 0.05791 0.56928
# Poissons Ratio (y) = 0.08412 -0.01482
# Poissons Ratio (z) = 0.65625 -0.01176
#
# Static dielectric constant tensor:
#      x y z
#    x 3.811810 0.000000 -0.044150 
#    y 0.000000 3.517220 0.000000 
#    z -0.044150 0.000000 3.970890 
# 
# 
# High freq. dielectric constant tensor:
#      x y z
#    x 1.850750 0.000000 0.006060 
#    y 0.000000 1.810300 0.000000 
#    z 0.006060 0.000000 1.850740 
# 
# From -- ./inp_files/22415.got.cif
#   From: 2010.03.12/outbox.cif.g09.slc.cpg/sg8_12_cif.got.tgz:22415.got - 2010.03.31 10:45:26.
