data_PCOD8053872
_publ_section_title
;
Structure prediction by ZEFSAII (Michael W. Deem and Ramdas Pophale) SiO2 
 PCOD8053872
Probable space group: C M
;
_chemical_formula_sum "Si O2"
_cell_formula_units_Z 32
_cell_length_a 18.631591
_cell_length_b 13.743632
_cell_length_c 12.998744
_cell_angle_alpha 90.000000
_cell_angle_beta 154.212844
_cell_angle_gamma 90.000000
_cell_volume 1448.009207
_symmetry_space_group_name_H-M "C M"
_symmetry_group_IT_number 8
_symmetry_cell_setting 'monoclinic'
loop_
_space_group_symop_operation_xyz
x,y,z
x,-y,z
1/2+x,1/2+y,z
1/2+x,1/2-y,z
loop_
_atom_site_type_symbol
_atom_site_label
_atom_site_fract_x
_atom_site_fract_y
_atom_site_fract_z
Si Si1 0.057960 0.609398 0.963370
Si Si2 0.141346 0.387961 0.840292
Si Si3 0.834171 0.890380 0.473221
Si Si4 0.693915 0.113341 0.502962
Si Si5 0.991835 0.794156 0.988636
Si Si6 0.190240 0.888372 0.922096
Si Si7 0.412144 0.247946 0.115572
Si Si8 0.308878 0.887217 0.302741
O O1 0.987315 0.500000 0.891959
O O2 0.065238 0.633824 0.853418
O O3 0.243782 0.617365 0.247656
O O4 0.946852 0.689844 0.878226
O O5 0.188186 0.500000 0.887784
O O6 0.997311 0.358169 0.573645
O O7 0.315782 0.332577 0.052688
O O8 0.714482 0.854651 0.409833
O O9 0.010456 0.836323 0.698330
O O10 0.879848 0.000000 0.563366
O O11 0.562445 0.194519 0.372208
O O12 0.634310 0.000000 0.439386
O O13 0.866512 0.124393 0.785042
O O14 0.969132 0.789465 0.080848
O O15 0.179889 0.823691 0.203625
O O16 0.177929 0.000000 0.877615
O O17 0.279058 0.839502 0.938742
O O18 0.285210 0.867713 0.151368
O O19 0.276629 0.000000 0.288457
#
# Coordination Sequence:
#
# PCOD8053872 Si02
#       8
#     4   4   4   4   4   4   4   4
#     4  10  22  41  66  92 128 177 226 276 331 396
#     4  10  25  45  64  92 136 181 224 275 338 409
#     4   9  18  38  67  91 121 168 227 282 322 379
#     4  11  24  45  67 100 139 176 226 284 341 399
#     4  12  25  39  68 101 133 174 225 280 342 400
#     4  10  21  40  67  98 127 171 232 286 335 391
#     4  12  27  39  62 100 140 177 212 271 351 408
#     4  10  22  43  70  96 126 176 235 286 329 396
#
# _framework density 22.099307
#
# number of rings (size 3 to 8) (size 9 to 14) (size 15 to 20)
#    0.000    1.500    2.500    1.500    5.250    2.500 
#    0.000    0.625    0.000    0.000    0.000    0.000 
#    0.000    0.000    0.000    0.000    0.000    0.000 
#
# Total GULP energy -198273.669739 kJ/mol
# GULP energy per Si atom -12392.104359 kJ/mol
# Density = 2.204901 g / cm^3
# Si number density = 22.099307 Si / 1000 Ang^3
#
#
#
# Elastic Constant Matrix: (Units=GPa)
#
#
# Indices 1 2 3 4 5 6 
#
# 1 46.0464 20.1100 -2.8017 0.0000 11.2502 0.0000
# 2 20.1100 93.7383 14.3641 0.0000 10.7005 0.0000
# 3 -2.8017 14.3641 76.3241 0.0000 8.6921 0.0000
# 4 0.0000 0.0000 0.0000 33.2497 0.0000 9.0154
# 5 11.2502 10.7005 8.6921 0.0000 34.3856 0.0000
# 6 0.0000 0.0000 0.0000 9.0154 0.0000 37.0356
#
#
#
# Elastic Compliance Matrix: (Units=1/GPa)
#
#
# Indices 1 2 3 4 5 6 
#
# 1 0.025988 -0.005134 0.002787 0.000000 -0.007610 0.000000
# 2 -0.005134 0.012304 -0.002326 0.000000 -0.001561 0.000000
# 3 0.002787 -0.002326 0.014069 0.000000 -0.003744 0.000000
# 4 0.000000 0.000000 0.000000 0.032201 0.000000 -0.007838
# 5 -0.007610 -0.001561 -0.003744 0.000000 0.033004 0.000000
# 6 0.000000 0.000000 0.000000 -0.007838 0.000000 0.028909
#
#
# Mechanical properties :
#
#
# Convention : Reuss Voigt Hill
#
# Bulk Modulus (GPa) = 23.24816 31.05041 27.14928
# Shear Modulus (GPa) = 29.38431 33.22995 31.30713
#
# Velocity S-wave (km/s) = 3.65039 3.88192 3.76793
# Velocity P-wave (km/s) = 5.32070 5.84579 5.58941
#
# Compressibility (1/GPa) = 0.04301416
#
# Stress axis : x y z
#
# Youngs Moduli (GPa) = 38.47928 81.27415 71.08076
#
# Poissons Ratio (x) = 0.41723 -0.19808
# Poissons Ratio (y) = 0.19754 0.16535
# Poissons Ratio (z) = -0.10723 0.18906
#
# Static dielectric constant tensor:
#      x y z
#    x 3.881730 0.000000 0.145940 
#    y 0.000000 4.240930 0.000000 
#    z 0.145940 0.000000 3.959880 
# 
# 
# High freq. dielectric constant tensor:
#      x y z
#    x 1.854620 0.000000 0.004560 
#    y 0.000000 1.884020 0.000000 
#    z 0.004560 0.000000 1.861000 
# 
# From -- ./inp_files/23340.got.cif
#   From: 2010.03.12/outbox.cif.g09.slc.cpg/sg8_12_cif.got.tgz:23340.got - 2010.03.31 10:45:26.
