data_PCOD8053249
_publ_section_title
;
Structure prediction by ZEFSAII (Michael W. Deem and Ramdas Pophale) SiO2 
 PCOD8053249
Probable space group: C M
;
_chemical_formula_sum "Si O2"
_cell_formula_units_Z 32
_cell_length_a 32.917501
_cell_length_b 8.500778
_cell_length_c 12.443191
_cell_angle_alpha 90.000000
_cell_angle_beta 153.571815
_cell_angle_gamma 90.000000
_cell_volume 1549.712824
_symmetry_space_group_name_H-M "C M"
_symmetry_group_IT_number 8
_symmetry_cell_setting 'monoclinic'
loop_
_space_group_symop_operation_xyz
x,y,z
x,-y,z
1/2+x,1/2+y,z
1/2+x,1/2-y,z
loop_
_atom_site_type_symbol
_atom_site_label
_atom_site_fract_x
_atom_site_fract_y
_atom_site_fract_z
Si Si1 0.698980 0.317902 0.271660
Si Si2 0.638130 0.815948 0.555448
Si Si3 0.025942 0.185483 0.477773
Si Si4 0.584181 0.682147 0.205069
Si Si5 0.331056 0.685181 0.090349
Si Si6 0.398447 0.178900 0.701195
Si Si7 0.398352 0.682020 0.476528
Si Si8 0.579188 0.182163 0.817819
O O1 0.679087 0.500000 0.200004
O O2 0.641616 0.259913 0.238454
O O3 0.806148 0.290900 0.550320
O O4 0.671990 0.215941 0.102925
O O5 0.561586 0.729017 0.444595
O O6 0.617083 0.786482 0.381830
O O7 0.633790 0.000000 0.570723
O O8 0.738386 0.744540 0.820212
O O9 0.090028 0.269581 0.718646
O O10 0.921618 0.249083 0.243917
O O11 0.029992 0.000000 0.506056
O O12 0.602212 0.500000 0.273089
O O13 0.476931 0.706329 0.929495
O O14 0.329959 0.500000 0.073662
O O15 0.334652 0.730645 0.225015
O O16 0.372890 0.210444 0.516772
O O17 0.432397 0.000000 0.794265
O O18 0.385655 0.500000 0.477439
O O19 0.503001 0.709178 0.692165
O O20 0.552754 0.000000 0.763771
#
# Coordination Sequence:
#
# PCOD8053249 Si02
#       8
#     4   4   4   4   4   4   4   4
#     4  10  23  41  61  88 124 161 204 256 313 368
#     4  11  23  41  64  91 121 159 208 261 302 362
#     4  10  21  40  62  89 124 163 202 248 308 371
#     4  11  24  44  64  85 121 169 208 252 310 371
#     4   8  19  38  60  86 121 161 200 244 300 362
#     4  11  23  39  61  93 123 158 205 258 309 365
#     4  10  19  36  60  88 126 166 200 249 310 369
#     4  11  21  35  60  92 126 163 205 252 306 366
#
# _framework density 20.648987000000002
#
# number of rings (size 3 to 8) (size 9 to 14) (size 15 to 20)
#    0.000    1.750    1.250    3.750    1.750    2.500 
#    0.000    9.375    0.000    0.000    0.000    0.000 
#    0.000    0.000    0.000    0.000    0.000    0.000 
#
# Total GULP energy -198446.766248 kJ/mol
# GULP energy per Si atom -12402.922891 kJ/mol
# Density = 2.060199 g / cm^3
# Si number density = 20.648987 Si / 1000 Ang^3
#
#
#
# Elastic Constant Matrix: (Units=GPa)
#
#
# Indices 1 2 3 4 5 6 
#
# 1 78.6928 20.6478 55.5639 0.0000 -4.5963 0.0000
# 2 20.6478 53.3886 20.9453 0.0000 1.9705 0.0000
# 3 55.5639 20.9453 123.0702 0.0000 -0.7388 0.0000
# 4 0.0000 0.0000 0.0000 27.7656 0.0000 -4.5328
# 5 -4.5963 1.9705 -0.7388 0.0000 28.2206 0.0000
# 6 0.0000 0.0000 0.0000 -4.5328 0.0000 30.9948
#
#
#
# Elastic Compliance Matrix: (Units=1/GPa)
#
#
# Indices 1 2 3 4 5 6 
#
# 1 0.019882 -0.004607 -0.008172 0.000000 0.003346 0.000000
# 2 -0.004607 0.021201 -0.001542 0.000000 -0.002271 0.000000
# 3 -0.008172 -0.001542 0.012072 0.000000 -0.000907 0.000000
# 4 0.000000 0.000000 0.000000 0.036897 0.000000 0.005396
# 5 0.003346 -0.002271 -0.000907 0.000000 0.036115 0.000000
# 6 0.000000 0.000000 0.000000 0.005396 0.000000 0.033053
#
#
# Mechanical properties :
#
#
# Convention : Reuss Voigt Hill
#
# Bulk Modulus (GPa) = 40.79433 49.94062 45.36747
# Shear Modulus (GPa) = 25.50600 27.92918 26.71759
#
# Velocity S-wave (km/s) = 3.51838 3.68172 3.60098
# Velocity P-wave (km/s) = 6.02531 6.50472 6.26960
#
# Compressibility (1/GPa) = 0.02451321
#
# Stress axis : x y z
#
# Youngs Moduli (GPa) = 50.29637 47.16764 82.83577
#
# Poissons Ratio (x) = 0.21729 0.67696
# Poissons Ratio (y) = 0.23170 0.12773
# Poissons Ratio (z) = 0.41104 0.07273
#
# Static dielectric constant tensor:
#      x y z
#    x 3.717220 0.000000 0.071740 
#    y 0.000000 3.502800 0.000000 
#    z 0.071740 0.000000 3.846910 
# 
# 
# High freq. dielectric constant tensor:
#      x y z
#    x 1.803870 0.000000 0.004200 
#    y 0.000000 1.798770 0.000000 
#    z 0.004200 0.000000 1.807680 
# 
# From -- ./inp_files/24359.got.cif
#   From: 2010.03.12/outbox.cif.g09.slc.cpg/sg8_13_cif.got.tgz:24359.got - 2010.03.31 10:45:26.
