data_PCOD8053972
_publ_section_title
;
Structure prediction by ZEFSAII (Michael W. Deem and Ramdas Pophale) SiO2 
 PCOD8053972
Probable space group: C M
;
_chemical_formula_sum "Si O2"
_cell_formula_units_Z 20
_cell_length_a 14.764046
_cell_length_b 11.735121
_cell_length_c 5.721930
_cell_angle_alpha 90.000000
_cell_angle_beta 121.348013
_cell_angle_gamma 90.000000
_cell_volume 846.652434
_symmetry_space_group_name_H-M "C M"
_symmetry_group_IT_number 8
_symmetry_cell_setting 'monoclinic'
loop_
_space_group_symop_operation_xyz
x,y,z
x,-y,z
1/2+x,1/2+y,z
1/2+x,1/2-y,z
loop_
_atom_site_type_symbol
_atom_site_label
_atom_site_fract_x
_atom_site_fract_y
_atom_site_fract_z
Si Si1 0.118640 0.778476 0.254940
Si Si2 0.008671 0.000000 0.237683
Si Si3 0.005053 0.372999 0.768285
Si Si4 0.389221 0.500000 0.580113
Si Si5 0.718365 0.126304 0.771585
Si Si6 0.822197 0.769929 0.312883
O O1 0.183608 0.702810 0.517699
O O2 0.213231 0.803574 0.195464
O O3 0.081977 0.889011 0.341835
O O4 0.019215 0.708432 0.013200
O O5 0.950106 0.000000 0.409044
O O6 0.956154 0.000000 0.908567
O O7 0.962759 0.500000 0.780255
O O8 0.923512 0.311808 0.481334
O O9 0.120175 0.388307 0.813934
O O10 0.324186 0.380728 0.490223
O O11 0.755155 0.000000 0.733602
O O12 0.819542 0.181329 0.043253
#
# Coordination Sequence:
#
# PCOD8053972 Si02
#       6
#     4   2   4   2   4   4
#     4  11  25  42  68  98 139 184 235 295 354 426
#     4  12  28  48  74 103 152 188 241 298 374 413
#     4  10  22  43  64  94 136 179 227 290 354 425
#     4  12  26  48  76 107 138 194 243 304 348 441
#     4  10  22  41  65  95 132 181 232 294 347 423
#     4  11  24  40  70  99 138 177 245 280 360 414
#
# _framework density 23.622443000000001
#
# number of rings (size 3 to 8) (size 9 to 14) (size 15 to 20)
#    0.000    1.200    3.000    1.800    9.800    1.600 
#    1.800    0.000    0.000    0.000    0.000    0.000 
#    0.000    0.000    0.000    0.000    0.000    0.000 
#
# Total GULP energy -123914.362626 kJ/mol
# GULP energy per Si atom -12391.436263 kJ/mol
# Density = 2.356868 g / cm^3
# Si number density = 23.622443 Si / 1000 Ang^3
#
#
#
# Elastic Constant Matrix: (Units=GPa)
#
#
# Indices 1 2 3 4 5 6 
#
# 1 43.7180 47.0305 24.1502 0.0000 8.8688 0.0000
# 2 47.0305 157.1661 59.5128 0.0000 10.4214 0.0000
# 3 24.1502 59.5128 169.9777 0.0000 14.2990 0.0000
# 4 0.0000 0.0000 0.0000 45.5811 0.0000 8.8397
# 5 8.8688 10.4214 14.2990 0.0000 30.3419 0.0000
# 6 0.0000 0.0000 0.0000 8.8397 0.0000 12.3798
#
#
#
# Elastic Compliance Matrix: (Units=1/GPa)
#
#
# Indices 1 2 3 4 5 6 
#
# 1 0.035213 -0.009707 -0.001061 0.000000 -0.006458 0.000000
# 2 -0.009707 0.010066 -0.002179 0.000000 0.000407 0.000000
# 3 -0.001061 -0.002179 0.006985 0.000000 -0.002233 0.000000
# 4 0.000000 0.000000 0.000000 0.025465 0.000000 -0.018183
# 5 -0.006458 0.000407 -0.002233 0.000000 0.035758 0.000000
# 6 0.000000 0.000000 0.000000 -0.018183 0.000000 0.093760
#
#
# Mechanical properties :
#
#
# Convention : Reuss Voigt Hill
#
# Bulk Modulus (GPa) = 37.92425 70.24987 54.08706
# Shear Modulus (GPa) = 20.66708 33.67179 27.16943
#
# Velocity S-wave (km/s) = 2.96107 3.77956 3.39507
# Velocity P-wave (km/s) = 5.27065 6.98928 6.18990
#
# Compressibility (1/GPa) = 0.02636835
#
# Stress axis : x y z
#
# Youngs Moduli (GPa) = 28.39886 99.34776 143.16936
#
# Poissons Ratio (x) = 0.96437 0.15191
# Poissons Ratio (y) = 0.27567 0.31201
# Poissons Ratio (z) = 0.03013 0.21651
#
# Static dielectric constant tensor:
#      x y z
#    x 4.505880 0.000000 -0.013290 
#    y 0.000000 5.032210 0.000000 
#    z -0.013290 0.000000 4.369280 
# 
# 
# High freq. dielectric constant tensor:
#      x y z
#    x 1.936100 0.000000 -0.001340 
#    y 0.000000 1.938910 0.000000 
#    z -0.001340 0.000000 1.944910 
# 
# From -- ./inp_files/2484.got.cif
#   From: 2010.03.12/outbox.cif.g09.slc.cpg/sg8_2_cif.got.tgz:2484.got - 2010.03.31 10:45:26.
