data_PCOD8053122
_publ_section_title
;
Structure prediction by ZEFSAII (Michael W. Deem and Ramdas Pophale) SiO2 
 PCOD8053122
Probable space group: C M
;
_chemical_formula_sum "Si O2"
_cell_formula_units_Z 32
_cell_length_a 20.444750
_cell_length_b 8.588992
_cell_length_c 20.126694
_cell_angle_alpha 90.000000
_cell_angle_beta 151.632678
_cell_angle_gamma 90.000000
_cell_volume 1679.198291
_symmetry_space_group_name_H-M "C M"
_symmetry_group_IT_number 8
_symmetry_cell_setting 'monoclinic'
loop_
_space_group_symop_operation_xyz
x,y,z
x,-y,z
1/2+x,1/2+y,z
1/2+x,1/2-y,z
loop_
_atom_site_type_symbol
_atom_site_label
_atom_site_fract_x
_atom_site_fract_y
_atom_site_fract_z
Si Si1 0.073500 0.818255 0.580350
Si Si2 0.991200 0.819025 0.280438
Si Si3 0.301581 0.821189 0.569638
Si Si4 0.611227 0.181734 0.010027
Si Si5 0.867583 0.317614 0.301518
Si Si6 0.331346 0.680237 0.738157
Si Si7 0.038679 0.820164 0.700272
Si Si8 0.740337 0.318632 0.996420
O O1 0.188798 0.722272 0.644968
O O2 0.075853 0.769346 0.659245
O O3 0.926074 0.772574 0.417864
O O4 0.102216 0.000000 0.596106
O O5 0.149975 0.791035 0.403718
O O6 0.956826 0.728803 0.317229
O O7 0.895074 0.751242 0.135559
O O8 0.957741 0.000000 0.261599
O O9 0.326377 0.715089 0.655602
O O10 0.410333 0.781388 0.609864
O O11 0.317745 0.000000 0.606370
O O12 0.453193 0.224659 0.883115
O O13 0.635105 0.000000 0.040201
O O14 0.708750 0.270054 0.149626
O O15 0.646605 0.231950 0.966657
O O16 0.879599 0.500000 0.324767
O O17 0.363320 0.500000 0.775898
O O18 0.994463 0.000000 0.664194
O O19 0.174420 0.788565 0.865611
O O20 0.745088 0.500000 0.019235
#
# Coordination Sequence:
#
# PCOD8053122 Si02
#       8
#     4   4   4   4   4   4   4   4
#     4  11  23  41  60  84 118 159 200 241 294 353
#     4  10  20  34  55  85 117 150 190 239 289 343
#     4  11  22  36  59  87 117 152 196 243 289 346
#     4  11  21  35  58  87 117 152 190 242 294 345
#     4  11  21  35  57  86 117 153 192 242 294 347
#     4  12  23  37  59  88 118 151 197 248 293 343
#     4  10  23  40  60  84 118 157 195 240 292 352
#     4  10  19  34  56  85 116 150 192 237 287 347
#
# _framework density 19.056712000000001
#
# number of rings (size 3 to 8) (size 9 to 14) (size 15 to 20)
#    0.000    1.250    2.500    6.375    0.000    3.000 
#    0.000    1.250    0.000    4.500    0.000    0.000 
#    0.000    0.000    0.000    0.000    0.000    0.000 
#
# Total GULP energy -198475.107635 kJ/mol
# GULP energy per Si atom -12404.694227 kJ/mol
# Density = 1.901334 g / cm^3
# Si number density = 19.056712 Si / 1000 Ang^3
#
#
#
# Elastic Constant Matrix: (Units=GPa)
#
#
# Indices 1 2 3 4 5 6 
#
# 1 61.8417 22.3884 39.1485 0.0000 -8.1164 0.0000
# 2 22.3884 82.8372 26.8159 0.0000 1.8880 0.0000
# 3 39.1485 26.8159 128.4505 0.0000 -3.3775 0.0000
# 4 0.0000 0.0000 0.0000 35.4600 0.0000 2.8756
# 5 -8.1164 1.8880 -3.3775 0.0000 29.6027 0.0000
# 6 0.0000 0.0000 0.0000 2.8756 0.0000 24.2593
#
#
#
# Elastic Compliance Matrix: (Units=1/GPa)
#
#
# Indices 1 2 3 4 5 6 
#
# 1 0.022051 -0.004249 -0.005685 0.000000 0.005668 0.000000
# 2 -0.004249 0.013804 -0.001646 0.000000 -0.002233 0.000000
# 3 -0.005685 -0.001646 0.009852 0.000000 -0.000330 0.000000
# 4 0.000000 0.000000 0.000000 0.028474 0.000000 -0.003375
# 5 0.005668 -0.002233 -0.000330 0.000000 0.035440 0.000000
# 6 0.000000 0.000000 0.000000 -0.003375 0.000000 0.041621
#
#
# Mechanical properties :
#
#
# Convention : Reuss Voigt Hill
#
# Bulk Modulus (GPa) = 44.34672 49.98164 47.16418
# Shear Modulus (GPa) = 27.48509 30.18285 28.83397
#
# Velocity S-wave (km/s) = 3.80185 3.98407 3.89403
# Velocity P-wave (km/s) = 6.52637 6.88829 6.70977
#
# Compressibility (1/GPa) = 0.02254958
#
# Stress axis : x y z
#
# Youngs Moduli (GPa) = 45.34955 72.44405 101.49736
#
# Poissons Ratio (x) = 0.30779 0.57697
# Poissons Ratio (y) = 0.19268 0.16702
# Poissons Ratio (z) = 0.25779 0.11921
#
# Static dielectric constant tensor:
#      x y z
#    x 3.157950 0.000000 0.037440 
#    y 0.000000 3.577560 0.000000 
#    z 0.037440 0.000000 3.879060 
# 
# 
# High freq. dielectric constant tensor:
#      x y z
#    x 1.699950 0.000000 0.005640 
#    y 0.000000 1.756550 0.000000 
#    z 0.005640 0.000000 1.761210 
# 
# From -- ./inp_files/31370.got.cif
#   From: 2010.03.12/outbox.cif.g09.slc.cpg/sg8_16_cif.got.tgz:31370.got - 2010.03.31 10:45:26.
