data_PCOD8053536
_publ_section_title
;
Structure prediction by ZEFSAII (Michael W. Deem and Ramdas Pophale) SiO2 
 PCOD8053536
Probable space group: C M
;
_chemical_formula_sum "Si O2"
_cell_formula_units_Z 32
_cell_length_a 33.376250
_cell_length_b 9.002901
_cell_length_c 12.621728
_cell_angle_alpha 90.000000
_cell_angle_beta 154.523434
_cell_angle_gamma 90.000000
_cell_volume 1631.362907
_symmetry_space_group_name_H-M "C M"
_symmetry_group_IT_number 8
_symmetry_cell_setting 'monoclinic'
loop_
_space_group_symop_operation_xyz
x,y,z
x,-y,z
1/2+x,1/2+y,z
1/2+x,1/2-y,z
loop_
_atom_site_type_symbol
_atom_site_label
_atom_site_fract_x
_atom_site_fract_y
_atom_site_fract_z
Si Si1 0.507130 0.323720 0.469360
Si Si2 0.627072 0.173819 0.204257
Si Si3 0.959117 0.166274 0.123235
Si Si4 0.943669 0.670842 0.877514
Si Si5 0.747454 0.677068 0.322134
Si Si6 0.247279 0.667388 0.679724
Si Si7 0.692347 0.823216 0.977400
Si Si8 0.301684 0.676522 0.031156
O O1 0.522618 0.500000 0.517759
O O2 0.507747 0.275326 0.347006
O O3 0.587039 0.234812 0.720707
O O4 0.409738 0.273697 0.290724
O O5 0.659534 0.265731 0.179709
O O6 0.677915 0.243418 0.429873
O O7 0.652290 0.000000 0.248229
O O8 0.516478 0.196807 0.955353
O O9 0.992788 0.000000 0.181444
O O10 0.986938 0.260972 0.087616
O O11 0.849015 0.172915 0.873180
O O12 0.930933 0.500000 0.872930
O O13 0.843384 0.735807 0.604346
O O14 0.744172 0.500000 0.304205
O O15 0.744135 0.749409 0.199120
O O16 0.211434 0.500000 0.608186
O O17 0.249485 0.743883 0.801859
O O18 0.692771 0.000000 0.989566
O O19 0.749000 0.768033 0.009509
O O20 0.300207 0.500000 0.016136
#
# Coordination Sequence:
#
# PCOD8053536 Si02
#       8
#     4   4   4   4   4   4   4   4
#     4   9  19  37  58  84 118 152 186 230 285 335
#     4  10  20  36  60  86 112 149 193 233 279 337
#     4   9  17  32  57  85 117 154 187 224 277 345
#     4  10  22  36  56  86 116 148 187 239 290 330
#     4  11  24  42  57  78 118 155 188 238 292 336
#     4   8  14  29  55  83 113 148 183 224 269 329
#     4  11  23  38  61  86 109 148 200 240 276 337
#     4   8  17  34  56  84 115 150 188 224 276 341
#
# _framework density 19.615500000000001
#
# number of rings (size 3 to 8) (size 9 to 14) (size 15 to 20)
#    0.000    2.500    1.250    2.250    1.750    2.500 
#    0.000    3.750    0.000    1.500    0.000    0.000 
#    0.000    0.000    0.000    0.000    0.000    0.000 
#
# Total GULP energy -198341.229241 kJ/mol
# GULP energy per Si atom -12396.326828 kJ/mol
# Density = 1.957085 g / cm^3
# Si number density = 19.615500 Si / 1000 Ang^3
#
#
#
# Elastic Constant Matrix: (Units=GPa)
#
#
# Indices 1 2 3 4 5 6 
#
# 1 115.5571 31.2071 26.0763 0.0000 -7.0456 0.0000
# 2 31.2071 48.3913 22.0480 0.0000 -3.4491 0.0000
# 3 26.0763 22.0480 62.6786 0.0000 -5.9271 0.0000
# 4 0.0000 0.0000 0.0000 26.3137 0.0000 -3.1461
# 5 -7.0456 -3.4491 -5.9271 0.0000 26.8881 0.0000
# 6 0.0000 0.0000 0.0000 -3.1461 0.0000 26.0889
#
#
#
# Elastic Compliance Matrix: (Units=1/GPa)
#
#
# Indices 1 2 3 4 5 6 
#
# 1 0.010846 -0.005828 -0.002312 0.000000 0.001585 0.000000
# 2 -0.005828 0.027783 -0.007308 0.000000 0.000426 0.000000
# 3 -0.002312 -0.007308 0.019753 0.000000 0.002811 0.000000
# 4 0.000000 0.000000 0.000000 0.038559 0.000000 0.004650
# 5 0.001585 0.000426 0.002811 0.000000 0.038281 0.000000
# 6 0.000000 0.000000 0.000000 0.004650 0.000000 0.038891
#
#
# Mechanical properties :
#
#
# Convention : Reuss Voigt Hill
#
# Bulk Modulus (GPa) = 36.38321 42.80997 39.59659
# Shear Modulus (GPa) = 23.34567 25.67784 24.51176
#
# Velocity S-wave (km/s) = 3.45362 3.62202 3.53882
# Velocity P-wave (km/s) = 5.87297 6.27407 6.07683
#
# Compressibility (1/GPa) = 0.02748520
#
# Stress axis : x y z
#
# Youngs Moduli (GPa) = 92.19943 35.99262 50.62520
#
# Poissons Ratio (x) = 0.20977 0.11706
# Poissons Ratio (y) = 0.53734 0.36998
# Poissons Ratio (z) = 0.21320 0.26304
#
# Static dielectric constant tensor:
#      x y z
#    x 3.629860 0.000000 -0.060590 
#    y 0.000000 3.231430 0.000000 
#    z -0.060590 0.000000 3.616250 
# 
# 
# High freq. dielectric constant tensor:
#      x y z
#    x 1.767630 0.000000 -0.000840 
#    y 0.000000 1.730230 0.000000 
#    z -0.000840 0.000000 1.767010 
# 
# From -- ./inp_files/24805.got.cif
#   From: 2010.03.12/outbox.cif.g09.slc.cpg/sg8_13_cif.got.tgz:24805.got - 2010.03.31 10:45:26.
