data_PCOD8053585
_publ_section_title
;
Structure prediction by ZEFSAII (Michael W. Deem and Ramdas Pophale) SiO2 
 PCOD8053585
Probable space group: C M
;
_chemical_formula_sum "Si O2"
_cell_formula_units_Z 32
_cell_length_a 22.260279
_cell_length_b 8.878765
_cell_length_c 11.202359
_cell_angle_alpha 90.000000
_cell_angle_beta 130.929623
_cell_angle_gamma 90.000000
_cell_volume 1672.767796
_symmetry_space_group_name_H-M "C M"
_symmetry_group_IT_number 8
_symmetry_cell_setting 'monoclinic'
loop_
_space_group_symop_operation_xyz
x,y,z
x,-y,z
1/2+x,1/2+y,z
1/2+x,1/2-y,z
loop_
_atom_site_type_symbol
_atom_site_label
_atom_site_fract_x
_atom_site_fract_y
_atom_site_fract_z
Si Si1 0.804660 0.678483 0.244300
Si Si2 0.148396 0.676460 0.941984
Si Si3 0.517686 0.825498 0.169865
Si Si4 0.602737 0.825298 0.616796
Si Si5 0.453360 0.677678 0.317500
Si Si6 0.990527 0.678881 0.868601
Si Si7 0.187874 0.328395 0.489454
Si Si8 0.829714 0.677886 0.544840
O O1 0.813512 0.500000 0.249358
O O2 0.869386 0.753262 0.243867
O O3 0.816122 0.739787 0.393893
O O4 0.718354 0.726139 0.087856
O O5 0.163186 0.500000 0.985999
O O6 0.143653 0.710648 0.795243
O O7 0.067499 0.735151 0.897238
O O8 0.471147 0.727662 0.205873
O O9 0.612262 0.804275 0.305542
O O10 0.494717 0.000000 0.158788
O O11 0.493154 0.763892 0.008253
O O12 0.521464 0.732688 0.497085
O O13 0.665086 0.781299 0.594722
O O14 0.578403 0.000000 0.573417
O O15 0.447483 0.500000 0.315550
O O16 0.989073 0.500000 0.865027
O O17 0.912127 0.745594 0.703050
O O18 0.217433 0.500000 0.522824
O O19 0.258431 0.222914 0.538751
O O20 0.834536 0.500000 0.548974
#
# Coordination Sequence:
#
# PCOD8053585 Si02
#       8
#     4   4   4   4   4   4   4   4
#     4  11  23  38  55  78 112 147 181 226 278 326
#     4  10  20  37  60  82 108 143 185 228 270 324
#     4   9  18  35  57  79 107 143 181 221 270 323
#     4   9  19  37  59  82 112 147 179 220 276 327
#     4  11  22  36  57  83 110 143 185 226 267 323
#     4   9  18  34  57  81 105 140 183 224 270 324
#     4   9  18  33  54  80 109 141 175 215 268 323
#     4  10  21  36  55  79 107 142 181 222 271 324
#
# _framework density 19.129971999999999
#
# number of rings (size 3 to 8) (size 9 to 14) (size 15 to 20)
#    0.000    2.250    0.000    3.750    0.000    7.500 
#    0.000    4.375    0.000    0.000    0.000    0.000 
#    0.000    0.000    0.000    0.000    0.000    0.000 
#
# Total GULP energy -198447.866738 kJ/mol
# GULP energy per Si atom -12402.991671 kJ/mol
# Density = 1.908643 g / cm^3
# Si number density = 19.129972 Si / 1000 Ang^3
#
#
#
# Elastic Constant Matrix: (Units=GPa)
#
#
# Indices 1 2 3 4 5 6 
#
# 1 121.9796 36.9631 71.7743 0.0000 9.8826 0.0000
# 2 36.9631 59.1744 39.0837 0.0000 2.4095 0.0000
# 3 71.7743 39.0837 147.1000 0.0000 -6.0513 0.0000
# 4 0.0000 0.0000 0.0000 26.8113 0.0000 6.4688
# 5 9.8826 2.4095 -6.0513 0.0000 31.4563 0.0000
# 6 0.0000 0.0000 0.0000 6.4688 0.0000 29.5887
#
#
#
# Elastic Compliance Matrix: (Units=1/GPa)
#
#
# Indices 1 2 3 4 5 6 
#
# 1 0.013121 -0.004414 -0.005428 0.000000 -0.004828 0.000000
# 2 -0.004414 0.022201 -0.003788 0.000000 -0.001042 0.000000
# 3 -0.005428 -0.003788 0.010619 0.000000 0.004038 0.000000
# 4 0.000000 0.000000 0.000000 0.039375 0.000000 -0.008608
# 5 -0.004828 -0.001042 0.004038 0.000000 0.034164 0.000000
# 6 0.000000 0.000000 0.000000 -0.008608 0.000000 0.035679
#
#
# Mechanical properties :
#
#
# Convention : Reuss Voigt Hill
#
# Bulk Modulus (GPa) = 53.53034 69.32181 61.42607
# Shear Modulus (GPa) = 26.50502 29.60010 28.05256
#
# Velocity S-wave (km/s) = 3.72630 3.93786 3.83354
# Velocity P-wave (km/s) = 6.82326 7.54928 7.19543
#
# Compressibility (1/GPa) = 0.01868099
#
# Stress axis : x y z
#
# Youngs Moduli (GPa) = 76.21586 45.04370 94.17168
#
# Poissons Ratio (x) = 0.19883 0.51114
# Poissons Ratio (y) = 0.33644 0.35669
# Poissons Ratio (z) = 0.41368 0.17061
#
# Static dielectric constant tensor:
#      x y z
#    x 3.567470 0.000000 -0.131250 
#    y 0.000000 3.244460 0.000000 
#    z -0.131250 0.000000 3.690370 
# 
# 
# High freq. dielectric constant tensor:
#      x y z
#    x 1.754780 0.000000 -0.005680 
#    y 0.000000 1.721120 0.000000 
#    z -0.005680 0.000000 1.750780 
# 
# From -- ./inp_files/23897.got.cif
#   From: 2010.03.12/outbox.cif.g09.slc.cpg/sg8_12_cif.got.tgz:23897.got - 2010.03.31 10:45:26.
