data_PCOD8053937
_publ_section_title
;
Structure prediction by ZEFSAII (Michael W. Deem and Ramdas Pophale) SiO2 
 PCOD8053937
Probable space group: C M
;
_chemical_formula_sum "Si O2"
_cell_formula_units_Z 24
_cell_length_a 4.995830
_cell_length_b 27.775763
_cell_length_c 8.211929
_cell_angle_alpha 90.000000
_cell_angle_beta 97.971033
_cell_angle_gamma 90.000000
_cell_volume 1128.502205
_symmetry_space_group_name_H-M "C M"
_symmetry_group_IT_number 8
_symmetry_cell_setting 'monoclinic'
loop_
_space_group_symop_operation_xyz
x,y,z
x,-y,z
1/2+x,1/2+y,z
1/2+x,1/2-y,z
loop_
_atom_site_type_symbol
_atom_site_label
_atom_site_fract_x
_atom_site_fract_y
_atom_site_fract_z
Si Si1 0.199330 0.281624 0.796900
Si Si2 0.020887 0.873386 0.375529
Si Si3 0.560788 0.944887 0.877498
Si Si4 0.302270 0.718580 0.174232
Si Si5 0.619974 0.555136 0.092331
Si Si6 0.078776 0.626222 0.589918
O O1 0.401352 0.240065 0.756490
O O2 0.218879 0.327932 0.685214
O O3 0.278027 0.298341 0.985259
O O4 0.084792 0.914069 0.250257
O O5 0.302073 0.858051 0.480518
O O6 0.885100 0.826724 0.286406
O O7 0.802144 0.894727 0.484129
O O8 0.498369 0.914367 0.712512
O O9 0.484030 0.000000 0.831778
O O10 0.381319 0.926499 0.014695
O O11 0.871114 0.938681 0.949617
O O12 0.516020 0.761810 0.212751
O O13 0.654642 0.500000 0.151533
#
# Coordination Sequence:
#
# PCOD8053937 Si02
#       6
#     4   4   4   4   4   4
#     4  10  22  40  61  84 115 159 205 244 286 347
#     4  12  25  38  60  93 126 157 191 246 308 355
#     4  10  22  42  66  88 116 159 205 245 289 352
#     4  10  22  40  61  84 115 159 205 244 286 347
#     4  10  22  42  66  88 116 159 205 245 289 352
#     4  12  25  38  60  93 126 157 191 246 308 355
#
# _framework density 21.267126000000001
#
# number of rings (size 3 to 8) (size 9 to 14) (size 15 to 20)
#    0.000    1.333    0.000    5.000    0.000    9.333 
#    0.000    0.000    0.000    0.000    0.000    0.000 
#    0.000    0.000    0.000    0.000    0.000    0.000 
#
# Total GULP energy -148882.337409 kJ/mol
# GULP energy per Si atom -12406.861451 kJ/mol
# Density = 2.121872 g / cm^3
# Si number density = 21.267126 Si / 1000 Ang^3
#
#
#
# Elastic Constant Matrix: (Units=GPa)
#
#
# Indices 1 2 3 4 5 6 
#
# 1 96.2292 17.4192 34.9371 0.0000 -5.6919 0.0000
# 2 17.4192 87.3255 65.0429 0.0000 -10.2197 0.0000
# 3 34.9371 65.0429 107.2208 0.0000 -7.8495 0.0000
# 4 0.0000 0.0000 0.0000 162.2295 0.0000 -28.5084
# 5 -5.6919 -10.2197 -7.8495 0.0000 41.2253 0.0000
# 6 0.0000 0.0000 0.0000 -28.5084 0.0000 27.9252
#
#
#
# Elastic Compliance Matrix: (Units=1/GPa)
#
#
# Indices 1 2 3 4 5 6 
#
# 1 0.011872 0.001057 -0.004432 0.000000 0.001057 0.000000
# 2 0.001057 0.021309 -0.013056 0.000000 0.002943 0.000000
# 3 -0.004432 -0.013056 0.018669 0.000000 -0.000294 0.000000
# 4 0.000000 0.000000 0.000000 0.007512 0.000000 0.007669
# 5 0.001057 0.002943 -0.000294 0.000000 0.025076 0.000000
# 6 0.000000 0.000000 0.000000 0.007669 0.000000 0.043639
#
#
# Mechanical properties :
#
#
# Convention : Reuss Voigt Hill
#
# Bulk Modulus (GPa) = 52.66345 58.39711 55.53028
# Shear Modulus (GPa) = 29.89198 57.83444 43.86321
#
# Velocity S-wave (km/s) = 3.75313 5.22047 4.54639
# Velocity P-wave (km/s) = 6.60287 7.99101 7.32988
#
# Compressibility (1/GPa) = 0.01898850
#
# Stress axis : x y z
#
# Youngs Moduli (GPa) = 84.23015 46.92799 53.56447
#
# Poissons Ratio (x) = -0.04959 0.23740
# Poissons Ratio (y) = -0.08901 0.69932
# Poissons Ratio (z) = 0.37332 0.61267
#
# Static dielectric constant tensor:
#      x y z
#    x 4.082770 0.000000 -0.017890 
#    y 0.000000 3.554910 0.000000 
#    z -0.017890 0.000000 3.881320 
# 
# 
# High freq. dielectric constant tensor:
#      x y z
#    x 1.854850 0.000000 0.000760 
#    y 0.000000 1.829070 0.000000 
#    z 0.000760 0.000000 1.837840 
# 
# From -- ./inp_files/6929.got.cif
#   From: 2010.03.12/outbox.cif.g09.slc.cpg/sg8_4_cif.got.tgz:6929.got - 2010.03.31 10:45:26.
