data_PCOD8053430
_publ_section_title
;
Structure prediction by ZEFSAII (Michael W. Deem and Ramdas Pophale) SiO2 
 PCOD8053430
Probable space group: C M
;
_chemical_formula_sum "Si O2"
_cell_formula_units_Z 32
_cell_length_a 10.974009
_cell_length_b 24.101756
_cell_length_c 6.592208
_cell_angle_alpha 90.000000
_cell_angle_beta 75.176453
_cell_angle_gamma 90.000000
_cell_volume 1685.562462
_symmetry_space_group_name_H-M "C M"
_symmetry_group_IT_number 8
_symmetry_cell_setting 'monoclinic'
loop_
_space_group_symop_operation_xyz
x,y,z
x,-y,z
1/2+x,1/2+y,z
1/2+x,1/2-y,z
loop_
_atom_site_type_symbol
_atom_site_label
_atom_site_fract_x
_atom_site_fract_y
_atom_site_fract_z
Si Si1 0.377650 0.936551 0.004720
Si Si2 0.999092 0.186728 0.603518
Si Si3 0.171673 0.227464 0.871910
Si Si4 0.122833 0.561425 0.163294
Si Si5 0.395030 0.794083 0.486701
Si Si6 0.238597 0.647095 0.842942
Si Si7 0.216743 0.840785 0.239420
Si Si8 0.546027 0.108542 0.594948
O O1 0.488749 0.928214 0.116647
O O2 0.260591 0.899566 0.130369
O O3 0.331058 0.000000 0.012376
O O4 0.426189 0.917280 0.763040
O O5 0.953193 0.232406 0.458578
O O6 0.884978 0.147247 0.718666
O O7 0.049686 0.218277 0.782617
O O8 0.107244 0.149210 0.453130
O O9 0.293668 0.202920 0.709477
O O10 0.185985 0.292195 0.916838
O O11 0.156203 0.196126 0.089443
O O12 0.174001 0.500000 0.087702
O O13 0.101596 0.564522 0.412778
O O14 0.223068 0.607237 0.044583
O O15 0.332990 0.807737 0.294933
O O16 0.505414 0.837254 0.487208
O O17 0.160470 0.621983 0.692526
#
# Coordination Sequence:
#
# PCOD8053430 Si02
#       8
#     4   4   4   4   4   4   4   4
#     4  10  21  37  58  88 115 145 193 242 290 338
#     4  10  23  38  55  86 122 157 191 226 286 355
#     4  10  21  36  57  85 120 153 185 234 285 345
#     4  10  22  37  59  86 114 150 195 240 288 335
#     4  10  20  35  55  86 118 147 190 227 289 341
#     4  10  23  37  59  85 118 155 191 233 283 344
#     4  11  22  36  61  85 120 153 188 240 286 344
#     4  11  19  36  60  85 115 148 184 240 289 334
#
# _framework density 18.984760000000001
#
# number of rings (size 3 to 8) (size 9 to 14) (size 15 to 20)
#    0.000    1.750    3.750    0.375    1.750    3.500 
#    0.000    0.625    0.000    2.250    0.000    0.000 
#    0.000    0.000    0.000    0.000    0.000    0.000 
#
# Total GULP energy -198435.721955 kJ/mol
# GULP energy per Si atom -12402.232622 kJ/mol
# Density = 1.894155 g / cm^3
# Si number density = 18.984760 Si / 1000 Ang^3
#
#
#
# Elastic Constant Matrix: (Units=GPa)
#
#
# Indices 1 2 3 4 5 6 
#
# 1 78.4958 38.5491 40.4314 0.0000 -12.2024 0.0000
# 2 38.5491 116.1658 63.8410 0.0000 -16.8825 0.0000
# 3 40.4314 63.8410 102.8036 0.0000 -8.0558 0.0000
# 4 0.0000 0.0000 0.0000 28.1086 0.0000 -3.9048
# 5 -12.2024 -16.8825 -8.0558 0.0000 27.9409 0.0000
# 6 0.0000 0.0000 0.0000 -3.9048 0.0000 23.0473
#
#
#
# Elastic Compliance Matrix: (Units=1/GPa)
#
#
# Indices 1 2 3 4 5 6 
#
# 1 0.017141 -0.002285 -0.004956 0.000000 0.004676 0.000000
# 2 -0.002285 0.014319 -0.007565 0.000000 0.005473 0.000000
# 3 -0.004956 -0.007565 0.016213 0.000000 -0.002061 0.000000
# 4 0.000000 0.000000 0.000000 0.036434 0.000000 0.006173
# 5 0.004676 0.005473 -0.002061 0.000000 0.040545 0.000000
# 6 0.000000 0.000000 0.000000 0.006173 0.000000 0.044435
#
#
# Mechanical properties :
#
#
# Convention : Reuss Voigt Hill
#
# Bulk Modulus (GPa) = 55.36544 64.78979 60.07761
# Shear Modulus (GPa) = 24.42365 26.12895 25.27630
#
# Velocity S-wave (km/s) = 3.59065 3.71389 3.65279
# Velocity P-wave (km/s) = 6.81299 7.25204 7.03594
#
# Compressibility (1/GPa) = 0.01806181
#
# Stress axis : x y z
#
# Youngs Moduli (GPa) = 58.33820 69.83506 61.67995
#
# Poissons Ratio (x) = 0.15957 0.30569
# Poissons Ratio (y) = 0.13330 0.46660
# Poissons Ratio (z) = 0.28913 0.52829
#
# Static dielectric constant tensor:
#      x y z
#    x 3.383930 0.000000 0.003900 
#    y 0.000000 3.413100 0.000000 
#    z 0.003900 0.000000 3.533740 
# 
# 
# High freq. dielectric constant tensor:
#      x y z
#    x 1.721950 0.000000 0.003770 
#    y 0.000000 1.726010 0.000000 
#    z 0.003770 0.000000 1.745350 
# 
# From -- ./inp_files/3157.got.cif
#   From: 2010.03.12/outbox.cif.g09.slc.cpg/sg8_2_cif.got.tgz:3157.got - 2010.03.31 10:45:26.
