data_PCOD8053368
_publ_section_title
;
Structure prediction by ZEFSAII (Michael W. Deem and Ramdas Pophale) SiO2 
 PCOD8053368
Probable space group: C M
;
_chemical_formula_sum "Si O2"
_cell_formula_units_Z 32
_cell_length_a 20.374683
_cell_length_b 8.927271
_cell_length_c 12.082773
_cell_angle_alpha 90.000000
_cell_angle_beta 127.786995
_cell_angle_gamma 90.000000
_cell_volume 1736.860508
_symmetry_space_group_name_H-M "C M"
_symmetry_group_IT_number 8
_symmetry_cell_setting 'monoclinic'
loop_
_space_group_symop_operation_xyz
x,y,z
x,-y,z
1/2+x,1/2+y,z
1/2+x,1/2-y,z
loop_
_atom_site_type_symbol
_atom_site_label
_atom_site_fract_x
_atom_site_fract_y
_atom_site_fract_z
Si Si1 0.802670 0.673468 0.581010
Si Si2 0.548307 0.171098 0.317231
Si Si3 0.693099 0.828392 0.300215
Si Si4 0.118802 0.327185 0.994326
Si Si5 0.654905 0.673408 0.597170
Si Si6 0.717201 0.826007 0.872916
Si Si7 0.390124 0.175248 0.018697
Si Si8 0.446402 0.323334 0.850367
O O1 0.825236 0.500000 0.596588
O O2 0.765750 0.725718 0.425314
O O3 0.736694 0.706752 0.609687
O O4 0.885752 0.765212 0.691374
O O5 0.606238 0.203937 0.271610
O O6 0.573225 0.276520 0.445346
O O7 0.454500 0.207671 0.184351
O O8 0.557880 0.000000 0.366097
O O9 0.720382 0.000000 0.343724
O O10 0.680271 0.786410 0.158891
O O11 0.090156 0.500000 0.974826
O O12 0.167825 0.294814 0.933502
O O13 0.039000 0.222340 0.914007
O O14 0.646712 0.500000 0.619032
O O15 0.660048 0.769109 0.713784
O O16 0.737608 0.000000 0.877162
O O17 0.801993 0.734456 0.967344
O O18 0.383861 0.000000 0.985032
O O19 0.419830 0.255305 0.939184
O O20 0.439849 0.500000 0.851647
#
# Coordination Sequence:
#
# PCOD8053368 Si02
#       8
#     4   4   4   4   4   4   4   4
#     4  10  20  34  55  84 116 148 187 236 286 331
#     4   9  18  33  57  83 110 145 188 236 284 337
#     4   9  17  34  57  81 111 147 189 232 284 339
#     4  10  22  41  60  82 117 155 188 231 288 342
#     4  10  20  34  55  82 116 152 188 234 283 333
#     4  11  23  38  59  85 116 154 193 232 281 341
#     4  11  21  37  59  85 117 150 188 236 286 334
#     4  12  23  35  58  88 115 147 193 239 280 335
#
# _framework density 18.424047000000002
#
# number of rings (size 3 to 8) (size 9 to 14) (size 15 to 20)
#    0.000    1.750    2.500    2.625    0.000    3.500 
#    0.000    1.250    0.000    3.000    0.000    0.000 
#    0.000    0.000    0.000    0.000    0.000    0.000 
#
# Total GULP energy -198473.583870 kJ/mol
# GULP energy per Si atom -12404.598992 kJ/mol
# Density = 1.838211 g / cm^3
# Si number density = 18.424047 Si / 1000 Ang^3
#
#
#
# Elastic Constant Matrix: (Units=GPa)
#
#
# Indices 1 2 3 4 5 6 
#
# 1 72.8506 52.3540 57.5878 0.0000 -0.5582 0.0000
# 2 52.3540 119.0602 73.8384 0.0000 5.7472 0.0000
# 3 57.5878 73.8384 143.4076 0.0000 -1.3097 0.0000
# 4 0.0000 0.0000 0.0000 35.5542 0.0000 4.2522
# 5 -0.5582 5.7472 -1.3097 0.0000 27.1596 0.0000
# 6 0.0000 0.0000 0.0000 4.2522 0.0000 26.3416
#
#
#
# Elastic Compliance Matrix: (Units=1/GPa)
#
#
# Indices 1 2 3 4 5 6 
#
# 1 0.023127 -0.006605 -0.005872 0.000000 0.001590 0.000000
# 2 -0.006605 0.014461 -0.004825 0.000000 -0.003429 0.000000
# 3 -0.005872 -0.004825 0.011829 0.000000 0.001471 0.000000
# 4 0.000000 0.000000 0.000000 0.028680 0.000000 -0.004630
# 5 0.001590 -0.003429 0.001471 0.000000 0.037649 0.000000
# 6 0.000000 0.000000 0.000000 -0.004630 0.000000 0.038710
#
#
# Mechanical properties :
#
#
# Convention : Reuss Voigt Hill
#
# Bulk Modulus (GPa) = 67.50373 78.09764 72.80068
# Shear Modulus (GPa) = 25.77367 27.91363 26.84365
#
# Velocity S-wave (km/s) = 3.74426 3.89661 3.82119
# Velocity P-wave (km/s) = 7.44387 7.91996 7.68560
#
# Compressibility (1/GPa) = 0.01481400
#
# Stress axis : x y z
#
# Youngs Moduli (GPa) = 43.23932 69.15054 84.53953
#
# Poissons Ratio (x) = 0.45672 0.49641
# Poissons Ratio (y) = 0.28559 0.40790
# Poissons Ratio (z) = 0.25390 0.33364
#
# Static dielectric constant tensor:
#      x y z
#    x 3.234770 0.000000 0.099850 
#    y 0.000000 3.463050 0.000000 
#    z 0.099850 0.000000 3.583920 
# 
# 
# High freq. dielectric constant tensor:
#      x y z
#    x 1.683040 0.000000 0.005040 
#    y 0.000000 1.722510 0.000000 
#    z 0.005040 0.000000 1.731040 
# 
# From -- ./inp_files/23758.got.cif
#   From: 2010.03.12/outbox.cif.g09.slc.cpg/sg8_12_cif.got.tgz:23758.got - 2010.03.31 10:45:26.
