data_PCOD8053899
_publ_section_title
;
Structure prediction by ZEFSAII (Michael W. Deem and Ramdas Pophale) SiO2 
 PCOD8053899
Probable space group: C M
;
_chemical_formula_sum "Si O2"
_cell_formula_units_Z 32
_cell_length_a 19.155643
_cell_length_b 9.179246
_cell_length_c 27.084310
_cell_angle_alpha 90.000000
_cell_angle_beta 23.282529
_cell_angle_gamma 90.000000
_cell_volume 1882.393208
_symmetry_space_group_name_H-M "C M"
_symmetry_group_IT_number 8
_symmetry_cell_setting 'monoclinic'
loop_
_space_group_symop_operation_xyz
x,y,z
x,-y,z
1/2+x,1/2+y,z
1/2+x,1/2-y,z
loop_
_atom_site_type_symbol
_atom_site_label
_atom_site_fract_x
_atom_site_fract_y
_atom_site_fract_z
Si Si1 0.727170 0.162065 0.443710
Si Si2 0.911136 0.160299 0.628044
Si Si3 0.059432 0.668914 0.813090
Si Si4 0.217069 0.327102 0.063550
Si Si5 0.133494 0.329927 0.314141
Si Si6 0.367514 0.660635 0.546995
Si Si7 0.600176 0.325519 0.236513
Si Si8 0.398778 0.664219 0.228134
O O1 0.543572 0.243283 0.574725
O O2 0.767318 0.171323 0.359663
O O3 0.894922 0.224254 0.364920
O O4 0.691951 0.000000 0.484536
O O5 0.703198 0.207257 0.763375
O O6 0.974301 0.162225 0.529586
O O7 0.928496 0.000000 0.639298
O O8 0.998465 0.500000 0.857959
O O9 0.160276 0.690778 0.694695
O O10 0.899288 0.780842 0.919347
O O11 0.209968 0.500000 0.075640
O O12 0.209132 0.244947 0.120993
O O13 0.058552 0.277380 0.130735
O O14 0.120085 0.500000 0.310455
O O15 0.177231 0.238391 0.236852
O O16 0.292013 0.293914 0.248465
O O17 0.946089 0.279919 0.458832
O O18 0.387578 0.500000 0.509480
O O19 0.619845 0.500000 0.220900
O O20 0.475907 0.500000 0.173914
#
# Coordination Sequence:
#
# PCOD8053899 Si02
#       8
#     4   4   4   4   4   4   4   4
#     4   9  16  29  47  70  97 127 160 197 245 290
#     4   8  15  26  46  73  96 122 155 194 237 283
#     4   8  16  31  49  71  99 130 163 200 246 292
#     4  11  21  32  50  76  99 127 170 211 244 285
#     4  11  20  32  51  77 103 130 165 204 247 294
#     4   8  16  29  48  74  99 128 159 193 242 293
#     4  10  22  36  49  68 103 141 165 196 249 302
#     4   9  18  31  48  69  98 131 161 199 248 295
#
# _framework density 16.999635999999999
#
# number of rings (size 3 to 8) (size 9 to 14) (size 15 to 20)
#    0.750    2.000    1.250    2.625    0.000    4.500 
#    0.000    0.000    0.000    1.500    0.000    8.750 
#    0.000    0.000    0.000    0.000    0.000    0.000 
#
# Total GULP energy -198216.249726 kJ/mol
# GULP energy per Si atom -12388.515608 kJ/mol
# Density = 1.696094 g / cm^3
# Si number density = 16.999636 Si / 1000 Ang^3
#
#
#
# Elastic Constant Matrix: (Units=GPa)
#
#
# Indices 1 2 3 4 5 6 
#
# 1 78.8280 38.4598 26.3064 0.0042 1.7809 0.0006
# 2 38.4598 97.8978 44.5181 0.0062 -5.6779 0.0021
# 3 26.3064 44.5181 68.8167 0.0041 -9.4289 -0.0092
# 4 0.0042 0.0062 0.0041 29.8808 -0.0102 -3.2391
# 5 1.7809 -5.6779 -9.4289 -0.0102 17.4649 0.0003
# 6 0.0006 0.0021 -0.0092 -3.2391 0.0003 26.6784
#
#
#
# Elastic Compliance Matrix: (Units=1/GPa)
#
#
# Indices 1 2 3 4 5 6 
#
# 1 0.016553 -0.005104 -0.003763 -0.000003 -0.005379 -0.000002
# 2 -0.005104 0.016048 -0.008255 -0.000002 0.001281 -0.000004
# 3 -0.003763 -0.008255 0.022672 0.000004 0.009940 0.000009
# 4 -0.000003 -0.000002 0.000004 0.033913 0.000021 0.004117
# 5 -0.005379 0.001281 0.009940 0.000021 0.063589 0.000005
# 6 -0.000002 -0.000004 0.000009 0.004117 0.000005 0.037983
#
#
# Mechanical properties :
#
#
# Convention : Reuss Voigt Hill
#
# Bulk Modulus (GPa) = 47.55228 51.56791 49.56009
# Shear Modulus (GPa) = 21.55058 23.88868 22.71963
#
# Velocity S-wave (km/s) = 3.56435 3.75273 3.65975
# Velocity P-wave (km/s) = 6.70617 7.01269 6.86114
#
# Compressibility (1/GPa) = 0.02102949
#
# Stress axis : x y z
#
# Youngs Moduli (GPa) = 60.41090 62.31308 44.10718
#
# Poissons Ratio (x) = 0.31804 0.16598
# Poissons Ratio (y) = 0.30833 0.36411
# Poissons Ratio (z) = 0.22733 0.51440
#
# Static dielectric constant tensor:
#      x y z
#    x 2.975710 0.000000 -0.129230 
#    y 0.000000 3.138460 0.000000 
#    z -0.129230 0.000000 2.897090 
# 
# 
# High freq. dielectric constant tensor:
#      x y z
#    x 1.631170 0.000000 -0.017040 
#    y 0.000000 1.658680 0.000000 
#    z -0.017040 0.000000 1.629300 
# 
# From -- ./inp_files/32128.got.cif
#   From: 2010.03.12/outbox.cif.g09.slc.cpg/sg8_17_cif.got.tgz:32128.got - 2010.03.31 10:45:26.
