data_PCOD8053663
_publ_section_title
;
Structure prediction by ZEFSAII (Michael W. Deem and Ramdas Pophale) SiO2 
 PCOD8053663
Probable space group: C M
;
_chemical_formula_sum "Si O2"
_cell_formula_units_Z 28
_cell_length_a 10.535415
_cell_length_b 14.179157
_cell_length_c 9.118238
_cell_angle_alpha 90.000000
_cell_angle_beta 70.229167
_cell_angle_gamma 90.000000
_cell_volume 1281.820183
_symmetry_space_group_name_H-M "C M"
_symmetry_group_IT_number 8
_symmetry_cell_setting 'monoclinic'
loop_
_space_group_symop_operation_xyz
x,y,z
x,-y,z
1/2+x,1/2+y,z
1/2+x,1/2-y,z
loop_
_atom_site_type_symbol
_atom_site_label
_atom_site_fract_x
_atom_site_fract_y
_atom_site_fract_z
Si Si1 0.746970 0.248515 0.119270
Si Si2 0.604413 0.105201 0.720593
Si Si3 0.203650 0.890902 0.908715
Si Si4 0.419417 0.390737 0.563948
Si Si5 0.894026 0.605153 0.578161
Si Si6 0.474292 0.702998 0.839312
Si Si7 0.448078 0.754872 0.311948
O O1 0.597379 0.207896 0.208678
O O2 0.847146 0.242889 0.216771
O O3 0.730659 0.354260 0.062765
O O4 0.819114 0.193430 0.955349
O O5 0.761704 0.122276 0.648883
O O6 0.548068 0.105643 0.575416
O O7 0.532419 0.190059 0.838225
O O8 0.573111 0.000000 0.801372
O O9 0.306553 0.848989 0.745515
O O10 0.053563 0.864907 0.919215
O O11 0.228785 0.000000 0.906211
O O12 0.463522 0.500000 0.545742
O O13 0.493761 0.335235 0.666664
O O14 0.464247 0.343758 0.393097
O O15 0.843623 0.500000 0.558066
O O16 0.876815 0.668128 0.442131
#
# Coordination Sequence:
#
# PCOD8053663 Si02
#       7
#     4   4   4   4   4   4   4
#     4  12  26  42  69  95 142 184 219 270 351 401
#     4  10  20  38  68  98 126 165 222 285 330 382
#     4  11  24  44  69 100 133 178 234 283 331 397
#     4  11  25  43  70  99 130 177 230 278 332 403
#     4  10  21  41  70  95 126 174 232 285 328 391
#     4  12  22  44  68  99 135 180 229 279 331 403
#     4  12  25  44  65 100 142 180 219 280 344 413
#
# _framework density 21.843938000000001
#
# number of rings (size 3 to 8) (size 9 to 14) (size 15 to 20)
#    0.000    0.857    4.286    3.000    2.000    1.143 
#    0.000    1.429    0.000    0.857    0.000    0.000 
#    0.000    0.000    0.000    0.000    0.000    0.000 
#
# Total GULP energy -173541.591568 kJ/mol
# GULP energy per Si atom -12395.827969 kJ/mol
# Density = 2.179422 g / cm^3
# Si number density = 21.843938 Si / 1000 Ang^3
#
#
#
# Elastic Constant Matrix: (Units=GPa)
#
#
# Indices 1 2 3 4 5 6 
#
# 1 95.2691 14.6579 27.9853 0.0000 7.8505 0.0000
# 2 14.6579 85.8663 42.3036 0.0000 3.4327 0.0000
# 3 27.9853 42.3036 104.0794 0.0000 10.3818 0.0000
# 4 0.0000 0.0000 0.0000 24.9870 0.0000 1.8903
# 5 7.8505 3.4327 10.3818 0.0000 40.5596 0.0000
# 6 0.0000 0.0000 0.0000 1.8903 0.0000 27.8600
#
#
#
# Elastic Compliance Matrix: (Units=1/GPa)
#
#
# Indices 1 2 3 4 5 6 
#
# 1 0.011504 -0.000567 -0.002715 0.000000 -0.001484 0.000000
# 2 -0.000567 0.014593 -0.005815 0.000000 0.000363 0.000000
# 3 -0.002715 -0.005815 0.012930 0.000000 -0.002292 0.000000
# 4 0.000000 0.000000 0.000000 0.040227 0.000000 -0.002729
# 5 -0.001484 0.000363 -0.002292 0.000000 0.025498 0.000000
# 6 0.000000 0.000000 0.000000 -0.002729 0.000000 0.036079
#
#
# Mechanical properties :
#
#
# Convention : Reuss Voigt Hill
#
# Bulk Modulus (GPa) = 48.00028 50.56760 49.28394
# Shear Modulus (GPa) = 30.12598 32.03254 31.07926
#
# Velocity S-wave (km/s) = 3.71771 3.83355 3.77608
# Velocity P-wave (km/s) = 6.36007 6.54175 6.45155
#
# Compressibility (1/GPa) = 0.02083321
#
# Stress axis : x y z
#
# Youngs Moduli (GPa) = 86.93001 68.52468 77.33798
#
# Poissons Ratio (x) = 0.03885 0.20995
# Poissons Ratio (y) = 0.04929 0.44974
# Poissons Ratio (z) = 0.23599 0.39849
#
# Static dielectric constant tensor:
#      x y z
#    x 4.031120 0.000000 -0.068190 
#    y 0.000000 3.999270 0.000000 
#    z -0.068190 0.000000 3.970340 
# 
# 
# High freq. dielectric constant tensor:
#      x y z
#    x 1.871800 0.000000 -0.001010 
#    y 0.000000 1.852130 0.000000 
#    z -0.001010 0.000000 1.843850 
# 
# From -- ./inp_files/10660.got.cif
#   From: 2010.03.12/outbox.cif.g09.slc.cpg/sg8_6_cif.got.tgz:10660.got - 2010.03.31 10:45:26.
