data_PCOD8053457
_publ_section_title
;
Structure prediction by ZEFSAII (Michael W. Deem and Ramdas Pophale) SiO2 
 PCOD8053457
Probable space group: C M
;
_chemical_formula_sum "Si O2"
_cell_formula_units_Z 32
_cell_length_a 24.620314
_cell_length_b 9.128023
_cell_length_c 23.535933
_cell_angle_alpha 90.000000
_cell_angle_beta 18.021213
_cell_angle_gamma 90.000000
_cell_volume 1636.359232
_symmetry_space_group_name_H-M "C M"
_symmetry_group_IT_number 8
_symmetry_cell_setting 'monoclinic'
loop_
_space_group_symop_operation_xyz
x,y,z
x,-y,z
1/2+x,1/2+y,z
1/2+x,1/2-y,z
loop_
_atom_site_type_symbol
_atom_site_label
_atom_site_fract_x
_atom_site_fract_y
_atom_site_fract_z
Si Si1 0.087440 0.667240 0.195740
Si Si2 0.681285 0.672678 0.588990
Si Si3 0.394153 0.169282 0.948276
Si Si4 0.066414 0.665666 0.089500
Si Si5 0.569663 0.829455 0.464299
Si Si6 0.725176 0.832006 0.815126
Si Si7 0.215337 0.670833 0.441039
Si Si8 0.377366 0.168263 0.097692
O O1 0.116830 0.500000 0.185927
O O2 0.151245 0.689375 0.067119
O O3 0.882378 0.710437 0.405472
O O4 0.203501 0.772336 0.119193
O O5 0.649940 0.500000 0.617339
O O6 0.552533 0.741096 0.763148
O O7 0.635242 0.739334 0.573280
O O8 0.409046 0.000000 0.915784
O O9 0.413175 0.191507 0.996076
O O10 0.987489 0.500000 0.164638
O O11 0.913401 0.781460 0.231009
O O12 0.212551 0.689029 0.895886
O O13 0.381806 0.764098 0.634426
O O14 0.603701 0.792718 0.496254
O O15 0.712354 0.762193 0.280670
O O16 0.567383 0.000000 0.454540
O O17 0.761570 0.000000 0.762639
O O18 0.546773 0.776196 0.963538
O O19 0.211919 0.500000 0.459574
O O20 0.337504 0.000000 0.152277
#
# Coordination Sequence:
#
# PCOD8053457 Si02
#       8
#     4   4   4   4   4   4   4   4
#     4   9  20  38  59  89 121 155 199 240 290 353
#     4  10  22  40  62  87 118 159 202 243 290 351
#     4  11  24  40  62  90 119 156 200 248 297 348
#     4   9  18  35  60  88 118 156 198 240 291 351
#     4  11  24  38  58  91 124 155 193 244 303 355
#     4  10  21  38  62  88 116 157 201 244 292 350
#     4  10  20  35  57  89 126 157 189 241 302 352
#     4  10  23  44  64  84 116 159 206 246 289 350
#
# _framework density 19.555607999999999
#
# number of rings (size 3 to 8) (size 9 to 14) (size 15 to 20)
#    0.000    2.000    1.250    2.250    1.750    7.000 
#    0.000    3.750    0.000    0.000    0.000    0.000 
#    0.000    0.000    0.000    0.000    0.000    0.000 
#
# Total GULP energy -198449.246737 kJ/mol
# GULP energy per Si atom -12403.077921 kJ/mol
# Density = 1.951110 g / cm^3
# Si number density = 19.555608 Si / 1000 Ang^3
#
#
#
# Elastic Constant Matrix: (Units=GPa)
#
#
# Indices 1 2 3 4 5 6 
#
# 1 60.6103 36.6247 28.1879 -0.0028 8.1218 -0.0012
# 2 36.6247 80.2534 43.5355 -0.0193 14.3822 0.0037
# 3 28.1879 43.5355 103.7134 -0.0524 14.5405 0.0113
# 4 -0.0028 -0.0193 -0.0524 35.3822 0.0181 -0.1308
# 5 8.1218 14.3822 14.5405 0.0181 18.7760 -0.0015
# 6 -0.0012 0.0037 0.0113 -0.1308 -0.0015 30.1865
#
#
#
# Elastic Compliance Matrix: (Units=1/GPa)
#
#
# Indices 1 2 3 4 5 6 
#
# 1 0.023264 -0.009135 -0.002309 -0.000006 -0.001277 0.000003
# 2 -0.009135 0.020863 -0.005147 0.000007 -0.008043 -0.000001
# 3 -0.002309 -0.005147 0.013167 0.000019 -0.005255 -0.000005
# 4 -0.000006 0.000007 0.000019 0.028263 -0.000045 0.000122
# 5 -0.001277 -0.008043 -0.005255 -0.000045 0.064043 0.000006
# 6 0.000003 -0.000001 -0.000005 0.000122 0.000006 0.033128
#
#
# Mechanical properties :
#
#
# Convention : Reuss Voigt Hill
#
# Bulk Modulus (GPa) = 41.47467 51.25259 46.36363
# Shear Modulus (GPa) = 22.32655 25.95087 24.13871
#
# Velocity S-wave (km/s) = 3.38256 3.64679 3.51716
# Velocity P-wave (km/s) = 6.04237 6.63307 6.34460
#
# Compressibility (1/GPa) = 0.02411110
#
# Stress axis : x y z
#
# Youngs Moduli (GPa) = 42.98481 47.93129 75.94788
#
# Poissons Ratio (x) = 0.43787 0.17537
# Poissons Ratio (y) = 0.39268 0.39092
# Poissons Ratio (z) = 0.09925 0.24671
#
# Static dielectric constant tensor:
#      x y z
#    x 3.582050 -0.000010 0.020160 
#    y -0.000010 3.593570 0.000000 
#    z 0.020160 0.000000 3.432800 
# 
# 
# High freq. dielectric constant tensor:
#      x y z
#    x 1.759850 0.000000 0.002920 
#    y 0.000000 1.764340 0.000000 
#    z 0.002920 0.000000 1.760670 
# 
# From -- ./inp_files/32337.got.cif
#   From: 2010.03.12/outbox.cif.g09.slc.cpg/sg8_17_cif.got.tgz:32337.got - 2010.03.31 10:45:26.
