data_PCOD8053496
_publ_section_title
;
Structure prediction by ZEFSAII (Michael W. Deem and Ramdas Pophale) SiO2 
 PCOD8053496
Probable space group: C M
;
_chemical_formula_sum "Si O2"
_cell_formula_units_Z 32
_cell_length_a 14.597355
_cell_length_b 8.656925
_cell_length_c 29.077512
_cell_angle_alpha 90.000000
_cell_angle_beta 152.039546
_cell_angle_gamma 90.000000
_cell_volume 1722.820915
_symmetry_space_group_name_H-M "C M"
_symmetry_group_IT_number 8
_symmetry_cell_setting 'monoclinic'
loop_
_space_group_symop_operation_xyz
x,y,z
x,-y,z
1/2+x,1/2+y,z
1/2+x,1/2-y,z
loop_
_atom_site_type_symbol
_atom_site_label
_atom_site_fract_x
_atom_site_fract_y
_atom_site_fract_z
Si Si1 0.125000 0.321298 0.445650
Si Si2 0.350175 0.674990 0.385111
Si Si3 0.097716 0.182671 0.083652
Si Si4 0.510693 0.184239 0.297493
Si Si5 0.468794 0.682970 0.927002
Si Si6 0.765891 0.327223 0.593214
Si Si7 0.181802 0.682956 0.932535
Si Si8 0.583939 0.680690 0.793118
O O1 0.180122 0.500000 0.471209
O O2 0.905523 0.290832 0.368265
O O3 0.113216 0.253139 0.389117
O O4 0.283099 0.229905 0.547233
O O5 0.321617 0.500000 0.354039
O O6 0.151327 0.737855 0.318844
O O7 0.533706 0.675923 0.502837
O O8 0.294785 0.254605 0.193013
O O9 0.082791 0.235353 0.023775
O O10 0.908728 0.237095 0.029099
O O11 0.109300 0.000000 0.090116
O O12 0.498929 0.000000 0.295517
O O13 0.445814 0.500000 0.914056
O O14 0.584496 0.740460 0.933738
O O15 0.253324 0.756306 0.834511
O O16 0.852779 0.500000 0.635714
O O17 0.878928 0.213171 0.677231
O O18 0.162970 0.500000 0.928596
O O19 0.075636 0.735246 0.838706
O O20 0.611917 0.500000 0.813630
#
# Coordination Sequence:
#
# PCOD8053496 Si02
#       8
#     4   4   4   4   4   4   4   4
#     4   9  17  30  50  74 102 134 176 221 257 303
#     4   8  17  32  50  70 101 140 174 213 259 309
#     4   8  17  32  53  78 108 141 176 219 265 312
#     4   9  16  31  53  77 104 142 181 213 258 313
#     4  10  20  36  56  81 110 142 179 223 269 321
#     4   9  18  35  54  74 106 142 173 217 268 317
#     4  10  20  36  56  81 111 143 177 220 270 324
#     4  11  21  36  58  81 106 140 180 224 272 323
#
# _framework density 18.574187999999999
#
# number of rings (size 3 to 8) (size 9 to 14) (size 15 to 20)
#    0.750    2.000    0.000    3.000    0.000    1.000 
#    2.250    1.250    0.000   11.250    0.000    0.000 
#    0.000    0.000    0.000    0.000    0.000    0.000 
#
# Total GULP energy -198229.085382 kJ/mol
# GULP energy per Si atom -12389.317836 kJ/mol
# Density = 1.853191 g / cm^3
# Si number density = 18.574188 Si / 1000 Ang^3
#
#
#
# Elastic Constant Matrix: (Units=GPa)
#
#
# Indices 1 2 3 4 5 6 
#
# 1 77.5934 6.7480 5.3343 0.0002 2.6654 -0.0001
# 2 6.7480 50.4003 9.5602 0.0001 2.3295 0.0001
# 3 5.3343 9.5602 60.1709 0.0010 -1.2746 -0.0005
# 4 0.0002 0.0001 0.0010 19.2697 -0.0004 1.1085
# 5 2.6654 2.3295 -1.2746 -0.0004 21.8992 0.0000
# 6 -0.0001 0.0001 -0.0005 1.1085 0.0000 25.6397
#
#
#
# Elastic Compliance Matrix: (Units=1/GPa)
#
#
# Indices 1 2 3 4 5 6 
#
# 1 0.013136 -0.001508 -0.000957 0.000000 -0.001494 0.000000
# 2 -0.001508 0.020754 -0.003211 0.000000 -0.002211 0.000000
# 3 -0.000957 -0.003211 0.017245 -0.000001 0.001462 0.000000
# 4 0.000000 0.000000 -0.000001 0.052024 0.000001 -0.002249
# 5 -0.001494 -0.002211 0.001462 0.000001 0.046166 0.000000
# 6 0.000000 0.000000 0.000000 -0.002249 0.000000 0.039099
#
#
# Mechanical properties :
#
#
# Convention : Reuss Voigt Hill
#
# Bulk Modulus (GPa) = 25.13539 25.71663 25.42601
# Shear Modulus (GPa) = 23.47008 24.46321 23.96665
#
# Velocity S-wave (km/s) = 3.55855 3.63306 3.59600
# Velocity P-wave (km/s) = 5.51781 5.61019 5.56419
#
# Compressibility (1/GPa) = 0.03978454
#
# Stress axis : x y z
#
# Youngs Moduli (GPa) = 76.12697 48.18282 57.98715
#
# Poissons Ratio (x) = 0.07267 0.05547
# Poissons Ratio (y) = 0.11482 0.18618
# Poissons Ratio (z) = 0.07282 0.15470
#
# Static dielectric constant tensor:
#      x y z
#    x 3.353770 0.000000 -0.007980 
#    y 0.000000 3.207060 0.000000 
#    z -0.007980 0.000000 3.454270 
# 
# 
# High freq. dielectric constant tensor:
#      x y z
#    x 1.709420 0.000000 -0.001790 
#    y 0.000000 1.706260 0.000000 
#    z -0.001790 0.000000 1.714970 
# 
# From -- ./inp_files/33292.got.cif
#   From: 2010.03.12/outbox.cif.g09.slc.cpg/sg8_17_cif.got.tgz:33292.got - 2010.03.31 10:45:26.
