data_PCOD8053917
_publ_section_title
;
Structure prediction by ZEFSAII (Michael W. Deem and Ramdas Pophale) SiO2 
 PCOD8053917
Probable space group: C M
;
_chemical_formula_sum "Si O2"
_cell_formula_units_Z 32
_cell_length_a 25.376616
_cell_length_b 8.821989
_cell_length_c 24.055752
_cell_angle_alpha 90.000000
_cell_angle_beta 17.787531
_cell_angle_gamma 90.000000
_cell_volume 1645.180077
_symmetry_space_group_name_H-M "C M"
_symmetry_group_IT_number 8
_symmetry_cell_setting 'monoclinic'
loop_
_space_group_symop_operation_xyz
x,y,z
x,-y,z
1/2+x,1/2+y,z
1/2+x,1/2-y,z
loop_
_atom_site_type_symbol
_atom_site_label
_atom_site_fract_x
_atom_site_fract_y
_atom_site_fract_z
Si Si1 0.768570 0.673103 0.054260
Si Si2 0.378565 0.677743 0.051629
Si Si3 0.043808 0.679466 0.455585
Si Si4 0.728378 0.180326 0.710263
Si Si5 0.754006 0.319736 0.944640
Si Si6 0.067647 0.680186 0.557704
Si Si7 0.866009 0.827093 0.457777
Si Si8 0.370348 0.318359 0.331344
O O1 0.830785 0.500000 0.999969
O O2 0.870779 0.777708 0.994689
O O3 0.567118 0.687941 0.268680
O O4 0.809527 0.731491 0.950915
O O5 0.403501 0.500000 0.033376
O O6 0.206062 0.733695 0.256037
O O7 0.541442 0.759638 0.916770
O O8 0.018372 0.500000 0.477621
O O9 0.078529 0.734585 0.483554
O O10 0.869876 0.758441 0.610592
O O11 0.766150 0.247504 0.610173
O O12 0.734645 0.000000 0.705215
O O13 0.749685 0.500000 0.948309
O O14 0.892409 0.255257 0.761726
O O15 0.562108 0.259518 0.122249
O O16 0.068013 0.500000 0.561331
O O17 0.233520 0.744716 0.424292
O O18 0.821930 0.754304 0.441754
O O19 0.807849 0.000000 0.513345
O O20 0.371531 0.500000 0.332332
#
# Coordination Sequence:
#
# PCOD8053917 Si02
#       8
#     4   4   4   4   4   4   4   4
#     4   9  16  31  54  81 111 139 176 227 276 324
#     4  11  23  36  52  79 115 152 183 220 273 333
#     4  10  22  39  55  78 115 151 184 224 272 328
#     4  11  22  36  58  83 107 144 188 233 276 319
#     4   8  15  26  46  77 107 133 170 225 275 313
#     4   9  17  29  49  75 104 141 177 215 269 323
#     4   8  15  28  49  79 110 133 166 221 276 318
#     4   8  14  25  42  72 107 131 160 213 273 320
#
# _framework density 19.450759000000001
#
# number of rings (size 3 to 8) (size 9 to 14) (size 15 to 20)
#    0.000    2.750    1.250    2.250    1.750    1.500 
#    0.000    3.750    0.000    0.750    0.000    0.875 
#    0.000    0.000    0.000    0.000    0.000    0.000 
#
# Total GULP energy -198325.567460 kJ/mol
# GULP energy per Si atom -12395.347966 kJ/mol
# Density = 1.940649 g / cm^3
# Si number density = 19.450759 Si / 1000 Ang^3
#
#
#
# Elastic Constant Matrix: (Units=GPa)
#
#
# Indices 1 2 3 4 5 6 
#
# 1 145.6794 25.8385 71.2720 -0.0043 -14.9966 0.0009
# 2 25.8385 27.5494 22.2737 -0.0234 -3.6515 0.0067
# 3 71.2720 22.2737 112.8665 -0.0216 -13.8448 0.0070
# 4 -0.0043 -0.0234 -0.0216 18.4775 0.0060 -4.3163
# 5 -14.9966 -3.6515 -13.8448 0.0060 31.3328 -0.0010
# 6 0.0009 0.0067 0.0070 -4.3163 -0.0010 22.2612
#
#
#
# Elastic Compliance Matrix: (Units=1/GPa)
#
#
# Indices 1 2 3 4 5 6 
#
# 1 0.010689 -0.005352 -0.005437 -0.000011 0.002090 0.000001
# 2 -0.005352 0.045923 -0.005647 0.000050 0.000295 -0.000002
# 3 -0.005437 -0.005647 0.013753 0.000007 0.002817 -0.000001
# 4 -0.000011 0.000050 0.000007 0.056688 -0.000007 0.010991
# 5 0.002090 0.000295 0.002817 -0.000007 0.034195 -0.000001
# 6 0.000001 -0.000002 -0.000001 0.010991 -0.000001 0.047052
#
#
# Mechanical properties :
#
#
# Convention : Reuss Voigt Hill
#
# Bulk Modulus (GPa) = 26.67177 58.31819 42.49498
# Shear Modulus (GPa) = 19.71072 25.52837 22.61954
#
# Velocity S-wave (km/s) = 3.18679 3.62672 3.41385
# Velocity P-wave (km/s) = 5.22332 6.89819 6.11834
#
# Compressibility (1/GPa) = 0.03749282
#
# Stress axis : x y z
#
# Youngs Moduli (GPa) = 93.55536 21.77574 72.70991
#
# Poissons Ratio (x) = 0.11655 0.39533
# Poissons Ratio (y) = 0.50072 0.41057
# Poissons Ratio (z) = 0.50867 0.12296
#
# Static dielectric constant tensor:
#      x y z
#    x 3.702070 0.000000 0.068360 
#    y 0.000000 2.949050 0.000000 
#    z 0.068360 0.000000 3.774850 
# 
# 
# High freq. dielectric constant tensor:
#      x y z
#    x 1.760180 0.000000 -0.003200 
#    y 0.000000 1.692850 0.000000 
#    z -0.003200 0.000000 1.767650 
# 
# From -- ./inp_files/32393.got.cif
#   From: 2010.03.12/outbox.cif.g09.slc.cpg/sg8_17_cif.got.tgz:32393.got - 2010.03.31 10:45:26.
