data_PCOD8053326
_publ_section_title
;
Structure prediction by ZEFSAII (Michael W. Deem and Ramdas Pophale) SiO2 
 PCOD8053326
Probable space group: C M
;
_chemical_formula_sum "Si O2"
_cell_formula_units_Z 32
_cell_length_a 22.503065
_cell_length_b 8.910686
_cell_length_c 11.197450
_cell_angle_alpha 90.000000
_cell_angle_beta 49.038288
_cell_angle_gamma 90.000000
_cell_volume 1695.523923
_symmetry_space_group_name_H-M "C M"
_symmetry_group_IT_number 8
_symmetry_cell_setting 'monoclinic'
loop_
_space_group_symop_operation_xyz
x,y,z
x,-y,z
1/2+x,1/2+y,z
1/2+x,1/2-y,z
loop_
_atom_site_type_symbol
_atom_site_label
_atom_site_fract_x
_atom_site_fract_y
_atom_site_fract_z
Si Si1 0.161790 0.822193 0.538060
Si Si2 0.469988 0.322377 0.170174
Si Si3 0.518961 0.826946 0.594913
Si Si4 0.129974 0.823127 0.841200
Si Si5 0.200251 0.821444 0.992791
Si Si6 0.355993 0.821911 0.915445
Si Si7 0.048048 0.326572 0.283465
Si Si8 0.829234 0.677896 0.219210
O O1 0.091157 0.765233 0.550751
O O2 0.155578 0.753300 0.680450
O O3 0.242898 0.768619 0.372307
O O4 0.157027 0.000000 0.548326
O O5 0.463626 0.500000 0.189539
O O6 0.486045 0.255256 0.279378
O O7 0.389508 0.255576 0.228560
O O8 0.540826 0.273614 0.988505
O O9 0.438360 0.760364 0.756384
O O10 0.514040 0.806557 0.460124
O O11 0.530059 0.000000 0.616307
O O12 0.187895 0.769119 0.871491
O O13 0.135041 0.000000 0.825433
O O14 0.284803 0.762829 0.926095
O O15 0.191432 0.000000 0.016902
O O16 0.133832 0.748390 0.163560
O O17 0.355414 0.000000 0.913168
O O18 0.344079 0.763374 0.065683
O O19 0.054930 0.500000 0.237869
O O20 0.839205 0.500000 0.215670
#
# Coordination Sequence:
#
# PCOD8053326 Si02
#       8
#     4   4   4   4   4   4   4   4
#     4  10  20  34  53  77 104 135 171 209 252 302
#     4  10  20  35  55  76 101 136 172 206 251 305
#     4  10  21  35  52  75 103 136 172 211 255 300
#     4   8  16  31  52  77 101 130 169 207 245 295
#     4   9  17  33  56  77 102 137 172 206 248 302
#     4   9  18  33  53  77 104 136 172 208 251 302
#     4  10  20  34  53  77 104 133 168 212 257 299
#     4  10  20  33  52  78 105 133 168 211 255 299
#
# _framework density 18.873221000000001
#
# number of rings (size 3 to 8) (size 9 to 14) (size 15 to 20)
#    0.000    2.500    0.000    3.000    0.000    3.500 
#    0.000    7.500    0.000    3.000    0.000    0.000 
#    0.000    0.000    0.000    0.000    0.000    0.000 
#
# Total GULP energy -198405.819067 kJ/mol
# GULP energy per Si atom -12400.363692 kJ/mol
# Density = 1.883026 g / cm^3
# Si number density = 18.873221 Si / 1000 Ang^3
#
#
#
# Elastic Constant Matrix: (Units=GPa)
#
#
# Indices 1 2 3 4 5 6 
#
# 1 155.2103 31.9557 79.8090 0.0000 -21.2711 0.0000
# 2 31.9557 29.3547 33.9344 0.0000 -5.3837 0.0000
# 3 79.8090 33.9344 147.4529 0.0000 -5.1152 0.0000
# 4 0.0000 0.0000 0.0000 18.0129 0.0000 0.0727
# 5 -21.2711 -5.3837 -5.1152 0.0000 32.7412 0.0000
# 6 0.0000 0.0000 0.0000 0.0727 0.0000 27.4153
#
#
#
# Elastic Compliance Matrix: (Units=1/GPa)
#
#
# Indices 1 2 3 4 5 6 
#
# 1 0.010468 -0.005582 -0.004200 0.000000 0.005227 0.000000
# 2 -0.005582 0.050591 -0.008505 0.000000 0.003364 0.000000
# 3 -0.004200 -0.008505 0.010928 0.000000 -0.002420 0.000000
# 4 0.000000 0.000000 0.000000 0.055516 0.000000 -0.000147
# 5 0.005227 0.003364 -0.002420 0.000000 0.034113 0.000000
# 6 0.000000 0.000000 0.000000 -0.000147 0.000000 0.036476
#
#
# Mechanical properties :
#
#
# Convention : Reuss Voigt Hill
#
# Bulk Modulus (GPa) = 28.23732 69.26848 48.75290
# Shear Modulus (GPa) = 20.28627 28.05513 24.17070
#
# Velocity S-wave (km/s) = 3.28208 3.85970 3.58255
# Velocity P-wave (km/s) = 5.41819 7.52627 6.55750
#
# Compressibility (1/GPa) = 0.03541413
#
# Stress axis : x y z
#
# Youngs Moduli (GPa) = 95.52927 19.76623 91.50425
#
# Poissons Ratio (x) = 0.11033 0.38431
# Poissons Ratio (y) = 0.53322 0.77826
# Poissons Ratio (z) = 0.40122 0.16811
#
# Static dielectric constant tensor:
#      x y z
#    x 3.601280 0.000000 0.082080 
#    y 0.000000 3.192300 0.000000 
#    z 0.082080 0.000000 3.716660 
# 
# 
# High freq. dielectric constant tensor:
#      x y z
#    x 1.745860 0.000000 0.004190 
#    y 0.000000 1.704300 0.000000 
#    z 0.004190 0.000000 1.738460 
# 
# From -- ./inp_files/23855.got.cif
#   From: 2010.03.12/outbox.cif.g09.slc.cpg/sg8_12_cif.got.tgz:23855.got - 2010.03.31 10:45:26.
