data_PCOD8053073
_publ_section_title
;
Structure prediction by ZEFSAII (Michael W. Deem and Ramdas Pophale) SiO2 
 PCOD8053073
Probable space group: C M
;
_chemical_formula_sum "Si O2"
_cell_formula_units_Z 32
_cell_length_a 20.537476
_cell_length_b 8.693606
_cell_length_c 13.156527
_cell_angle_alpha 90.000000
_cell_angle_beta 135.731559
_cell_angle_gamma 90.000000
_cell_volume 1639.671145
_symmetry_space_group_name_H-M "C M"
_symmetry_group_IT_number 8
_symmetry_cell_setting 'monoclinic'
loop_
_space_group_symop_operation_xyz
x,y,z
x,-y,z
1/2+x,1/2+y,z
1/2+x,1/2-y,z
loop_
_atom_site_type_symbol
_atom_site_label
_atom_site_fract_x
_atom_site_fract_y
_atom_site_fract_z
Si Si1 0.986310 0.332234 0.315370
Si Si2 0.506787 0.680743 0.793515
Si Si3 0.822218 0.681564 0.493482
Si Si4 0.841925 0.329827 0.971804
Si Si5 0.131634 0.683804 0.329148
Si Si6 0.198558 0.682123 0.953490
Si Si7 0.326926 0.816038 0.266579
Si Si8 0.495021 0.680107 0.016311
O O1 0.017265 0.500000 0.389121
O O2 0.928996 0.250884 0.342854
O O3 0.077698 0.249676 0.370120
O O4 0.913878 0.346916 0.142943
O O5 0.502823 0.500000 0.769637
O O6 0.416459 0.759191 0.646391
O O7 0.594717 0.751042 0.833129
O O8 0.511109 0.720355 0.917137
O O9 0.815727 0.500000 0.496997
O O10 0.736690 0.759002 0.456921
O O11 0.814572 0.734147 0.368163
O O12 0.810386 0.500000 0.900128
O O13 0.752071 0.236402 0.911360
O O14 0.893800 0.243918 0.937064
O O15 0.126097 0.500000 0.321310
O O16 0.082008 0.745542 0.172470
O O17 0.195633 0.500000 0.951462
O O18 0.245322 0.741711 0.109453
O O19 0.322590 0.000000 0.246409
O O20 0.496626 0.500000 0.039506
#
# Coordination Sequence:
#
# PCOD8053073 Si02
#       8
#     4   4   4   4   4   4   4   4
#     4   7  13  28  51  77 102 131 168 208 255 312
#     4  11  24  40  55  74 108 150 187 227 276 325
#     4  11  23  37  54  77 107 143 184 229 271 319
#     4   9  17  32  55  82 112 142 174 219 274 326
#     4  10  19  33  56  82 108 141 176 215 270 330
#     4  11  21  34  57  86 112 141 182 226 266 320
#     4   9  18  35  57  80 107 140 178 222 272 319
#     4  10  20  35  57  84 110 140 183 230 272 319
#
# _framework density 19.516109
#
# number of rings (size 3 to 8) (size 9 to 14) (size 15 to 20)
#    0.000    2.250    0.000    5.250    0.000    6.000 
#    0.000    1.875    0.000    6.000    0.000    0.000 
#    0.000    0.000    0.000    0.000    0.000    0.000 
#
# Total GULP energy -198317.784668 kJ/mol
# GULP energy per Si atom -12394.861542 kJ/mol
# Density = 1.947169 g / cm^3
# Si number density = 19.516109 Si / 1000 Ang^3
#
#
#
# Elastic Constant Matrix: (Units=GPa)
#
#
# Indices 1 2 3 4 5 6 
#
# 1 122.2696 46.4442 44.2540 0.0000 45.8943 0.0000
# 2 46.4442 104.7904 45.0417 0.0000 18.2777 0.0000
# 3 44.2540 45.0417 87.2013 0.0000 39.4533 0.0000
# 4 0.0000 0.0000 0.0000 27.6343 0.0000 4.3255
# 5 45.8943 18.2777 39.4533 0.0000 31.3947 0.0000
# 6 0.0000 0.0000 0.0000 4.3255 0.0000 29.3210
#
#
#
# Elastic Compliance Matrix: (Units=1/GPa)
#
#
# Indices 1 2 3 4 5 6 
#
# 1 0.024384 -0.008288 0.013561 0.000000 -0.047862 0.000000
# 2 -0.008288 0.015132 -0.011835 0.000000 0.018178 0.000000
# 3 0.013561 -0.011835 0.038362 0.000000 -0.061143 0.000000
# 4 0.000000 0.000000 0.000000 0.037042 0.000000 -0.005465
# 5 -0.047862 0.018178 -0.061143 0.000000 0.168074 0.000000
# 6 0.000000 0.000000 0.000000 -0.005465 0.000000 0.034911
#
#
# Mechanical properties :
#
#
# Convention : Reuss Voigt Hill
#
# Bulk Modulus (GPa) = 15.44281 65.08235 40.26258
# Shear Modulus (GPa) = 14.17981 29.57142 21.87561
#
# Velocity S-wave (km/s) = 2.69842 3.89682 3.35162
# Velocity P-wave (km/s) = 4.19984 7.32580 5.97101
#
# Compressibility (1/GPa) = 0.06475507
#
# Stress axis : x y z
#
# Youngs Moduli (GPa) = 41.01100 66.08372 26.06738
#
# Poissons Ratio (x) = 0.54769 -0.35350
# Poissons Ratio (y) = 0.33989 0.30850
# Poissons Ratio (z) = -0.55615 0.78208
#
# Static dielectric constant tensor:
#      x y z
#    x 4.122830 0.000000 0.173310 
#    y 0.000000 3.623010 0.000000 
#    z 0.173310 0.000000 3.213390 
# 
# 
# High freq. dielectric constant tensor:
#      x y z
#    x 1.784460 0.000000 0.017390 
#    y 0.000000 1.756070 0.000000 
#    z 0.017390 0.000000 1.723060 
# 
# From -- ./inp_files/27780.got.cif
#   From: 2010.03.12/outbox.cif.g09.slc.cpg/sg8_14_cif.got.tgz:27780.got - 2010.03.31 10:45:26.
