data_PCOD8053831
_publ_section_title
;
Structure prediction by ZEFSAII (Michael W. Deem and Ramdas Pophale) SiO2 
 PCOD8053831
Probable space group: C M
;
_chemical_formula_sum "Si O2"
_cell_formula_units_Z 32
_cell_length_a 19.501000
_cell_length_b 8.979023
_cell_length_c 11.967591
_cell_angle_alpha 90.000000
_cell_angle_beta 51.113970
_cell_angle_gamma 90.000000
_cell_volume 1631.148242
_symmetry_space_group_name_H-M "C M"
_symmetry_group_IT_number 8
_symmetry_cell_setting 'monoclinic'
loop_
_space_group_symop_operation_xyz
x,y,z
x,-y,z
1/2+x,1/2+y,z
1/2+x,1/2-y,z
loop_
_atom_site_type_symbol
_atom_site_label
_atom_site_fract_x
_atom_site_fract_y
_atom_site_fract_z
Si Si1 0.862360 0.674719 0.135510
Si Si2 0.340859 0.176298 0.605372
Si Si3 0.661471 0.825332 0.834229
Si Si4 0.095552 0.167096 0.110128
Si Si5 0.895432 0.831614 0.333031
Si Si6 0.011752 0.323035 0.565944
Si Si7 0.013742 0.323782 0.815961
Si Si8 0.664651 0.672273 0.273853
O O1 0.876384 0.500000 0.143295
O O2 0.882451 0.764240 0.225541
O O3 0.763691 0.713844 0.202622
O O4 0.928476 0.733251 0.971541
O O5 0.252070 0.236148 0.751763
O O6 0.342745 0.236754 0.477662
O O7 0.424067 0.234422 0.592336
O O8 0.338419 0.000000 0.604880
O O9 0.603780 0.773969 0.786124
O O10 0.680866 0.000000 0.810598
O O11 0.606112 0.786826 0.001501
O O12 0.157471 0.210710 0.150249
O O13 0.997661 0.173944 0.259628
O O14 0.116803 0.000000 0.044072
O O15 0.858917 0.000000 0.372652
O O16 0.013344 0.500000 0.565410
O O17 0.011578 0.258181 0.692654
O O18 0.099143 0.268746 0.415293
O O19 0.009768 0.500000 0.814450
O O20 0.642689 0.500000 0.318591
#
# Coordination Sequence:
#
# PCOD8053831 Si02
#       8
#     4   4   4   4   4   4   4   4
#     4  10  21  39  63  88 118 156 200 244 296 355
#     4  11  24  40  62  89 120 157 202 250 299 355
#     4  11  23  39  62  89 120 157 199 248 300 356
#     4  10  21  39  62  87 118 155 199 248 299 352
#     4  11  22  39  63  87 120 157 198 250 298 351
#     4  10  22  40  62  85 117 159 198 243 297 356
#     4   9  20  39  60  84 116 155 196 238 291 354
#     4  10  22  39  62  89 119 156 196 247 298 349
#
# _framework density 19.618081
#
# number of rings (size 3 to 8) (size 9 to 14) (size 15 to 20)
#    0.000    1.750    2.500    1.125    3.500    2.000 
#    0.000    1.250    0.000    0.000    0.000    0.000 
#    0.000    0.000    0.000    0.000    0.000    0.000 
#
# Total GULP energy -198444.822974 kJ/mol
# GULP energy per Si atom -12402.801436 kJ/mol
# Density = 1.957343 g / cm^3
# Si number density = 19.618081 Si / 1000 Ang^3
#
#
#
# Elastic Constant Matrix: (Units=GPa)
#
#
# Indices 1 2 3 4 5 6 
#
# 1 115.8966 34.6207 45.7186 0.0000 -1.5951 0.0000
# 2 34.6207 53.5900 31.4937 0.0000 -2.3486 0.0000
# 3 45.7186 31.4937 87.8024 0.0000 11.1110 0.0000
# 4 0.0000 0.0000 0.0000 35.0494 0.0000 -1.6162
# 5 -1.5951 -2.3486 11.1110 0.0000 29.1041 0.0000
# 6 0.0000 0.0000 0.0000 -1.6162 0.0000 25.0156
#
#
#
# Elastic Compliance Matrix: (Units=1/GPa)
#
#
# Indices 1 2 3 4 5 6 
#
# 1 0.011986 -0.004852 -0.004764 0.000000 0.002084 0.000000
# 2 -0.004852 0.026447 -0.007561 0.000000 0.004755 0.000000
# 3 -0.004764 -0.007561 0.017540 0.000000 -0.007567 0.000000
# 4 0.000000 0.000000 0.000000 0.028616 0.000000 0.001849
# 5 0.002084 0.004755 -0.007567 0.000000 0.037746 0.000000
# 6 0.000000 0.000000 0.000000 0.001849 0.000000 0.040094
#
#
# Mechanical properties :
#
#
# Convention : Reuss Voigt Hill
#
# Bulk Modulus (GPa) = 46.26022 53.43945 49.84983
# Shear Modulus (GPa) = 24.51085 27.53089 26.02087
#
# Velocity S-wave (km/s) = 3.53852 3.75019 3.64589
# Velocity P-wave (km/s) = 6.35031 6.78608 6.57181
#
# Compressibility (1/GPa) = 0.02161685
#
# Stress axis : x y z
#
# Youngs Moduli (GPa) = 83.43129 37.81176 57.01286
#
# Poissons Ratio (x) = 0.18346 0.27164
# Poissons Ratio (y) = 0.40480 0.43110
# Poissons Ratio (z) = 0.39751 0.28591
#
# Static dielectric constant tensor:
#      x y z
#    x 3.940580 0.000000 -0.059640 
#    y 0.000000 3.406730 0.000000 
#    z -0.059640 0.000000 3.644250 
# 
# 
# High freq. dielectric constant tensor:
#      x y z
#    x 1.777610 0.000000 0.000780 
#    y 0.000000 1.747990 0.000000 
#    z 0.000780 0.000000 1.770960 
# 
# From -- ./inp_files/23832.got.cif
#   From: 2010.03.12/outbox.cif.g09.slc.cpg/sg8_12_cif.got.tgz:23832.got - 2010.03.31 10:45:26.
