data_PCOD8053028
_publ_section_title
;
Structure prediction by ZEFSAII (Michael W. Deem and Ramdas Pophale) SiO2 
 PCOD8053028
Probable space group: C M
;
_chemical_formula_sum "Si O2"
_cell_formula_units_Z 32
_cell_length_a 14.183952
_cell_length_b 8.440906
_cell_length_c 20.200041
_cell_angle_alpha 90.000000
_cell_angle_beta 135.434097
_cell_angle_gamma 90.000000
_cell_volume 1697.102665
_symmetry_space_group_name_H-M "C M"
_symmetry_group_IT_number 8
_symmetry_cell_setting 'monoclinic'
loop_
_space_group_symop_operation_xyz
x,y,z
x,-y,z
1/2+x,1/2+y,z
1/2+x,1/2-y,z
loop_
_atom_site_type_symbol
_atom_site_label
_atom_site_fract_x
_atom_site_fract_y
_atom_site_fract_z
Si Si1 0.231750 0.184151 0.262240
Si Si2 0.446590 0.312382 0.768379
Si Si3 0.227951 0.812969 0.408945
Si Si4 0.444880 0.182175 0.122825
Si Si5 0.233474 0.686606 0.766680
Si Si6 0.928079 0.815399 0.253424
Si Si7 0.239062 0.685025 0.918423
Si Si8 0.933128 0.310637 0.620093
O O1 0.266306 0.242575 0.353944
O O2 0.322135 0.283890 0.257762
O O3 0.074730 0.213217 0.169642
O O4 0.263428 0.000000 0.267976
O O5 0.467670 0.500000 0.785098
O O6 0.338286 0.244032 0.766470
O O7 0.583895 0.223174 0.854008
O O8 0.391080 0.267301 0.668412
O O9 0.332013 0.741487 0.514020
O O10 0.076442 0.757508 0.350503
O O11 0.237702 0.000000 0.417030
O O12 0.386019 0.224634 0.165613
O O13 0.487670 0.000000 0.142391
O O14 0.329491 0.212297 0.012057
O O15 0.232043 0.500000 0.759757
O O16 0.276753 0.735928 0.862429
O O17 0.082872 0.747851 0.675824
O O18 0.931408 0.000000 0.237762
O O19 0.264555 0.500000 0.943712
O O20 0.926022 0.500000 0.623477
#
# Coordination Sequence:
#
# PCOD8053028 Si02
#       8
#     4   4   4   4   4   4   4   4
#     4  10  20  36  56  80 108 142 180 223 270 321
#     4  10  19  33  51  77 106 134 173 222 265 312
#     4   8  17  33  54  76 104 139 178 219 264 318
#     4  11  22  37  56  80 108 140 176 222 272 324
#     4   8  17  32  52  73 100 135 170 207 256 312
#     4  10  20  36  55  79 109 143 181 224 268 319
#     4  10  20  37  56  75 101 138 176 214 263 324
#     4   9  17  34  54  74 102 141 178 213 262 318
#
# _framework density 18.855664000000001
#
# number of rings (size 3 to 8) (size 9 to 14) (size 15 to 20)
#    0.000    2.500    0.000    4.125    0.000    2.000 
#    0.000   15.000    0.000    0.000    0.000    0.000 
#    0.000    0.000    0.000    0.000    0.000    0.000 
#
# Total GULP energy -198398.107568 kJ/mol
# GULP energy per Si atom -12399.881723 kJ/mol
# Density = 1.881275 g / cm^3
# Si number density = 18.855664 Si / 1000 Ang^3
#
#
#
# Elastic Constant Matrix: (Units=GPa)
#
#
# Indices 1 2 3 4 5 6 
#
# 1 152.0176 10.9305 60.7111 0.0000 -7.3880 0.0000
# 2 10.9305 44.6217 15.0422 0.0000 -3.0989 0.0000
# 3 60.7111 15.0422 140.4444 0.0000 -13.2440 0.0000
# 4 0.0000 0.0000 0.0000 23.1421 0.0000 -1.7153
# 5 -7.3880 -3.0989 -13.2440 0.0000 14.3359 0.0000
# 6 0.0000 0.0000 0.0000 -1.7153 0.0000 28.2769
#
#
#
# Elastic Compliance Matrix: (Units=1/GPa)
#
#
# Indices 1 2 3 4 5 6 
#
# 1 0.007991 -0.000787 -0.003284 0.000000 0.000914 0.000000
# 2 -0.000787 0.023445 -0.001896 0.000000 0.002910 0.000000
# 3 -0.003284 -0.001896 0.009360 0.000000 0.006545 0.000000
# 4 0.000000 0.000000 0.000000 0.043406 0.000000 0.002633
# 5 0.000914 0.002910 0.006545 0.000000 0.076902 0.000000
# 6 0.000000 0.000000 0.000000 0.002633 0.000000 0.035524
#
#
# Mechanical properties :
#
#
# Convention : Reuss Voigt Hill
#
# Bulk Modulus (GPa) = 34.64837 56.71680 45.68259
# Shear Modulus (GPa) = 22.91664 29.84432 26.38048
#
# Velocity S-wave (km/s) = 3.49000 3.98273 3.74448
# Velocity P-wave (km/s) = 5.88690 7.16200 6.55553
#
# Compressibility (1/GPa) = 0.02886139
#
# Stress axis : x y z
#
# Youngs Moduli (GPa) = 125.14722 42.65340 106.83744
#
# Poissons Ratio (x) = 0.03357 0.35082
# Poissons Ratio (y) = 0.09848 0.20261
# Poissons Ratio (z) = 0.41094 0.08089
#
# Static dielectric constant tensor:
#      x y z
#    x 3.627280 0.000000 -0.007290 
#    y 0.000000 3.250170 0.000000 
#    z -0.007290 0.000000 3.620290 
# 
# 
# High freq. dielectric constant tensor:
#      x y z
#    x 1.734330 0.000000 -0.002260 
#    y 0.000000 1.718340 0.000000 
#    z -0.002260 0.000000 1.734660 
# 
# From -- ./inp_files/26420.got.cif
#   From: 2010.03.12/outbox.cif.g09.slc.cpg/sg8_14_cif.got.tgz:26420.got - 2010.03.31 10:45:26.
