data_PCOD8053996
_publ_section_title
;
Structure prediction by ZEFSAII (Michael W. Deem and Ramdas Pophale) SiO2 
 PCOD8053996
Probable space group: C M
;
_chemical_formula_sum "Si O2"
_cell_formula_units_Z 22
_cell_length_a 15.253448
_cell_length_b 11.446057
_cell_length_c 12.685577
_cell_angle_alpha 90.000000
_cell_angle_beta 23.488664
_cell_angle_gamma 90.000000
_cell_volume 882.746836
_symmetry_space_group_name_H-M "C M"
_symmetry_group_IT_number 8
_symmetry_cell_setting 'monoclinic'
loop_
_space_group_symop_operation_xyz
x,y,z
x,-y,z
1/2+x,1/2+y,z
1/2+x,1/2-y,z
loop_
_atom_site_type_symbol
_atom_site_label
_atom_site_fract_x
_atom_site_fract_y
_atom_site_fract_z
Si Si1 0.676360 0.000000 0.368670
Si Si2 0.372556 0.000000 0.275965
Si Si3 0.897401 0.000000 0.353298
Si Si4 0.913710 0.683423 0.546920
Si Si5 0.725416 0.306806 0.060732
Si Si6 0.616266 0.500000 0.764478
Si Si7 0.786470 0.870835 0.833157
Si Si8 0.950990 0.500000 0.946668
O O1 0.776236 0.000000 0.374651
O O2 0.514826 0.889132 0.533639
O O3 0.857758 0.000000 0.074815
O O4 0.160527 0.000000 0.587733
O O5 0.522288 0.113939 0.136610
O O6 0.337546 0.000000 0.187449
O O7 0.050456 0.885830 0.190224
O O8 0.717975 0.000000 0.647033
O O9 0.718035 0.614868 0.705540
O O10 0.110391 0.703159 0.250327
O O11 0.831217 0.812809 0.670352
O O12 0.873983 0.226630 0.818759
O O13 0.877060 0.383761 0.968065
O O14 0.903827 0.000000 0.711008
#
# Coordination Sequence:
#
# PCOD8053996 Si02
#       8
#     2   2   2   4   4   2   4   2
#     4  11  26  43  75 111 135 193 248 290 364 430
#     4  10  22  46  72 106 142 193 242 287 367 420
#     4  11  24  45  71 103 141 192 236 297 362 425
#     4  11  23  45  73 104 140 189 239 299 357 423
#     4  11  24  44  70 101 143 183 232 292 365 417
#     4  11  23  49  75 100 156 188 239 299 359 439
#     4  10  22  43  77  99 138 194 235 291 366 424
#     4  11  25  43  71 112 140 184 251 301 350 426
#
# _framework density 24.922208000000001
#
# number of rings (size 3 to 8) (size 9 to 14) (size 15 to 20)
#    0.545    0.727    1.818    3.273    3.818    7.273 
#    3.273    1.818    0.000    0.000    0.000    0.000 
#    0.000    0.000    0.000    0.000    0.000    0.000 
#
# Total GULP energy -136291.601286 kJ/mol
# GULP energy per Si atom -12390.145571 kJ/mol
# Density = 2.486548 g / cm^3
# Si number density = 24.922208 Si / 1000 Ang^3
#
#
#
# Elastic Constant Matrix: (Units=GPa)
#
#
# Indices 1 2 3 4 5 6 
#
# 1 115.1416 57.2561 10.0285 -0.0212 20.0521 0.0122
# 2 57.2561 179.0676 33.0605 -0.0158 11.0798 0.0115
# 3 10.0285 33.0605 92.0675 -0.0230 17.3923 0.0190
# 4 -0.0212 -0.0158 -0.0230 39.2196 0.0137 14.4046
# 5 20.0521 11.0798 17.3923 0.0137 36.2059 -0.0100
# 6 0.0122 0.0115 0.0190 14.4046 -0.0100 25.1204
#
#
#
# Elastic Compliance Matrix: (Units=1/GPa)
#
#
# Indices 1 2 3 4 5 6 
#
# 1 0.011310 -0.003464 0.001094 0.000013 -0.005729 -0.000014
# 2 -0.003464 0.007067 -0.002325 -0.000001 0.000873 0.000001
# 3 0.001094 -0.002325 0.012711 0.000017 -0.006000 -0.000021
# 4 0.000013 -0.000001 0.000017 0.032300 -0.000032 -0.018522
# 5 -0.005729 0.000873 -0.006000 -0.000032 0.033408 0.000039
# 6 -0.000014 0.000001 -0.000021 -0.018522 0.000039 0.050429
#
#
# Mechanical properties :
#
#
# Convention : Reuss Voigt Hill
#
# Bulk Modulus (GPa) = 46.08653 65.21855 55.65254
# Shear Modulus (GPa) = 30.51602 39.17129 34.84365
#
# Velocity S-wave (km/s) = 3.50301 3.96882 3.74317
# Velocity P-wave (km/s) = 5.90709 6.87224 6.40786
#
# Compressibility (1/GPa) = 0.02169832
#
# Stress axis : x y z
#
# Youngs Moduli (GPa) = 88.41817 141.49580 78.67224
#
# Poissons Ratio (x) = 0.49011 -0.08609
# Poissons Ratio (y) = 0.30626 0.18294
# Poissons Ratio (z) = -0.09675 0.32903
#
# Static dielectric constant tensor:
#      x y z
#    x 4.227000 0.000000 0.169820 
#    y 0.000000 4.518780 0.000010 
#    z 0.169820 0.000010 4.448960 
# 
# 
# High freq. dielectric constant tensor:
#      x y z
#    x 1.984720 0.000000 0.018690 
#    y 0.000000 2.006820 0.000000 
#    z 0.018690 0.000000 1.991150 
# 
# From -- ./inp_files/21967.got.cif
#   From: 2010.03.12/outbox.cif.g09.slc.cpg/sg8_11_cif.got.tgz:21967.got - 2010.03.31 10:45:26.
