data_PCOD8053138
_publ_section_title
;
Structure prediction by ZEFSAII (Michael W. Deem and Ramdas Pophale) SiO2 
 PCOD8053138
Probable space group: C M
;
_chemical_formula_sum "Si O2"
_cell_formula_units_Z 32
_cell_length_a 19.849732
_cell_length_b 8.704469
_cell_length_c 12.091625
_cell_angle_alpha 90.000000
_cell_angle_beta 54.271725
_cell_angle_gamma 90.000000
_cell_volume 1696.009248
_symmetry_space_group_name_H-M "C M"
_symmetry_group_IT_number 8
_symmetry_cell_setting 'monoclinic'
loop_
_space_group_symop_operation_xyz
x,y,z
x,-y,z
1/2+x,1/2+y,z
1/2+x,1/2-y,z
loop_
_atom_site_type_symbol
_atom_site_label
_atom_site_fract_x
_atom_site_fract_y
_atom_site_fract_z
Si Si1 0.542580 0.822067 0.744590
Si Si2 0.770718 0.821288 0.266351
Si Si3 0.628033 0.677213 0.279442
Si Si4 0.943573 0.676924 0.057657
Si Si5 0.509994 0.176683 0.228649
Si Si6 0.869559 0.179028 0.504142
Si Si7 0.482711 0.675645 0.591536
Si Si8 0.718908 0.679461 0.545779
O O1 0.483742 0.786432 0.696184
O O2 0.623964 0.718894 0.658840
O O3 0.567814 0.000000 0.720204
O O4 0.493846 0.775375 0.901054
O O5 0.710046 0.776654 0.223588
O O6 0.863986 0.785362 0.140983
O O7 0.745091 0.724044 0.397425
O O8 0.762145 0.000000 0.302813
O O9 0.653224 0.500000 0.247495
O O10 0.587180 0.727143 0.202518
O O11 0.562871 0.707947 0.439654
O O12 0.914040 0.500000 0.081265
O O13 0.004944 0.703658 0.102264
O O14 0.422682 0.228703 0.363517
O O15 0.524708 0.000000 0.244904
O O16 0.900520 0.213906 0.598911
O O17 0.774509 0.230879 0.582871
O O18 0.880685 0.000000 0.466602
O O19 0.482143 0.500000 0.632756
O O20 0.732945 0.500000 0.547871
#
# Coordination Sequence:
#
# PCOD8053138 Si02
#       8
#     4   4   4   4   4   4   4   4
#     4  11  23  39  60  85 117 156 196 235 285 349
#     4  12  23  36  60  89 115 149 197 241 285 346
#     4  10  20  35  57  85 119 150 187 241 291 336
#     4  10  23  41  59  84 120 156 189 237 293 343
#     4  10  19  34  57  84 117 153 191 234 289 347
#     4  10  20  35  57  86 116 147 191 243 290 338
#     4   9  19  35  56  83 117 152 187 236 290 337
#     4  12  23  37  58  86 119 151 192 243 291 340
#
# _framework density 18.867822
#
# number of rings (size 3 to 8) (size 9 to 14) (size 15 to 20)
#    0.000    1.500    2.500    4.500    0.000    4.000 
#    0.000    1.250    0.000    1.500    0.000    0.000 
#    0.000    0.000    0.000    0.000    0.000    0.000 
#
# Total GULP energy -198478.364364 kJ/mol
# GULP energy per Si atom -12404.897773 kJ/mol
# Density = 1.882488 g / cm^3
# Si number density = 18.867822 Si / 1000 Ang^3
#
#
#
# Elastic Constant Matrix: (Units=GPa)
#
#
# Indices 1 2 3 4 5 6 
#
# 1 125.2473 31.8526 42.8862 0.0000 8.6801 0.0000
# 2 31.8526 68.6540 29.8153 0.0000 7.9362 0.0000
# 3 42.8862 29.8153 87.3095 0.0000 10.5405 0.0000
# 4 0.0000 0.0000 0.0000 24.7847 0.0000 -0.7722
# 5 8.6801 7.9362 10.5405 0.0000 23.6487 0.0000
# 6 0.0000 0.0000 0.0000 -0.7722 0.0000 37.9685
#
#
#
# Elastic Compliance Matrix: (Units=1/GPa)
#
#
# Indices 1 2 3 4 5 6 
#
# 1 0.010112 -0.002900 -0.003853 0.000000 -0.001021 0.000000
# 2 -0.002900 0.018183 -0.004414 0.000000 -0.003070 0.000000
# 3 -0.003853 -0.004414 0.015329 0.000000 -0.003937 0.000000
# 4 0.000000 0.000000 0.000000 0.040373 0.000000 0.000821
# 5 -0.001021 -0.003070 -0.003937 0.000000 0.045445 0.000000
# 6 0.000000 0.000000 0.000000 0.000821 0.000000 0.026354
#
#
# Mechanical properties :
#
#
# Convention : Reuss Voigt Hill
#
# Bulk Modulus (GPa) = 46.97318 54.47989 50.72654
# Shear Modulus (GPa) = 26.99374 29.05750 28.02562
#
# Velocity S-wave (km/s) = 3.78653 3.92861 3.85823
# Velocity P-wave (km/s) = 6.63830 7.03675 6.84043
#
# Compressibility (1/GPa) = 0.02128874
#
# Stress axis : x y z
#
# Youngs Moduli (GPa) = 98.89314 54.99576 65.23611
#
# Poissons Ratio (x) = 0.15949 0.25138
# Poissons Ratio (y) = 0.28680 0.28797
# Poissons Ratio (z) = 0.38107 0.24276
#
# Static dielectric constant tensor:
#      x y z
#    x 3.710560 0.000000 0.090250 
#    y 0.000000 3.483440 0.000000 
#    z 0.090250 0.000000 3.194270 
# 
# 
# High freq. dielectric constant tensor:
#      x y z
#    x 1.750910 0.000000 0.007750 
#    y 0.000000 1.743680 0.000000 
#    z 0.007750 0.000000 1.695690 
# 
# From -- ./inp_files/23827.got.cif
#   From: 2010.03.12/outbox.cif.g09.slc.cpg/sg8_12_cif.got.tgz:23827.got - 2010.03.31 10:45:26.
