data_PCOD8053223
_publ_section_title
;
Structure prediction by ZEFSAII (Michael W. Deem and Ramdas Pophale) SiO2 
 PCOD8053223
Probable space group: C M
;
_chemical_formula_sum "Si O2"
_cell_formula_units_Z 32
_cell_length_a 15.358726
_cell_length_b 8.552858
_cell_length_c 22.777333
_cell_angle_alpha 90.000000
_cell_angle_beta 31.360348
_cell_angle_gamma 90.000000
_cell_volume 1557.120788
_symmetry_space_group_name_H-M "C M"
_symmetry_group_IT_number 8
_symmetry_cell_setting 'monoclinic'
loop_
_space_group_symop_operation_xyz
x,y,z
x,-y,z
1/2+x,1/2+y,z
1/2+x,1/2-y,z
loop_
_atom_site_type_symbol
_atom_site_label
_atom_site_fract_x
_atom_site_fract_y
_atom_site_fract_z
Si Si1 0.955300 0.820747 0.557020
Si Si2 0.491594 0.321319 0.344151
Si Si3 0.797523 0.820567 0.344412
Si Si4 0.755055 0.681447 0.569545
Si Si5 0.327334 0.681237 0.194152
Si Si6 0.159270 0.680773 0.807382
Si Si7 0.132196 0.316724 0.953090
Si Si8 0.463751 0.184707 0.808038
O O1 0.887597 0.708449 0.545208
O O2 0.850860 0.790719 0.676786
O O3 0.148563 0.784136 0.456651
O O4 0.930873 0.000000 0.550840
O O5 0.539647 0.500000 0.330850
O O6 0.458685 0.298899 0.293479
O O7 0.319834 0.275836 0.475769
O O8 0.640150 0.209150 0.279073
O O9 0.844603 0.765737 0.251875
O O10 0.737589 0.000000 0.378160
O O11 0.744996 0.500000 0.559410
O O12 0.571055 0.740749 0.693403
O O13 0.373244 0.500000 0.160020
O O14 0.452043 0.786193 0.084556
O O15 0.116424 0.500000 0.838718
O O16 0.133713 0.756746 0.886290
O O17 0.032764 0.750254 0.830916
O O18 0.171774 0.500000 0.929639
O O19 0.271170 0.231209 0.912464
O O20 0.487697 0.000000 0.791569
#
# Coordination Sequence:
#
# PCOD8053223 Si02
#       8
#     4   4   4   4   4   4   4   4
#     4  10  19  35  61  90 123 161 202 249 303 363
#     4  11  23  40  62  91 120 159 206 254 307 366
#     4  10  23  40  60  88 123 160 202 252 309 363
#     4  11  21  36  59  90 128 164 197 248 309 366
#     4  11  24  44  63  86 122 164 205 254 306 362
#     4   8  19  38  59  86 121 159 197 243 302 357
#     4  11  23  41  64  90 120 161 206 252 302 364
#     4  10  21  40  62  89 121 160 203 250 302 363
#
# _framework density 20.550750000000001
#
# number of rings (size 3 to 8) (size 9 to 14) (size 15 to 20)
#    0.000    1.750    1.250    3.750    1.750    2.500 
#    0.000   11.875    0.000    0.000    0.000    0.000 
#    0.000    0.000    0.000    0.000    0.000    0.000 
#
# Total GULP energy -198440.753077 kJ/mol
# GULP energy per Si atom -12402.547067 kJ/mol
# Density = 2.050398 g / cm^3
# Si number density = 20.550750 Si / 1000 Ang^3
#
#
#
# Elastic Constant Matrix: (Units=GPa)
#
#
# Indices 1 2 3 4 5 6 
#
# 1 115.3443 25.7118 49.0616 -0.0001 16.6837 0.0001
# 2 25.7118 58.3153 18.9066 -0.0001 2.9984 0.0002
# 3 49.0616 18.9066 100.9813 -0.0006 14.3728 0.0002
# 4 -0.0001 -0.0001 -0.0006 35.4752 0.0002 -3.9178
# 5 16.6837 2.9984 14.3728 0.0002 28.0029 -0.0001
# 6 0.0001 0.0002 0.0002 -3.9178 -0.0001 26.2114
#
#
#
# Elastic Compliance Matrix: (Units=1/GPa)
#
#
# Indices 1 2 3 4 5 6 
#
# 1 0.012053 -0.003611 -0.004545 0.000000 -0.004462 0.000000
# 2 -0.003611 0.019340 -0.002026 0.000000 0.001121 0.000000
# 3 -0.004545 -0.002026 0.013025 0.000000 -0.003761 0.000000
# 4 0.000000 0.000000 0.000000 0.028662 0.000000 0.004284
# 5 -0.004462 0.001121 -0.003761 0.000000 0.040179 0.000000
# 6 0.000000 0.000000 0.000000 0.004284 0.000000 0.038792
#
#
# Mechanical properties :
#
#
# Convention : Reuss Voigt Hill
#
# Bulk Modulus (GPa) = 41.57284 51.33344 46.45314
# Shear Modulus (GPa) = 27.71105 30.00195 28.85650
#
# Velocity S-wave (km/s) = 3.67607 3.82500 3.75127
# Velocity P-wave (km/s) = 6.18799 6.67388 6.43552
#
# Compressibility (1/GPa) = 0.02405416
#
# Stress axis : x y z
#
# Youngs Moduli (GPa) = 82.96519 51.70717 76.77249
#
# Poissons Ratio (x) = 0.18674 0.34892
# Poissons Ratio (y) = 0.29963 0.15553
# Poissons Ratio (z) = 0.37706 0.10475
#
# Static dielectric constant tensor:
#      x y z
#    x 3.842090 0.000000 0.155540 
#    y 0.000000 3.527250 0.000000 
#    z 0.155540 0.000000 3.594310 
# 
# 
# High freq. dielectric constant tensor:
#      x y z
#    x 1.807140 0.000000 0.003770 
#    y 0.000000 1.794510 0.000000 
#    z 0.003770 0.000000 1.796700 
# 
# From -- ./inp_files/21511.got.cif
#   From: 2010.03.12/outbox.cif.g09.slc.cpg/sg8_11_cif.got.tgz:21511.got - 2010.03.31 10:45:26.
