data_PCOD8053502
_publ_section_title
;
Structure prediction by ZEFSAII (Michael W. Deem and Ramdas Pophale) SiO2 
 PCOD8053502
Probable space group: C M
;
_chemical_formula_sum "Si O2"
_cell_formula_units_Z 24
_cell_length_a 18.573062
_cell_length_b 8.716853
_cell_length_c 11.958681
_cell_angle_alpha 90.000000
_cell_angle_beta 40.174425
_cell_angle_gamma 90.000000
_cell_volume 1249.006761
_symmetry_space_group_name_H-M "C M"
_symmetry_group_IT_number 8
_symmetry_cell_setting 'monoclinic'
loop_
_space_group_symop_operation_xyz
x,y,z
x,-y,z
1/2+x,1/2+y,z
1/2+x,1/2-y,z
loop_
_atom_site_type_symbol
_atom_site_label
_atom_site_fract_x
_atom_site_fract_y
_atom_site_fract_z
Si Si1 0.706340 0.181230 0.412610
Si Si2 0.630732 0.320494 0.733801
Si Si3 0.031458 0.682164 0.434050
Si Si4 0.442925 0.818954 0.094626
Si Si5 0.597311 0.818987 0.114832
Si Si6 0.784046 0.679361 0.758552
O O1 0.676131 0.268209 0.561224
O O2 0.618537 0.236479 0.423684
O O3 0.827320 0.229151 0.225113
O O4 0.701338 0.000000 0.438430
O O5 0.603247 0.500000 0.764552
O O6 0.727557 0.280942 0.707217
O O7 0.518059 0.229233 0.899203
O O8 0.027069 0.500000 0.430372
O O9 0.909214 0.746111 0.609887
O O10 0.066391 0.750470 0.272168
O O11 0.504960 0.765794 0.134454
O O12 0.420976 0.000000 0.118058
O O13 0.602981 0.000000 0.111851
O O14 0.718849 0.758258 0.937287
O O15 0.783376 0.500000 0.782443
#
# Coordination Sequence:
#
# PCOD8053502 Si02
#       6
#     4   4   4   4   4   4
#     4  11  22  35  53  79 112 145 176 214 262 317
#     4  10  20  36  58  81 106 138 178 222 265 312
#     4   9  19  35  53  75 106 141 172 208 260 315
#     4  10  20  36  58  81 106 138 178 222 265 312
#     4   9  18  35  57  78 101 133 174 218 262 308
#     4   9  18  35  57  78 101 133 174 218 262 308
#
# _framework density 19.215266
#
# number of rings (size 3 to 8) (size 9 to 14) (size 15 to 20)
#    0.000    2.333    0.000    2.500    0.000    5.333 
#    0.000    7.500    0.000    0.000    0.000    0.000 
#    0.000    0.000    0.000    0.000    0.000    0.000 
#
# Total GULP energy -148831.824604 kJ/mol
# GULP energy per Si atom -12402.652050 kJ/mol
# Density = 1.917153 g / cm^3
# Si number density = 19.215266 Si / 1000 Ang^3
#
#
#
# Elastic Constant Matrix: (Units=GPa)
#
#
# Indices 1 2 3 4 5 6 
#
# 1 97.5391 22.1871 57.7009 0.0000 -27.4549 0.0000
# 2 22.1871 28.1982 12.8223 0.0001 -2.6272 -0.0001
# 3 57.7009 12.8223 112.7781 0.0000 -32.7859 0.0000
# 4 0.0000 0.0001 0.0000 37.6199 0.0000 -2.4577
# 5 -27.4549 -2.6272 -32.7859 0.0000 20.7516 0.0000
# 6 0.0000 -0.0001 0.0000 -2.4577 0.0000 21.4137
#
#
#
# Elastic Compliance Matrix: (Units=1/GPa)
#
#
# Indices 1 2 3 4 5 6 
#
# 1 0.021092 -0.013205 -0.003077 0.000000 0.021372 0.000000
# 2 -0.013205 0.045816 -0.003413 0.000000 -0.017063 0.000000
# 3 -0.003077 -0.003413 0.017607 0.000000 0.023315 0.000000
# 4 0.000000 0.000000 0.000000 0.026782 0.000000 0.003074
# 5 0.021372 -0.017063 0.023315 0.000000 0.111141 0.000000
# 6 0.000000 0.000000 0.000000 0.003074 0.000000 0.047052
#
#
# Mechanical properties :
#
#
# Convention : Reuss Voigt Hill
#
# Bulk Modulus (GPa) = 22.16097 47.10403 34.63250
# Shear Modulus (GPa) = 15.43577 25.67738 20.55657
#
# Velocity S-wave (km/s) = 2.83734 3.65951 3.27433
# Velocity P-wave (km/s) = 4.72145 6.51330 5.68837
#
# Compressibility (1/GPa) = 0.04512438
#
# Stress axis : x y z
#
# Youngs Moduli (GPa) = 47.41127 21.82647 56.79477
#
# Poissons Ratio (x) = 0.28823 0.17475
# Poissons Ratio (y) = 0.62609 0.19385
# Poissons Ratio (z) = 0.14588 0.07450
#
# Static dielectric constant tensor:
#      x y z
#    x 3.594620 0.000000 -0.040160 
#    y 0.000000 3.317380 0.000000 
#    z -0.040160 0.000000 3.718070 
# 
# 
# High freq. dielectric constant tensor:
#      x y z
#    x 1.742090 0.000000 -0.004560 
#    y 0.000000 1.732670 0.000000 
#    z -0.004560 0.000000 1.763350 
# 
# From -- ./inp_files/22840.got.cif
#   From: 2010.03.12/outbox.cif.g09.slc.cpg/sg8_12_cif.got.tgz:22840.got - 2010.03.31 10:45:26.
