data_PCOD8053456
_publ_section_title
;
Structure prediction by ZEFSAII (Michael W. Deem and Ramdas Pophale) SiO2 
 PCOD8053456
Probable space group: C M
;
_chemical_formula_sum "Si O2"
_cell_formula_units_Z 32
_cell_length_a 15.408745
_cell_length_b 8.712781
_cell_length_c 22.372258
_cell_angle_alpha 90.000000
_cell_angle_beta 32.237713
_cell_angle_gamma 90.000000
_cell_volume 1602.189484
_symmetry_space_group_name_H-M "C M"
_symmetry_group_IT_number 8
_symmetry_cell_setting 'monoclinic'
loop_
_space_group_symop_operation_xyz
x,y,z
x,-y,z
1/2+x,1/2+y,z
1/2+x,1/2-y,z
loop_
_atom_site_type_symbol
_atom_site_label
_atom_site_fract_x
_atom_site_fract_y
_atom_site_fract_z
Si Si1 0.525530 0.816837 0.047070
Si Si2 0.051568 0.173339 0.269491
Si Si3 0.194202 0.182191 0.641675
Si Si4 0.499361 0.317198 0.525921
Si Si5 0.699312 0.819556 0.508372
Si Si6 0.349164 0.679594 0.040167
Si Si7 0.222783 0.174295 0.292664
Si Si8 0.866945 0.818083 0.895553
O O1 0.475871 0.762559 0.010059
O O2 0.394879 0.750534 0.171921
O O3 0.517592 0.000000 0.051508
O O4 0.702818 0.752205 0.960564
O O5 0.861921 0.217079 0.375193
O O6 0.160876 0.285894 0.165889
O O7 0.095086 0.188839 0.313560
O O8 0.084527 0.000000 0.228332
O O9 0.327485 0.241910 0.610617
O O10 0.220497 0.255634 0.562134
O O11 0.019888 0.237728 0.768050
O O12 0.204702 0.000000 0.630639
O O13 0.482732 0.500000 0.531440
O O14 0.549285 0.265175 0.563385
O O15 0.636975 0.249387 0.400235
O O16 0.666095 0.000000 0.531227
O O17 0.379429 0.500000 0.027440
O O18 0.383126 0.742443 0.953853
O O19 0.258545 0.000000 0.288980
O O20 0.854391 0.000000 0.904185
#
# Coordination Sequence:
#
# PCOD8053456 Si02
#       8
#     4   4   4   4   4   4   4   4
#     4   9  18  37  59  81 113 156 191 231 289 347
#     4   9  18  36  58  82 118 156 189 235 293 352
#     4  11  23  42  62  86 119 159 203 249 295 348
#     4  11  22  38  60  90 120 157 200 242 296 358
#     4  11  23  40  60  87 120 158 199 248 300 351
#     4  10  20  35  57  88 118 147 188 241 291 343
#     4   8  15  31  57  82 112 149 187 230 286 347
#     4   9  21  39  61  84 114 154 197 238 286 348
#
# _framework density 19.972670000000001
#
# number of rings (size 3 to 8) (size 9 to 14) (size 15 to 20)
#    0.000    2.250    1.250    2.250    1.750    2.000 
#    0.000    8.125    0.000    0.000    0.000    0.000 
#    0.000    0.000    0.000    0.000    0.000    0.000 
#
# Total GULP energy -198370.837801 kJ/mol
# GULP energy per Si atom -12398.177363 kJ/mol
# Density = 1.992721 g / cm^3
# Si number density = 19.972670 Si / 1000 Ang^3
#
#
#
# Elastic Constant Matrix: (Units=GPa)
#
#
# Indices 1 2 3 4 5 6 
#
# 1 85.8745 13.2465 46.4798 0.0002 -18.3126 0.0001
# 2 13.2465 41.6484 30.1040 0.0002 -0.7208 0.0001
# 3 46.4798 30.1040 110.4783 0.0008 -19.6281 0.0001
# 4 0.0002 0.0002 0.0008 23.1091 0.0001 -2.2879
# 5 -18.3126 -0.7208 -19.6281 0.0001 32.5110 0.0000
# 6 0.0001 0.0001 0.0001 -2.2879 0.0000 30.0459
#
#
#
# Elastic Compliance Matrix: (Units=1/GPa)
#
#
# Indices 1 2 3 4 5 6 
#
# 1 0.015951 -0.001065 -0.005409 0.000000 0.005696 0.000000
# 2 -0.001065 0.030645 -0.008836 0.000000 -0.005255 0.000000
# 3 -0.005409 -0.008836 0.014740 0.000000 0.005656 0.000000
# 4 0.000000 0.000000 0.000000 0.043602 0.000000 0.003320
# 5 0.005696 -0.005255 0.005656 0.000000 0.037266 0.000000
# 6 0.000000 0.000000 0.000000 0.003320 0.000000 0.033535
#
#
# Mechanical properties :
#
#
# Convention : Reuss Voigt Hill
#
# Bulk Modulus (GPa) = 32.55603 46.40687 39.48145
# Shear Modulus (GPa) = 23.08431 27.01126 25.04779
#
# Velocity S-wave (km/s) = 3.40339 3.68150 3.54517
# Velocity P-wave (km/s) = 5.63735 6.43093 6.04718
#
# Compressibility (1/GPa) = 0.03071628
#
# Stress axis : x y z
#
# Youngs Moduli (GPa) = 62.69054 32.63162 67.84411
#
# Poissons Ratio (x) = 0.03476 0.36695
# Poissons Ratio (y) = 0.06679 0.59946
# Poissons Ratio (z) = 0.33907 0.28833
#
# Static dielectric constant tensor:
#      x y z
#    x 3.642280 0.000000 -0.067020 
#    y 0.000000 3.341210 0.000000 
#    z -0.067020 0.000000 3.839330 
# 
# 
# High freq. dielectric constant tensor:
#      x y z
#    x 1.783940 0.000000 -0.005220 
#    y 0.000000 1.754480 0.000000 
#    z -0.005220 0.000000 1.780310 
# 
# From -- ./inp_files/21553.got.cif
#   From: 2010.03.12/outbox.cif.g09.slc.cpg/sg8_11_cif.got.tgz:21553.got - 2010.03.31 10:45:26.
