data_PCOD8053099
_publ_section_title
;
Structure prediction by ZEFSAII (Michael W. Deem and Ramdas Pophale) SiO2 
 PCOD8053099
Probable space group: C M
;
_chemical_formula_sum "Si O2"
_cell_formula_units_Z 32
_cell_length_a 28.794842
_cell_length_b 8.960474
_cell_length_c 14.220185
_cell_angle_alpha 90.000000
_cell_angle_beta 29.267169
_cell_angle_gamma 90.000000
_cell_volume 1793.723802
_symmetry_space_group_name_H-M "C M"
_symmetry_group_IT_number 8
_symmetry_cell_setting 'monoclinic'
loop_
_space_group_symop_operation_xyz
x,y,z
x,-y,z
1/2+x,1/2+y,z
1/2+x,1/2-y,z
loop_
_atom_site_type_symbol
_atom_site_label
_atom_site_fract_x
_atom_site_fract_y
_atom_site_fract_z
Si Si1 0.096650 0.826428 0.528020
Si Si2 0.541467 0.665779 0.109915
Si Si3 0.163529 0.676388 0.029370
Si Si4 0.708865 0.325338 0.142054
Si Si5 0.767591 0.824654 0.319361
Si Si6 0.379995 0.675515 0.935756
Si Si7 0.746258 0.333521 0.718531
Si Si8 0.349166 0.675923 0.369293
O O1 0.134572 0.791809 0.356710
O O2 0.164460 0.745041 0.482806
O O3 0.988421 0.769095 0.730838
O O4 0.101758 0.000000 0.542518
O O5 0.515528 0.500000 0.194798
O O6 0.561564 0.775169 0.163658
O O7 0.458849 0.725007 0.187483
O O8 0.636497 0.656599 0.878852
O O9 0.174599 0.500000 0.010093
O O10 0.167267 0.738502 0.127240
O O11 0.248467 0.750550 0.816609
O O12 0.716497 0.500000 0.106578
O O13 0.813709 0.263818 0.979877
O O14 0.807877 0.756193 0.345708
O O15 0.752924 0.000000 0.352059
O O16 0.844516 0.784713 0.103309
O O17 0.370865 0.500000 0.930623
O O18 0.790368 0.500000 0.649726
O O19 0.798523 0.236396 0.550232
O O20 0.336625 0.500000 0.388070
#
# Coordination Sequence:
#
# PCOD8053099 Si02
#       8
#     4   4   4   4   4   4   4   4
#     4   9  19  35  55  78 105 137 176 215 259 312
#     4   8  18  35  52  73 105 140 176 216 260 304
#     4  10  19  35  56  77 105 141 176 217 266 314
#     4  10  19  34  54  78 107 136 171 219 266 311
#     4   9  19  33  53  78 108 138 173 217 261 307
#     4   9  18  35  55  77 104 139 177 214 256 315
#     4   9  19  35  53  75 103 137 176 220 261 308
#     4  10  19  34  54  78 107 144 179 216 265 313
#
# _framework density 17.839981999999999
#
# number of rings (size 3 to 8) (size 9 to 14) (size 15 to 20)
#    0.750    2.000    0.000    1.500    0.000    3.000 
#    2.250    2.500    0.000    0.000    0.000    0.000 
#    0.000    0.000    0.000    0.000    0.000    0.000 
#
# Total GULP energy -198279.365358 kJ/mol
# GULP energy per Si atom -12392.460335 kJ/mol
# Density = 1.779938 g / cm^3
# Si number density = 17.839982 Si / 1000 Ang^3
#
#
#
# Elastic Constant Matrix: (Units=GPa)
#
#
# Indices 1 2 3 4 5 6 
#
# 1 2999.4676 55.2070 1522.3024 -0.0002 -46.1176 -0.0001
# 2 55.2070 45.8439 27.6671 0.0000 -5.3026 0.0000
# 3 1522.3024 27.6671 852.1581 -0.0001 -35.4471 -0.0001
# 4 -0.0002 0.0000 -0.0001 24.7689 0.0000 0.2699
# 5 -46.1176 -5.3026 -35.4471 0.0000 26.2906 0.0000
# 6 -0.0001 0.0000 -0.0001 0.2699 0.0000 26.9307
#
#
#
# Elastic Compliance Matrix: (Units=1/GPa)
#
#
# Indices 1 2 3 4 5 6 
#
# 1 0.003754 -0.000735 -0.006796 0.000000 -0.002726 0.000000
# 2 -0.000735 0.022742 0.000754 0.000000 0.004314 0.000000
# 3 -0.006796 0.000754 0.013560 0.000000 0.006514 0.000000
# 4 0.000000 0.000000 0.000000 0.040378 0.000000 -0.000405
# 5 -0.002726 0.004314 0.006514 0.000000 0.042908 0.000000
# 6 0.000000 0.000000 0.000000 -0.000405 0.000000 0.037136
#
#
# Mechanical properties :
#
#
# Convention : Reuss Voigt Hill
#
# Bulk Modulus (GPa) = 37.73262 789.75807 413.74535
# Shear Modulus (GPa) = 27.34261 168.41758 97.88009
#
# Velocity S-wave (km/s) = 3.91917 9.72674 7.41517
# Velocity P-wave (km/s) = 6.45572 23.87042 17.48533
#
# Compressibility (1/GPa) = 0.02650226
#
# Stress axis : x y z
#
# Youngs Moduli (GPa) = 266.38991 43.97125 73.74885
#
# Poissons Ratio (x) = 0.03231 0.50116
# Poissons Ratio (y) = 0.19572 -0.05558
# Poissons Ratio (z) = 1.81026 -0.03314
#
# Static dielectric constant tensor:
#      x y z
#    x 1.451470 0.000000 1.639590 
#    y 0.000000 3.269660 0.000000 
#    z 1.639590 0.000000 1.673910 
# 
# 
# High freq. dielectric constant tensor:
#      x y z
#    x 1.685980 0.000000 -0.002750 
#    y 0.000000 1.689470 0.000000 
#    z -0.002750 0.000000 1.678780 
# 
# From -- ./inp_files/28372.got.cif
#   From: 2010.03.12/outbox.cif.g09.slc.cpg/sg8_15_cif.got.tgz:28372.got - 2010.03.31 10:45:26.
