data_PCOD8053542
_publ_section_title
;
Structure prediction by ZEFSAII (Michael W. Deem and Ramdas Pophale) SiO2 
 PCOD8053542
Probable space group: C M
;
_chemical_formula_sum "Si O2"
_cell_formula_units_Z 32
_cell_length_a 15.358645
_cell_length_b 8.590059
_cell_length_c 22.864930
_cell_angle_alpha 90.000000
_cell_angle_beta 148.458417
_cell_angle_gamma 90.000000
_cell_volume 1578.039819
_symmetry_space_group_name_H-M "C M"
_symmetry_group_IT_number 8
_symmetry_cell_setting 'monoclinic'
loop_
_space_group_symop_operation_xyz
x,y,z
x,-y,z
1/2+x,1/2+y,z
1/2+x,1/2-y,z
loop_
_atom_site_type_symbol
_atom_site_label
_atom_site_fract_x
_atom_site_fract_y
_atom_site_fract_z
Si Si1 0.076560 0.685285 0.776400
Si Si2 0.491656 0.823968 0.547943
Si Si3 0.395399 0.315880 0.156446
Si Si4 0.414159 0.683853 0.298972
Si Si5 0.267531 0.824510 0.530594
Si Si6 0.751413 0.683211 0.311180
Si Si7 0.596390 0.318307 0.915115
Si Si8 0.767612 0.319209 0.779081
O O1 0.074105 0.500000 0.783038
O O2 0.117390 0.767455 0.860162
O O3 0.215596 0.724728 0.807290
O O4 0.897003 0.751454 0.650948
O O5 0.344946 0.819792 0.510779
O O6 0.408274 0.761773 0.440514
O O7 0.645521 0.715980 0.654560
O O8 0.559329 0.000000 0.579912
O O9 0.364355 0.500000 0.131219
O O10 0.372969 0.258552 0.210269
O O11 0.579073 0.266251 0.241460
O O12 0.268737 0.219371 0.044928
O O13 0.435763 0.500000 0.308924
O O14 0.587580 0.759255 0.422945
O O15 0.264961 0.735032 0.255860
O O16 0.240427 0.000000 0.536165
O O17 0.756856 0.500000 0.305738
O O18 0.556488 0.500000 0.895361
O O19 0.452626 0.225128 0.866088
O O20 0.760663 0.500000 0.790343
#
# Coordination Sequence:
#
# PCOD8053542 Si02
#       8
#     4   4   4   4   4   4   4   4
#     4  10  21  40  65  93 126 162 204 254 311 369
#     4   9  17  35  60  87 123 163 200 245 304 365
#     4  10  22  43  64  83 118 165 208 249 303 367
#     4  10  20  36  60  89 119 156 201 248 301 364
#     4   8  15  32  59  87 119 156 193 238 297 362
#     4  10  21  37  60  89 120 158 201 249 305 364
#     4  12  26  43  64  90 123 164 213 261 308 367
#     4  11  23  40  62  92 126 164 208 254 309 368
#
# _framework density 20.278323
#
# number of rings (size 3 to 8) (size 9 to 14) (size 15 to 20)
#    0.000    2.000    1.250    3.375    1.750    2.500 
#    0.000    5.000    0.000    0.000    0.000    0.000 
#    0.000    0.000    0.000    0.000    0.000    0.000 
#
# Total GULP energy -198385.799464 kJ/mol
# GULP energy per Si atom -12399.112467 kJ/mol
# Density = 2.023217 g / cm^3
# Si number density = 20.278323 Si / 1000 Ang^3
#
#
#
# Elastic Constant Matrix: (Units=GPa)
#
#
# Indices 1 2 3 4 5 6 
#
# 1 108.2166 14.7620 46.1793 0.0000 -24.1298 0.0000
# 2 14.7620 52.7024 26.0396 0.0001 -3.5907 0.0000
# 3 46.1793 26.0396 103.3795 0.0006 -22.9162 0.0000
# 4 0.0000 0.0001 0.0006 25.8698 0.0000 1.4836
# 5 -24.1298 -3.5907 -22.9162 0.0000 27.1670 0.0000
# 6 0.0000 0.0000 0.0000 1.4836 0.0000 31.7143
#
#
#
# Elastic Compliance Matrix: (Units=1/GPa)
#
#
# Indices 1 2 3 4 5 6 
#
# 1 0.012754 -0.001250 -0.003576 0.000000 0.008146 0.000000
# 2 -0.001250 0.021896 -0.005610 0.000000 -0.002949 0.000000
# 3 -0.003576 -0.005610 0.014533 0.000000 0.008341 0.000000
# 4 0.000000 0.000000 0.000000 0.038759 0.000000 -0.001813
# 5 0.008146 -0.002949 0.008341 0.000000 0.050690 0.000000
# 6 0.000000 0.000000 0.000000 -0.001813 0.000000 0.031616
#
#
# Mechanical properties :
#
#
# Convention : Reuss Voigt Hill
#
# Bulk Modulus (GPa) = 35.32569 48.69561 42.01065
# Shear Modulus (GPa) = 24.93040 28.77139 26.85089
#
# Velocity S-wave (km/s) = 3.51010 3.77082 3.64279
# Velocity P-wave (km/s) = 5.82117 6.55931 6.20123
#
# Compressibility (1/GPa) = 0.02830801
#
# Stress axis : x y z
#
# Youngs Moduli (GPa) = 78.40805 45.67086 68.81018
#
# Poissons Ratio (x) = 0.05710 0.24610
# Poissons Ratio (y) = 0.09803 0.38605
# Poissons Ratio (z) = 0.28042 0.25623
#
# Static dielectric constant tensor:
#      x y z
#    x 3.682340 0.000000 -0.057200 
#    y 0.000000 3.409610 0.000000 
#    z -0.057200 0.000000 3.787400 
# 
# 
# High freq. dielectric constant tensor:
#      x y z
#    x 1.797970 0.000000 -0.003330 
#    y 0.000000 1.769080 0.000000 
#    z -0.003330 0.000000 1.794770 
# 
# From -- ./inp_files/28190.got.cif
#   From: 2010.03.12/outbox.cif.g09.slc.cpg/sg8_15_cif.got.tgz:28190.got - 2010.03.31 10:45:26.
