data_PCOD8053977
_publ_section_title
;
Structure prediction by ZEFSAII (Michael W. Deem and Ramdas Pophale) SiO2 
 PCOD8053977
Probable space group: C M
;
_chemical_formula_sum "Si O2"
_cell_formula_units_Z 18
_cell_length_a 22.888659
_cell_length_b 7.549926
_cell_length_c 18.763833
_cell_angle_alpha 90.000000
_cell_angle_beta 162.512286
_cell_angle_gamma 90.000000
_cell_volume 974.385781
_symmetry_space_group_name_H-M "C M"
_symmetry_group_IT_number 8
_symmetry_cell_setting 'monoclinic'
loop_
_space_group_symop_operation_xyz
x,y,z
x,-y,z
1/2+x,1/2+y,z
1/2+x,1/2-y,z
loop_
_atom_site_type_symbol
_atom_site_label
_atom_site_fract_x
_atom_site_fract_y
_atom_site_fract_z
Si Si1 0.865011 0.000000 0.664980
Si Si2 0.969333 0.500000 0.276635
Si Si3 0.839031 0.696228 0.999988
Si Si4 0.737520 0.302879 0.413540
Si Si5 0.408977 0.293777 0.466220
Si Si6 0.291344 0.000000 0.221042
O O1 0.847023 0.173531 0.595123
O O2 0.701416 0.000000 0.535547
O O3 0.068588 0.000000 0.940379
O O4 0.929435 0.500000 0.313232
O O5 0.876395 0.674176 0.129234
O O6 0.857913 0.500000 0.987168
O O7 0.625791 0.775080 0.738261
O O8 0.005736 0.814087 0.158022
O O9 0.823448 0.500000 0.523087
O O10 0.768697 0.235544 0.369803
O O11 0.408596 0.500000 0.443940
O O12 0.332458 0.178609 0.311907
#
# Coordination Sequence:
#
# PCOD8053977 Si02
#       6
#     2   2   4   4   4   2
#     4  10  22  42  58  84 127 152 194 248 289 346
#     4   8  18  40  60  78 115 160 188 240 295 332
#     4   8  18  38  62  81 112 156 194 248 284 331
#     4  11  20  36  65  90 109 155 205 243 287 345
#     4  11  22  38  58  89 123 152 194 245 294 348
#     4  12  24  36  58  90 124 162 184 234 312 358
#
# _framework density 18.473177
#
# number of rings (size 3 to 8) (size 9 to 14) (size 15 to 20)
#    0.667    1.333    3.333    1.333    1.556    2.667 
#    0.000    4.444    0.000    0.000    0.000    0.000 
#    0.000    0.000    0.000    0.000    0.000    0.000 
#
# Total GULP energy -111552.368133 kJ/mol
# GULP energy per Si atom -12394.707570 kJ/mol
# Density = 1.843113 g / cm^3
# Si number density = 18.473177 Si / 1000 Ang^3
#
#
#
# Elastic Constant Matrix: (Units=GPa)
#
#
# Indices 1 2 3 4 5 6 
#
# 1 144.2089 41.9010 80.1041 0.0000 -9.7779 0.0000
# 2 41.9010 117.2557 51.0469 0.0000 -7.2514 0.0001
# 3 80.1041 51.0469 92.3899 0.0001 -5.7371 0.0001
# 4 0.0000 0.0000 0.0001 15.5825 0.0000 -5.2243
# 5 -9.7779 -7.2514 -5.7371 0.0000 19.5335 0.0001
# 6 0.0000 0.0001 0.0001 -5.2243 0.0001 17.1064
#
#
#
# Elastic Compliance Matrix: (Units=1/GPa)
#
#
# Indices 1 2 3 4 5 6 
#
# 1 0.013620 0.000522 -0.011878 0.000000 0.003523 0.000000
# 2 0.000522 0.011360 -0.006571 0.000000 0.002549 0.000000
# 3 -0.011878 -0.006571 0.024682 0.000000 -0.001136 0.000000
# 4 0.000000 0.000000 0.000000 0.071495 0.000000 0.021834
# 5 0.003523 0.002549 -0.001136 0.000000 0.053570 0.000000
# 6 0.000000 0.000000 0.000000 0.021834 0.000000 0.065126
#
#
# Mechanical properties :
#
#
# Convention : Reuss Voigt Hill
#
# Bulk Modulus (GPa) = 72.42280 77.77316 75.09798
# Shear Modulus (GPa) = 17.83745 22.49800 20.16772
#
# Velocity S-wave (km/s) = 3.11076 3.49359 3.30772
# Velocity P-wave (km/s) = 7.22439 7.64628 7.43833
#
# Compressibility (1/GPa) = 0.01380781
#
# Stress axis : x y z
#
# Youngs Moduli (GPa) = 73.42408 88.02746 40.51482
#
# Poissons Ratio (x) = -0.04595 0.48124
# Poissons Ratio (y) = -0.03833 0.26622
# Poissons Ratio (z) = 0.87214 0.57843
#
# Static dielectric constant tensor:
#      x y z
#    x 3.355970 0.000000 0.155930 
#    y 0.000000 3.482230 0.000000 
#    z 0.155930 0.000000 3.292250 
# 
# 
# High freq. dielectric constant tensor:
#      x y z
#    x 1.716750 0.000000 0.018790 
#    y 0.000000 1.712100 0.000000 
#    z 0.018790 0.000000 1.706200 
# 
# From -- ./inp_files/9549.got.cif
#   From: 2010.03.12/outbox.cif.g09.slc.cpg/sg8_5_cif.got.tgz:9549.got - 2010.03.31 10:45:26.
