data_PCOD8053627
_publ_section_title
;
Structure prediction by ZEFSAII (Michael W. Deem and Ramdas Pophale) SiO2 
 PCOD8053627
Probable space group: C M
;
_chemical_formula_sum "Si O2"
_cell_formula_units_Z 32
_cell_length_a 25.369382
_cell_length_b 8.788729
_cell_length_c 24.179198
_cell_angle_alpha 90.000000
_cell_angle_beta 17.616388
_cell_angle_gamma 90.000000
_cell_volume 1631.577806
_symmetry_space_group_name_H-M "C M"
_symmetry_group_IT_number 8
_symmetry_cell_setting 'monoclinic'
loop_
_space_group_symop_operation_xyz
x,y,z
x,-y,z
1/2+x,1/2+y,z
1/2+x,1/2-y,z
loop_
_atom_site_type_symbol
_atom_site_label
_atom_site_fract_x
_atom_site_fract_y
_atom_site_fract_z
Si Si1 0.454230 0.179121 0.852720
Si Si2 0.338841 0.679121 0.468134
Si Si3 0.445545 0.821530 0.130452
Si Si4 0.847551 0.821532 0.728424
Si Si5 0.146567 0.679757 0.357727
Si Si6 0.146541 0.818306 0.237519
Si Si7 0.441862 0.328892 0.247223
Si Si8 0.851301 0.328892 0.837760
O O1 0.646517 0.220945 0.682498
O O2 0.430602 0.244914 0.814315
O O3 0.424647 0.000000 0.876994
O O4 0.315005 0.242163 0.035576
O O5 0.368436 0.500000 0.433232
O O6 0.477985 0.742158 0.372646
O O7 0.362595 0.744922 0.382352
O O8 0.322795 0.738631 0.209655
O O9 0.386376 0.775040 0.251204
O O10 0.420410 0.000000 0.148458
O O11 0.646545 0.773255 0.918619
O O12 0.906754 0.775048 0.730799
O O13 0.970263 0.738622 0.562153
O O14 0.872693 0.000000 0.696148
O O15 0.146567 0.500000 0.359765
O O16 0.146643 0.736789 0.295476
O O17 0.146551 0.000000 0.245709
O O18 0.370887 0.500000 0.307571
O O19 0.646584 0.332043 0.050632
O O20 0.922263 0.500000 0.756159
#
# Coordination Sequence:
#
# PCOD8053627 Si02
#       8
#     4   4   4   4   4   4   4   4
#     4   9  17  30  53  84 114 149 193 235 283 344
#     4   9  17  30  53  84 114 149 193 235 283 344
#     4  10  22  40  61  88 121 157 197 245 302 360
#     4  10  22  40  61  88 121 157 197 245 302 360
#     4  12  26  42  62  86 116 160 207 254 301 356
#     4  10  20  38  58  80 114 154 199 248 287 342
#     4   9  16  30  54  85 120 153 189 236 287 344
#     4   9  16  30  54  85 120 153 189 236 287 344
#
# _framework density 19.612916999999999
#
# number of rings (size 3 to 8) (size 9 to 14) (size 15 to 20)
#    0.000    2.250    1.250    1.875    1.750    2.500 
#    0.000    3.750    0.000    1.500    0.000    0.000 
#    0.000    0.000    0.000    0.000    0.000    0.000 
#
# Total GULP energy -198383.003735 kJ/mol
# GULP energy per Si atom -12398.937733 kJ/mol
# Density = 1.956828 g / cm^3
# Si number density = 19.612917 Si / 1000 Ang^3
#
#
#
# Elastic Constant Matrix: (Units=GPa)
#
#
# Indices 1 2 3 4 5 6 
#
# 1 168.9332 51.8138 98.1481 0.0007 10.0687 0.0012
# 2 51.8138 75.6905 46.0706 -0.0002 1.5471 0.0046
# 3 98.1481 46.0706 134.4934 0.0258 -0.7146 -0.0022
# 4 0.0007 -0.0002 0.0258 19.9137 0.0083 3.3985
# 5 10.0687 1.5471 -0.7146 0.0083 20.3015 -0.0031
# 6 0.0012 0.0046 -0.0022 3.3985 -0.0031 31.9232
#
#
#
# Elastic Compliance Matrix: (Units=1/GPa)
#
#
# Indices 1 2 3 4 5 6 
#
# 1 0.011521 -0.003328 -0.007298 0.000012 -0.005717 -0.000002
# 2 -0.003328 0.017697 -0.003633 0.000005 0.000174 -0.000003
# 3 -0.007298 -0.003633 0.014029 -0.000020 0.004390 0.000004
# 4 0.000012 0.000005 -0.000020 0.051146 -0.000029 -0.005445
# 5 -0.005717 0.000174 0.004390 -0.000029 0.052234 0.000009
# 6 -0.000002 -0.000003 0.000004 -0.005445 0.000009 0.031905
#
#
# Mechanical properties :
#
#
# Convention : Reuss Voigt Hill
#
# Bulk Modulus (GPa) = 67.88859 85.68687 76.78773
# Shear Modulus (GPa) = 23.58944 26.63333 25.11138
#
# Velocity S-wave (km/s) = 3.47183 3.68903 3.58208
# Velocity P-wave (km/s) = 7.12466 7.86951 7.50633
#
# Compressibility (1/GPa) = 0.01473002
#
# Stress axis : x y z
#
# Youngs Moduli (GPa) = 86.79831 56.50570 71.28150
#
# Poissons Ratio (x) = 0.18803 0.52021
# Poissons Ratio (y) = 0.28884 0.25896
# Poissons Ratio (z) = 0.63346 0.20528
#
# Static dielectric constant tensor:
#      x y z
#    x 3.651210 0.000000 -0.040810 
#    y 0.000000 3.286730 0.000010 
#    z -0.040810 0.000010 3.794690 
# 
# 
# High freq. dielectric constant tensor:
#      x y z
#    x 1.767970 0.000000 -0.002060 
#    y 0.000000 1.728120 0.000000 
#    z -0.002060 0.000000 1.775210 
# 
# From -- ./inp_files/32407.got.cif
#   From: 2010.03.12/outbox.cif.g09.slc.cpg/sg8_17_cif.got.tgz:32407.got - 2010.03.31 10:45:26.
