data_PCOD8053042
_publ_section_title
;
Structure prediction by ZEFSAII (Michael W. Deem and Ramdas Pophale) SiO2 
 PCOD8053042
Probable space group: C M
;
_chemical_formula_sum "Si O2"
_cell_formula_units_Z 32
_cell_length_a 22.558706
_cell_length_b 8.375670
_cell_length_c 27.657537
_cell_angle_alpha 90.000000
_cell_angle_beta 17.929141
_cell_angle_gamma 90.000000
_cell_volume 1608.692702
_symmetry_space_group_name_H-M "C M"
_symmetry_group_IT_number 8
_symmetry_cell_setting 'monoclinic'
loop_
_space_group_symop_operation_xyz
x,y,z
x,-y,z
1/2+x,1/2+y,z
1/2+x,1/2-y,z
loop_
_atom_site_type_symbol
_atom_site_label
_atom_site_fract_x
_atom_site_fract_y
_atom_site_fract_z
Si Si1 0.279960 0.809708 0.950180
Si Si2 0.626514 0.189022 0.867511
Si Si3 0.022875 0.811288 0.328741
Si Si4 0.543370 0.686223 0.571225
Si Si5 0.851951 0.185436 0.259756
Si Si6 0.608404 0.812372 0.625878
Si Si7 0.842770 0.309473 0.008543
Si Si8 0.807028 0.312341 0.190649
O O1 0.430474 0.738660 0.794299
O O2 0.282623 0.000000 0.947737
O O3 0.340767 0.742511 0.955643
O O4 0.067244 0.748856 0.101722
O O5 0.842234 0.255762 0.706156
O O6 0.628293 0.000000 0.863799
O O7 0.532375 0.252516 0.890348
O O8 0.496348 0.241838 0.014100
O O9 0.154181 0.744689 0.183022
O O10 0.117090 0.767427 0.307144
O O11 0.808713 0.737863 0.490520
O O12 0.013510 0.000000 0.330474
O O13 0.524539 0.500000 0.597342
O O14 0.709814 0.714415 0.403511
O O15 0.589521 0.777765 0.584298
O O16 0.795574 0.210954 0.248077
O O17 0.834289 0.000000 0.287096
O O18 0.610305 0.000000 0.632691
O O19 0.840367 0.500000 0.009927
O O20 0.812752 0.500000 0.198277
#
# Coordination Sequence:
#
# PCOD8053042 Si02
#       8
#     4   4   4   4   4   4   4   4
#     4   9  18  30  49  75 102 130 165 206 251 296
#     4   8  16  30  51  76 102 129 163 205 250 295
#     4   8  15  28  51  78 103 130 165 204 245 293
#     4  11  22  35  51  74 101 134 171 210 252 298
#     4  11  22  35  50  73 103 136 170 209 251 297
#     4  10  19  33  53  78 103 131 166 208 252 299
#     4   8  13  26  47  73 101 129 161 203 247 292
#     4   9  17  33  55  79 103 131 165 205 250 300
#
# _framework density 19.891928
#
# number of rings (size 3 to 8) (size 9 to 14) (size 15 to 20)
#    0.000    2.750    0.000    3.750    0.000    3.000 
#    0.000    5.625    0.000    0.000    0.000    6.125 
#    0.000    0.000    0.000    0.000    0.000    0.000 
#
# Total GULP energy -198353.087981 kJ/mol
# GULP energy per Si atom -12397.067999 kJ/mol
# Density = 1.984665 g / cm^3
# Si number density = 19.891928 Si / 1000 Ang^3
#
#
#
# Elastic Constant Matrix: (Units=GPa)
#
#
# Indices 1 2 3 4 5 6 
#
# 1 150.1425 -1.3240 81.0671 0.0256 -4.4327 -0.0301
# 2 -1.3240 11.3040 5.4510 0.1136 -2.9495 -0.1211
# 3 81.0671 5.4510 171.7076 -0.0247 -17.8412 -0.0112
# 4 0.0256 0.1136 -0.0247 16.9935 0.0042 1.0997
# 5 -4.4327 -2.9495 -17.8412 0.0042 35.4287 0.0115
# 6 -0.0301 -0.1211 -0.0112 1.0997 0.0115 25.1331
#
#
#
# Elastic Compliance Matrix: (Units=1/GPa)
#
#
# Indices 1 2 3 4 5 6 
#
# 1 0.009074 0.002993 -0.004469 -0.000042 -0.000866 0.000026
# 2 0.002993 0.092224 -0.003697 -0.000659 0.006190 0.000472
# 3 -0.004469 -0.003697 0.008401 0.000044 0.003363 -0.000023
# 4 -0.000042 -0.000659 0.000044 0.059018 -0.000044 -0.002586
# 5 -0.000866 0.006190 0.003363 -0.000044 0.030326 0.000018
# 6 0.000026 0.000472 -0.000023 -0.002586 0.000018 0.039904
#
#
# Mechanical properties :
#
#
# Convention : Reuss Voigt Hill
#
# Bulk Modulus (GPa) = 10.06528 55.94912 33.00720
# Shear Modulus (GPa) = 17.70459 32.04173 24.87316
#
# Velocity S-wave (km/s) = 2.98659 4.01782 3.53996
# Velocity P-wave (km/s) = 4.11873 7.05063 5.77388
#
# Compressibility (1/GPa) = 0.09935146
#
# Stress axis : x y z
#
# Youngs Moduli (GPa) = 110.20231 10.84311 119.03767
#
# Poissons Ratio (x) = -0.03245 0.53200
# Poissons Ratio (y) = -0.32980 0.44014
# Poissons Ratio (z) = 0.49251 0.04009
#
# Static dielectric constant tensor:
#      x y z
#    x 3.795660 -0.000020 -0.224320 
#    y -0.000020 3.007070 0.000080 
#    z -0.224320 0.000080 4.104080 
# 
# 
# High freq. dielectric constant tensor:
#      x y z
#    x 1.787530 0.000000 -0.008020 
#    y 0.000000 1.719630 0.000010 
#    z -0.008020 0.000010 1.784120 
# 
# From -- ./inp_files/16876.got.cif
#   From: 2010.03.12/outbox.cif.g09.slc.cpg/sg8_9_cif.got.tgz:16876.got - 2010.03.31 10:45:26.
