data_PCOD8053049
_publ_section_title
;
Structure prediction by ZEFSAII (Michael W. Deem and Ramdas Pophale) SiO2 
 PCOD8053049
Probable space group: C M
;
_chemical_formula_sum "Si O2"
_cell_formula_units_Z 32
_cell_length_a 12.827510
_cell_length_b 13.358899
_cell_length_c 20.222001
_cell_angle_alpha 90.000000
_cell_angle_beta 152.419176
_cell_angle_gamma 90.000000
_cell_volume 1604.418253
_symmetry_space_group_name_H-M "C M"
_symmetry_group_IT_number 8
_symmetry_cell_setting 'monoclinic'
loop_
_space_group_symop_operation_xyz
x,y,z
x,-y,z
1/2+x,1/2+y,z
1/2+x,1/2-y,z
loop_
_atom_site_type_symbol
_atom_site_label
_atom_site_fract_x
_atom_site_fract_y
_atom_site_fract_z
Si Si1 0.340160 0.617976 0.807870
Si Si2 0.872066 0.117465 0.212199
Si Si3 0.917371 0.111163 0.504042
Si Si4 0.833083 0.690219 0.520392
Si Si5 0.760106 0.252381 0.027066
Si Si6 0.153205 0.387791 0.224254
Si Si7 0.326745 0.391083 0.952188
Si Si8 0.311739 0.890897 0.646327
O O1 0.378300 0.500000 0.811231
O O2 0.392116 0.636920 0.914359
O O3 0.081027 0.644803 0.643686
O O4 0.518140 0.694732 0.873217
O O5 0.754764 0.179601 0.087294
O O6 0.751812 0.157682 0.211470
O O7 0.142309 0.135371 0.369359
O O8 0.831360 0.000000 0.176228
O O9 0.814038 0.191569 0.495134
O O10 0.841732 0.120804 0.385746
O O11 0.181418 0.135629 0.641224
O O12 0.869877 0.000000 0.506531
O O13 0.779246 0.685653 0.567813
O O14 0.933879 0.341427 0.135045
O O15 0.885900 0.194811 0.037317
O O16 0.083638 0.500000 0.168808
O O17 0.433783 0.500000 0.030832
O O18 0.062201 0.399135 0.811171
O O19 0.230837 0.000000 0.573718
#
# Coordination Sequence:
#
# PCOD8053049 Si02
#       8
#     4   4   4   4   4   4   4   4
#     4  10  22  38  59  83 112 150 186 225 273 337
#     4  11  22  36  58  86 113 143 186 236 278 320
#     4  10  19  33  54  82 109 141 183 224 272 329
#     4  11  19  35  60  87 108 139 189 235 277 321
#     4  12  21  36  56  84 113 149 180 230 280 329
#     4  10  21  36  53  77 109 147 189 222 265 333
#     4   9  19  35  54  80 109 143 185 221 268 327
#     4   9  17  33  58  79 105 144 182 223 263 328
#
# _framework density 19.944924
#
# number of rings (size 3 to 8) (size 9 to 14) (size 15 to 20)
#    0.000    1.750    2.500    4.125    0.000    0.000 
#    0.000    0.625    0.000   13.500    0.000    0.000 
#    0.000    0.000    0.000    0.000    0.000    0.000 
#
# Total GULP energy -198222.307001 kJ/mol
# GULP energy per Si atom -12388.894188 kJ/mol
# Density = 1.989953 g / cm^3
# Si number density = 19.944924 Si / 1000 Ang^3
#
#
#
# Elastic Constant Matrix: (Units=GPa)
#
#
# Indices 1 2 3 4 5 6 
#
# 1 50.1425 35.8401 2.8302 0.0027 3.9588 0.0011
# 2 35.8401 99.8800 22.4152 0.0086 -0.0589 0.0028
# 3 2.8302 22.4152 50.2822 0.0172 7.3990 0.0069
# 4 0.0027 0.0086 0.0172 24.7301 0.0026 -2.5555
# 5 3.9588 -0.0589 7.3990 0.0026 28.4145 0.0005
# 6 0.0011 0.0028 0.0069 -2.5555 0.0005 28.8755
#
#
#
# Elastic Compliance Matrix: (Units=1/GPa)
#
#
# Indices 1 2 3 4 5 6 
#
# 1 0.027916 -0.010924 0.004029 -0.000002 -0.004961 -0.000001
# 2 -0.010924 0.015451 -0.006761 0.000000 0.003314 0.000000
# 3 0.004029 -0.006761 0.023666 -0.000015 -0.006738 -0.000006
# 4 -0.000002 0.000000 -0.000015 0.040810 0.000000 0.003612
# 5 -0.004961 0.003314 -0.006738 0.000000 0.037646 0.000001
# 6 -0.000001 0.000000 -0.000006 0.003612 0.000001 0.034951
#
#
# Mechanical properties :
#
#
# Convention : Reuss Voigt Hill
#
# Bulk Modulus (GPa) = 25.17588 35.83062 30.50325
# Shear Modulus (GPa) = 22.62519 25.68528 24.15523
#
# Velocity S-wave (km/s) = 3.37171 3.59250 3.48386
# Velocity P-wave (km/s) = 5.27333 5.93396 5.61337
#
# Compressibility (1/GPa) = 0.03972056
#
# Stress axis : x y z
#
# Youngs Moduli (GPa) = 35.82230 64.72024 42.25403
#
# Poissons Ratio (x) = 0.70700 -0.17022
# Poissons Ratio (y) = 0.39132 0.28567
# Poissons Ratio (z) = -0.14431 0.43756
#
# Static dielectric constant tensor:
#      x y z
#    x 3.504840 0.000000 0.113290 
#    y 0.000000 4.266600 -0.000010 
#    z 0.113290 -0.000010 3.501310 
# 
# 
# High freq. dielectric constant tensor:
#      x y z
#    x 1.764510 0.000000 0.013290 
#    y 0.000000 1.783450 0.000000 
#    z 0.013290 0.000000 1.766580 
# 
# From -- ./inp_files/23352.got.cif
#   From: 2010.03.12/outbox.cif.g09.slc.cpg/sg8_12_cif.got.tgz:23352.got - 2010.03.31 10:45:26.
