data_PCOD8053454
_publ_section_title
;
Structure prediction by ZEFSAII (Michael W. Deem and Ramdas Pophale) SiO2 
 PCOD8053454
Probable space group: C M
;
_chemical_formula_sum "Si O2"
_cell_formula_units_Z 24
_cell_length_a 22.945923
_cell_length_b 7.723584
_cell_length_c 13.384797
_cell_angle_alpha 90.000000
_cell_angle_beta 31.210608
_cell_angle_gamma 90.000000
_cell_volume 1229.196569
_symmetry_space_group_name_H-M "C M"
_symmetry_group_IT_number 8
_symmetry_cell_setting 'monoclinic'
loop_
_space_group_symop_operation_xyz
x,y,z
x,-y,z
1/2+x,1/2+y,z
1/2+x,1/2-y,z
loop_
_atom_site_type_symbol
_atom_site_label
_atom_site_fract_x
_atom_site_fract_y
_atom_site_fract_z
Si Si1 0.297130 0.194787 0.740430
Si Si2 0.146702 0.500000 0.198415
Si Si3 0.348837 0.198890 0.444168
Si Si4 0.075577 0.190187 0.185146
Si Si5 0.276268 0.500000 0.206260
Si Si6 0.008353 0.000000 0.744360
Si Si7 0.722815 0.306797 0.433375
Si Si8 0.377013 0.500000 0.740346
O O1 0.281450 0.227268 0.645818
O O2 0.386413 0.329318 0.656886
O O3 0.340238 0.000000 0.700236
O O4 0.175798 0.231250 0.963276
O O5 0.072678 0.330699 0.278860
O O6 0.177538 0.500000 0.269202
O O7 0.260570 0.500000 0.969538
O O8 0.464223 0.305101 0.280969
O O9 0.272981 0.265560 0.463881
O O10 0.380484 0.000000 0.381861
O O11 0.089182 0.000000 0.213913
O O12 0.258925 0.673660 0.295084
O O13 0.401361 0.500000 0.975005
O O14 0.086668 0.828251 0.646570
O O15 0.976133 0.000000 0.675086
O O16 0.771255 0.500000 0.335987
#
# Coordination Sequence:
#
# PCOD8053454 Si02
#       8
#     4   2   4   4   2   2   4   2
#     4   9  20  35  55  85 117 151 185 234 301 353
#     4   9  20  37  56  87 119 148 192 245 289 354
#     4  10  20  38  57  83 123 147 189 251 285 344
#     4  10  20  35  57  87 117 151 189 234 298 358
#     4  11  22  43  69  83 121 174 197 247 316 348
#     4   9  22  45  61  87 125 160 201 259 298 346
#     4   9  23  43  58  90 125 154 215 255 283 370
#     4   9  18  37  58  81 119 148 192 241 289 358
#
# _framework density 19.52495
#
# number of rings (size 3 to 8) (size 9 to 14) (size 15 to 20)
#    0.500    2.000    0.833    0.000    2.333    3.333 
#    3.000    1.667    0.000    0.000    0.000    0.000 
#    0.000    0.000    0.000    0.000    0.000    0.000 
#
# Total GULP energy -148727.521050 kJ/mol
# GULP energy per Si atom -12393.960087 kJ/mol
# Density = 1.948051 g / cm^3
# Si number density = 19.524950 Si / 1000 Ang^3
#
#
#
# Elastic Constant Matrix: (Units=GPa)
#
#
# Indices 1 2 3 4 5 6 
#
# 1 178.2836 75.7260 48.8189 0.0002 6.7806 0.0002
# 2 75.7260 119.8666 54.1601 0.0033 12.5858 -0.0023
# 3 48.8189 54.1601 77.9673 0.0015 1.8559 -0.0009
# 4 0.0002 0.0033 0.0015 29.8853 -0.0013 4.8207
# 5 6.7806 12.5858 1.8559 -0.0013 31.1748 0.0009
# 6 0.0002 -0.0023 -0.0009 4.8207 0.0009 20.8524
#
#
#
# Elastic Compliance Matrix: (Units=1/GPa)
#
#
# Indices 1 2 3 4 5 6 
#
# 1 0.007908 -0.004025 -0.002156 0.000001 0.000033 -0.000001
# 2 -0.004025 0.014845 -0.007681 -0.000002 -0.004661 0.000002
# 3 -0.002156 -0.007681 0.019454 0.000000 0.002412 0.000000
# 4 0.000001 -0.000002 0.000000 0.034757 0.000002 -0.008035
# 5 0.000033 -0.004661 0.002412 0.000002 0.033808 -0.000002
# 6 -0.000001 0.000002 0.000000 -0.008035 -0.000002 0.049814
#
#
# Mechanical properties :
#
#
# Convention : Reuss Voigt Hill
#
# Bulk Modulus (GPa) = 69.04813 81.50307 75.27560
# Shear Modulus (GPa) = 25.88805 29.54333 27.71569
#
# Velocity S-wave (km/s) = 3.64524 3.89409 3.77171
# Velocity P-wave (km/s) = 7.29094 7.87732 7.58980
#
# Compressibility (1/GPa) = 0.01448265
#
# Stress axis : x y z
#
# Youngs Moduli (GPa) = 126.45667 67.36072 51.40230
#
# Poissons Ratio (x) = 0.27113 0.11084
# Poissons Ratio (y) = 0.50899 0.39483
# Poissons Ratio (z) = 0.27267 0.51741
#
# Static dielectric constant tensor:
#      x y z
#    x 3.752450 0.000000 -0.008080 
#    y 0.000000 3.690770 0.000000 
#    z -0.008080 0.000000 3.396710 
# 
# 
# High freq. dielectric constant tensor:
#      x y z
#    x 1.757440 0.000000 -0.001140 
#    y 0.000000 1.762900 0.000000 
#    z -0.001140 0.000000 1.752460 
# 
# From -- ./inp_files/23662.got.cif
#   From: 2010.03.12/outbox.cif.g09.slc.cpg/sg8_12_cif.got.tgz:23662.got - 2010.03.31 10:45:26.
