data_PCOD8053469
_publ_section_title
;
Structure prediction by ZEFSAII (Michael W. Deem and Ramdas Pophale) SiO2 
 PCOD8053469
Probable space group: C M
;
_chemical_formula_sum "Si O2"
_cell_formula_units_Z 32
_cell_length_a 19.851763
_cell_length_b 8.606967
_cell_length_c 12.049733
_cell_angle_alpha 90.000000
_cell_angle_beta 125.714958
_cell_angle_gamma 90.000000
_cell_volume 1671.651916
_symmetry_space_group_name_H-M "C M"
_symmetry_group_IT_number 8
_symmetry_cell_setting 'monoclinic'
loop_
_space_group_symop_operation_xyz
x,y,z
x,-y,z
1/2+x,1/2+y,z
1/2+x,1/2-y,z
loop_
_atom_site_type_symbol
_atom_site_label
_atom_site_fract_x
_atom_site_fract_y
_atom_site_fract_z
Si Si1 0.240760 0.679709 0.388580
Si Si2 0.416475 0.819584 0.582349
Si Si3 0.164978 0.179571 0.100143
Si Si4 0.988498 0.319408 0.889683
Si Si5 0.839040 0.180048 0.856505
Si Si6 0.718756 0.179772 0.933364
Si Si7 0.699083 0.320141 0.572946
Si Si8 0.082848 0.679847 0.624973
O O1 0.229110 0.500000 0.404924
O O2 0.337936 0.718031 0.473875
O O3 0.197253 0.716933 0.231433
O O4 0.194960 0.779045 0.439543
O O5 0.448382 0.771381 0.734179
O O6 0.487311 0.784426 0.559562
O O7 0.391157 0.000000 0.557262
O O8 0.175446 0.000000 0.140590
O O9 0.220242 0.216901 0.044990
O O10 0.069547 0.217663 0.985712
O O11 0.012986 0.500000 0.915596
O O12 0.922035 0.281307 0.921999
O O13 0.801339 0.215771 0.941638
O O14 0.772044 0.220721 0.698299
O O15 0.861744 0.000000 0.865559
O O16 0.637672 0.225484 0.784455
O O17 0.714130 0.000000 0.963517
O O18 0.720094 0.500000 0.608790
O O19 0.611064 0.280059 0.545759
O O20 0.097787 0.500000 0.610888
#
# Coordination Sequence:
#
# PCOD8053469 Si02
#       8
#     4   4   4   4   4   4   4   4
#     4  12  25  41  61  84 118 159 200 241 295 355
#     4  10  20  37  61  89 120 152 193 244 292 344
#     4  12  25  40  60  86 120 157 199 243 293 354
#     4  11  21  37  61  89 121 154 194 245 295 342
#     4  10  20  35  58  88 119 153 195 243 290 341
#     4   9  18  36  58  84 119 155 193 237 291 345
#     4  11  21  35  56  86 121 153 193 242 294 347
#     4   9  18  35  59  86 118 153 191 237 290 346
#
# _framework density 19.142741000000001
#
# number of rings (size 3 to 8) (size 9 to 14) (size 15 to 20)
#    0.000    1.500    2.500    4.875    0.000    3.500 
#    0.000    1.250    0.000    6.000    0.000    0.000 
#    0.000    0.000    0.000    0.000    0.000    0.000 
#
# Total GULP energy -198474.467091 kJ/mol
# GULP energy per Si atom -12404.654193 kJ/mol
# Density = 1.909917 g / cm^3
# Si number density = 19.142741 Si / 1000 Ang^3
#
#
#
# Elastic Constant Matrix: (Units=GPa)
#
#
# Indices 1 2 3 4 5 6 
#
# 1 119.5462 29.2982 35.9064 0.0000 -11.3346 0.0000
# 2 29.2982 60.4497 10.2977 0.0000 -1.8295 0.0000
# 3 35.9064 10.2977 58.2117 0.0000 -8.7889 0.0000
# 4 0.0000 0.0000 0.0000 26.3673 0.0000 -0.6643
# 5 -11.3346 -1.8295 -8.7889 0.0000 23.2296 0.0000
# 6 0.0000 0.0000 0.0000 -0.6643 0.0000 36.2802
#
#
#
# Elastic Compliance Matrix: (Units=1/GPa)
#
#
# Indices 1 2 3 4 5 6 
#
# 1 0.011510 -0.004491 -0.005845 0.000000 0.003051 0.000000
# 2 -0.004491 0.018810 -0.000705 0.000000 -0.000977 0.000000
# 3 -0.005845 -0.000705 0.021710 0.000000 0.005306 0.000000
# 4 0.000000 0.000000 0.000000 0.037943 0.000000 0.000695
# 5 0.003051 -0.000977 0.005306 0.000000 0.046468 0.000000
# 6 0.000000 0.000000 0.000000 0.000695 0.000000 0.027576
#
#
# Mechanical properties :
#
#
# Convention : Reuss Voigt Hill
#
# Bulk Modulus (GPa) = 33.39004 43.24582 38.31793
# Shear Modulus (GPa) = 25.49964 28.02243 26.76104
#
# Velocity S-wave (km/s) = 3.65373 3.83020 3.74300
# Velocity P-wave (km/s) = 5.93971 6.49622 6.22419
#
# Compressibility (1/GPa) = 0.02994905
#
# Stress axis : x y z
#
# Youngs Moduli (GPa) = 86.87821 53.16396 46.06222
#
# Poissons Ratio (x) = 0.23874 0.26922
# Poissons Ratio (y) = 0.39015 0.03247
# Poissons Ratio (z) = 0.50778 0.03748
#
# Static dielectric constant tensor:
#      x y z
#    x 3.792810 0.000000 -0.064020 
#    y 0.000000 3.440270 0.000000 
#    z -0.064020 0.000000 3.210070 
# 
# 
# High freq. dielectric constant tensor:
#      x y z
#    x 1.761560 0.000000 -0.007440 
#    y 0.000000 1.747100 0.000000 
#    z -0.007440 0.000000 1.711500 
# 
# From -- ./inp_files/23889.got.cif
#   From: 2010.03.12/outbox.cif.g09.slc.cpg/sg8_12_cif.got.tgz:23889.got - 2010.03.31 10:45:26.
