data_PCOD8053829
_publ_section_title
;
Structure prediction by ZEFSAII (Michael W. Deem and Ramdas Pophale) SiO2 
 PCOD8053829
Probable space group: C M
;
_chemical_formula_sum "Si O2"
_cell_formula_units_Z 24
_cell_length_a 18.685823
_cell_length_b 8.425555
_cell_length_c 7.536889
_cell_angle_alpha 90.000000
_cell_angle_beta 89.338370
_cell_angle_gamma 90.000000
_cell_volume 1186.516853
_symmetry_space_group_name_H-M "C M"
_symmetry_group_IT_number 8
_symmetry_cell_setting 'monoclinic'
loop_
_space_group_symop_operation_xyz
x,y,z
x,-y,z
1/2+x,1/2+y,z
1/2+x,1/2-y,z
loop_
_atom_site_type_symbol
_atom_site_label
_atom_site_fract_x
_atom_site_fract_y
_atom_site_fract_z
Si Si1 0.582940 0.813849 0.729810
Si Si2 0.428394 0.683853 0.755857
Si Si3 0.183555 0.683539 0.407032
Si Si4 0.336816 0.816354 0.454759
Si Si5 0.594473 0.684958 0.105219
Si Si6 0.442070 0.186497 0.136956
O O1 0.509068 0.723308 0.695578
O O2 0.639679 0.760990 0.580785
O O3 0.566951 0.000000 0.725723
O O4 0.615397 0.766124 0.918830
O O5 0.412996 0.500000 0.722862
O O6 0.373068 0.785708 0.642817
O O7 0.415472 0.724932 0.961600
O O8 0.169294 0.500000 0.366137
O O9 0.266572 0.710817 0.439838
O O10 0.158842 0.786147 0.239474
O O11 0.390913 0.763700 0.298595
O O12 0.315966 0.000000 0.439360
O O13 0.582225 0.500000 0.072440
O O14 0.522087 0.760670 0.186542
O O15 0.441414 0.000000 0.100805
#
# Coordination Sequence:
#
# PCOD8053829 Si02
#       6
#     4   4   4   4   4   4
#     4  10  21  39  62  86 114 150 192 237 283 334
#     4  11  22  37  61  89 116 149 189 236 286 337
#     4  11  24  40  59  84 116 154 192 234 285 339
#     4  11  24  40  59  84 116 154 192 234 285 339
#     4  11  22  37  61  89 116 149 189 236 286 337
#     4  10  21  39  62  86 114 150 192 237 283 334
#
# _framework density 20.227273
#
# number of rings (size 3 to 8) (size 9 to 14) (size 15 to 20)
#    0.000    1.333    0.000    8.000    0.000   10.667 
#    0.000    0.000    0.000    0.000    0.000    0.000 
#    0.000    0.000    0.000    0.000    0.000    0.000 
#
# Total GULP energy -148889.255715 kJ/mol
# GULP energy per Si atom -12407.437976 kJ/mol
# Density = 2.018123 g / cm^3
# Si number density = 20.227273 Si / 1000 Ang^3
#
#
#
# Elastic Constant Matrix: (Units=GPa)
#
#
# Indices 1 2 3 4 5 6 
#
# 1 79.7344 4.0576 45.4818 0.0000 18.0732 0.0000
# 2 4.0576 71.6084 15.8510 0.0000 -6.1566 0.0000
# 3 45.4818 15.8510 91.1759 0.0000 17.0251 0.0000
# 4 0.0000 0.0000 0.0000 26.4421 0.0000 7.5701
# 5 18.0732 -6.1566 17.0251 0.0000 20.0177 0.0000
# 6 0.0000 0.0000 0.0000 7.5701 0.0000 32.0835
#
#
#
# Elastic Compliance Matrix: (Units=1/GPa)
#
#
# Indices 1 2 3 4 5 6 
#
# 1 0.019392 -0.000406 -0.007502 0.000000 -0.011253 0.000000
# 2 -0.000406 0.015654 -0.004145 0.000000 0.008706 0.000000
# 3 -0.007502 -0.004145 0.017123 0.000000 -0.009065 0.000000
# 4 0.000000 0.000000 0.000000 0.040558 0.000000 -0.009570
# 5 -0.011253 0.008706 -0.009065 0.000000 0.070503 0.000000
# 6 0.000000 0.000000 0.000000 -0.009570 0.000000 0.033427
#
#
# Mechanical properties :
#
#
# Convention : Reuss Voigt Hill
#
# Bulk Modulus (GPa) = 35.63176 41.47771 38.55473
# Shear Modulus (GPa) = 21.72820 27.51721 24.62271
#
# Velocity S-wave (km/s) = 3.28106 3.69236 3.49277
# Velocity P-wave (km/s) = 5.65754 6.22322 5.94711
#
# Compressibility (1/GPa) = 0.02806485
#
# Stress axis : x y z
#
# Youngs Moduli (GPa) = 51.56761 63.88237 58.40053
#
# Poissons Ratio (x) = 0.02592 0.43810
# Poissons Ratio (y) = 0.02092 0.24205
# Poissons Ratio (z) = 0.38684 0.26477
#
# Static dielectric constant tensor:
#      x y z
#    x 3.527570 0.000000 -0.074090 
#    y 0.000000 3.656650 0.000000 
#    z -0.074090 0.000000 3.782660 
# 
# 
# High freq. dielectric constant tensor:
#      x y z
#    x 1.782090 0.000000 0.002860 
#    y 0.000000 1.802160 0.000000 
#    z 0.002860 0.000000 1.801290 
# 
# From -- ./inp_files/14241.got.cif
#   From: 2010.03.12/outbox.cif.g09.slc.cpg/sg8_8_cif.got.tgz:14241.got - 2010.03.31 10:45:26.
