data_PCOD8053500
_publ_section_title
;
Structure prediction by ZEFSAII (Michael W. Deem and Ramdas Pophale) SiO2 
 PCOD8053500
Probable space group: C M
;
_chemical_formula_sum "Si O2"
_cell_formula_units_Z 32
_cell_length_a 14.596620
_cell_length_b 9.022672
_cell_length_c 24.981555
_cell_angle_alpha 90.000000
_cell_angle_beta 151.016439
_cell_angle_gamma 90.000000
_cell_volume 1594.238521
_symmetry_space_group_name_H-M "C M"
_symmetry_group_IT_number 8
_symmetry_cell_setting 'monoclinic'
loop_
_space_group_symop_operation_xyz
x,y,z
x,-y,z
1/2+x,1/2+y,z
1/2+x,1/2-y,z
loop_
_atom_site_type_symbol
_atom_site_label
_atom_site_fract_x
_atom_site_fract_y
_atom_site_fract_z
Si Si1 0.553690 0.676407 0.083140
Si Si2 0.764237 0.665517 0.668478
Si Si3 0.764140 0.326591 0.490905
Si Si4 0.102764 0.163419 0.704801
Si Si5 0.642169 0.824212 0.907667
Si Si6 0.495834 0.176191 0.946169
Si Si7 0.916423 0.674661 0.453915
Si Si8 0.849288 0.176338 0.312836
O O1 0.573252 0.500000 0.095665
O O2 0.700083 0.751193 0.197406
O O3 0.345528 0.733102 0.993260
O O4 0.594997 0.735633 0.044883
O O5 0.756957 0.500000 0.639094
O O6 0.686909 0.658033 0.688698
O O7 0.636150 0.774955 0.567562
O O8 0.979199 0.729210 0.782360
O O9 0.779110 0.500000 0.502984
O O10 0.556104 0.270452 0.399311
O O11 0.916700 0.265439 0.611738
O O12 0.811643 0.275356 0.454793
O O13 0.272793 0.220744 0.829774
O O14 0.038955 0.000000 0.690037
O O15 0.601885 0.766741 0.947074
O O16 0.630797 0.000000 0.902913
O O17 0.519241 0.000000 0.966056
O O18 0.904963 0.500000 0.438375
O O19 0.810359 0.760031 0.352047
O O20 0.827736 0.000000 0.301502
#
# Coordination Sequence:
#
# PCOD8053500 Si02
#       8
#     4   4   4   4   4   4   4   4
#     4  11  23  38  55  79 106 137 181 230 266 303
#     4   8  14  30  55  82 109 141 175 207 253 322
#     4   9  20  37  57  79 108 143 176 212 265 322
#     4   8  15  29  54  84 111 137 172 214 258 310
#     4   8  17  35  58  79 107 145 178 208 258 322
#     4   9  18  36  58  80 108 144 176 209 260 322
#     4  10  20  36  57  83 110 137 172 221 269 310
#     4  11  24  41  56  74 103 144 186 221 261 319
#
# _framework density 20.072279000000002
#
# number of rings (size 3 to 8) (size 9 to 14) (size 15 to 20)
#    0.000    2.750    0.000    2.625    0.000    4.000 
#    0.000   13.125    0.000    0.000    0.000    0.000 
#    0.000    0.000    0.000    0.000    0.000    0.000 
#
# Total GULP energy -198361.693772 kJ/mol
# GULP energy per Si atom -12397.605861 kJ/mol
# Density = 2.002659 g / cm^3
# Si number density = 20.072279 Si / 1000 Ang^3
#
#
#
# Elastic Constant Matrix: (Units=GPa)
#
#
# Indices 1 2 3 4 5 6 
#
# 1 40.9806 12.8031 11.3956 0.0001 -0.9764 0.0000
# 2 12.8031 52.3186 25.2268 0.0002 -4.1071 0.0001
# 3 11.3956 25.2268 94.0898 0.0013 -11.1916 0.0003
# 4 0.0001 0.0002 0.0013 26.0229 0.0001 0.7699
# 5 -0.9764 -4.1071 -11.1916 0.0001 34.5996 0.0000
# 6 0.0000 0.0001 0.0003 0.7699 0.0000 23.2340
#
#
#
# Elastic Compliance Matrix: (Units=1/GPa)
#
#
# Indices 1 2 3 4 5 6 
#
# 1 0.026664 -0.005718 -0.001755 0.000000 -0.000494 0.000000
# 2 -0.005718 0.023195 -0.005427 0.000000 0.000837 0.000000
# 3 -0.001755 -0.005427 0.012702 -0.000001 0.003415 0.000000
# 4 0.000000 0.000000 -0.000001 0.038465 0.000000 -0.001275
# 5 -0.000494 0.000837 0.003415 0.000000 0.030092 0.000000
# 6 0.000000 0.000000 0.000000 -0.001275 0.000000 0.043083
#
#
# Mechanical properties :
#
#
# Convention : Reuss Voigt Hill
#
# Bulk Modulus (GPa) = 27.20199 31.80442 29.50320
# Shear Modulus (GPa) = 23.55654 25.96886 24.76270
#
# Velocity S-wave (km/s) = 3.42948 3.60080 3.51618
# Velocity P-wave (km/s) = 5.40955 5.75908 5.58705
#
# Compressibility (1/GPa) = 0.03676202
#
# Stress axis : x y z
#
# Youngs Moduli (GPa) = 37.50324 43.11220 78.72798
#
# Poissons Ratio (x) = 0.24650 0.13819
# Poissons Ratio (y) = 0.21443 0.42726
# Poissons Ratio (z) = 0.06583 0.23397
#
# Static dielectric constant tensor:
#      x y z
#    x 3.705390 0.000000 0.121240 
#    y 0.000000 3.465260 0.000000 
#    z 0.121240 0.000000 3.850090 
# 
# 
# High freq. dielectric constant tensor:
#      x y z
#    x 1.778120 0.000000 -0.004140 
#    y 0.000000 1.765300 0.000000 
#    z -0.004140 0.000000 1.787960 
# 
# From -- ./inp_files/26574.got.cif
#   From: 2010.03.12/outbox.cif.g09.slc.cpg/sg8_14_cif.got.tgz:26574.got - 2010.03.31 10:45:26.
