data_PCOD8053165
_publ_section_title
;
Structure prediction by ZEFSAII (Michael W. Deem and Ramdas Pophale) SiO2 
 PCOD8053165
Probable space group: C M
;
_chemical_formula_sum "Si O2"
_cell_formula_units_Z 22
_cell_length_a 9.551582
_cell_length_b 17.409780
_cell_length_c 9.315498
_cell_angle_alpha 90.000000
_cell_angle_beta 136.962979
_cell_angle_gamma 90.000000
_cell_volume 1057.203826
_symmetry_space_group_name_H-M "C M"
_symmetry_group_IT_number 8
_symmetry_cell_setting 'monoclinic'
loop_
_space_group_symop_operation_xyz
x,y,z
x,-y,z
1/2+x,1/2+y,z
1/2+x,1/2-y,z
loop_
_atom_site_type_symbol
_atom_site_label
_atom_site_fract_x
_atom_site_fract_y
_atom_site_fract_z
Si Si1 0.928100 0.668408 0.206770
Si Si2 0.874380 0.000000 0.627919
Si Si3 0.686623 0.865276 0.655778
Si Si4 0.259853 0.916517 0.448478
Si Si5 0.493448 0.000000 0.160762
Si Si6 0.543486 0.295444 0.090705
Si Si7 0.256469 0.000000 0.720712
O O1 0.895882 0.577118 0.158266
O O2 0.709582 0.704677 0.087885
O O3 0.089522 0.685381 0.455309
O O4 0.019480 0.709810 0.135489
O O5 0.839020 0.927156 0.701591
O O6 0.103285 0.000000 0.740494
O O7 0.733119 0.000000 0.379655
O O8 0.499544 0.901728 0.603175
O O9 0.819497 0.814694 0.863103
O O10 0.110235 0.853381 0.268664
O O11 0.233096 0.923974 0.602588
O O12 0.206990 0.000000 0.338846
O O13 0.471582 0.000000 0.970634
#
# Coordination Sequence:
#
# PCOD8053165 Si02
#       7
#     4   2   4   4   2   4   2
#     4  10  25  42  62  96 126 167 215 263 305 386
#     4  10  19  34  60  92 116 162 215 248 306 378
#     4  10  21  40  64  86 126 173 208 253 318 375
#     4   9  22  40  59  96 126 162 212 261 306 387
#     4  10  22  42  62  84 132 170 208 252 314 374
#     4  11  24  40  67  92 128 166 211 264 320 366
#     4  10  21  34  58  94 124 158 203 266 306 360
#
# _framework density 20.809609999999999
#
# number of rings (size 3 to 8) (size 9 to 14) (size 15 to 20)
#    0.545    1.455    0.909    1.091    5.091   10.182 
#    0.000    0.000    0.000    0.000    0.000    0.000 
#    0.000    0.000    0.000    0.000    0.000    0.000 
#
# Total GULP energy -136335.815447 kJ/mol
# GULP energy per Si atom -12394.165041 kJ/mol
# Density = 2.076225 g / cm^3
# Si number density = 20.809610 Si / 1000 Ang^3
#
#
#
# Elastic Constant Matrix: (Units=GPa)
#
#
# Indices 1 2 3 4 5 6 
#
# 1 91.7416 44.6690 20.8293 0.0000 -4.8129 0.0000
# 2 44.6690 106.5077 35.2291 0.0000 1.5646 0.0000
# 3 20.8293 35.2291 115.1575 0.0000 -7.7893 0.0000
# 4 0.0000 0.0000 0.0000 27.4858 0.0000 -12.3518
# 5 -4.8129 1.5646 -7.7893 0.0000 22.2805 0.0000
# 6 0.0000 0.0000 0.0000 -12.3518 0.0000 32.7636
#
#
#
# Elastic Compliance Matrix: (Units=1/GPa)
#
#
# Indices 1 2 3 4 5 6 
#
# 1 0.013985 -0.005728 -0.000559 0.000000 0.003228 0.000000
# 2 -0.005728 0.012871 -0.003120 0.000000 -0.003232 0.000000
# 3 -0.000559 -0.003120 0.009982 0.000000 0.003588 0.000000
# 4 0.000000 0.000000 0.000000 0.043804 0.000000 0.016514
# 5 0.003228 -0.003232 0.003588 0.000000 0.047061 0.000000
# 6 0.000000 0.000000 0.000000 0.016514 0.000000 0.036747
#
#
# Mechanical properties :
#
#
# Convention : Reuss Voigt Hill
#
# Bulk Modulus (GPa) = 55.48064 57.20681 56.34373
# Shear Modulus (GPa) = 26.41706 30.68463 28.55084
#
# Velocity S-wave (km/s) = 3.56682 3.84414 3.70807
# Velocity P-wave (km/s) = 6.60923 6.87412 6.74297
#
# Compressibility (1/GPa) = 0.01802431
#
# Stress axis : x y z
#
# Youngs Moduli (GPa) = 71.50334 77.69571 100.18002
#
# Poissons Ratio (x) = 0.44504 0.05600
# Poissons Ratio (y) = 0.40957 0.31256
# Poissons Ratio (z) = 0.03997 0.24241
#
# Static dielectric constant tensor:
#      x y z
#    x 3.520300 0.000000 -0.066460 
#    y 0.000000 3.611970 0.000000 
#    z -0.066460 0.000000 3.813170 
# 
# 
# High freq. dielectric constant tensor:
#      x y z
#    x 1.804180 0.000000 -0.001880 
#    y 0.000000 1.799630 0.000000 
#    z -0.001880 0.000000 1.824610 
# 
# From -- ./inp_files/8365.got.cif
#   From: 2010.03.12/outbox.cif.g09.slc.cpg/sg8_5_cif.got.tgz:8365.got - 2010.03.31 10:45:26.
