data_PCOD8053969
_publ_section_title
;
Structure prediction by ZEFSAII (Michael W. Deem and Ramdas Pophale) SiO2 
 PCOD8053969
Probable space group: C M
;
_chemical_formula_sum "Si O2"
_cell_formula_units_Z 32
_cell_length_a 15.282828
_cell_length_b 8.546497
_cell_length_c 25.498450
_cell_angle_alpha 90.000000
_cell_angle_beta 152.489964
_cell_angle_gamma 90.000000
_cell_volume 1538.357779
_symmetry_space_group_name_H-M "C M"
_symmetry_group_IT_number 8
_symmetry_cell_setting 'monoclinic'
loop_
_space_group_symop_operation_xyz
x,y,z
x,-y,z
1/2+x,1/2+y,z
1/2+x,1/2-y,z
loop_
_atom_site_type_symbol
_atom_site_label
_atom_site_fract_x
_atom_site_fract_y
_atom_site_fract_z
Si Si1 0.921970 0.180292 0.188520
Si Si2 0.107492 0.183080 0.662931
Si Si3 0.222104 0.819260 0.175760
Si Si4 0.811611 0.181651 0.417565
Si Si5 0.495852 0.181094 0.415315
Si Si6 0.392917 0.181844 0.639305
Si Si7 0.491063 0.182859 0.809491
Si Si8 0.377187 0.180434 0.051797
O O1 0.754548 0.220430 0.140096
O O2 0.903254 0.282157 0.126551
O O3 0.122088 0.217122 0.322317
O O4 0.909380 0.000000 0.165669
O O5 0.314619 0.227071 0.752362
O O6 0.953875 0.236202 0.538422
O O7 0.071343 0.278652 0.697115
O O8 0.091864 0.000000 0.666198
O O9 0.387246 0.776791 0.304394
O O10 0.018118 0.781383 0.091209
O O11 0.228327 0.000000 0.163600
O O12 0.913144 0.208803 0.416283
O O13 0.758768 0.000000 0.394872
O O14 0.716656 0.216953 0.524594
O O15 0.464667 0.000000 0.413760
O O16 0.443454 0.231918 0.724975
O O17 0.340245 0.000000 0.608959
O O18 0.540965 0.000000 0.839815
O O19 0.664592 0.284470 0.921660
O O20 0.424510 0.000000 0.067828
#
# Coordination Sequence:
#
# PCOD8053969 Si02
#       8
#     4   4   4   4   4   4   4   4
#     4  12  25  42  65  96 130 169 210 258 317 380
#     4  10  22  41  64  92 127 167 206 254 313 371
#     4  11  24  43  66  95 129 168 211 261 316 376
#     4  11  21  38  64  94 130 168 207 255 313 376
#     4  11  22  37  63  95 129 167 206 254 314 376
#     4  11  23  40  64  94 127 166 207 256 313 372
#     4  10  23  45  65  86 124 169 211 262 317 370
#     4  12  26  44  67  94 124 166 214 266 319 375
#
# _framework density 20.801402
#
# number of rings (size 3 to 8) (size 9 to 14) (size 15 to 20)
#    0.000    1.000    2.500    4.500    0.000    8.000 
#    0.000    2.500    0.000    0.000    0.000    0.000 
#    0.000    0.000    0.000    0.000    0.000    0.000 
#
# Total GULP energy -198531.099690 kJ/mol
# GULP energy per Si atom -12408.193731 kJ/mol
# Density = 2.075406 g / cm^3
# Si number density = 20.801402 Si / 1000 Ang^3
#
#
#
# Elastic Constant Matrix: (Units=GPa)
#
#
# Indices 1 2 3 4 5 6 
#
# 1 123.2382 13.9005 23.1856 0.0001 14.4005 0.0000
# 2 13.9005 53.8979 21.7701 -0.0001 0.6251 0.0000
# 3 23.1856 21.7701 87.5590 0.0021 24.2003 0.0002
# 4 0.0001 -0.0001 0.0021 33.3847 0.0001 2.3051
# 5 14.4005 0.6251 24.2003 0.0001 14.6645 0.0000
# 6 0.0000 0.0000 0.0002 2.3051 0.0000 38.8133
#
#
#
# Elastic Compliance Matrix: (Units=1/GPa)
#
#
# Indices 1 2 3 4 5 6 
#
# 1 0.009524 -0.002876 0.001368 0.000000 -0.011487 0.000000
# 2 -0.002876 0.023170 -0.010125 0.000001 0.018545 0.000000
# 3 0.001368 -0.010125 0.025425 -0.000001 -0.042869 0.000000
# 4 0.000000 0.000001 -0.000001 0.030077 0.000002 -0.001786
# 5 -0.011487 0.018545 -0.042869 0.000002 0.149428 0.000000
# 6 0.000000 0.000000 0.000000 -0.001786 0.000000 0.025870
#
#
# Mechanical properties :
#
#
# Convention : Reuss Voigt Hill
#
# Bulk Modulus (GPa) = 28.69187 42.48972 35.59079
# Shear Modulus (GPa) = 16.75739 31.09509 23.92624
#
# Velocity S-wave (km/s) = 2.84137 3.87053 3.39517
# Velocity P-wave (km/s) = 4.95860 6.35967 5.70233
#
# Compressibility (1/GPa) = 0.03485308
#
# Stress axis : x y z
#
# Youngs Moduli (GPa) = 105.00201 43.15982 39.33203
#
# Poissons Ratio (x) = 0.12411 -0.05381
# Poissons Ratio (y) = 0.30194 0.39823
# Poissons Ratio (z) = -0.14365 0.43699
#
# Static dielectric constant tensor:
#      x y z
#    x 3.841480 0.000000 0.023720 
#    y 0.000000 3.693370 0.000000 
#    z 0.023720 0.000000 3.741940 
# 
# 
# High freq. dielectric constant tensor:
#      x y z
#    x 1.829160 0.000000 0.003150 
#    y 0.000000 1.814610 0.000000 
#    z 0.003150 0.000000 1.809830 
# 
# From -- ./inp_files/28178.got.cif
#   From: 2010.03.12/outbox.cif.g09.slc.cpg/sg8_15_cif.got.tgz:28178.got - 2010.03.31 10:45:26.
