data_PCOD8053317
_publ_section_title
;
Structure prediction by ZEFSAII (Michael W. Deem and Ramdas Pophale) SiO2 
 PCOD8053317
Probable space group: C M
;
_chemical_formula_sum "Si O2"
_cell_formula_units_Z 32
_cell_length_a 27.693045
_cell_length_b 9.268207
_cell_length_c 21.724750
_cell_angle_alpha 90.000000
_cell_angle_beta 18.952595
_cell_angle_gamma 90.000000
_cell_volume 1810.998894
_symmetry_space_group_name_H-M "C M"
_symmetry_group_IT_number 8
_symmetry_cell_setting 'monoclinic'
loop_
_space_group_symop_operation_xyz
x,y,z
x,-y,z
1/2+x,1/2+y,z
1/2+x,1/2-y,z
loop_
_atom_site_type_symbol
_atom_site_label
_atom_site_fract_x
_atom_site_fract_y
_atom_site_fract_z
Si Si1 0.453810 0.668116 0.752600
Si Si2 0.122129 0.667604 0.179716
Si Si3 0.353819 0.330058 0.448284
Si Si4 0.968753 0.336171 0.491002
Si Si5 0.186897 0.167192 0.751907
Si Si6 0.220194 0.666867 0.479371
Si Si7 0.357090 0.668130 0.185671
Si Si8 0.589133 0.668952 0.458990
O O1 0.469209 0.500000 0.747467
O O2 0.565744 0.747029 0.663984
O O3 0.492121 0.706498 0.636021
O O4 0.288157 0.722516 0.966644
O O5 0.101280 0.500000 0.187304
O O6 0.013832 0.760286 0.267472
O O7 0.085232 0.692976 0.295730
O O8 0.363162 0.500000 0.448718
O O9 0.228055 0.263723 0.643832
O O10 0.311459 0.291295 0.429727
O O11 0.983950 0.500000 0.496717
O O12 0.802190 0.305530 0.668222
O O13 0.999710 0.226848 0.508517
O O14 0.192674 0.000000 0.724751
O O15 0.025427 0.214764 0.969704
O O16 0.177283 0.500000 0.530418
O O17 0.322590 0.708598 0.297818
O O18 0.331602 0.500000 0.203391
O O19 0.249755 0.755575 0.269404
O O20 0.614935 0.500000 0.420184
#
# Coordination Sequence:
#
# PCOD8053317 Si02
#       8
#     4   4   4   4   4   4   4   4
#     4   9  19  35  53  73  98 130 168 206 243 288
#     4   9  19  36  54  72  97 131 171 206 237 287
#     4  10  20  33  51  77 105 129 158 202 253 297
#     4   9  18  33  52  73  97 128 166 205 243 289
#     4   9  19  35  54  74  97 130 170 205 239 288
#     4   9  19  34  51  74 102 130 163 203 246 293
#     4   9  18  35  55  72  96 132 170 204 239 287
#     4  10  20  33  50  75 104 130 160 203 252 295
#
# _framework density 17.669805
#
# number of rings (size 3 to 8) (size 9 to 14) (size 15 to 20)
#    0.000    2.750    0.000    1.500    0.000    6.500 
#    0.000    5.000    0.000    0.000    0.000    0.000 
#    0.000    0.000    0.000    0.000    0.000    0.000 
#
# Total GULP energy -198443.285396 kJ/mol
# GULP energy per Si atom -12402.705337 kJ/mol
# Density = 1.762959 g / cm^3
# Si number density = 17.669805 Si / 1000 Ang^3
#
#
#
# Elastic Constant Matrix: (Units=GPa)
#
#
# Indices 1 2 3 4 5 6 
#
# 1 64.7132 33.6489 13.1340 -0.0005 -4.4653 -0.0008
# 2 33.6489 58.5022 30.3334 0.0019 -4.9232 -0.0007
# 3 13.1340 30.3334 115.3859 0.0007 -12.4038 -0.0011
# 4 -0.0005 0.0019 0.0007 26.2066 -0.0004 -4.3573
# 5 -4.4653 -4.9232 -12.4038 -0.0004 14.2767 0.0002
# 6 -0.0008 -0.0007 -0.0011 -4.3573 0.0002 33.2299
#
#
#
# Elastic Compliance Matrix: (Units=1/GPa)
#
#
# Indices 1 2 3 4 5 6 
#
# 1 0.022300 -0.013209 0.001317 0.000002 0.003564 0.000001
# 2 -0.013209 0.027700 -0.005731 -0.000002 0.000442 0.000000
# 3 0.001317 -0.005731 0.010870 0.000000 0.007880 0.000000
# 4 0.000002 -0.000002 0.000000 0.039009 0.000001 0.005115
# 5 0.003564 0.000442 0.007880 0.000001 0.078157 0.000000
# 6 0.000001 0.000000 0.000000 0.005115 0.000000 0.030764
#
#
# Mechanical properties :
#
#
# Convention : Reuss Voigt Hill
#
# Bulk Modulus (GPa) = 39.02580 43.64820 41.33700
# Shear Modulus (GPa) = 19.79518 25.50832 22.65175
#
# Velocity S-wave (km/s) = 3.35069 3.80361 3.58431
# Velocity P-wave (km/s) = 6.09128 6.63669 6.36982
#
# Compressibility (1/GPa) = 0.02562407
#
# Stress axis : x y z
#
# Youngs Moduli (GPa) = 44.84343 36.10158 91.99419
#
# Poissons Ratio (x) = 0.47688 -0.12119
# Poissons Ratio (y) = 0.59235 0.52720
# Poissons Ratio (z) = -0.05908 0.20689
#
# Static dielectric constant tensor:
#      x y z
#    x 3.206460 0.000000 -0.020760 
#    y 0.000000 3.247770 0.000000 
#    z -0.020760 0.000000 3.401080 
# 
# 
# High freq. dielectric constant tensor:
#      x y z
#    x 1.680810 0.000000 -0.003880 
#    y 0.000000 1.682820 0.000000 
#    z -0.003880 0.000000 1.686130 
# 
# From -- ./inp_files/15837.got.cif
#   From: 2010.03.12/outbox.cif.g09.slc.cpg/sg8_8_cif.got.tgz:15837.got - 2010.03.31 10:45:26.
