data_PCOD8053089
_publ_section_title
;
Structure prediction by ZEFSAII (Michael W. Deem and Ramdas Pophale) SiO2 
 PCOD8053089
Probable space group: C M
;
_chemical_formula_sum "Si O2"
_cell_formula_units_Z 20
_cell_length_a 11.199768
_cell_length_b 9.889454
_cell_length_c 7.881846
_cell_angle_alpha 90.000000
_cell_angle_beta 112.282947
_cell_angle_gamma 90.000000
_cell_volume 807.797422
_symmetry_space_group_name_H-M "C M"
_symmetry_group_IT_number 8
_symmetry_cell_setting 'monoclinic'
loop_
_space_group_symop_operation_xyz
x,y,z
x,-y,z
1/2+x,1/2+y,z
1/2+x,1/2-y,z
loop_
_atom_site_type_symbol
_atom_site_label
_atom_site_fract_x
_atom_site_fract_y
_atom_site_fract_z
Si Si1 0.213970 0.787227 0.325910
Si Si2 0.481078 0.000000 0.031616
Si Si3 0.172207 0.500000 0.708059
Si Si4 0.960576 0.000000 0.839538
Si Si5 0.507576 0.500000 0.261510
Si Si6 0.416977 0.000000 0.374843
Si Si7 0.249958 0.500000 0.333871
Si Si8 0.086499 0.273545 0.910647
O O1 0.346921 0.869300 0.414704
O O2 0.231657 0.641560 0.428377
O O3 0.188715 0.764995 0.112030
O O4 0.093809 0.866716 0.343562
O O5 0.637891 0.000000 0.132515
O O6 0.461590 0.139146 0.915152
O O7 0.402337 0.000000 0.162813
O O8 0.312886 0.500000 0.694249
O O9 0.066987 0.500000 0.500424
O O10 0.157728 0.362019 0.806779
O O11 0.958436 0.000000 0.042396
O O12 0.032162 0.132863 0.804842
O O13 0.390034 0.500000 0.325514
#
# Coordination Sequence:
#
# PCOD8053089 Si02
#       8
#     4   2   2   2   2   2   2   4
#     4   9  20  36  60  93 118 163 205 262 295 373
#     4   9  20  36  62  96 125 163 207 262 308 370
#     4  11  24  44  59  91 133 171 190 264 324 368
#     4  10  19  37  66  90 120 163 207 263 298 372
#     4   9  18  34  58  92 122 153 204 264 302 349
#     4  11  24  40  60  96 139 158 204 262 330 363
#     4  10  19  33  59  87 121 154 204 253 304 356
#     4   9  20  40  65  93 118 164 224 247 302 375
#
# _framework density 24.758682
#
# number of rings (size 3 to 8) (size 9 to 14) (size 15 to 20)
#    0.000    2.400    0.000    3.600   11.200    0.000 
#    7.200    0.000    0.000    0.000    0.000    0.000 
#    0.000    0.000    0.000    0.000    0.000    0.000 
#
# Total GULP energy -123928.644620 kJ/mol
# GULP energy per Si atom -12392.864462 kJ/mol
# Density = 2.470233 g / cm^3
# Si number density = 24.758682 Si / 1000 Ang^3
#
#
#
# Elastic Constant Matrix: (Units=GPa)
#
#
# Indices 1 2 3 4 5 6 
#
# 1 111.6019 64.7273 6.8398 0.0000 12.1533 0.0000
# 2 64.7273 244.6601 18.4550 0.0000 10.8255 0.0000
# 3 6.8398 18.4550 34.3686 0.0000 6.8685 0.0000
# 4 0.0000 0.0000 0.0000 9.7725 0.0000 -1.4360
# 5 12.1533 10.8255 6.8685 0.0000 33.5195 0.0000
# 6 0.0000 0.0000 0.0000 -1.4360 0.0000 26.8234
#
#
#
# Elastic Compliance Matrix: (Units=1/GPa)
#
#
# Indices 1 2 3 4 5 6 
#
# 1 0.010886 -0.002739 -0.000087 0.000000 -0.003044 0.000000
# 2 -0.002739 0.004978 -0.002091 0.000000 -0.000186 0.000000
# 3 -0.000087 -0.002091 0.031380 0.000000 -0.005723 0.000000
# 4 0.000000 0.000000 0.000000 0.103139 0.000000 0.005522
# 5 -0.003044 -0.000186 -0.005723 0.000000 0.032170 0.000000
# 6 0.000000 0.000000 0.000000 0.005522 0.000000 0.037576
#
#
# Mechanical properties :
#
#
# Convention : Reuss Voigt Hill
#
# Bulk Modulus (GPa) = 26.73066 63.40831 45.06948
# Shear Modulus (GPa) = 20.62430 34.06366 27.34398
#
# Velocity S-wave (km/s) = 2.88933 3.71324 3.32689
# Velocity P-wave (km/s) = 4.68518 6.63704 5.74461
#
# Compressibility (1/GPa) = 0.03741022
#
# Stress axis : x y z
#
# Youngs Moduli (GPa) = 91.86393 200.89292 31.86727
#
# Poissons Ratio (x) = 0.55017 0.00279
# Poissons Ratio (y) = 0.25158 0.06662
# Poissons Ratio (z) = 0.00803 0.42000
#
# Static dielectric constant tensor:
#      x y z
#    x 4.035530 0.000000 0.201610 
#    y 0.000000 5.347780 0.000000 
#    z 0.201610 0.000000 3.982820 
# 
# 
# High freq. dielectric constant tensor:
#      x y z
#    x 1.966410 0.000000 0.005800 
#    y 0.000000 2.020290 0.000000 
#    z 0.005800 0.000000 1.951180 
# 
# From -- ./inp_files/9929.got.cif
#   From: 2010.03.12/outbox.cif.g09.slc.cpg/sg8_5_cif.got.tgz:9929.got - 2010.03.31 10:45:26.
