data_PCOD8053677
_publ_section_title
;
Structure prediction by ZEFSAII (Michael W. Deem and Ramdas Pophale) SiO2 
 PCOD8053677
Probable space group: C M
;
_chemical_formula_sum "Si O2"
_cell_formula_units_Z 32
_cell_length_a 23.615641
_cell_length_b 8.732063
_cell_length_c 24.621919
_cell_angle_alpha 90.000000
_cell_angle_beta 18.162506
_cell_angle_gamma 90.000000
_cell_volume 1582.682079
_symmetry_space_group_name_H-M "C M"
_symmetry_group_IT_number 8
_symmetry_cell_setting 'monoclinic'
loop_
_space_group_symop_operation_xyz
x,y,z
x,-y,z
1/2+x,1/2+y,z
1/2+x,1/2-y,z
loop_
_atom_site_type_symbol
_atom_site_label
_atom_site_fract_x
_atom_site_fract_y
_atom_site_fract_z
Si Si1 0.008140 0.819230 0.651280
Si Si2 0.538333 0.681320 0.501629
Si Si3 0.424457 0.818750 0.109328
Si Si4 0.380637 0.678441 0.339575
Si Si5 0.142261 0.819209 0.005130
Si Si6 0.568764 0.677927 0.281628
Si Si7 0.934466 0.179175 0.983402
Si Si8 0.291789 0.680496 0.628175
O O1 0.194547 0.772064 0.509987
O O2 0.002009 0.755291 0.594994
O O3 0.987806 0.000000 0.671120
O O4 0.842657 0.744747 0.835363
O O5 0.551947 0.500000 0.489671
O O6 0.730350 0.746688 0.305607
O O7 0.379936 0.733261 0.605120
O O8 0.581089 0.744705 0.002830
O O9 0.455483 0.774004 0.019291
O O10 0.439366 0.000000 0.101400
O O11 0.335038 0.500000 0.374844
O O12 0.505557 0.738340 0.176434
O O13 0.483929 0.713315 0.300866
O O14 0.150653 0.000000 0.996330
O O15 0.620037 0.500000 0.242098
O O16 0.749930 0.777610 0.120982
O O17 0.426937 0.728712 0.456935
O O18 0.937837 0.000000 0.992525
O O19 0.104266 0.227886 0.790865
O O20 0.252584 0.500000 0.662372
#
# Coordination Sequence:
#
# PCOD8053677 Si02
#       8
#     4   4   4   4   4   4   4   4
#     4  11  22  38  62  91 122 159 202 247 301 361
#     4   9  18  34  60  90 115 148 196 246 291 346
#     4  11  20  38  64  90 121 158 204 245 294 363
#     4  10  23  42  63  88 121 159 205 258 304 349
#     4  11  23  39  60  92 128 160 197 247 307 358
#     4  10  22  43  67  87 113 161 214 254 295 351
#     4  12  25  39  59  93 129 158 192 245 312 365
#     4  10  20  39  65  89 115 155 206 250 294 355
#
# _framework density 20.218844000000001
#
# number of rings (size 3 to 8) (size 9 to 14) (size 15 to 20)
#    0.000    1.500    2.500    3.000    0.000    3.500 
#    0.000    5.625    0.000    0.000    0.000    0.000 
#    0.000    0.000    0.000    0.000    0.000    0.000 
#
# Total GULP energy -198487.079063 kJ/mol
# GULP energy per Si atom -12405.442441 kJ/mol
# Density = 2.017283 g / cm^3
# Si number density = 20.218844 Si / 1000 Ang^3
#
#
#
# Elastic Constant Matrix: (Units=GPa)
#
#
# Indices 1 2 3 4 5 6 
#
# 1 89.6554 20.8249 32.8911 -0.0271 -10.0314 0.0098
# 2 20.8249 56.4438 41.3148 -0.0678 -12.0943 0.0159
# 3 32.8911 41.3148 132.2309 -0.0555 -31.3995 0.0155
# 4 -0.0271 -0.0678 -0.0555 29.3881 0.0026 -4.6233
# 5 -10.0314 -12.0943 -31.3995 0.0026 19.7167 0.0046
# 6 0.0098 0.0159 0.0155 -4.6233 0.0046 25.7499
#
#
#
# Elastic Compliance Matrix: (Units=1/GPa)
#
#
# Indices 1 2 3 4 5 6 
#
# 1 0.012708 -0.002988 -0.001813 0.000001 0.001746 -0.000002
# 2 -0.002988 0.023899 -0.005795 0.000041 0.003910 -0.000004
# 3 -0.001813 -0.005795 0.014089 0.000009 0.017960 -0.000006
# 4 0.000001 0.000041 0.000009 0.035017 0.000034 0.006287
# 5 0.001746 0.003910 0.017960 0.000034 0.082607 -0.000023
# 6 -0.000002 -0.000004 -0.000006 0.006287 -0.000023 0.039964
#
#
# Mechanical properties :
#
#
# Convention : Reuss Voigt Hill
#
# Bulk Modulus (GPa) = 33.89357 52.04353 42.96855
# Shear Modulus (GPa) = 20.89340 27.19091 24.04215
#
# Velocity S-wave (km/s) = 3.21808 3.67117 3.45207
# Velocity P-wave (km/s) = 5.53243 6.61559 6.09811
#
# Compressibility (1/GPa) = 0.02950412
#
# Stress axis : x y z
#
# Youngs Moduli (GPa) = 78.68923 41.84287 70.97741
#
# Poissons Ratio (x) = 0.12501 0.12869
# Poissons Ratio (y) = 0.23509 0.41134
# Poissons Ratio (z) = 0.14267 0.24250
#
# Static dielectric constant tensor:
#      x y z
#    x 3.645060 -0.000010 0.010840 
#    y -0.000010 3.416720 0.000030 
#    z 0.010840 0.000030 3.904590 
# 
# 
# High freq. dielectric constant tensor:
#      x y z
#    x 1.785520 0.000000 -0.005190 
#    y 0.000000 1.772360 0.000010 
#    z -0.005190 0.000010 1.807020 
# 
# From -- ./inp_files/32344.got.cif
#   From: 2010.03.12/outbox.cif.g09.slc.cpg/sg8_17_cif.got.tgz:32344.got - 2010.03.31 10:45:26.
