data_PCOD8053555
_publ_section_title
;
Structure prediction by ZEFSAII (Michael W. Deem and Ramdas Pophale) SiO2 
 PCOD8053555
Probable space group: C M
;
_chemical_formula_sum "Si O2"
_cell_formula_units_Z 32
_cell_length_a 8.451793
_cell_length_b 28.782023
_cell_length_c 10.833235
_cell_angle_alpha 90.000000
_cell_angle_beta 36.303289
_cell_angle_gamma 90.000000
_cell_volume 1560.248030
_symmetry_space_group_name_H-M "C M"
_symmetry_group_IT_number 8
_symmetry_cell_setting 'monoclinic'
loop_
_space_group_symop_operation_xyz
x,y,z
x,-y,z
1/2+x,1/2+y,z
1/2+x,1/2-y,z
loop_
_atom_site_type_symbol
_atom_site_label
_atom_site_fract_x
_atom_site_fract_y
_atom_site_fract_z
Si Si1 0.189210 0.290455 0.739080
Si Si2 0.407051 0.870577 0.527648
Si Si3 0.016668 0.448523 0.277438
Si Si4 0.364941 0.812519 0.156016
Si Si5 0.304062 0.365916 0.498736
Si Si6 0.245308 0.785215 0.490805
Si Si7 0.920295 0.947339 0.586281
Si Si8 0.312338 0.390852 0.900926
O O1 0.137842 0.340425 0.711081
O O2 0.268678 0.255044 0.578770
O O3 0.432155 0.296137 0.682401
O O4 0.935000 0.280936 0.989670
O O5 0.491896 0.919379 0.417536
O O6 0.624309 0.858934 0.492859
O O7 0.421804 0.829332 0.418804
O O8 0.099672 0.871422 0.765853
O O9 0.102658 0.500000 0.263701
O O10 0.738668 0.448953 0.379199
O O11 0.242198 0.428496 0.047720
O O12 0.341883 0.776820 0.287628
O O13 0.089372 0.840170 0.306133
O O14 0.596072 0.850121 0.032587
O O15 0.329021 0.420106 0.519885
O O16 0.826372 0.918029 0.763017
O O17 0.802086 0.000000 0.661828
#
# Coordination Sequence:
#
# PCOD8053555 Si02
#       8
#     4   4   4   4   4   4   4   4
#     4  11  23  42  65  91 130 162 215 267 315 386
#     4  11  23  39  63  91 133 164 204 271 317 373
#     4  10  20  37  63  91 121 168 218 260 314 382
#     4  11  21  42  69  89 123 171 209 263 316 380
#     4  11  23  40  61  93 130 167 210 260 327 375
#     4  11  23  42  63  96 125 164 216 263 323 381
#     4  10  20  36  62  91 125 167 213 267 316 373
#     4  11  18  40  65  90 119 165 216 257 313 378
#
# _framework density 20.50956
#
# number of rings (size 3 to 8) (size 9 to 14) (size 15 to 20)
#    0.000    1.250    5.000    2.625    0.000    4.000 
#    0.000    0.000    0.000    0.000    0.000    0.000 
#    0.000    0.000    0.000    0.000    0.000    0.000 
#
# Total GULP energy -198239.942195 kJ/mol
# GULP energy per Si atom -12389.996387 kJ/mol
# Density = 2.046288 g / cm^3
# Si number density = 20.509560 Si / 1000 Ang^3
#
#
#
# Elastic Constant Matrix: (Units=GPa)
#
#
# Indices 1 2 3 4 5 6 
#
# 1 122.8336 40.8289 49.8437 0.0000 -5.5214 0.0000
# 2 40.8289 98.0522 31.6352 0.0000 9.3473 0.0000
# 3 49.8437 31.6352 119.9291 0.0000 17.5129 0.0000
# 4 0.0000 0.0000 0.0000 26.6560 0.0000 7.0923
# 5 -5.5214 9.3473 17.5129 0.0000 24.8379 0.0000
# 6 0.0000 0.0000 0.0000 7.0923 0.0000 29.8528
#
#
#
# Elastic Compliance Matrix: (Units=1/GPa)
#
#
# Indices 1 2 3 4 5 6 
#
# 1 0.011856 -0.004063 -0.004976 0.000000 0.007673 0.000000
# 2 -0.004063 0.012666 -0.000919 0.000000 -0.005021 0.000000
# 3 -0.004976 -0.000919 0.011995 0.000000 -0.009218 0.000000
# 4 0.000000 0.000000 0.000000 0.040046 0.000000 -0.009514
# 5 0.007673 -0.005021 -0.009218 0.000000 0.050356 0.000000
# 6 0.000000 0.000000 0.000000 -0.009514 0.000000 0.035758
#
#
# Mechanical properties :
#
#
# Convention : Reuss Voigt Hill
#
# Bulk Modulus (GPa) = 60.24049 65.04783 62.64416
# Shear Modulus (GPa) = 26.57797 30.83646 28.70722
#
# Velocity S-wave (km/s) = 3.60374 3.88173 3.74531
# Velocity P-wave (km/s) = 6.83751 7.20244 7.02235
#
# Compressibility (1/GPa) = 0.01660013
#
# Stress axis : x y z
#
# Youngs Moduli (GPa) = 84.34820 78.95399 83.36885
#
# Poissons Ratio (x) = 0.32076 0.41485
# Poissons Ratio (y) = 0.34268 0.07663
# Poissons Ratio (z) = 0.41973 0.07258
#
# Static dielectric constant tensor:
#      x y z
#    x 3.632360 0.000000 0.082130 
#    y 0.000000 3.922800 0.000000 
#    z 0.082130 0.000000 3.925680 
# 
# 
# High freq. dielectric constant tensor:
#      x y z
#    x 1.788650 0.000000 0.006260 
#    y 0.000000 1.802570 0.000000 
#    z 0.006260 0.000000 1.807720 
# 
# From -- ./inp_files/2007.got.cif
#   From: 2010.03.12/outbox.cif.g09.slc.cpg/sg8_2_cif.got.tgz:2007.got - 2010.03.31 10:45:26.
