data_PCOD8053065
_publ_section_title
;
Structure prediction by ZEFSAII (Michael W. Deem and Ramdas Pophale) SiO2 
 PCOD8053065
Probable space group: C M
;
_chemical_formula_sum "Si O2"
_cell_formula_units_Z 32
_cell_length_a 20.461154
_cell_length_b 8.985461
_cell_length_c 25.042633
_cell_angle_alpha 90.000000
_cell_angle_beta 157.498889
_cell_angle_gamma 90.000000
_cell_volume 1762.018514
_symmetry_space_group_name_H-M "C M"
_symmetry_group_IT_number 8
_symmetry_cell_setting 'monoclinic'
loop_
_space_group_symop_operation_xyz
x,y,z
x,-y,z
1/2+x,1/2+y,z
1/2+x,1/2-y,z
loop_
_atom_site_type_symbol
_atom_site_label
_atom_site_fract_x
_atom_site_fract_y
_atom_site_fract_z
Si Si1 0.671930 0.829483 0.275470
Si Si2 0.403571 0.826456 0.861037
Si Si3 0.525901 0.672943 0.585056
Si Si4 0.523928 0.674752 0.263604
Si Si5 0.143829 0.671889 0.858455
Si Si6 0.180933 0.824345 0.999009
Si Si7 0.917254 0.670276 0.994373
Si Si8 0.879417 0.329493 0.573790
O O1 0.565031 0.724430 0.234212
O O2 0.873043 0.785525 0.428605
O O3 0.648565 0.000000 0.277294
O O4 0.600414 0.808111 0.161856
O O5 0.209105 0.777288 0.700210
O O6 0.521569 0.726435 0.913433
O O7 0.444199 0.788610 0.953185
O O8 0.436159 0.000000 0.873053
O O9 0.535549 0.500000 0.603942
O O10 0.496212 0.742645 0.620356
O O11 0.488929 0.500000 0.237998
O O12 0.681032 0.721895 0.421044
O O13 0.353367 0.756650 0.154746
O O14 0.175264 0.500000 0.897480
O O15 0.156918 0.771770 0.920360
O O16 0.281015 0.720536 0.918014
O O17 0.954892 0.693687 0.690091
O O18 0.195016 0.000000 0.010196
O O19 0.853013 0.500000 0.951788
O O20 0.888967 0.500000 0.563077
#
# Coordination Sequence:
#
# PCOD8053065 Si02
#       8
#     4   4   4   4   4   4   4   4
#     4   9  17  30  52  83 113 140 176 221 268 322
#     4  10  21  37  55  77 110 151 188 224 272 328
#     4   9  17  31  53  80 110 144 179 218 267 323
#     4  10  19  34  55  81 111 144 181 225 278 330
#     4  11  21  35  57  84 113 144 183 229 276 327
#     4  12  25  39  55  78 111 151 191 232 278 328
#     4  10  19  33  55  83 113 142 181 225 268 322
#     4   9  19  33  54  84 113 140 177 226 277 326
#
# _framework density 18.160989000000001
#
# number of rings (size 3 to 8) (size 9 to 14) (size 15 to 20)
#    0.000    2.000    2.500    1.875    0.000    2.000 
#    0.000    1.250    0.000    4.500    0.000    0.000 
#    0.000    0.000    0.000    0.000    0.000    0.000 
#
# Total GULP energy -198379.105430 kJ/mol
# GULP energy per Si atom -12398.694089 kJ/mol
# Density = 1.811965 g / cm^3
# Si number density = 18.160989 Si / 1000 Ang^3
#
#
#
# Elastic Constant Matrix: (Units=GPa)
#
#
# Indices 1 2 3 4 5 6 
#
# 1 61.5307 33.4565 46.0198 0.0032 10.1335 0.0002
# 2 33.4565 83.9007 45.8620 0.0048 11.9505 -0.0003
# 3 46.0198 45.8620 130.6904 0.0197 7.7754 -0.0038
# 4 0.0032 0.0048 0.0197 24.6806 -0.0034 4.0113
# 5 10.1335 11.9505 7.7754 -0.0034 28.2011 -0.0002
# 6 0.0002 -0.0003 -0.0038 4.0113 -0.0002 28.7795
#
#
#
# Elastic Compliance Matrix: (Units=1/GPa)
#
#
# Indices 1 2 3 4 5 6 
#
# 1 0.025032 -0.005741 -0.006516 0.000003 -0.004765 -0.000002
# 2 -0.005741 0.016763 -0.003620 0.000000 -0.004042 0.000000
# 3 -0.006516 -0.003620 0.011169 -0.000008 0.000796 0.000003
# 4 0.000003 0.000000 -0.000008 0.041457 0.000006 -0.005778
# 5 -0.004765 -0.004042 0.000796 0.000006 0.038665 -0.000001
# 6 -0.000002 0.000000 0.000003 -0.005778 -0.000001 0.035552
#
#
# Mechanical properties :
#
#
# Convention : Reuss Voigt Hill
#
# Bulk Modulus (GPa) = 47.15031 58.53315 52.84173
# Shear Modulus (GPa) = 24.10052 26.38447 25.24250
#
# Velocity S-wave (km/s) = 3.64682 3.81571 3.73222
# Velocity P-wave (km/s) = 6.61447 7.19117 6.90884
#
# Compressibility (1/GPa) = 0.02120877
#
# Stress axis : x y z
#
# Youngs Moduli (GPa) = 39.94850 59.65533 89.53072
#
# Poissons Ratio (x) = 0.34249 0.58341
# Poissons Ratio (y) = 0.22935 0.32413
# Poissons Ratio (z) = 0.26032 0.21597
#
# Static dielectric constant tensor:
#      x y z
#    x 3.042540 0.000000 -0.109250 
#    y 0.000000 3.358900 0.000000 
#    z -0.109250 0.000000 3.930510 
# 
# 
# High freq. dielectric constant tensor:
#      x y z
#    x 1.665170 0.000000 -0.010460 
#    y 0.000000 1.704590 0.000000 
#    z -0.010460 0.000000 1.727030 
# 
# From -- ./inp_files/29749.got.cif
#   From: 2010.03.12/outbox.cif.g09.slc.cpg/sg8_15_cif.got.tgz:29749.got - 2010.03.31 10:45:26.
