data_PCOD8053527
_publ_section_title
;
Structure prediction by ZEFSAII (Michael W. Deem and Ramdas Pophale) SiO2 
 PCOD8053527
Probable space group: C M
;
_chemical_formula_sum "Si O2"
_cell_formula_units_Z 32
_cell_length_a 15.506841
_cell_length_b 8.500754
_cell_length_c 22.773032
_cell_angle_alpha 90.000000
_cell_angle_beta 148.199571
_cell_angle_gamma 90.000000
_cell_volume 1581.907440
_symmetry_space_group_name_H-M "C M"
_symmetry_group_IT_number 8
_symmetry_cell_setting 'monoclinic'
loop_
_space_group_symop_operation_xyz
x,y,z
x,-y,z
1/2+x,1/2+y,z
1/2+x,1/2-y,z
loop_
_atom_site_type_symbol
_atom_site_label
_atom_site_fract_x
_atom_site_fract_y
_atom_site_fract_z
Si Si1 0.404420 0.314005 0.058020
Si Si2 0.360911 0.812527 0.577700
Si Si3 0.597140 0.181284 0.812652
Si Si4 0.721274 0.681471 0.060691
Si Si5 0.557337 0.816021 0.583320
Si Si6 0.230113 0.317354 0.194183
Si Si7 0.531761 0.185301 0.437312
Si Si8 0.914484 0.181672 0.810903
O O1 0.425861 0.500000 0.064670
O O2 0.343664 0.276617 0.088909
O O3 0.575953 0.233428 0.143956
O O4 0.271533 0.244923 0.933878
O O5 0.515629 0.752006 0.706202
O O6 0.405931 0.765277 0.536867
O O7 0.200652 0.717241 0.501715
O O8 0.333643 0.000000 0.569718
O O9 0.466644 0.206840 0.788252
O O10 0.631842 0.000000 0.823216
O O11 0.766252 0.500000 0.078736
O O12 0.743692 0.727194 0.140785
O O13 0.530338 0.713870 0.934045
O O14 0.543161 0.743442 0.510008
O O15 0.726567 0.771925 0.714871
O O16 0.553013 0.000000 0.571291
O O17 0.219127 0.500000 0.173664
O O18 0.390493 0.280903 0.323968
O O19 0.493249 0.000000 0.413407
O O20 0.930035 0.000000 0.799828
#
# Coordination Sequence:
#
# PCOD8053527 Si02
#       8
#     4   4   4   4   4   4   4   4
#     4  10  21  39  62  92 127 164 205 250 304 364
#     4  10  20  36  59  88 120 157 198 242 299 361
#     4   9  18  32  57  88 124 158 192 241 297 358
#     4  10  21  38  63  93 125 161 203 252 309 367
#     4   9  19  35  59  87 117 155 195 238 296 360
#     4  12  26  43  63  87 120 164 214 262 308 363
#     4  11  23  42  62  84 118 158 205 255 305 363
#     4   9  17  33  59  87 121 157 194 240 296 362
#
# _framework density 20.228745
#
# number of rings (size 3 to 8) (size 9 to 14) (size 15 to 20)
#    0.000    2.000    1.250    2.250    1.750    2.000 
#    0.000    5.625    0.000    0.000    0.000    0.000 
#    0.000    0.000    0.000    0.000    0.000    0.000 
#
# Total GULP energy -198332.413960 kJ/mol
# GULP energy per Si atom -12395.775872 kJ/mol
# Density = 2.018270 g / cm^3
# Si number density = 20.228745 Si / 1000 Ang^3
#
#
#
# Elastic Constant Matrix: (Units=GPa)
#
#
# Indices 1 2 3 4 5 6 
#
# 1 112.2509 2.3743 57.6274 0.0000 -0.8306 0.0000
# 2 2.3743 36.8189 9.6940 0.0001 -2.9795 0.0000
# 3 57.6274 9.6940 105.8084 0.0008 -13.0728 0.0001
# 4 0.0000 0.0001 0.0008 25.4881 0.0003 4.3432
# 5 -0.8306 -2.9795 -13.0728 0.0003 12.7157 0.0000
# 6 0.0000 0.0000 0.0001 4.3432 0.0000 30.1947
#
#
#
# Elastic Compliance Matrix: (Units=1/GPa)
#
#
# Indices 1 2 3 4 5 6 
#
# 1 0.012953 0.000689 -0.008011 0.000000 -0.007228 0.000000
# 2 0.000689 0.028091 -0.002440 0.000000 0.004119 0.000000
# 3 -0.008011 -0.002440 0.015925 -0.000001 0.015277 0.000000
# 4 0.000000 0.000000 -0.000001 0.040220 -0.000002 -0.005785
# 5 -0.007228 0.004119 0.015277 -0.000002 0.094842 0.000000
# 6 0.000000 0.000000 0.000000 -0.005785 0.000000 0.033951
#
#
# Mechanical properties :
#
#
# Convention : Reuss Voigt Hill
#
# Bulk Modulus (GPa) = 26.70548 43.80775 35.25661
# Shear Modulus (GPa) = 19.38070 26.02520 22.70295
#
# Velocity S-wave (km/s) = 3.09864 3.59074 3.35373
# Velocity P-wave (km/s) = 5.10221 6.23654 5.69767
#
# Compressibility (1/GPa) = 0.03744550
#
# Stress axis : x y z
#
# Youngs Moduli (GPa) = 77.20056 35.59828 62.79321
#
# Poissons Ratio (x) = -0.02453 0.50304
# Poissons Ratio (y) = -0.05319 0.15322
# Poissons Ratio (z) = 0.61846 0.08686
#
# Static dielectric constant tensor:
#      x y z
#    x 3.747730 0.000000 -0.022190 
#    y 0.000000 3.519820 0.000000 
#    z -0.022190 0.000000 3.912870 
# 
# 
# High freq. dielectric constant tensor:
#      x y z
#    x 1.790220 0.000000 -0.000690 
#    y 0.000000 1.771660 0.000000 
#    z -0.000690 0.000000 1.795630 
# 
# From -- ./inp_files/28176.got.cif
#   From: 2010.03.12/outbox.cif.g09.slc.cpg/sg8_15_cif.got.tgz:28176.got - 2010.03.31 10:45:26.
