data_PCOD8053244
_publ_section_title
;
Structure prediction by ZEFSAII (Michael W. Deem and Ramdas Pophale) SiO2 
 PCOD8053244
Probable space group: C M
;
_chemical_formula_sum "Si O2"
_cell_formula_units_Z 32
_cell_length_a 23.976346
_cell_length_b 9.259231
_cell_length_c 9.629697
_cell_angle_alpha 90.000000
_cell_angle_beta 127.685225
_cell_angle_gamma 90.000000
_cell_volume 1691.828236
_symmetry_space_group_name_H-M "C M"
_symmetry_group_IT_number 8
_symmetry_cell_setting 'monoclinic'
loop_
_space_group_symop_operation_xyz
x,y,z
x,-y,z
1/2+x,1/2+y,z
1/2+x,1/2-y,z
loop_
_atom_site_type_symbol
_atom_site_label
_atom_site_fract_x
_atom_site_fract_y
_atom_site_fract_z
Si Si1 0.021920 0.328176 0.104240
Si Si2 0.379860 0.834256 0.028428
Si Si3 0.654537 0.828331 0.808479
Si Si4 0.806182 0.171518 0.150223
Si Si5 0.649622 0.171019 0.486377
Si Si6 0.370740 0.833197 0.495787
Si Si7 0.526386 0.828310 0.799305
Si Si8 0.281807 0.161147 0.626188
O O1 0.020937 0.500000 0.094912
O O2 0.083130 0.271428 0.298691
O O3 0.948760 0.272504 0.056796
O O4 0.032643 0.265162 0.965270
O O5 0.365546 0.735968 0.139717
O O6 0.391344 0.000000 0.093521
O O7 0.313590 0.819545 0.826846
O O8 0.646038 0.768859 0.638571
O O9 0.590417 0.765921 0.803926
O O10 0.651502 0.000000 0.802073
O O11 0.728396 0.775956 0.986140
O O12 0.822362 0.232939 0.326540
O O13 0.811718 0.000000 0.159170
O O14 0.718545 0.227089 0.511674
O O15 0.652968 0.000000 0.491508
O O16 0.452217 0.782351 0.616915
O O17 0.343536 0.810091 0.610382
O O18 0.363846 0.000000 0.438449
O O19 0.530311 0.000000 0.812383
O O20 0.251456 0.000000 0.561057
#
# Coordination Sequence:
#
# PCOD8053244 Si02
#       8
#     4   4   4   4   4   4   4   4
#     4   9  18  32  56  85 106 134 185 233 269 314
#     4  10  19  36  60  83 106 141 187 232 273 318
#     4   9  19  33  50  78 112 141 175 223 273 316
#     4  11  23  37  54  82 116 147 181 223 274 331
#     4  10  20  34  55  83 110 142 183 224 269 325
#     4  10  21  37  59  83 108 143 187 229 272 322
#     4   9  17  33  55  80 108 137 178 234 274 308
#     4  10  20  36  57  82 112 143 180 228 278 328
#
# _framework density 18.914451
#
# number of rings (size 3 to 8) (size 9 to 14) (size 15 to 20)
#    0.000    2.250    2.500    0.375    3.500    0.500 
#    0.000    0.625    0.000    2.250    0.000    0.000 
#    0.000    0.000    0.000    0.000    0.000    0.000 
#
# Total GULP energy -198405.079833 kJ/mol
# GULP energy per Si atom -12400.317490 kJ/mol
# Density = 1.887140 g / cm^3
# Si number density = 18.914451 Si / 1000 Ang^3
#
#
#
# Elastic Constant Matrix: (Units=GPa)
#
#
# Indices 1 2 3 4 5 6 
#
# 1 113.9752 22.9803 40.9519 0.0000 12.4759 0.0000
# 2 22.9803 34.8667 28.0250 0.0000 0.5705 0.0000
# 3 40.9519 28.0250 117.7279 0.0000 6.7014 0.0000
# 4 0.0000 0.0000 0.0000 24.8534 0.0000 -0.9699
# 5 12.4759 0.5705 6.7014 0.0000 32.5573 0.0000
# 6 0.0000 0.0000 0.0000 -0.9699 0.0000 22.5085
#
#
#
# Elastic Compliance Matrix: (Units=1/GPa)
#
#
# Indices 1 2 3 4 5 6 
#
# 1 0.011110 -0.005347 -0.002383 0.000000 -0.003673 0.000000
# 2 -0.005347 0.038082 -0.007370 0.000000 0.002899 0.000000
# 3 -0.002383 -0.007370 0.011149 0.000000 -0.001253 0.000000
# 4 0.000000 0.000000 0.000000 0.040304 0.000000 0.001737
# 5 -0.003673 0.002899 -0.001253 0.000000 0.032330 0.000000
# 6 0.000000 0.000000 0.000000 0.001737 0.000000 0.044502
#
#
# Mechanical properties :
#
#
# Convention : Reuss Voigt Hill
#
# Bulk Modulus (GPa) = 33.17843 50.05379 41.61611
# Shear Modulus (GPa) = 22.96488 27.62469 25.29479
#
# Velocity S-wave (km/s) = 3.48824 3.82580 3.66091
# Velocity P-wave (km/s) = 5.81405 6.78501 6.31821
#
# Compressibility (1/GPa) = 0.03014007
#
# Stress axis : x y z
#
# Youngs Moduli (GPa) = 90.00735 26.25933 89.69608
#
# Poissons Ratio (x) = 0.14042 0.21372
# Poissons Ratio (y) = 0.48131 0.66108
# Poissons Ratio (z) = 0.21446 0.19354
#
# Static dielectric constant tensor:
#      x y z
#    x 3.609050 0.000000 -0.021470 
#    y 0.000000 3.014650 0.000000 
#    z -0.021470 0.000000 3.577410 
# 
# 
# High freq. dielectric constant tensor:
#      x y z
#    x 1.747080 0.000000 -0.000750 
#    y 0.000000 1.683510 0.000000 
#    z -0.000750 0.000000 1.744080 
# 
# From -- ./inp_files/15812.got.cif
#   From: 2010.03.12/outbox.cif.g09.slc.cpg/sg8_8_cif.got.tgz:15812.got - 2010.03.31 10:45:26.
