data_PCOD8053522
_publ_section_title
;
Structure prediction by ZEFSAII (Michael W. Deem and Ramdas Pophale) SiO2 
 PCOD8053522
Probable space group: C M
;
_chemical_formula_sum "Si O2"
_cell_formula_units_Z 32
_cell_length_a 20.359650
_cell_length_b 8.682521
_cell_length_c 25.018828
_cell_angle_alpha 90.000000
_cell_angle_beta 157.557685
_cell_angle_gamma 90.000000
_cell_volume 1688.362372
_symmetry_space_group_name_H-M "C M"
_symmetry_group_IT_number 8
_symmetry_cell_setting 'monoclinic'
loop_
_space_group_symop_operation_xyz
x,y,z
x,-y,z
1/2+x,1/2+y,z
1/2+x,1/2-y,z
loop_
_atom_site_type_symbol
_atom_site_label
_atom_site_fract_x
_atom_site_fract_y
_atom_site_fract_z
Si Si1 0.865280 0.677116 0.414010
Si Si2 0.358956 0.320660 0.693104
Si Si3 0.124788 0.677099 0.698727
Si Si4 0.005426 0.820541 0.416076
Si Si5 0.181896 0.177239 0.123430
Si Si6 0.006646 0.175948 0.104682
Si Si7 0.419214 0.820935 0.852307
Si Si8 0.152232 0.821768 0.831518
O O1 0.882075 0.500000 0.406936
O O2 0.663257 0.722190 0.262266
O O3 0.943790 0.701171 0.531820
O O4 0.971210 0.781014 0.452366
O O5 0.314646 0.500000 0.657004
O O6 0.199264 0.228042 0.547861
O O7 0.391732 0.277001 0.778716
O O8 0.526768 0.277490 0.785395
O O9 0.185810 0.500000 0.741176
O O10 0.270799 0.782941 0.783066
O O11 0.096165 0.722394 0.738319
O O12 0.876202 0.731137 0.279812
O O13 0.979853 0.000000 0.387412
O O14 0.067577 0.203609 0.090060
O O15 0.183271 0.000000 0.107130
O O16 0.102635 0.277296 0.015896
O O17 0.949946 0.000000 0.070837
O O18 0.845329 0.283957 0.995977
O O19 0.414941 0.000000 0.834553
O O20 0.139159 0.000000 0.806464
#
# Coordination Sequence:
#
# PCOD8053522 Si02
#       8
#     4   4   4   4   4   4   4   4
#     4   9  19  35  57  84 115 151 191 234 290 354
#     4  11  24  42  59  80 117 163 200 239 299 357
#     4  11  21  36  60  86 117 155 193 238 293 351
#     4  11  21  34  57  88 117 150 193 247 292 338
#     4  10  20  36  59  86 118 156 189 233 294 353
#     4   9  18  34  57  83 113 151 191 233 288 349
#     4  12  23  36  59  91 118 146 197 253 290 338
#     4  11  24  39  58  84 117 156 198 243 288 346
#
# _framework density 18.953278000000001
#
# number of rings (size 3 to 8) (size 9 to 14) (size 15 to 20)
#    0.000    1.500    2.500    4.500    0.000    4.500 
#    0.000    1.250    0.000    6.000    0.000    0.000 
#    0.000    0.000    0.000    0.000    0.000    0.000 
#
# Total GULP energy -198472.202795 kJ/mol
# GULP energy per Si atom -12404.512675 kJ/mol
# Density = 1.891014 g / cm^3
# Si number density = 18.953278 Si / 1000 Ang^3
#
#
#
# Elastic Constant Matrix: (Units=GPa)
#
#
# Indices 1 2 3 4 5 6 
#
# 1 54.1150 15.8275 34.1939 -0.0002 2.1569 -0.0009
# 2 15.8275 69.0054 27.4967 -0.0104 7.2029 0.0033
# 3 34.1939 27.4967 131.9418 -0.0107 -0.4566 0.0052
# 4 -0.0002 -0.0104 -0.0107 32.0100 0.0033 0.4166
# 5 2.1569 7.2029 -0.4566 0.0033 27.1445 -0.0019
# 6 -0.0009 0.0033 0.0052 0.4166 -0.0019 24.7559
#
#
#
# Elastic Compliance Matrix: (Units=1/GPa)
#
#
# Indices 1 2 3 4 5 6 
#
# 1 0.022730 -0.002999 -0.005269 -0.000003 -0.001099 0.000002
# 2 -0.002999 0.016705 -0.002719 0.000005 -0.004240 -0.000002
# 3 -0.005269 -0.002719 0.009516 0.000002 0.001300 -0.000002
# 4 -0.000003 0.000005 0.000002 0.031247 -0.000005 -0.000526
# 5 -0.001099 -0.004240 0.001300 -0.000005 0.038074 0.000003
# 6 0.000002 -0.000002 -0.000002 -0.000526 0.000003 0.040403
#
#
# Mechanical properties :
#
#
# Convention : Reuss Voigt Hill
#
# Bulk Modulus (GPa) = 37.06942 45.56650 41.31796
# Shear Modulus (GPa) = 26.36543 28.61837 27.49190
#
# Velocity S-wave (km/s) = 3.73376 3.89001 3.81269
# Velocity P-wave (km/s) = 6.17970 6.65357 6.42101
#
# Compressibility (1/GPa) = 0.02697641
#
# Stress axis : x y z
#
# Youngs Moduli (GPa) = 43.99526 59.86059 105.08800
#
# Poissons Ratio (x) = 0.17952 0.55375
# Poissons Ratio (y) = 0.13194 0.28572
# Poissons Ratio (z) = 0.23183 0.16275
#
# Static dielectric constant tensor:
#      x y z
#    x 3.166030 0.000000 -0.101130 
#    y 0.000000 3.487170 -0.000010 
#    z -0.101130 -0.000010 3.736690 
# 
# 
# High freq. dielectric constant tensor:
#      x y z
#    x 1.699900 0.000000 -0.011970 
#    y 0.000000 1.743720 0.000000 
#    z -0.011970 0.000000 1.755010 
# 
# From -- ./inp_files/29728.got.cif
#   From: 2010.03.12/outbox.cif.g09.slc.cpg/sg8_15_cif.got.tgz:29728.got - 2010.03.31 10:45:26.
