data_PCOD8053037
_publ_section_title
;
Structure prediction by ZEFSAII (Michael W. Deem and Ramdas Pophale) SiO2 
 PCOD8053037
Probable space group: C M
;
_chemical_formula_sum "Si O2"
_cell_formula_units_Z 32
_cell_length_a 14.488949
_cell_length_b 9.118759
_cell_length_c 28.581562
_cell_angle_alpha 90.000000
_cell_angle_beta 151.882475
_cell_angle_gamma 90.000000
_cell_volume 1779.668583
_symmetry_space_group_name_H-M "C M"
_symmetry_group_IT_number 8
_symmetry_cell_setting 'monoclinic'
loop_
_space_group_symop_operation_xyz
x,y,z
x,-y,z
1/2+x,1/2+y,z
1/2+x,1/2-y,z
loop_
_atom_site_type_symbol
_atom_site_label
_atom_site_fract_x
_atom_site_fract_y
_atom_site_fract_z
Si Si1 0.545380 0.327849 0.503160
Si Si2 0.921401 0.828705 0.639021
Si Si3 0.554041 0.328406 0.801737
Si Si4 0.089404 0.671816 0.161703
Si Si5 0.730925 0.335252 0.307263
Si Si6 0.482234 0.173852 0.013340
Si Si7 0.179379 0.171434 0.666114
Si Si8 0.313606 0.334123 0.095771
O O1 0.541798 0.500000 0.492482
O O2 0.718255 0.259603 0.548945
O O3 0.341184 0.257457 0.395935
O O4 0.567444 0.290418 0.567883
O O5 0.034847 0.795417 0.737907
O O6 0.051685 0.773682 0.653315
O O7 0.872408 0.000000 0.611772
O O8 0.537096 0.500000 0.804289
O O9 0.763709 0.261611 0.911097
O O10 0.388740 0.251048 0.759112
O O11 0.119278 0.500000 0.182635
O O12 0.870132 0.721858 0.079712
O O13 0.252842 0.758644 0.265437
O O14 0.097417 0.720846 0.111540
O O15 0.816981 0.500000 0.343518
O O16 0.497877 0.336998 0.214996
O O17 0.465388 0.000000 0.004112
O O18 0.617578 0.229161 0.031503
O O19 0.221305 0.000000 0.689313
O O20 0.281053 0.500000 0.062087
#
# Coordination Sequence:
#
# PCOD8053037 Si02
#       8
#     4   4   4   4   4   4   4   4
#     4  10  19  33  53  75 101 130 163 206 252 294
#     4   9  18  34  53  74 101 133 166 201 245 299
#     4   9  18  32  53  76 100 133 170 204 241 292
#     4   9  17  31  50  71  99 130 165 208 247 283
#     4   9  18  34  53  72 100 134 166 204 246 294
#     4   9  17  32  52  74 101 135 170 203 243 293
#     4   9  19  35  52  75 104 130 161 206 253 295
#     4   8  17  33  50  69  98 133 167 204 241 290
#
# _framework density 17.980875999999999
#
# number of rings (size 3 to 8) (size 9 to 14) (size 15 to 20)
#    0.750    2.250    0.000    0.750    0.000    2.000 
#    2.250    4.375    0.000    0.000    0.000    0.000 
#    0.000    0.000    0.000    0.000    0.000    0.000 
#
# Total GULP energy -198251.233764 kJ/mol
# GULP energy per Si atom -12390.702110 kJ/mol
# Density = 1.793995 g / cm^3
# Si number density = 17.980876 Si / 1000 Ang^3
#
#
#
# Elastic Constant Matrix: (Units=GPa)
#
#
# Indices 1 2 3 4 5 6 
#
# 1 84.2347 19.7339 4.8864 0.0000 6.4764 0.0000
# 2 19.7339 52.2127 19.2442 -0.0001 -0.7658 0.0000
# 3 4.8864 19.2442 51.7329 -0.0003 2.3988 0.0001
# 4 0.0000 -0.0001 -0.0003 25.0352 0.0000 4.2690
# 5 6.4764 -0.7658 2.3988 0.0000 20.7882 0.0000
# 6 0.0000 0.0000 0.0001 4.2690 0.0000 21.4816
#
#
#
# Elastic Compliance Matrix: (Units=1/GPa)
#
#
# Indices 1 2 3 4 5 6 
#
# 1 0.013453 -0.005516 0.000990 0.000000 -0.004509 0.000000
# 2 -0.005516 0.024523 -0.008770 0.000000 0.003634 0.000000
# 3 0.000990 -0.008770 0.022649 0.000000 -0.003245 0.000000
# 4 0.000000 0.000000 0.000000 0.041345 0.000000 -0.008216
# 5 -0.004509 0.003634 -0.003245 0.000000 0.050017 0.000000
# 6 0.000000 0.000000 0.000000 -0.008216 0.000000 0.048184
#
#
# Mechanical properties :
#
#
# Convention : Reuss Voigt Hill
#
# Bulk Modulus (GPa) = 29.38202 30.65659 30.01930
# Shear Modulus (GPa) = 20.99902 23.08205 22.04054
#
# Velocity S-wave (km/s) = 3.42109 3.58676 3.50491
# Velocity P-wave (km/s) = 5.65521 5.85147 5.75418
#
# Compressibility (1/GPa) = 0.03403442
#
# Stress axis : x y z
#
# Youngs Moduli (GPa) = 74.33306 40.77868 44.15160
#
# Poissons Ratio (x) = 0.22492 -0.04372
# Poissons Ratio (y) = 0.40999 0.38720
# Poissons Ratio (z) = -0.07360 0.35762
#
# Static dielectric constant tensor:
#      x y z
#    x 3.252900 0.000000 0.006090 
#    y 0.000000 3.193190 0.000000 
#    z 0.006090 0.000000 3.281140 
# 
# 
# High freq. dielectric constant tensor:
#      x y z
#    x 1.682590 0.000000 -0.000880 
#    y 0.000000 1.686150 0.000000 
#    z -0.000880 0.000000 1.689820 
# 
# From -- ./inp_files/26432.got.cif
#   From: 2010.03.12/outbox.cif.g09.slc.cpg/sg8_14_cif.got.tgz:26432.got - 2010.03.31 10:45:26.
