data_PCOD8053009
_publ_section_title
;
Structure prediction by ZEFSAII (Michael W. Deem and Ramdas Pophale) SiO2 
 PCOD8053009
Probable space group: C M
;
_chemical_formula_sum "Si O2"
_cell_formula_units_Z 32
_cell_length_a 15.568604
_cell_length_b 9.142551
_cell_length_c 22.873927
_cell_angle_alpha 90.000000
_cell_angle_beta 148.827267
_cell_angle_gamma 90.000000
_cell_volume 1685.267112
_symmetry_space_group_name_H-M "C M"
_symmetry_group_IT_number 8
_symmetry_cell_setting 'monoclinic'
loop_
_space_group_symop_operation_xyz
x,y,z
x,-y,z
1/2+x,1/2+y,z
1/2+x,1/2-y,z
loop_
_atom_site_type_symbol
_atom_site_label
_atom_site_fract_x
_atom_site_fract_y
_atom_site_fract_z
Si Si1 0.529900 0.328955 0.311370
Si Si2 0.704509 0.169652 0.310555
Si Si3 0.515154 0.334614 0.566511
Si Si4 0.192251 0.325637 0.171901
Si Si5 0.348939 0.170295 0.569891
Si Si6 0.374838 0.826382 0.917220
Si Si7 0.887788 0.668137 0.792026
Si Si8 0.031724 0.173449 0.773117
O O1 0.523258 0.500000 0.293697
O O2 0.575032 0.250177 0.277252
O O3 0.354608 0.267929 0.232435
O O4 0.664159 0.294644 0.439854
O O5 0.689035 0.234572 0.236320
O O6 0.894556 0.195335 0.441543
O O7 0.657037 0.000000 0.284195
O O8 0.488043 0.500000 0.575120
O O9 0.479940 0.221045 0.597489
O O10 0.704702 0.315100 0.657103
O O11 0.197373 0.500000 0.176373
O O12 0.030755 0.265012 0.044462
O O13 0.381066 0.259943 0.647639
O O14 0.374714 0.000000 0.597831
O O15 0.387147 0.771104 0.857825
O O16 0.205892 0.769352 0.848427
O O17 0.373935 0.000000 0.917524
O O18 0.946859 0.500000 0.824597
O O19 0.015549 0.765969 0.829525
O O20 0.019075 0.000000 0.766187
#
# Coordination Sequence:
#
# PCOD8053009 Si02
#       8
#     4   4   4   4   4   4   4   4
#     4   9  19  34  54  80 109 138 174 219 265 313
#     4   9  18  32  54  80 107 139 176 216 261 314
#     4   9  17  32  54  78 111 144 175 216 266 319
#     4   9  18  34  57  79 101 142 186 214 255 320
#     4  10  19  32  54  81 112 142 175 219 268 319
#     4   9  19  37  56  75 106 143 181 220 262 316
#     4  10  20  35  55  79 107 142 181 220 265 318
#     4  11  22  36  54  80 109 142 180 222 270 317
#
# _framework density 18.988087
#
# number of rings (size 3 to 8) (size 9 to 14) (size 15 to 20)
#    0.000    2.500    1.250    0.750    1.750    2.000 
#    0.000    0.625    0.000    3.000    0.000    0.000 
#    0.000    0.000    0.000    0.000    0.000    0.000 
#
# Total GULP energy -198404.800986 kJ/mol
# GULP energy per Si atom -12400.300062 kJ/mol
# Density = 1.894487 g / cm^3
# Si number density = 18.988087 Si / 1000 Ang^3
#
#
#
# Elastic Constant Matrix: (Units=GPa)
#
#
# Indices 1 2 3 4 5 6 
#
# 1 167.0301 46.2850 81.3222 -0.0003 -4.1531 0.0000
# 2 46.2850 50.4028 32.6064 0.0008 0.8250 0.0000
# 3 81.3222 32.6064 118.4521 0.0018 -5.2699 0.0001
# 4 -0.0003 0.0008 0.0018 15.7569 -0.0004 0.2018
# 5 -4.1531 0.8250 -5.2699 -0.0004 26.5798 0.0000
# 6 0.0000 0.0000 0.0001 0.2018 0.0000 33.4959
#
#
#
# Elastic Compliance Matrix: (Units=1/GPa)
#
#
# Indices 1 2 3 4 5 6 
#
# 1 0.010279 -0.005970 -0.005382 0.000001 0.000724 0.000000
# 2 -0.005970 0.027721 -0.003644 -0.000001 -0.002516 0.000000
# 3 -0.005382 -0.003644 0.013224 -0.000001 0.001894 0.000000
# 4 0.000001 -0.000001 -0.000001 0.063469 0.000001 -0.000382
# 5 0.000724 -0.002516 0.001894 0.000001 0.038189 0.000000
# 6 0.000000 0.000000 0.000000 -0.000382 0.000000 0.029857
#
#
# Mechanical properties :
#
#
# Convention : Reuss Voigt Hill
#
# Bulk Modulus (GPa) = 47.09569 72.92357 60.00963
# Shear Modulus (GPa) = 22.74700 26.87795 24.81248
#
# Velocity S-wave (km/s) = 3.46491 3.76642 3.61881
# Velocity P-wave (km/s) = 6.39250 7.57646 7.00953
#
# Compressibility (1/GPa) = 0.02123336
#
# Stress axis : x y z
#
# Youngs Moduli (GPa) = 97.28129 36.07370 75.61814
#
# Poissons Ratio (x) = 0.21536 0.40695
# Poissons Ratio (y) = 0.58077 0.27556
# Poissons Ratio (z) = 0.52354 0.13145
#
# Static dielectric constant tensor:
#      x y z
#    x 3.485870 0.000000 -0.036560 
#    y 0.000000 3.196040 0.000000 
#    z -0.036560 0.000000 3.616730 
# 
# 
# High freq. dielectric constant tensor:
#      x y z
#    x 1.741060 0.000000 -0.002590 
#    y 0.000000 1.706050 0.000000 
#    z -0.002590 0.000000 1.737450 
# 
# From -- ./inp_files/24362.got.cif
#   From: 2010.03.12/outbox.cif.g09.slc.cpg/sg8_13_cif.got.tgz:24362.got - 2010.03.31 10:45:26.
