data_PCOD8053597
_publ_section_title
;
Structure prediction by ZEFSAII (Michael W. Deem and Ramdas Pophale) SiO2 
 PCOD8053597
Probable space group: C M
;
_chemical_formula_sum "Si O2"
_cell_formula_units_Z 32
_cell_length_a 10.636355
_cell_length_b 24.588161
_cell_length_c 7.891083
_cell_angle_alpha 90.000000
_cell_angle_beta 45.637142
_cell_angle_gamma 90.000000
_cell_volume 1475.423266
_symmetry_space_group_name_H-M "C M"
_symmetry_group_IT_number 8
_symmetry_cell_setting 'monoclinic'
loop_
_space_group_symop_operation_xyz
x,y,z
x,-y,z
1/2+x,1/2+y,z
1/2+x,1/2-y,z
loop_
_atom_site_type_symbol
_atom_site_label
_atom_site_fract_x
_atom_site_fract_y
_atom_site_fract_z
Si Si1 0.064740 0.440291 0.149830
Si Si2 0.761617 0.365016 0.453293
Si Si3 0.261918 0.865871 0.858056
Si Si4 0.888116 0.132410 0.330704
Si Si5 0.899483 0.747440 0.739706
Si Si6 0.074827 0.439712 0.531162
Si Si7 0.866575 0.133834 0.742324
Si Si8 0.796580 0.752917 0.452681
O O1 0.069823 0.500000 0.058742
O O2 0.025975 0.446983 0.383068
O O3 0.900134 0.405733 0.234875
O O4 0.249545 0.410865 0.945000
O O5 0.752824 0.365750 0.664388
O O6 0.570680 0.381435 0.567092
O O7 0.823665 0.304837 0.332116
O O8 0.283842 0.804056 0.907171
O O9 0.422895 0.904329 0.766624
O O10 0.084391 0.888962 0.109368
O O11 0.759914 0.091163 0.357376
O O12 0.824726 0.132803 0.583709
O O13 0.872173 0.195038 0.277511
O O14 0.824594 0.806812 0.865565
O O15 0.899921 0.749365 0.534194
O O16 0.086103 0.738886 0.655829
O O17 0.088287 0.500000 0.602993
#
# Coordination Sequence:
#
# PCOD8053597 Si02
#       8
#     4   4   4   4   4   4   4   4
#     4  10  22  40  64  84 110 160 207 243 289 348
#     4   9  20  39  57  85 118 154 201 245 289 351
#     4  10  20  37  61  86 118 159 198 249 298 351
#     4  11  22  36  59  91 123 156 193 247 307 360
#     4   9  18  36  56  85 123 161 200 241 301 364
#     4  10  22  41  62  86 116 157 209 250 287 354
#     4  10  22  38  55  89 124 153 193 243 301 360
#     4   9  18  35  56  86 124 160 197 244 304 362
#
# _framework density 21.688692
#
# number of rings (size 3 to 8) (size 9 to 14) (size 15 to 20)
#    0.000    2.250    1.250    0.750    1.750    2.500 
#    0.000    6.250    0.000    0.000    0.000    0.000 
#    0.000    0.000    0.000    0.000    0.000    0.000 
#
# Total GULP energy -198269.689727 kJ/mol
# GULP energy per Si atom -12391.855608 kJ/mol
# Density = 2.163933 g / cm^3
# Si number density = 21.688692 Si / 1000 Ang^3
#
#
#
# Elastic Constant Matrix: (Units=GPa)
#
#
# Indices 1 2 3 4 5 6 
#
# 1 68.5330 34.5783 16.0145 0.0000 -24.7054 0.0000
# 2 34.5783 189.9745 57.8754 0.0000 -38.9895 0.0000
# 3 16.0145 57.8754 70.1394 0.0000 -28.3740 0.0000
# 4 0.0000 0.0000 0.0000 19.3675 0.0000 -9.6014
# 5 -24.7054 -38.9895 -28.3740 0.0000 37.1821 0.0000
# 6 0.0000 0.0000 0.0000 -9.6014 0.0000 25.4582
#
#
#
# Elastic Compliance Matrix: (Units=1/GPa)
#
#
# Indices 1 2 3 4 5 6 
#
# 1 0.019550 -0.001519 0.002026 0.000000 0.012943 0.000000
# 2 -0.001519 0.007649 -0.004526 0.000000 0.003558 0.000000
# 3 0.002026 -0.004526 0.023367 0.000000 0.014432 0.000000
# 4 0.000000 0.000000 0.000000 0.063507 0.000000 0.023951
# 5 0.012943 0.003558 0.014432 0.000000 0.050239 0.000000
# 6 0.000000 0.000000 0.000000 0.023951 0.000000 0.048313
#
#
# Mechanical properties :
#
#
# Convention : Reuss Voigt Hill
#
# Bulk Modulus (GPa) = 23.51336 60.62035 42.06685
# Shear Modulus (GPa) = 21.29103 31.08014 26.18559
#
# Velocity S-wave (km/s) = 3.13655 3.78962 3.47845
# Velocity P-wave (km/s) = 4.89715 6.86725 5.96411
#
# Compressibility (1/GPa) = 0.04252902
#
# Stress axis : x y z
#
# Youngs Moduli (GPa) = 51.14972 130.72977 42.79455
#
# Poissons Ratio (x) = 0.19861 -0.08669
# Poissons Ratio (y) = 0.07771 0.19367
# Poissons Ratio (z) = -0.10361 0.59162
#
# Static dielectric constant tensor:
#      x y z
#    x 3.902320 0.000000 -0.177970 
#    y 0.000000 4.467750 0.000000 
#    z -0.177970 0.000000 3.392060 
# 
# 
# High freq. dielectric constant tensor:
#      x y z
#    x 1.853290 0.000000 -0.019180 
#    y 0.000000 1.860480 0.000000 
#    z -0.019180 0.000000 1.816570 
# 
# From -- ./inp_files/11586.got.cif
#   From: 2010.03.12/outbox.cif.g09.slc.cpg/sg8_6_cif.got.tgz:11586.got - 2010.03.31 10:45:26.
