data_PCOD8053986
_publ_section_title
;
Structure prediction by ZEFSAII (Michael W. Deem and Ramdas Pophale) SiO2 
 PCOD8053986
Probable space group: C M
;
_chemical_formula_sum "Si O2"
_cell_formula_units_Z 32
_cell_length_a 17.297959
_cell_length_b 14.379767
_cell_length_c 11.972895
_cell_angle_alpha 90.000000
_cell_angle_beta 30.916897
_cell_angle_gamma 90.000000
_cell_volume 1530.154034
_symmetry_space_group_name_H-M "C M"
_symmetry_group_IT_number 8
_symmetry_cell_setting 'monoclinic'
loop_
_space_group_symop_operation_xyz
x,y,z
x,-y,z
1/2+x,1/2+y,z
1/2+x,1/2-y,z
loop_
_atom_site_type_symbol
_atom_site_label
_atom_site_fract_x
_atom_site_fract_y
_atom_site_fract_z
Si Si1 0.983770 0.394173 0.997040
Si Si2 0.991070 0.105959 0.709097
Si Si3 0.822086 0.225991 0.100132
Si Si4 0.938508 0.897760 0.139224
Si Si5 0.280967 0.897013 0.701752
Si Si6 0.981494 0.768821 0.505275
Si Si7 0.300233 0.853824 0.430925
Si Si8 0.805282 0.156868 0.521413
O O1 0.930792 0.500000 0.041041
O O2 0.162369 0.388709 0.758122
O O3 0.899206 0.327471 0.013170
O O4 0.947709 0.363342 0.169666
O O5 0.963953 0.161692 0.629465
O O6 0.165914 0.102163 0.525203
O O7 0.932989 0.000000 0.766897
O O8 0.901019 0.158331 0.916041
O O9 0.832326 0.175250 0.207312
O O10 0.651274 0.237305 0.276298
O O11 0.881232 0.910537 0.336840
O O12 0.932633 0.000000 0.089565
O O13 0.109562 0.860305 0.922054
O O14 0.382101 0.824513 0.645742
O O15 0.329593 0.905676 0.511528
O O16 0.297450 0.000000 0.735001
O O17 0.930966 0.822071 0.457388
O O18 0.256737 0.748797 0.514678
#
# Coordination Sequence:
#
# PCOD8053986 Si02
#       8
#     4   4   4   4   4   4   4   4
#     4  12  24  42  70 100 131 174 227 275 326 393
#     4  12  24  43  69  98 132 176 224 270 332 400
#     4  12  24  43  65 101 134 172 221 277 335 388
#     4  11  22  42  72  96 128 177 229 278 328 393
#     4  10  22  42  68  98 130 176 228 275 332 394
#     4  11  27  41  65  96 143 175 209 274 340 399
#     4  11  21  41  72  98 129 173 230 280 321 387
#     4  11  24  44  65  99 141 175 216 273 340 396
#
# _framework density 20.912927
#
# number of rings (size 3 to 8) (size 9 to 14) (size 15 to 20)
#    0.000    0.750    5.000    2.625    1.750    3.000 
#    0.000    0.625    0.000    0.000    0.000    0.000 
#    0.000    0.000    0.000    0.000    0.000    0.000 
#
# Total GULP energy -198422.604484 kJ/mol
# GULP energy per Si atom -12401.412780 kJ/mol
# Density = 2.086533 g / cm^3
# Si number density = 20.912927 Si / 1000 Ang^3
#
#
#
# Elastic Constant Matrix: (Units=GPa)
#
#
# Indices 1 2 3 4 5 6 
#
# 1 105.7913 52.8549 49.2219 0.0001 -6.3539 -0.0001
# 2 52.8549 139.7677 28.4795 0.0001 1.4495 -0.0001
# 3 49.2219 28.4795 140.0183 0.0001 7.2603 -0.0001
# 4 0.0001 0.0001 0.0001 18.0816 -0.0001 4.8344
# 5 -6.3539 1.4495 7.2603 -0.0001 38.9509 0.0001
# 6 -0.0001 -0.0001 -0.0001 4.8344 0.0001 18.8618
#
#
#
# Elastic Compliance Matrix: (Units=1/GPa)
#
#
# Indices 1 2 3 4 5 6 
#
# 1 0.013749 -0.004396 -0.004103 0.000000 0.003171 0.000000
# 2 -0.004396 0.008870 -0.000206 0.000000 -0.001009 0.000000
# 3 -0.004103 -0.000206 0.008745 0.000000 -0.002292 0.000000
# 4 0.000000 0.000000 0.000000 0.059373 0.000000 -0.015218
# 5 0.003171 -0.001009 -0.002292 0.000000 0.026655 0.000000
# 6 0.000000 0.000000 0.000000 -0.015218 0.000000 0.056917
#
#
# Mechanical properties :
#
#
# Convention : Reuss Voigt Hill
#
# Bulk Modulus (GPa) = 71.67530 71.85443 71.76486
# Shear Modulus (GPa) = 25.46189 32.18027 28.82108
#
# Velocity S-wave (km/s) = 3.49308 3.92698 3.71637
# Velocity P-wave (km/s) = 7.11452 7.41586 7.26675
#
# Compressibility (1/GPa) = 0.01395181
#
# Stress axis : x y z
#
# Youngs Moduli (GPa) = 72.73502 112.74432 114.34755
#
# Poissons Ratio (x) = 0.49562 0.46922
# Poissons Ratio (y) = 0.31974 0.02360
# Poissons Ratio (z) = 0.29846 0.02327
#
# Static dielectric constant tensor:
#      x y z
#    x 3.652750 0.000000 0.133920 
#    y 0.000000 3.935690 0.000000 
#    z 0.133920 0.000000 3.902150 
# 
# 
# High freq. dielectric constant tensor:
#      x y z
#    x 1.797000 0.000000 0.008000 
#    y 0.000000 1.836830 0.000000 
#    z 0.008000 0.000000 1.827010 
# 
# From -- ./inp_files/23323.got.cif
#   From: 2010.03.12/outbox.cif.g09.slc.cpg/sg8_12_cif.got.tgz:23323.got - 2010.03.31 10:45:26.
