data_PCOD8053235
_publ_section_title
;
Structure prediction by ZEFSAII (Michael W. Deem and Ramdas Pophale) SiO2 
 PCOD8053235
Probable space group: C M
;
_chemical_formula_sum "Si O2"
_cell_formula_units_Z 32
_cell_length_a 13.110940
_cell_length_b 13.747741
_cell_length_c 18.310057
_cell_angle_alpha 90.000000
_cell_angle_beta 28.553376
_cell_angle_gamma 90.000000
_cell_volume 1577.473572
_symmetry_space_group_name_H-M "C M"
_symmetry_group_IT_number 8
_symmetry_cell_setting 'monoclinic'
loop_
_space_group_symop_operation_xyz
x,y,z
x,-y,z
1/2+x,1/2+y,z
1/2+x,1/2-y,z
loop_
_atom_site_type_symbol
_atom_site_label
_atom_site_fract_x
_atom_site_fract_y
_atom_site_fract_z
Si Si1 0.685830 0.886051 0.949900
Si Si2 0.980764 0.886825 0.975698
Si Si3 0.057027 0.299140 0.173593
Si Si4 0.616641 0.733739 0.699231
Si Si5 0.656548 0.750672 0.513104
Si Si6 0.018327 0.607995 0.486727
Si Si7 0.197403 0.294789 0.794249
Si Si8 0.468749 0.392154 0.150692
O O1 0.591586 0.850983 0.929907
O O2 0.904580 0.830812 0.830814
O O3 0.728186 0.000000 0.919069
O O4 0.525356 0.861147 0.117951
O O5 0.757833 0.836899 0.093121
O O6 0.039799 0.874457 0.023142
O O7 0.983215 0.000000 0.949466
O O8 0.165499 0.823570 0.820546
O O9 0.080086 0.186142 0.134318
O O10 0.853937 0.310222 0.355110
O O11 0.672676 0.782738 0.587156
O O12 0.597253 0.816016 0.776364
O O13 0.821307 0.668358 0.583484
O O14 0.626146 0.852508 0.492477
O O15 0.448976 0.681050 0.634397
O O16 0.936788 0.500000 0.551736
O O17 0.211291 0.614254 0.307186
O O18 0.538224 0.500000 0.134097
#
# Coordination Sequence:
#
# PCOD8053235 Si02
#       8
#     4   4   4   4   4   4   4   4
#     4  11  22  37  59  86 117 155 200 249 300 351
#     4  11  21  35  61  92 116 148 196 244 292 346
#     4  11  20  36  60  88 121 153 196 251 293 348
#     4  10  19  36  58  83 115 155 196 240 295 347
#     4   9  21  35  55  85 118 158 188 238 298 346
#     4   9  17  32  56  84 113 146 191 239 286 341
#     4  10  21  38  56  85 122 155 194 240 296 351
#     4   9  19  35  56  85 118 152 191 239 294 348
#
# _framework density 20.285602000000001
#
# number of rings (size 3 to 8) (size 9 to 14) (size 15 to 20)
#    0.000    2.000    2.500    1.500    0.000    2.000 
#    0.000    6.875    0.000    0.750    0.000    0.000 
#    0.000    0.000    0.000    0.000    0.000    0.000 
#
# Total GULP energy -198211.442681 kJ/mol
# GULP energy per Si atom -12388.215168 kJ/mol
# Density = 2.023943 g / cm^3
# Si number density = 20.285602 Si / 1000 Ang^3
#
#
#
# Elastic Constant Matrix: (Units=GPa)
#
#
# Indices 1 2 3 4 5 6 
#
# 1 109.1674 19.7164 21.6683 -0.0034 18.7799 -0.0028
# 2 19.7164 55.6665 6.2629 -0.0262 -9.1238 -0.0021
# 3 21.6683 6.2629 75.2466 -0.0461 7.6250 -0.0068
# 4 -0.0034 -0.0262 -0.0461 18.8163 0.0003 -4.5622
# 5 18.7799 -9.1238 7.6250 0.0003 31.4101 0.0021
# 6 -0.0028 -0.0021 -0.0068 -4.5622 0.0021 24.7222
#
#
#
# Elastic Compliance Matrix: (Units=1/GPa)
#
#
# Indices 1 2 3 4 5 6 
#
# 1 0.011960 -0.005331 -0.002172 -0.000011 -0.008172 -0.000001
# 2 -0.005331 0.021593 -0.001251 0.000027 0.009764 0.000005
# 3 -0.002172 -0.001251 0.014276 0.000035 -0.002530 0.000010
# 4 -0.000011 0.000027 0.000035 0.055635 0.000004 0.010267
# 5 -0.008172 0.009764 -0.002530 0.000004 0.040173 -0.000003
# 6 -0.000001 0.000005 0.000010 0.010267 -0.000003 0.042344
#
#
# Mechanical properties :
#
#
# Convention : Reuss Voigt Hill
#
# Bulk Modulus (GPa) = 32.98199 37.26398 35.12298
# Shear Modulus (GPa) = 23.40846 27.81856 25.61351
#
# Velocity S-wave (km/s) = 3.40066 3.70718 3.55723
# Velocity P-wave (km/s) = 5.63147 6.06084 5.85010
#
# Compressibility (1/GPa) = 0.03031958
#
# Stress axis : x y z
#
# Youngs Moduli (GPa) = 83.61133 46.31035 70.04885
#
# Poissons Ratio (x) = 0.24689 0.15216
# Poissons Ratio (y) = 0.44575 0.08766
# Poissons Ratio (z) = 0.18163 0.05795
#
# Static dielectric constant tensor:
#      x y z
#    x 4.029150 0.000030 0.338050 
#    y 0.000030 3.528730 0.000080 
#    z 0.338050 0.000080 3.947690 
# 
# 
# High freq. dielectric constant tensor:
#      x y z
#    x 1.797450 0.000000 0.020790 
#    y 0.000000 1.760890 0.000000 
#    z 0.020790 0.000000 1.801530 
# 
# From -- ./inp_files/17124.got.cif
#   From: 2010.03.12/outbox.cif.g09.slc.cpg/sg8_9_cif.got.tgz:17124.got - 2010.03.31 10:45:26.
