data_PCOD8053092
_publ_section_title
;
Structure prediction by ZEFSAII (Michael W. Deem and Ramdas Pophale) SiO2 
 PCOD8053092
Probable space group: C M
;
_chemical_formula_sum "Si O2"
_cell_formula_units_Z 32
_cell_length_a 28.416782
_cell_length_b 9.302190
_cell_length_c 14.084578
_cell_angle_alpha 90.000000
_cell_angle_beta 29.200646
_cell_angle_gamma 90.000000
_cell_volume 1816.383759
_symmetry_space_group_name_H-M "C M"
_symmetry_group_IT_number 8
_symmetry_cell_setting 'monoclinic'
loop_
_space_group_symop_operation_xyz
x,y,z
x,-y,z
1/2+x,1/2+y,z
1/2+x,1/2-y,z
loop_
_atom_site_type_symbol
_atom_site_label
_atom_site_fract_x
_atom_site_fract_y
_atom_site_fract_z
Si Si1 0.272530 0.830638 0.319780
Si Si2 0.891397 0.659993 0.930054
Si Si3 0.990496 0.830916 0.609731
Si Si4 0.551140 0.668342 0.106513
Si Si5 0.435980 0.333535 0.494883
Si Si6 0.769457 0.332276 0.698467
Si Si7 0.102629 0.660718 0.551812
Si Si8 0.384371 0.167243 0.308947
O O1 0.172899 0.743872 0.499851
O O2 0.339119 0.781628 0.289456
O O3 0.252040 0.000000 0.361229
O O4 0.320617 0.783232 0.135850
O O5 0.860269 0.500000 0.950367
O O6 0.895455 0.768773 0.832745
O O7 0.998863 0.651665 0.786897
O O8 0.982412 0.792464 0.513630
O O9 0.086433 0.751218 0.481859
O O10 0.999236 0.000000 0.612653
O O11 0.544952 0.500000 0.096019
O O12 0.515027 0.706321 0.276081
O O13 0.483364 0.747073 0.149733
O O14 0.660259 0.724731 0.902020
O O15 0.408092 0.500000 0.539520
O O16 0.337245 0.246577 0.655058
O O17 0.774598 0.500000 0.712678
O O18 0.806212 0.297098 0.527926
O O19 0.141316 0.500000 0.460578
O O20 0.410458 0.000000 0.262166
#
# Coordination Sequence:
#
# PCOD8053092 Si02
#       8
#     4   4   4   4   4   4   4   4
#     4  10  19  34  53  73 101 136 169 204 250 298
#     4   8  18  34  49  69  99 132 166 206 248 294
#     4   9  17  33  53  72 100 134 167 209 252 290
#     4   9  18  34  52  73 101 131 163 201 244 296
#     4   9  18  33  52  73 100 131 165 201 245 297
#     4   9  18  33  52  75 102 129 162 202 245 294
#     4   9  19  34  50  72 101 131 170 208 243 293
#     4   9  19  33  51  75 102 130 162 203 247 292
#
# _framework density 17.617422000000001
#
# number of rings (size 3 to 8) (size 9 to 14) (size 15 to 20)
#    0.750    2.250    0.000    0.375    0.000    3.500 
#    2.250    0.000    0.000    0.000    0.000    0.000 
#    0.000    0.000    0.000    0.000    0.000    0.000 
#
# Total GULP energy -198305.932199 kJ/mol
# GULP energy per Si atom -12394.120762 kJ/mol
# Density = 1.757732 g / cm^3
# Si number density = 17.617422 Si / 1000 Ang^3
#
#
#
# Elastic Constant Matrix: (Units=GPa)
#
#
# Indices 1 2 3 4 5 6 
#
# 1 85.6561 42.1393 18.8118 0.0000 -7.2491 0.0000
# 2 42.1393 62.6254 24.3281 0.0000 -6.2039 0.0000
# 3 18.8118 24.3281 67.1701 0.0000 -14.3064 0.0000
# 4 0.0000 0.0000 0.0000 23.1012 0.0000 -6.0612
# 5 -7.2491 -6.2039 -14.3064 0.0000 25.3476 0.0000
# 6 0.0000 0.0000 0.0000 -6.0612 0.0000 32.5428
#
#
#
# Elastic Compliance Matrix: (Units=1/GPa)
#
#
# Indices 1 2 3 4 5 6 
#
# 1 0.017574 -0.011498 -0.000325 0.000000 0.002028 0.000000
# 2 -0.011498 0.026121 -0.006342 0.000000 -0.000474 0.000000
# 3 -0.000325 -0.006342 0.019238 0.000000 0.009213 0.000000
# 4 0.000000 0.000000 0.000000 0.045512 0.000000 0.008477
# 5 0.002028 -0.000474 0.009213 0.000000 0.045115 0.000000
# 6 0.000000 0.000000 0.000000 0.008477 0.000000 0.032308
#
#
# Mechanical properties :
#
#
# Convention : Reuss Voigt Hill
#
# Bulk Modulus (GPa) = 37.58961 42.88999 40.23980
# Shear Modulus (GPa) = 21.63886 24.87650 23.25768
#
# Velocity S-wave (km/s) = 3.50846 3.76179 3.63733
# Velocity P-wave (km/s) = 6.14779 6.57770 6.36638
#
# Compressibility (1/GPa) = 0.02660309
#
# Stress axis : x y z
#
# Youngs Moduli (GPa) = 56.90147 38.28300 51.98096
#
# Poissons Ratio (x) = 0.44018 0.01692
# Poissons Ratio (y) = 0.65425 0.32964
# Poissons Ratio (z) = 0.01852 0.24278
#
# Static dielectric constant tensor:
#      x y z
#    x 3.150210 0.000000 -0.002190 
#    y 0.000000 3.231790 0.000000 
#    z -0.002190 0.000000 3.174500 
# 
# 
# High freq. dielectric constant tensor:
#      x y z
#    x 1.670410 0.000000 -0.002300 
#    y 0.000000 1.681350 0.000000 
#    z -0.002300 0.000000 1.668970 
# 
# From -- ./inp_files/26409.got.cif
#   From: 2010.03.12/outbox.cif.g09.slc.cpg/sg8_14_cif.got.tgz:26409.got - 2010.03.31 10:45:26.
