data_PCOD8053024
_publ_section_title
;
Structure prediction by ZEFSAII (Michael W. Deem and Ramdas Pophale) SiO2 
 PCOD8053024
Probable space group: C M
;
_chemical_formula_sum "Si O2"
_cell_formula_units_Z 24
_cell_length_a 15.582914
_cell_length_b 8.663970
_cell_length_c 12.048443
_cell_angle_alpha 90.000000
_cell_angle_beta 50.243228
_cell_angle_gamma 90.000000
_cell_volume 1250.520597
_symmetry_space_group_name_H-M "C M"
_symmetry_group_IT_number 8
_symmetry_cell_setting 'monoclinic'
loop_
_space_group_symop_operation_xyz
x,y,z
x,-y,z
1/2+x,1/2+y,z
1/2+x,1/2-y,z
loop_
_atom_site_type_symbol
_atom_site_label
_atom_site_fract_x
_atom_site_fract_y
_atom_site_fract_z
Si Si1 0.010420 0.822408 0.912810
Si Si2 0.721790 0.830482 0.679982
Si Si3 0.937075 0.182950 0.383962
Si Si4 0.617823 0.817297 0.377870
Si Si5 0.033558 0.330861 0.677140
Si Si6 0.357662 0.819637 0.220355
O O1 0.143310 0.782741 0.819192
O O2 0.972870 0.783199 0.815995
O O3 0.987390 0.000000 0.958660
O O4 0.941010 0.713940 0.050695
O O5 0.843884 0.762585 0.551699
O O6 0.662432 0.849572 0.609032
O O7 0.730052 0.000000 0.730565
O O8 0.902912 0.231447 0.289684
O O9 0.053297 0.263884 0.320645
O O10 0.951021 0.000000 0.375734
O O11 0.540385 0.764944 0.546729
O O12 0.735998 0.734365 0.283946
O O13 0.636777 0.000000 0.362007
O O14 0.974743 0.500000 0.727918
O O15 0.355214 0.000000 0.248452
#
# Coordination Sequence:
#
# PCOD8053024 Si02
#       6
#     4   4   4   4   4   4
#     4  10  19  32  57  85 111 147 191 238 291 344
#     4   8  16  34  56  79 109 145 184 228 279 336
#     4  11  22  38  60  88 119 152 192 238 287 342
#     4  11  22  38  60  88 119 152 192 238 287 342
#     4   8  16  34  56  79 109 145 184 228 279 336
#     4  12  23  38  59  83 117 157 195 238 289 344
#
# _framework density 19.192005999999999
#
# number of rings (size 3 to 8) (size 9 to 14) (size 15 to 20)
#    1.000    1.000    1.667    3.500    0.000    4.000 
#    0.000    1.667    0.000    4.000    0.000    0.000 
#    0.000    0.000    0.000    0.000    0.000    0.000 
#
# Total GULP energy -148667.600071 kJ/mol
# GULP energy per Si atom -12388.966673 kJ/mol
# Density = 1.914832 g / cm^3
# Si number density = 19.192006 Si / 1000 Ang^3
#
#
#
# Elastic Constant Matrix: (Units=GPa)
#
#
# Indices 1 2 3 4 5 6 
#
# 1 79.0761 7.9502 24.6090 0.0000 -3.0894 0.0000
# 2 7.9502 68.8646 20.5704 0.0000 -3.4822 0.0000
# 3 24.6090 20.5704 89.3913 0.0000 -6.3333 0.0000
# 4 0.0000 0.0000 0.0000 31.7375 0.0000 -0.9918
# 5 -3.0894 -3.4822 -6.3333 0.0000 6.3057 0.0000
# 6 0.0000 0.0000 0.0000 -0.9918 0.0000 23.7786
#
#
#
# Elastic Compliance Matrix: (Units=1/GPa)
#
#
# Indices 1 2 3 4 5 6 
#
# 1 0.013901 -0.000399 -0.003518 0.000000 0.003056 0.000000
# 2 -0.000399 0.015777 -0.003141 0.000000 0.005362 0.000000
# 3 -0.003518 -0.003141 0.013601 0.000000 0.010202 0.000000
# 4 0.000000 0.000000 0.000000 0.031550 0.000000 0.001316
# 5 0.003056 0.005362 0.010202 0.000000 0.173292 0.000000
# 6 0.000000 0.000000 0.000000 0.001316 0.000000 0.042109
#
#
# Mechanical properties :
#
#
# Convention : Reuss Voigt Hill
#
# Bulk Modulus (GPa) = 34.29171 38.17679 36.23425
# Shear Modulus (GPa) = 15.92020 24.64453 20.28236
#
# Velocity S-wave (km/s) = 2.88327 3.58733 3.25439
# Velocity P-wave (km/s) = 5.38431 6.09047 5.74824
#
# Compressibility (1/GPa) = 0.02916157
#
# Stress axis : x y z
#
# Youngs Moduli (GPa) = 71.93977 63.38489 73.52459
#
# Poissons Ratio (x) = 0.02531 0.25868
# Poissons Ratio (y) = 0.02872 0.23091
# Poissons Ratio (z) = 0.25311 0.19907
#
# Static dielectric constant tensor:
#      x y z
#    x 3.291750 0.000000 -0.029300 
#    y 0.000000 3.391230 0.000000 
#    z -0.029300 0.000000 3.380110 
# 
# 
# High freq. dielectric constant tensor:
#      x y z
#    x 1.719740 0.000000 -0.002250 
#    y 0.000000 1.749600 0.000000 
#    z -0.002250 0.000000 1.737470 
# 
# From -- ./inp_files/22694.got.cif
#   From: 2010.03.12/outbox.cif.g09.slc.cpg/sg8_12_cif.got.tgz:22694.got - 2010.03.31 10:45:26.
