data_PCOD8053551
_publ_section_title
;
Structure prediction by ZEFSAII (Michael W. Deem and Ramdas Pophale) SiO2 
 PCOD8053551
Probable space group: C M
;
_chemical_formula_sum "Si O2"
_cell_formula_units_Z 32
_cell_length_a 15.266704
_cell_length_b 8.857608
_cell_length_c 22.691326
_cell_angle_alpha 90.000000
_cell_angle_beta 148.449201
_cell_angle_gamma 90.000000
_cell_volume 1605.589200
_symmetry_space_group_name_H-M "C M"
_symmetry_group_IT_number 8
_symmetry_cell_setting 'monoclinic'
loop_
_space_group_symop_operation_xyz
x,y,z
x,-y,z
1/2+x,1/2+y,z
1/2+x,1/2-y,z
loop_
_atom_site_type_symbol
_atom_site_label
_atom_site_fract_x
_atom_site_fract_y
_atom_site_fract_z
Si Si1 0.299680 0.676394 0.316520
Si Si2 0.147031 0.673909 0.921444
Si Si3 0.456343 0.322504 0.915869
Si Si4 0.956232 0.826928 0.716915
Si Si5 0.597469 0.178218 0.556628
Si Si6 0.974814 0.172651 0.175946
Si Si7 0.239255 0.323609 0.147786
Si Si8 0.619260 0.327094 0.692748
O O1 0.328165 0.500000 0.340913
O O2 0.456681 0.762397 0.432557
O O3 0.290463 0.722543 0.242796
O O4 0.131986 0.720555 0.255123
O O5 0.097317 0.500000 0.904241
O O6 0.039183 0.781663 0.901301
O O7 0.102558 0.724725 0.829902
O O8 0.343486 0.696470 0.047214
O O9 0.427890 0.500000 0.904084
O O10 0.279449 0.240229 0.817610
O O11 0.572132 0.267990 0.036035
O O12 0.776236 0.765787 0.634709
O O13 0.967905 0.812106 0.652886
O O14 0.982928 0.000000 0.751751
O O15 0.566769 0.237754 0.604616
O O16 0.588224 0.000000 0.552821
O O17 0.888921 0.218975 0.188683
O O18 0.036893 0.000000 0.213862
O O19 0.196957 0.500000 0.117522
O O20 0.653416 0.500000 0.695001
#
# Coordination Sequence:
#
# PCOD8053551 Si02
#       8
#     4   4   4   4   4   4   4   4
#     4  11  24  41  64  90 119 161 208 253 304 364
#     4  10  20  36  61  90 126 164 199 248 309 366
#     4  11  21  35  59  91 127 163 203 250 306 364
#     4  10  23  40  61  90 123 159 202 252 307 366
#     4  11  24  44  64  87 122 163 206 256 306 364
#     4   9  20  39  60  88 123 159 200 247 302 362
#     4   9  21  41  61  87 122 162 203 249 307 365
#     4  11  23  40  62  91 124 161 203 253 309 365
#
# _framework density 19.93038
#
# number of rings (size 3 to 8) (size 9 to 14) (size 15 to 20)
#    0.000    1.750    1.250    3.375    1.750    6.000 
#    0.000    2.500    0.000    0.000    0.000    0.000 
#    0.000    0.000    0.000    0.000    0.000    0.000 
#
# Total GULP energy -198453.095607 kJ/mol
# GULP energy per Si atom -12403.318475 kJ/mol
# Density = 1.988502 g / cm^3
# Si number density = 19.930380 Si / 1000 Ang^3
#
#
#
# Elastic Constant Matrix: (Units=GPa)
#
#
# Indices 1 2 3 4 5 6 
#
# 1 93.2356 29.7697 47.8837 0.0002 -17.2200 0.0000
# 2 29.7697 76.8244 45.8094 0.0002 -8.3193 0.0000
# 3 47.8837 45.8094 109.6686 0.0013 -17.4782 0.0001
# 4 0.0002 0.0002 0.0013 37.1162 0.0000 -1.9858
# 5 -17.2200 -8.3193 -17.4782 0.0000 25.0453 0.0000
# 6 0.0000 0.0000 0.0001 -1.9858 0.0000 29.1465
#
#
#
# Elastic Compliance Matrix: (Units=1/GPa)
#
#
# Indices 1 2 3 4 5 6 
#
# 1 0.014995 -0.002427 -0.004522 0.000000 0.006348 0.000000
# 2 -0.002427 0.017741 -0.006388 0.000000 -0.000234 0.000000
# 3 -0.004522 -0.006388 0.014545 0.000000 0.004920 0.000000
# 4 0.000000 0.000000 0.000000 0.027041 0.000000 0.001842
# 5 0.006348 -0.000234 0.004920 0.000000 0.047648 0.000000
# 6 0.000000 0.000000 0.000000 0.001842 0.000000 0.034435
#
#
# Mechanical properties :
#
#
# Convention : Reuss Voigt Hill
#
# Bulk Modulus (GPa) = 48.52567 58.51712 53.52140
# Shear Modulus (GPa) = 26.32298 28.67932 27.50115
#
# Velocity S-wave (km/s) = 3.63815 3.79750 3.71868
# Velocity P-wave (km/s) = 6.48449 6.97513 6.73428
#
# Compressibility (1/GPa) = 0.02060765
#
# Stress axis : x y z
#
# Youngs Moduli (GPa) = 66.68813 56.36653 68.75182
#
# Poissons Ratio (x) = 0.13680 0.31087
# Poissons Ratio (y) = 0.16185 0.43919
# Poissons Ratio (z) = 0.30154 0.36008
#
# Static dielectric constant tensor:
#      x y z
#    x 3.647360 0.000000 -0.019370 
#    y 0.000000 3.605050 0.000000 
#    z -0.019370 0.000000 3.614550 
# 
# 
# High freq. dielectric constant tensor:
#      x y z
#    x 1.781580 0.000000 -0.003560 
#    y 0.000000 1.781590 0.000000 
#    z -0.003560 0.000000 1.772460 
# 
# From -- ./inp_files/24796.got.cif
#   From: 2010.03.12/outbox.cif.g09.slc.cpg/sg8_13_cif.got.tgz:24796.got - 2010.03.31 10:45:26.
