data_PCOD8053567
_publ_section_title
;
Structure prediction by ZEFSAII (Michael W. Deem and Ramdas Pophale) SiO2 
 PCOD8053567
Probable space group: C M
;
_chemical_formula_sum "Si O2"
_cell_formula_units_Z 32
_cell_length_a 20.398908
_cell_length_b 8.638536
_cell_length_c 12.081410
_cell_angle_alpha 90.000000
_cell_angle_beta 51.947239
_cell_angle_gamma 90.000000
_cell_volume 1676.424829
_symmetry_space_group_name_H-M "C M"
_symmetry_group_IT_number 8
_symmetry_cell_setting 'monoclinic'
loop_
_space_group_symop_operation_xyz
x,y,z
x,-y,z
1/2+x,1/2+y,z
1/2+x,1/2-y,z
loop_
_atom_site_type_symbol
_atom_site_label
_atom_site_fract_x
_atom_site_fract_y
_atom_site_fract_z
Si Si1 0.284960 0.820887 0.265830
Si Si2 0.067721 0.821800 0.692634
Si Si3 0.608049 0.179210 0.427383
Si Si4 0.529764 0.321124 0.296907
Si Si5 0.092095 0.820510 0.994990
Si Si6 0.438959 0.322322 0.006513
Si Si7 0.853745 0.680242 0.434732
Si Si8 0.203676 0.319917 0.705538
O O1 0.204468 0.722851 0.318310
O O2 0.314707 0.775084 0.357201
O O3 0.261190 0.000000 0.282275
O O4 0.357191 0.782500 0.102523
O O5 0.060768 0.774001 0.572445
O O6 0.137400 0.719080 0.679243
O O7 0.978133 0.797346 0.843794
O O8 0.096114 0.000000 0.673253
O O9 0.562710 0.214223 0.360007
O O10 0.599170 0.000000 0.463895
O O11 0.535677 0.500000 0.325482
O O12 0.435334 0.281671 0.366647
O O13 0.587746 0.288315 0.129877
O O14 0.168095 0.724363 0.863448
O O15 0.005678 0.767219 0.028723
O O16 0.106792 0.000000 0.951204
O O17 0.413610 0.500000 0.052696
O O18 0.876634 0.500000 0.417978
O O19 0.788045 0.724253 0.598176
O O20 0.224809 0.500000 0.679611
#
# Coordination Sequence:
#
# PCOD8053567 Si02
#       8
#     4   4   4   4   4   4   4   4
#     4  11  22  36  59  88 119 154 195 243 290 343
#     4  10  20  37  58  84 118 155 195 240 293 348
#     4  12  25  40  60  86 120 158 198 242 294 353
#     4  11  23  41  63  86 119 158 197 240 295 355
#     4   9  19  36  58  84 117 155 191 235 292 351
#     4   9  18  34  58  87 117 148 189 242 291 341
#     4  11  22  37  59  88 121 154 196 246 291 341
#     4  11  21  33  57  89 119 152 193 244 294 342
#
# _framework density 19.088241
#
# number of rings (size 3 to 8) (size 9 to 14) (size 15 to 20)
#    0.000    1.500    2.500    4.500    0.000    4.500 
#    0.000    1.250    0.000    6.000    0.000    0.000 
#    0.000    0.000    0.000    0.000    0.000    0.000 
#
# Total GULP energy -198479.554956 kJ/mol
# GULP energy per Si atom -12404.972185 kJ/mol
# Density = 1.904479 g / cm^3
# Si number density = 19.088241 Si / 1000 Ang^3
#
#
#
# Elastic Constant Matrix: (Units=GPa)
#
#
# Indices 1 2 3 4 5 6 
#
# 1 48.3553 16.9467 23.3035 0.0000 2.7736 0.0000
# 2 16.9467 58.4951 32.3442 0.0000 -0.9629 0.0000
# 3 23.3035 32.3442 114.1135 0.0000 -2.2121 0.0000
# 4 0.0000 0.0000 0.0000 33.5807 0.0000 -2.1737
# 5 2.7736 -0.9629 -2.2121 0.0000 26.4579 0.0000
# 6 0.0000 0.0000 0.0000 -2.1737 0.0000 29.3670
#
#
#
# Elastic Compliance Matrix: (Units=1/GPa)
#
#
# Indices 1 2 3 4 5 6 
#
# 1 0.024380 -0.005132 -0.003583 0.000000 -0.003042 0.000000
# 2 -0.005132 0.021355 -0.004987 0.000000 0.000898 0.000000
# 3 -0.003583 -0.004987 0.010930 0.000000 0.001108 0.000000
# 4 0.000000 0.000000 0.000000 0.029922 0.000000 0.002215
# 5 -0.003042 0.000898 0.001108 0.000000 0.038240 0.000000
# 6 0.000000 0.000000 0.000000 0.002215 0.000000 0.034216
#
#
# Mechanical properties :
#
#
# Convention : Reuss Voigt Hill
#
# Bulk Modulus (GPa) = 34.17642 40.68362 37.43002
# Shear Modulus (GPa) = 25.48404 27.77244 26.62824
#
# Velocity S-wave (km/s) = 3.65782 3.81852 3.73903
# Velocity P-wave (km/s) = 5.98187 6.38758 6.18805
#
# Compressibility (1/GPa) = 0.02925994
#
# Stress axis : x y z
#
# Youngs Moduli (GPa) = 41.01707 46.82808 91.49132
#
# Poissons Ratio (x) = 0.24032 0.32782
# Poissons Ratio (y) = 0.21050 0.45630
# Poissons Ratio (z) = 0.14697 0.23355
#
# Static dielectric constant tensor:
#      x y z
#    x 3.178120 0.000000 -0.008960 
#    y 0.000000 3.456480 0.000000 
#    z -0.008960 0.000000 3.699360 
# 
# 
# High freq. dielectric constant tensor:
#      x y z
#    x 1.708190 0.000000 -0.004950 
#    y 0.000000 1.749110 0.000000 
#    z -0.004950 0.000000 1.758120 
# 
# From -- ./inp_files/23841.got.cif
#   From: 2010.03.12/outbox.cif.g09.slc.cpg/sg8_12_cif.got.tgz:23841.got - 2010.03.31 10:45:26.
