data_PCOD8053112
_publ_section_title
;
Structure prediction by ZEFSAII (Michael W. Deem and Ramdas Pophale) SiO2 
 PCOD8053112
Probable space group: C M
;
_chemical_formula_sum "Si O2"
_cell_formula_units_Z 32
_cell_length_a 17.978558
_cell_length_b 22.926455
_cell_length_c 5.195454
_cell_angle_alpha 90.000000
_cell_angle_beta 125.867310
_cell_angle_gamma 90.000000
_cell_volume 1735.409100
_symmetry_space_group_name_H-M "C M"
_symmetry_group_IT_number 8
_symmetry_cell_setting 'monoclinic'
loop_
_space_group_symop_operation_xyz
x,y,z
x,-y,z
1/2+x,1/2+y,z
1/2+x,1/2-y,z
loop_
_atom_site_type_symbol
_atom_site_label
_atom_site_fract_x
_atom_site_fract_y
_atom_site_fract_z
Si Si1 0.658510 0.597817 0.506780
Si Si2 0.364702 0.067456 0.879943
Si Si3 0.837738 0.734998 0.594680
Si Si4 0.476578 0.316613 0.633712
Si Si5 0.409926 0.132781 0.480276
Si Si6 0.635083 0.724245 0.307864
Si Si7 0.486266 0.218392 0.291762
Si Si8 0.554541 0.435228 0.791450
O O1 0.758306 0.579131 0.609762
O O2 0.651203 0.667728 0.520147
O O3 0.634023 0.571569 0.736460
O O4 0.591697 0.572231 0.154757
O O5 0.426624 0.099156 0.784026
O O6 0.389132 0.000000 0.909402
O O7 0.383355 0.086974 0.208879
O O8 0.834596 0.685131 0.364851
O O9 0.733685 0.751810 0.441839
O O10 0.891700 0.794756 0.636908
O O11 0.896800 0.702046 0.938475
O O12 0.466608 0.284748 0.341506
O O13 0.474870 0.386486 0.587850
O O14 0.576051 0.297136 0.944624
O O15 0.496958 0.170797 0.545452
O O16 0.582008 0.778223 0.333723
O O17 0.511609 0.500000 0.679945
#
# Coordination Sequence:
#
# PCOD8053112 Si02
#       8
#     4   4   4   4   4   4   4   4
#     4  11  21  34  49  79 110 148 189 217 262 340
#     4  12  23  35  53  79 113 154 189 224 272 333
#     4  10  20  36  55  80 114 148 185 235 282 332
#     4   9  21  32  52  80 112 144 190 227 273 335
#     4  11  21  36  53  76 110 146 189 229 271 321
#     4  10  19  34  56  81 113 151 179 229 288 330
#     4  10  19  36  56  79 112 148 186 237 279 334
#     4  11  21  35  51  74 111 151 184 224 269 323
#
# _framework density 18.439457999999998
#
# number of rings (size 3 to 8) (size 9 to 14) (size 15 to 20)
#    0.000    1.500    3.750    2.250    1.750    2.000 
#    0.000    0.000    0.000    0.000    0.000    1.750 
#    0.000    0.000    0.000    0.000    0.000    0.000 
#
# Total GULP energy -198226.445971 kJ/mol
# GULP energy per Si atom -12389.152873 kJ/mol
# Density = 1.839749 g / cm^3
# Si number density = 18.439458 Si / 1000 Ang^3
#
#
#
# Elastic Constant Matrix: (Units=GPa)
#
#
# Indices 1 2 3 4 5 6 
#
# 1 107.1475 44.5739 41.0741 0.0000 1.0170 0.0000
# 2 44.5739 123.2047 30.5999 0.0000 1.1068 0.0000
# 3 41.0741 30.5999 50.4092 0.0000 -3.2007 0.0000
# 4 0.0000 0.0000 0.0000 23.3908 0.0000 -7.0519
# 5 1.0170 1.1068 -3.2007 0.0000 31.8782 0.0000
# 6 0.0000 0.0000 0.0000 -7.0519 0.0000 24.5037
#
#
#
# Elastic Compliance Matrix: (Units=1/GPa)
#
#
# Indices 1 2 3 4 5 6 
#
# 1 0.014348 -0.002653 -0.010168 0.000000 -0.001387 0.000000
# 2 -0.002653 0.010075 -0.003997 0.000000 -0.000666 0.000000
# 3 -0.010168 -0.003997 0.030775 0.000000 0.003553 0.000000
# 4 0.000000 0.000000 0.000000 0.046813 0.000000 0.013472
# 5 -0.001387 -0.000666 0.003553 0.000000 0.031793 0.000000
# 6 0.000000 0.000000 0.000000 0.013472 0.000000 0.044687
#
#
# Mechanical properties :
#
#
# Convention : Reuss Voigt Hill
#
# Bulk Modulus (GPa) = 46.37851 57.02859 51.70355
# Shear Modulus (GPa) = 22.79835 26.92212 24.86023
#
# Velocity S-wave (km/s) = 3.52005 3.82518 3.67578
# Velocity P-wave (km/s) = 6.45967 7.10661 6.79085
#
# Compressibility (1/GPa) = 0.02156171
#
# Stress axis : x y z
#
# Youngs Moduli (GPa) = 69.69790 99.25629 32.49438
#
# Poissons Ratio (x) = 0.26331 0.33041
# Poissons Ratio (y) = 0.18490 0.12986
# Poissons Ratio (z) = 0.70871 0.39668
#
# Static dielectric constant tensor:
#      x y z
#    x 3.459740 0.000000 -0.280600 
#    y 0.000000 3.562780 0.000000 
#    z -0.280600 0.000000 3.268400 
# 
# 
# High freq. dielectric constant tensor:
#      x y z
#    x 1.707420 0.000000 -0.039540 
#    y 0.000000 1.710060 0.000000 
#    z -0.039540 0.000000 1.689120 
# 
# From -- ./inp_files/5152.got.cif
#   From: 2010.03.12/outbox.cif.g09.slc.cpg/sg8_3_cif.got.tgz:5152.got - 2010.03.31 10:45:26.
