data_PCOD8053578
_publ_section_title
;
Structure prediction by ZEFSAII (Michael W. Deem and Ramdas Pophale) SiO2 
 PCOD8053578
Probable space group: C M
;
_chemical_formula_sum "Si O2"
_cell_formula_units_Z 32
_cell_length_a 15.366715
_cell_length_b 8.903521
_cell_length_c 22.646609
_cell_angle_alpha 90.000000
_cell_angle_beta 148.169522
_cell_angle_gamma 90.000000
_cell_volume 1634.152437
_symmetry_space_group_name_H-M "C M"
_symmetry_group_IT_number 8
_symmetry_cell_setting 'monoclinic'
loop_
_space_group_symop_operation_xyz
x,y,z
x,-y,z
1/2+x,1/2+y,z
1/2+x,1/2-y,z
loop_
_atom_site_type_symbol
_atom_site_label
_atom_site_fract_x
_atom_site_fract_y
_atom_site_fract_z
Si Si1 0.321350 0.677111 0.323070
Si Si2 0.176836 0.676212 0.926956
Si Si3 0.502264 0.323072 0.934656
Si Si4 0.970169 0.828718 0.714480
Si Si5 0.645833 0.322320 0.573991
Si Si6 0.996882 0.173731 0.181177
Si Si7 0.275203 0.323329 0.162895
Si Si8 0.678476 0.327959 0.726714
O O1 0.319086 0.500000 0.326273
O O2 0.483298 0.743279 0.448310
O O3 0.327599 0.727939 0.258408
O O4 0.160606 0.733240 0.264476
O O5 0.147590 0.500000 0.901906
O O6 0.054187 0.734124 0.906330
O O7 0.129381 0.761703 0.840019
O O8 0.365134 0.711407 0.053652
O O9 0.523528 0.500000 0.938533
O O10 0.312450 0.279316 0.835282
O O11 0.610158 0.268582 0.052369
O O12 0.805134 0.738891 0.632539
O O13 0.010735 0.815957 0.668241
O O14 0.944867 0.000000 0.719823
O O15 0.650555 0.500000 0.571621
O O16 0.640875 0.270006 0.639093
O O17 0.920502 0.218970 0.200715
O O18 0.044086 0.000000 0.207467
O O19 0.235470 0.500000 0.135663
O O20 0.742429 0.500000 0.762863
#
# Coordination Sequence:
#
# PCOD8053578 Si02
#       8
#     4   4   4   4   4   4   4   4
#     4  10  22  39  62  87 113 155 207 243 286 352
#     4  10  20  37  59  84 122 160 189 238 307 356
#     4  11  21  34  58  90 120 151 199 244 288 354
#     4  11  23  37  58  89 117 153 202 247 293 351
#     4  10  22  42  62  82 117 162 199 242 299 353
#     4   9  20  37  57  83 116 154 190 235 301 352
#     4   9  20  39  58  82 119 158 192 238 301 353
#     4  10  22  39  58  83 120 159 192 239 305 351
#
# _framework density 19.582017
#
# number of rings (size 3 to 8) (size 9 to 14) (size 15 to 20)
#    0.000    2.000    1.250    2.625    1.750    5.500 
#    0.000    0.000    0.000    0.000    0.000    0.000 
#    0.000    0.000    0.000    0.000    0.000    0.000 
#
# Total GULP energy -198426.533348 kJ/mol
# GULP energy per Si atom -12401.658334 kJ/mol
# Density = 1.953745 g / cm^3
# Si number density = 19.582017 Si / 1000 Ang^3
#
#
#
# Elastic Constant Matrix: (Units=GPa)
#
#
# Indices 1 2 3 4 5 6 
#
# 1 110.4733 16.5424 67.7189 -0.0001 -0.4913 0.0000
# 2 16.5424 21.7660 26.5172 0.0001 -2.5981 0.0000
# 3 67.7189 26.5172 139.5938 0.0003 -3.6197 0.0001
# 4 -0.0001 0.0001 0.0003 25.7877 0.0000 8.3621
# 5 -0.4913 -2.5981 -3.6197 0.0000 24.3634 0.0000
# 6 0.0000 0.0000 0.0001 8.3621 0.0000 27.3752
#
#
#
# Elastic Compliance Matrix: (Units=1/GPa)
#
#
# Indices 1 2 3 4 5 6 
#
# 1 0.013039 -0.002971 -0.005784 0.000000 -0.000913 0.000000
# 2 -0.002971 0.060997 -0.010017 0.000000 0.004957 0.000000
# 3 -0.005784 -0.010017 0.011888 0.000000 0.000581 0.000000
# 4 0.000000 0.000000 0.000000 0.043041 0.000000 -0.013147
# 5 -0.000913 0.004957 0.000581 0.000000 0.041642 0.000000
# 6 0.000000 0.000000 0.000000 -0.013147 0.000000 0.040545
#
#
# Mechanical properties :
#
#
# Convention : Reuss Voigt Hill
#
# Bulk Modulus (GPa) = 20.67081 54.82112 37.74596
# Shear Modulus (GPa) = 18.88053 26.24223 22.56138
#
# Velocity S-wave (km/s) = 3.10849 3.66473 3.39801
# Velocity P-wave (km/s) = 4.84381 6.77964 5.89177
#
# Compressibility (1/GPa) = 0.04837740
#
# Stress axis : x y z
#
# Youngs Moduli (GPa) = 76.69497 16.39433 84.12095
#
# Poissons Ratio (x) = 0.04872 0.48659
# Poissons Ratio (y) = 0.22790 0.84263
# Poissons Ratio (z) = 0.44364 0.16422
#
# Static dielectric constant tensor:
#      x y z
#    x 3.568020 0.000000 -0.158970 
#    y 0.000000 3.453560 0.000000 
#    z -0.158970 0.000000 3.713640 
# 
# 
# High freq. dielectric constant tensor:
#      x y z
#    x 1.768130 0.000000 -0.001680 
#    y 0.000000 1.756210 0.000000 
#    z -0.001680 0.000000 1.758010 
# 
# From -- ./inp_files/24813.got.cif
#   From: 2010.03.12/outbox.cif.g09.slc.cpg/sg8_13_cif.got.tgz:24813.got - 2010.03.31 10:45:26.
