data_PCOD8053708
_publ_section_title
;
Structure prediction by ZEFSAII (Michael W. Deem and Ramdas Pophale) SiO2 
 PCOD8053708
Probable space group: C M
;
_chemical_formula_sum "Si O2"
_cell_formula_units_Z 24
_cell_length_a 9.650475
_cell_length_b 14.296257
_cell_length_c 16.849888
_cell_angle_alpha 90.000000
_cell_angle_beta 30.286888
_cell_angle_gamma 90.000000
_cell_volume 1172.419085
_symmetry_space_group_name_H-M "C M"
_symmetry_group_IT_number 8
_symmetry_cell_setting 'monoclinic'
loop_
_space_group_symop_operation_xyz
x,y,z
x,-y,z
1/2+x,1/2+y,z
1/2+x,1/2-y,z
loop_
_atom_site_type_symbol
_atom_site_label
_atom_site_fract_x
_atom_site_fract_y
_atom_site_fract_z
Si Si1 0.804181 0.000000 0.256590
Si Si2 0.944024 0.309251 0.110014
Si Si3 0.006293 0.297594 0.588598
Si Si4 0.479164 0.693305 0.939505
Si Si5 0.513994 0.805355 0.405445
Si Si6 0.134701 0.500000 0.587247
Si Si7 0.638651 0.500000 0.934728
Si Si8 0.146875 0.000000 0.248612
O O1 0.604290 0.911504 0.342107
O O2 0.936429 0.000000 0.278386
O O3 0.058043 0.000000 0.067538
O O4 0.777005 0.260074 0.262737
O O5 0.848999 0.414018 0.145310
O O6 0.262661 0.305262 0.974966
O O7 0.880138 0.257958 0.059562
O O8 0.267395 0.230158 0.471484
O O9 0.910984 0.289608 0.545361
O O10 0.057013 0.406996 0.577897
O O11 0.759717 0.263299 0.766454
O O12 0.507248 0.588490 0.956941
O O13 0.469307 0.500000 0.419561
O O14 0.973951 0.500000 0.752387
#
# Coordination Sequence:
#
# PCOD8053708 Si02
#       8
#     2   4   4   4   4   2   2   2
#     4  12  22  40  65  98 133 165 219 273 320 375
#     4  12  24  41  67  96 129 168 216 268 320 380
#     4  11  23  42  66  92 130 170 213 260 324 384
#     4  11  24  43  64  97 131 169 216 264 321 385
#     4  12  22  40  65  95 124 173 213 265 318 380
#     4  10  20  42  62  91 127 175 200 260 323 384
#     4  10  23  38  66  93 132 170 210 261 324 376
#     4  12  23  44  65  96 130 172 215 270 323 389
#
# _framework density 20.470496000000001
#
# number of rings (size 3 to 8) (size 9 to 14) (size 15 to 20)
#    0.000    0.667    5.000    3.500    0.000    0.000 
#    0.000    3.333    0.000    0.000    0.000    0.000 
#    0.000    0.000    0.000    0.000    0.000    0.000 
#
# Total GULP energy -148779.162030 kJ/mol
# GULP energy per Si atom -12398.263502 kJ/mol
# Density = 2.042390 g / cm^3
# Si number density = 20.470496 Si / 1000 Ang^3
#
#
#
# Elastic Constant Matrix: (Units=GPa)
#
#
# Indices 1 2 3 4 5 6 
#
# 1 77.4542 36.1686 42.6548 -0.0441 1.7448 -0.0211
# 2 36.1686 143.8847 45.0332 0.0859 -5.4091 0.0579
# 3 42.6548 45.0332 123.8689 0.2032 2.8663 0.1006
# 4 -0.0441 0.0859 0.2032 29.9120 0.1454 0.1234
# 5 1.7448 -5.4091 2.8663 0.1454 42.5362 -0.0173
# 6 -0.0211 0.0579 0.1006 0.1234 -0.0173 18.6452
#
#
#
# Elastic Compliance Matrix: (Units=1/GPa)
#
#
# Indices 1 2 3 4 5 6 
#
# 1 0.016852 -0.002767 -0.004781 0.000069 -0.000721 0.000052
# 2 -0.002767 0.008357 -0.002116 -0.000020 0.001319 -0.000016
# 3 -0.004781 -0.002116 0.010507 -0.000068 -0.000781 -0.000056
# 4 0.000069 -0.000020 -0.000068 0.033434 -0.000115 -0.000221
# 5 -0.000721 0.001319 -0.000781 -0.000115 0.023760 0.000022
# 6 0.000052 -0.000016 -0.000056 -0.000221 0.000022 0.053635
#
#
# Mechanical properties :
#
#
# Convention : Reuss Voigt Hill
#
# Bulk Modulus (GPa) = 61.01676 65.88012 63.44844
# Shear Modulus (GPa) = 29.18264 32.97543 31.07904
#
# Velocity S-wave (km/s) = 3.77980 4.01793 3.90068
# Velocity P-wave (km/s) = 6.99436 7.33333 7.16585
#
# Compressibility (1/GPa) = 0.01638894
#
# Stress axis : x y z
#
# Youngs Moduli (GPa) = 59.34025 119.65382 95.17675
#
# Poissons Ratio (x) = 0.33109 0.45500
# Poissons Ratio (y) = 0.16420 0.20140
# Poissons Ratio (z) = 0.28368 0.25319
#
# Static dielectric constant tensor:
#      x y z
#    x 3.461050 -0.000050 0.197970 
#    y -0.000050 3.770450 0.000290 
#    z 0.197970 0.000290 4.057120 
# 
# 
# High freq. dielectric constant tensor:
#      x y z
#    x 1.779300 0.000000 0.014610 
#    y 0.000000 1.813100 0.000010 
#    z 0.014610 0.000010 1.819380 
# 
# From -- ./inp_files/7857.got.cif
#   From: 2010.03.12/outbox.cif.g09.slc.cpg/sg8_4_cif.got.tgz:7857.got - 2010.03.31 10:45:26.
