data_PCOD8053857
_publ_section_title
;
Structure prediction by ZEFSAII (Michael W. Deem and Ramdas Pophale) SiO2 
 PCOD8053857
Probable space group: C M
;
_chemical_formula_sum "Si O2"
_cell_formula_units_Z 18
_cell_length_a 8.739952
_cell_length_b 15.340243
_cell_length_c 8.853441
_cell_angle_alpha 90.000000
_cell_angle_beta 48.789199
_cell_angle_gamma 90.000000
_cell_volume 892.974569
_symmetry_space_group_name_H-M "C M"
_symmetry_group_IT_number 8
_symmetry_cell_setting 'monoclinic'
loop_
_space_group_symop_operation_xyz
x,y,z
x,-y,z
1/2+x,1/2+y,z
1/2+x,1/2-y,z
loop_
_atom_site_type_symbol
_atom_site_label
_atom_site_fract_x
_atom_site_fract_y
_atom_site_fract_z
Si Si1 0.502321 0.000000 0.806381
Si Si2 0.913512 0.661634 0.668727
Si Si3 0.978202 0.836858 0.808852
Si Si4 0.935693 0.000000 0.625378
Si Si5 0.169054 0.597840 0.238052
Si Si6 0.381906 0.000000 0.229625
O O1 0.403841 0.083803 0.793833
O O2 0.747484 0.000000 0.631314
O O3 0.445013 0.000000 0.017044
O O4 0.931262 0.750121 0.748134
O O5 0.712076 0.660583 0.700203
O O6 0.103160 0.648273 0.432311
O O7 0.918353 0.916787 0.742805
O O8 0.841572 0.842908 0.048644
O O9 0.139446 0.000000 0.395291
O O10 0.251909 0.500000 0.224727
O O11 0.974634 0.586011 0.251873
#
# Coordination Sequence:
#
# PCOD8053857 Si02
#       6
#     2   4   4   2   4   2
#     4  12  24  42  68 104 132 180 228 280 330 408
#     4  12  27  43  70 102 138 175 232 277 336 398
#     4  12  24  42  72  99 136 178 224 281 331 399
#     4  12  21  43  69  97 136 179 218 278 337 394
#     4  10  21  44  72  95 134 183 221 274 338 404
#     4  10  21  39  73  95 134 181 222 268 345 404
#
# _framework density 20.157349
#
# number of rings (size 3 to 8) (size 9 to 14) (size 15 to 20)
#    0.667    0.000    6.667    2.000    0.000    5.333 
#    0.000    0.000    0.000    0.000    0.000    0.000 
#    0.000    0.000    0.000    0.000    0.000    0.000 
#
# Total GULP energy -111615.873522 kJ/mol
# GULP energy per Si atom -12401.763725 kJ/mol
# Density = 2.011147 g / cm^3
# Si number density = 20.157349 Si / 1000 Ang^3
#
#
#
# Elastic Constant Matrix: (Units=GPa)
#
#
# Indices 1 2 3 4 5 6 
#
# 1 63.2050 30.0519 -6.9699 0.0000 0.2618 0.0000
# 2 30.0519 158.3803 41.6656 0.0000 14.6877 0.0000
# 3 -6.9699 41.6656 130.2543 0.0000 5.6808 0.0000
# 4 0.0000 0.0000 0.0000 29.7290 0.0000 -5.0740
# 5 0.2618 14.6877 5.6808 0.0000 30.7970 0.0000
# 6 0.0000 0.0000 0.0000 -5.0740 0.0000 -8.0869
#
#
#
# Elastic Compliance Matrix: (Units=1/GPa)
#
#
# Indices 1 2 3 4 5 6 
#
# 1 0.018028 -0.004137 0.002227 0.000000 0.001409 0.000000
# 2 -0.004137 0.008111 -0.002670 0.000000 -0.003341 0.000000
# 3 0.002227 -0.002670 0.008666 0.000000 -0.000344 0.000000
# 4 0.000000 0.000000 0.000000 0.030383 0.000000 -0.019064
# 5 0.001409 -0.003341 -0.000344 0.000000 0.034115 0.000000
# 6 0.000000 0.000000 0.000000 -0.019064 0.000000 -0.111695
#
#
# Mechanical properties :
#
#
# Convention : Reuss Voigt Hill
#
# Bulk Modulus (GPa) = 38.99634 53.48163 46.23899
# Shear Modulus (GPa) = 940.04759 29.62727 484.83743
#
# Velocity S-wave (km/s) = 21.61868 3.83796 15.52574
# Velocity P-wave (km/s) = 25.34846 6.79923 18.55766
#
# Compressibility (1/GPa) = 0.02564343
#
# Stress axis : x y z
#
# Youngs Moduli (GPa) = 55.46815 123.28593 115.39871
#
# Poissons Ratio (x) = 0.51006 -0.25695
# Poissons Ratio (y) = 0.22949 0.30815
# Poissons Ratio (z) = -0.12351 0.32921
#
# Static dielectric constant tensor:
#      x y z
#    x 3.718440 0.000000 -0.087360 
#    y 0.000000 3.873620 0.000000 
#    z -0.087360 0.000000 3.732430 
# 
# 
# High freq. dielectric constant tensor:
#      x y z
#    x 1.785070 0.000000 0.001070 
#    y 0.000000 1.782030 0.000000 
#    z 0.001070 0.000000 1.800150 
# 
# From -- ./inp_files/7747.got.cif
#   From: 2010.03.12/outbox.cif.g09.slc.cpg/sg8_4_cif.got.tgz:7747.got - 2010.03.31 10:45:26.
