data_PCOD8053017
_publ_section_title
;
Structure prediction by ZEFSAII (Michael W. Deem and Ramdas Pophale) SiO2 
 PCOD8053017
Probable space group: C M
;
_chemical_formula_sum "Si O2"
_cell_formula_units_Z 32
_cell_length_a 20.450828
_cell_length_b 9.039463
_cell_length_c 12.081842
_cell_angle_alpha 90.000000
_cell_angle_beta 52.132624
_cell_angle_gamma 90.000000
_cell_volume 1763.203167
_symmetry_space_group_name_H-M "C M"
_symmetry_group_IT_number 8
_symmetry_cell_setting 'monoclinic'
loop_
_space_group_symop_operation_xyz
x,y,z
x,-y,z
1/2+x,1/2+y,z
1/2+x,1/2-y,z
loop_
_atom_site_type_symbol
_atom_site_label
_atom_site_fract_x
_atom_site_fract_y
_atom_site_fract_z
Si Si1 0.074120 0.170346 0.264890
Si Si2 0.964597 0.673492 0.544326
Si Si3 0.642658 0.329350 0.959906
Si Si4 0.611643 0.173611 0.555302
Si Si5 0.722575 0.672229 0.272838
Si Si6 0.362374 0.326476 0.002914
Si Si7 0.552104 0.670760 0.826887
Si Si8 0.813600 0.825335 0.807866
O O1 0.159604 0.205676 0.238524
O O2 0.000388 0.270194 0.390038
O O3 0.048758 0.000000 0.307054
O O4 0.086996 0.212664 0.123720
O O5 0.949695 0.500000 0.552491
O O6 0.877806 0.752118 0.656584
O O7 0.028521 0.716980 0.575131
O O8 0.671403 0.500000 0.937868
O O9 0.586107 0.298509 0.913173
O O10 0.722572 0.226640 0.869418
O O11 0.690727 0.251092 0.417762
O O12 0.604383 0.231227 0.687458
O O13 0.627177 0.000000 0.538732
O O14 0.733286 0.500000 0.285192
O O15 0.810621 0.740402 0.149138
O O16 0.347678 0.500000 0.034317
O O17 0.456930 0.280298 0.922949
O O18 0.334348 0.273713 0.910582
O O19 0.561193 0.500000 0.782543
O O20 0.820431 0.000000 0.788347
#
# Coordination Sequence:
#
# PCOD8053017 Si02
#       8
#     4   4   4   4   4   4   4   4
#     4   9  18  33  53  79 109 141 180 225 276 327
#     4  10  20  33  54  82 110 142 183 231 276 320
#     4  10  21  38  58  81 112 148 184 224 273 331
#     4  10  20  34  54  81 113 145 183 229 275 323
#     4  10  19  32  55  82 109 142 183 229 275 324
#     4  10  20  34  54  82 111 142 183 228 274 323
#     4  10  21  38  58  80 112 150 184 222 274 332
#     4  11  21  34  56  83 112 144 184 230 273 324
#
# _framework density 18.148786000000001
#
# number of rings (size 3 to 8) (size 9 to 14) (size 15 to 20)
#    0.000    2.000    2.500    1.500    0.000    3.500 
#    0.000    1.250    0.000    4.500    0.000    0.000 
#    0.000    0.000    0.000    0.000    0.000    0.000 
#
# Total GULP energy -198486.564012 kJ/mol
# GULP energy per Si atom -12405.410251 kJ/mol
# Density = 1.810748 g / cm^3
# Si number density = 18.148786 Si / 1000 Ang^3
#
#
#
# Elastic Constant Matrix: (Units=GPa)
#
#
# Indices 1 2 3 4 5 6 
#
# 1 71.7200 31.6515 50.1050 0.0000 -1.1008 0.0000
# 2 31.6515 76.6026 64.3125 0.0000 -4.3907 0.0000
# 3 50.1050 64.3125 155.3655 0.0000 -1.6953 0.0000
# 4 0.0000 0.0000 0.0000 38.7686 0.0000 -3.7290
# 5 -1.1008 -4.3907 -1.6953 0.0000 26.3556 0.0000
# 6 0.0000 0.0000 0.0000 -3.7290 0.0000 23.1354
#
#
#
# Elastic Compliance Matrix: (Units=1/GPa)
#
#
# Indices 1 2 3 4 5 6 
#
# 1 0.018805 -0.004119 -0.004362 0.000000 -0.000181 0.000000
# 2 -0.004119 0.021119 -0.007382 0.000000 0.002871 0.000000
# 3 -0.004362 -0.007382 0.010891 0.000000 -0.000711 0.000000
# 4 0.000000 0.000000 0.000000 0.026200 0.000000 0.004223
# 5 -0.000181 0.002871 -0.000711 0.000000 0.038368 0.000000
# 6 0.000000 0.000000 0.000000 0.004223 0.000000 0.043905
#
#
# Mechanical properties :
#
#
# Convention : Reuss Voigt Hill
#
# Bulk Modulus (GPa) = 52.38436 66.20290 59.29363
# Shear Modulus (GPa) = 25.33236 28.15985 26.74611
#
# Velocity S-wave (km/s) = 3.74012 3.94332 3.84306
# Velocity P-wave (km/s) = 6.89766 7.56902 7.24113
#
# Compressibility (1/GPa) = 0.01908967
#
# Stress axis : x y z
#
# Youngs Moduli (GPa) = 53.17700 47.35146 91.81723
#
# Poissons Ratio (x) = 0.19502 0.40048
# Poissons Ratio (y) = 0.21901 0.67783
# Poissons Ratio (z) = 0.23194 0.34957
#
# Static dielectric constant tensor:
#      x y z
#    x 3.097610 0.000000 -0.000860 
#    y 0.000000 3.312020 0.000000 
#    z -0.000860 0.000000 3.423820 
# 
# 
# High freq. dielectric constant tensor:
#      x y z
#    x 1.673640 0.000000 -0.004380 
#    y 0.000000 1.707160 0.000000 
#    z -0.004380 0.000000 1.716130 
# 
# From -- ./inp_files/22920.got.cif
#   From: 2010.03.12/outbox.cif.g09.slc.cpg/sg8_12_cif.got.tgz:22920.got - 2010.03.31 10:45:26.
