data_PCOD8053318
_publ_section_title
;
Structure prediction by ZEFSAII (Michael W. Deem and Ramdas Pophale) SiO2 
 PCOD8053318
Probable space group: C M
;
_chemical_formula_sum "Si O2"
_cell_formula_units_Z 32
_cell_length_a 21.708801
_cell_length_b 13.691511
_cell_length_c 17.951029
_cell_angle_alpha 90.000000
_cell_angle_beta 161.973964
_cell_angle_gamma 90.000000
_cell_volume 1651.071344
_symmetry_space_group_name_H-M "C M"
_symmetry_group_IT_number 8
_symmetry_cell_setting 'monoclinic'
loop_
_space_group_symop_operation_xyz
x,y,z
x,-y,z
1/2+x,1/2+y,z
1/2+x,1/2-y,z
loop_
_atom_site_type_symbol
_atom_site_label
_atom_site_fract_x
_atom_site_fract_y
_atom_site_fract_z
Si Si1 0.318940 0.730656 0.366890
Si Si2 0.090982 0.110253 0.195058
Si Si3 0.114796 0.890865 0.391941
Si Si4 0.908972 0.295342 0.837809
Si Si5 0.268857 0.609887 0.598639
Si Si6 0.972948 0.886735 0.678839
Si Si7 0.372908 0.797091 0.111031
Si Si8 0.253883 0.244143 0.813276
O O1 0.239285 0.828919 0.313749
O O2 0.358618 0.647964 0.473816
O O3 0.515871 0.757582 0.546262
O O4 0.146966 0.687574 0.115117
O O5 0.178060 0.115832 0.378676
O O6 0.084947 0.000000 0.158399
O O7 0.864953 0.151445 0.934274
O O8 0.313054 0.866503 0.666729
O O9 0.939062 0.813667 0.207452
O O10 0.039132 0.000000 0.324800
O O11 0.874840 0.181395 0.778563
O O12 0.806568 0.318072 0.800135
O O13 0.318627 0.500000 0.680879
O O14 0.336443 0.632528 0.592646
O O15 0.032881 0.626793 0.326252
O O16 0.030075 0.000000 0.734876
O O17 0.168669 0.821375 0.917813
O O18 0.340476 0.811820 0.985063
#
# Coordination Sequence:
#
# PCOD8053318 Si02
#       8
#     4   4   4   4   4   4   4   4
#     4  10  20  35  54  77 106 139 172 213 262 306
#     4   9  18  35  57  79 101 131 178 223 256 300
#     4   9  18  34  56  78 104 140 175 210 257 309
#     4  10  20  33  50  76 111 141 168 208 255 312
#     4  10  20  34  54  78 104 137 172 211 261 308
#     4  10  20  35  57  81 101 130 177 222 259 304
#     4   9  18  36  58  76 101 133 174 223 259 295
#     4   9  19  34  53  75 102 137 173 212 258 304
#
# _framework density 19.381354999999999
#
# number of rings (size 3 to 8) (size 9 to 14) (size 15 to 20)
#    0.000    2.500    0.000    3.375    0.000    5.000 
#    0.000    6.250    0.000   10.500    0.000    0.000 
#    0.000    0.000    0.000    0.000    0.000    0.000 
#
# Total GULP energy -198368.955315 kJ/mol
# GULP energy per Si atom -12398.059707 kJ/mol
# Density = 1.933724 g / cm^3
# Si number density = 19.381355 Si / 1000 Ang^3
#
#
#
# Elastic Constant Matrix: (Units=GPa)
#
#
# Indices 1 2 3 4 5 6 
#
# 1 45.0918 9.1251 32.3732 -0.0169 1.3339 -0.0010
# 2 9.1251 63.5216 16.4176 0.0621 3.0922 0.0075
# 3 32.3732 16.4176 138.4878 0.1645 3.7861 0.0056
# 4 -0.0169 0.0621 0.1645 20.5941 -0.0279 0.9567
# 5 1.3339 3.0922 3.7861 -0.0279 29.7127 0.0003
# 6 -0.0010 0.0075 0.0056 0.9567 0.0003 24.1808
#
#
#
# Elastic Compliance Matrix: (Units=1/GPa)
#
#
# Indices 1 2 3 4 5 6 
#
# 1 0.026977 -0.002308 -0.006027 0.000077 -0.000203 0.000000
# 2 -0.002308 0.016500 -0.001377 -0.000042 -0.001438 -0.000003
# 3 -0.006027 -0.001377 0.008813 -0.000072 -0.000709 0.000001
# 4 0.000077 -0.000042 -0.000072 0.048648 0.000056 -0.001925
# 5 -0.000203 -0.001438 -0.000709 0.000056 0.033905 -0.000002
# 6 0.000000 -0.000003 0.000001 -0.001925 -0.000002 0.041431
#
#
# Mechanical properties :
#
#
# Convention : Reuss Voigt Hill
#
# Bulk Modulus (GPa) = 30.42709 40.32588 35.37648
# Shear Modulus (GPa) = 24.19508 27.50987 25.85248
#
# Velocity S-wave (km/s) = 3.53706 3.77158 3.65620
# Velocity P-wave (km/s) = 5.69335 6.31016 6.00968
#
# Compressibility (1/GPa) = 0.03286545
#
# Stress axis : x y z
#
# Youngs Moduli (GPa) = 37.06831 60.60534 113.47492
#
# Poissons Ratio (x) = 0.13987 0.68394
# Poissons Ratio (y) = 0.08555 0.15628
# Poissons Ratio (z) = 0.22342 0.08347
#
# Static dielectric constant tensor:
#      x y z
#    x 3.496500 -0.000040 -0.087210 
#    y -0.000040 3.487480 -0.000120 
#    z -0.087210 -0.000120 3.643820 
# 
# 
# High freq. dielectric constant tensor:
#      x y z
#    x 1.746790 0.000000 -0.011160 
#    y 0.000000 1.741390 0.000000 
#    z -0.011160 0.000000 1.759350 
# 
# From -- ./inp_files/29950.got.cif
#   From: 2010.03.12/outbox.cif.g09.slc.cpg/sg8_15_cif.got.tgz:29950.got - 2010.03.31 10:45:26.
