data_PCOD8053452
_publ_section_title
;
Structure prediction by ZEFSAII (Michael W. Deem and Ramdas Pophale) SiO2 
 PCOD8053452
Probable space group: C M
;
_chemical_formula_sum "Si O2"
_cell_formula_units_Z 32
_cell_length_a 15.389509
_cell_length_b 8.885449
_cell_length_c 11.925506
_cell_angle_alpha 90.000000
_cell_angle_beta 89.342453
_cell_angle_gamma 90.000000
_cell_volume 1630.618470
_symmetry_space_group_name_H-M "C M"
_symmetry_group_IT_number 8
_symmetry_cell_setting 'monoclinic'
loop_
_space_group_symop_operation_xyz
x,y,z
x,-y,z
1/2+x,1/2+y,z
1/2+x,1/2-y,z
loop_
_atom_site_type_symbol
_atom_site_label
_atom_site_fract_x
_atom_site_fract_y
_atom_site_fract_z
Si Si1 0.725760 0.321811 0.051250
Si Si2 0.548618 0.672961 0.577417
Si Si3 0.900726 0.678008 0.442304
Si Si4 0.789043 0.824802 0.827842
Si Si5 0.491859 0.674937 0.823417
Si Si6 0.049742 0.322032 0.044931
Si Si7 0.887835 0.321010 0.191266
Si Si8 0.744250 0.674624 0.601574
O O1 0.718512 0.500000 0.054356
O O2 0.636278 0.250088 0.095889
O O3 0.800925 0.261367 0.132496
O O4 0.743850 0.270805 0.924802
O O5 0.520271 0.500000 0.565959
O O6 0.491241 0.767791 0.492547
O O7 0.531308 0.727014 0.704477
O O8 0.649936 0.696544 0.545807
O O9 0.902531 0.500000 0.437951
O O10 0.891593 0.744145 0.317063
O O11 0.817920 0.733575 0.515148
O O12 0.890504 0.787536 0.824818
O O13 0.747356 0.775323 0.711800
O O14 0.770611 0.000000 0.848482
O O15 0.510535 0.500000 0.846736
O O16 0.539243 0.772336 0.916695
O O17 0.056910 0.500000 0.050089
O O18 0.969851 0.260140 0.119907
O O19 0.888425 0.500000 0.191751
O O20 0.759101 0.500000 0.633419
#
# Coordination Sequence:
#
# PCOD8053452 Si02
#       8
#     4   4   4   4   4   4   4   4
#     4  11  22  39  61  86 117 153 189 234 291 348
#     4  10  21  38  57  84 117 149 184 235 290 339
#     4  10  21  39  60  83 111 151 198 239 280 336
#     4  11  21  35  59  89 119 150 190 237 284 341
#     4  10  20  35  57  85 120 153 186 234 289 343
#     4  11  22  38  60  87 116 151 194 239 285 341
#     4   9  21  40  59  80 114 154 193 237 287 340
#     4  10  21  36  59  86 116 153 192 231 284 346
#
# _framework density 19.624455000000001
#
# number of rings (size 3 to 8) (size 9 to 14) (size 15 to 20)
#    0.000    1.750    2.500    1.875    0.000    3.500 
#    0.000    3.750    0.000    0.000    0.000    0.000 
#    0.000    0.000    0.000    0.000    0.000    0.000 
#
# Total GULP energy -198472.625538 kJ/mol
# GULP energy per Si atom -12404.539096 kJ/mol
# Density = 1.957979 g / cm^3
# Si number density = 19.624455 Si / 1000 Ang^3
#
#
#
# Elastic Constant Matrix: (Units=GPa)
#
#
# Indices 1 2 3 4 5 6 
#
# 1 144.1569 33.3870 56.4711 0.0000 15.4465 0.0000
# 2 33.3870 47.0360 24.8659 0.0000 5.8313 0.0000
# 3 56.4711 24.8659 132.3955 0.0000 13.6073 0.0000
# 4 0.0000 0.0000 0.0000 9.9999 0.0000 8.3442
# 5 15.4465 5.8313 13.6073 0.0000 15.9952 0.0000
# 6 0.0000 0.0000 0.0000 8.3442 0.0000 31.4573
#
#
#
# Elastic Compliance Matrix: (Units=1/GPa)
#
#
# Indices 1 2 3 4 5 6 
#
# 1 0.009663 -0.004785 -0.002677 0.000000 -0.005309 0.000000
# 2 -0.004785 0.026391 -0.002632 0.000000 -0.002761 0.000000
# 3 -0.002677 -0.002632 0.009670 0.000000 -0.004682 0.000000
# 4 0.000000 0.000000 0.000000 0.128427 0.000000 -0.034066
# 5 -0.005309 -0.002761 -0.004682 0.000000 0.072636 0.000000
# 6 0.000000 0.000000 0.000000 -0.034066 0.000000 0.040825
#
#
# Mechanical properties :
#
#
# Convention : Reuss Voigt Hill
#
# Bulk Modulus (GPa) = 39.16085 61.44847 50.30466
# Shear Modulus (GPa) = 15.80717 25.41476 20.61096
#
# Velocity S-wave (km/s) = 2.84118 3.60259 3.24430
# Velocity P-wave (km/s) = 5.54631 6.97747 6.30264
#
# Compressibility (1/GPa) = 0.02553571
#
# Stress axis : x y z
#
# Youngs Moduli (GPa) = 103.48998 37.89227 103.40762
#
# Poissons Ratio (x) = 0.18133 0.27683
# Poissons Ratio (y) = 0.49523 0.27214
# Poissons Ratio (z) = 0.27705 0.09972
#
# Static dielectric constant tensor:
#      x y z
#    x 3.825950 0.000000 -0.072940 
#    y 0.000000 3.391470 0.000000 
#    z -0.072940 0.000000 3.623840 
# 
# 
# High freq. dielectric constant tensor:
#      x y z
#    x 1.783000 0.000000 -0.000680 
#    y 0.000000 1.747850 0.000000 
#    z -0.000680 0.000000 1.759350 
# 
# From -- ./inp_files/21346.got.cif
#   From: 2010.03.12/outbox.cif.g09.slc.cpg/sg8_11_cif.got.tgz:21346.got - 2010.03.31 10:45:26.
