data_PCOD8053842
_publ_section_title
;
Structure prediction by ZEFSAII (Michael W. Deem and Ramdas Pophale) SiO2 
 PCOD8053842
Probable space group: C M
;
_chemical_formula_sum "Si O2"
_cell_formula_units_Z 32
_cell_length_a 13.740685
_cell_length_b 17.246669
_cell_length_c 10.191872
_cell_angle_alpha 90.000000
_cell_angle_beta 141.365965
_cell_angle_gamma 90.000000
_cell_volume 1507.965223
_symmetry_space_group_name_H-M "C M"
_symmetry_group_IT_number 8
_symmetry_cell_setting 'monoclinic'
loop_
_space_group_symop_operation_xyz
x,y,z
x,-y,z
1/2+x,1/2+y,z
1/2+x,1/2-y,z
loop_
_atom_site_type_symbol
_atom_site_label
_atom_site_fract_x
_atom_site_fract_y
_atom_site_fract_z
Si Si1 0.481720 0.766812 0.698660
Si Si2 0.598914 0.087203 0.684256
Si Si3 0.021378 0.089483 0.461811
Si Si4 0.544532 0.091153 0.328883
Si Si5 0.255707 0.171996 0.902291
Si Si6 0.976752 0.765311 0.969050
Si Si7 0.751563 0.163642 0.324756
Si Si8 0.965149 0.087468 0.106451
O O1 0.513019 0.856693 0.697779
O O2 0.637066 0.713755 0.875548
O O3 0.393435 0.747234 0.741667
O O4 0.368791 0.734743 0.469225
O O5 0.571457 0.118322 0.507132
O O6 0.530785 0.000000 0.629767
O O7 0.779878 0.087121 0.906219
O O8 0.848862 0.101671 0.342331
O O9 0.021433 0.115688 0.309541
O O10 0.161321 0.131090 0.685726
O O11 0.059675 0.000000 0.511600
O O12 0.681348 0.126729 0.383352
O O13 0.561882 0.000000 0.336104
O O14 0.370163 0.113710 0.099161
O O15 0.355131 0.243359 0.952532
O O16 0.032194 0.852665 0.066831
O O17 0.113120 0.701715 0.097214
O O18 0.026427 0.000000 0.139898
#
# Coordination Sequence:
#
# PCOD8053842 Si02
#       8
#     4   4   4   4   4   4   4   4
#     4  11  23  39  60  92 123 163 206 255 309 365
#     4  10  21  39  64  89 120 162 206 256 308 365
#     4  10  21  40  63  92 127 164 206 256 311 369
#     4  10  21  40  63  92 127 164 206 256 311 369
#     4  10  23  38  63  90 124 166 206 256 307 372
#     4  11  23  39  60  92 123 163 206 255 309 365
#     4  10  23  34  61  90 122 164 206 252 301 372
#     4  10  21  39  64  89 120 162 206 256 308 365
#
# _framework density 21.220648000000001
#
# number of rings (size 3 to 8) (size 9 to 14) (size 15 to 20)
#    0.000    1.750    1.250    2.250    3.500    2.000 
#    0.000    6.875    0.000    0.000    0.000    0.000 
#    0.000    0.000    0.000    0.000    0.000    0.000 
#
# Total GULP energy -198310.755405 kJ/mol
# GULP energy per Si atom -12394.422213 kJ/mol
# Density = 2.117235 g / cm^3
# Si number density = 21.220648 Si / 1000 Ang^3
#
#
#
# Elastic Constant Matrix: (Units=GPa)
#
#
# Indices 1 2 3 4 5 6 
#
# 1 50.6750 34.9878 11.6576 0.0000 -14.2329 0.0000
# 2 34.9878 109.8419 26.7494 0.0000 -17.3692 0.0000
# 3 11.6576 26.7494 85.7166 0.0000 -11.2407 0.0000
# 4 0.0000 0.0000 0.0000 17.1823 0.0000 -12.4785
# 5 -14.2329 -17.3692 -11.2407 0.0000 37.4874 0.0000
# 6 0.0000 0.0000 0.0000 -12.4785 0.0000 33.4482
#
#
#
# Elastic Compliance Matrix: (Units=1/GPa)
#
#
# Indices 1 2 3 4 5 6 
#
# 1 0.026790 -0.007372 -0.000476 0.000000 0.006613 0.000000
# 2 -0.007372 0.012428 -0.002590 0.000000 0.002183 0.000000
# 3 -0.000476 -0.002590 0.012864 0.000000 0.002477 0.000000
# 4 0.000000 0.000000 0.000000 0.079828 0.000000 0.029781
# 5 0.006613 0.002183 0.002477 0.000000 0.030941 0.000000
# 6 0.000000 0.000000 0.000000 0.029781 0.000000 0.041007
#
#
# Mechanical properties :
#
#
# Convention : Reuss Voigt Hill
#
# Bulk Modulus (GPa) = 32.04318 43.66924 37.85621
# Shear Modulus (GPa) = 21.26438 29.14616 25.20527
#
# Velocity S-wave (km/s) = 3.16897 3.71007 3.45014
# Velocity P-wave (km/s) = 5.34065 6.24309 5.80942
#
# Compressibility (1/GPa) = 0.03120789
#
# Stress axis : x y z
#
# Youngs Moduli (GPa) = 37.32698 80.46383 77.73648
#
# Poissons Ratio (x) = 0.59317 0.03698
# Poissons Ratio (y) = 0.27517 0.20130
# Poissons Ratio (z) = 0.01776 0.20836
#
# Static dielectric constant tensor:
#      x y z
#    x 3.686490 0.000000 -0.042700 
#    y 0.000000 4.054300 0.000000 
#    z -0.042700 0.000000 3.904380 
# 
# 
# High freq. dielectric constant tensor:
#      x y z
#    x 1.816220 0.000000 -0.007150 
#    y 0.000000 1.841010 0.000000 
#    z -0.007150 0.000000 1.841640 
# 
# From -- ./inp_files/23409.got.cif
#   From: 2010.03.12/outbox.cif.g09.slc.cpg/sg8_12_cif.got.tgz:23409.got - 2010.03.31 10:45:26.
