data_PCOD8053509
_publ_section_title
;
Structure prediction by ZEFSAII (Michael W. Deem and Ramdas Pophale) SiO2 
 PCOD8053509
Probable space group: C M
;
_chemical_formula_sum "Si O2"
_cell_formula_units_Z 32
_cell_length_a 20.387071
_cell_length_b 8.668702
_cell_length_c 24.992709
_cell_angle_alpha 90.000000
_cell_angle_beta 22.445830
_cell_angle_gamma 90.000000
_cell_volume 1686.433789
_symmetry_space_group_name_H-M "C M"
_symmetry_group_IT_number 8
_symmetry_cell_setting 'monoclinic'
loop_
_space_group_symop_operation_xyz
x,y,z
x,-y,z
1/2+x,1/2+y,z
1/2+x,1/2-y,z
loop_
_atom_site_type_symbol
_atom_site_label
_atom_site_fract_x
_atom_site_fract_y
_atom_site_fract_z
Si Si1 0.009780 0.823626 0.992490
Si Si2 0.444570 0.820329 0.432996
Si Si3 0.340944 0.822539 0.684436
Si Si4 0.001377 0.820489 0.276428
Si Si5 0.730670 0.822329 0.391381
Si Si6 0.349547 0.322227 0.998052
Si Si7 0.179082 0.679346 0.705867
Si Si8 0.257323 0.178254 0.259039
O O1 0.210418 0.781922 0.831244
O O2 0.906629 0.792508 0.015796
O O3 0.988189 0.000000 0.027299
O O4 0.936534 0.714112 0.093969
O O5 0.483685 0.780962 0.342567
O O6 0.275582 0.727987 0.578893
O O7 0.607070 0.780562 0.347253
O O8 0.407858 0.000000 0.466809
O O9 0.534489 0.794236 0.557960
O O10 0.305166 0.716818 0.660173
O O11 0.308445 0.000000 0.691290
O O12 0.848808 0.773659 0.351708
O O13 0.995895 0.000000 0.295635
O O14 0.181578 0.779251 0.112420
O O15 0.779990 0.716858 0.304107
O O16 0.761023 0.000000 0.352475
O O17 0.307045 0.500000 0.019503
O O18 0.500166 0.270287 0.844589
O O19 0.137295 0.500000 0.736252
O O20 0.209930 0.000000 0.287519
#
# Coordination Sequence:
#
# PCOD8053509 Si02
#       8
#     4   4   4   4   4   4   4   4
#     4   9  18  33  56  84 113 149 191 236 288 345
#     4  12  23  38  59  84 117 156 197 243 295 349
#     4   9  18  35  58  83 114 153 193 231 288 358
#     4  11  23  39  60  88 118 154 200 246 290 346
#     4  10  22  40  61  84 118 158 192 236 296 356
#     4  10  20  36  58  84 117 158 192 233 295 356
#     4  11  21  34  57  89 118 147 191 250 292 336
#     4  12  23  35  57  88 117 149 196 247 288 340
#
# _framework density 18.974952999999999
#
# number of rings (size 3 to 8) (size 9 to 14) (size 15 to 20)
#    0.000    1.500    2.500    4.875    0.000    3.000 
#    0.000    1.250    0.000    6.000    0.000    0.000 
#    0.000    0.000    0.000    0.000    0.000    0.000 
#
# Total GULP energy -198478.985525 kJ/mol
# GULP energy per Si atom -12404.936595 kJ/mol
# Density = 1.893177 g / cm^3
# Si number density = 18.974953 Si / 1000 Ang^3
#
#
#
# Elastic Constant Matrix: (Units=GPa)
#
#
# Indices 1 2 3 4 5 6 
#
# 1 57.6350 24.2650 36.0041 -0.0069 -5.4141 -0.0109
# 2 24.2650 75.5895 22.8590 0.0794 0.5357 0.0193
# 3 36.0041 22.8590 127.8965 0.0130 0.1699 0.0037
# 4 -0.0069 0.0794 0.0130 31.0983 0.0145 3.0269
# 5 -5.4141 0.5357 0.1699 0.0145 28.7394 -0.0021
# 6 -0.0109 0.0193 0.0037 3.0269 -0.0021 24.0904
#
#
#
# Elastic Compliance Matrix: (Units=1/GPa)
#
#
# Indices 1 2 3 4 5 6 
#
# 1 0.023828 -0.005975 -0.005646 0.000019 0.004634 0.000014
# 2 -0.005975 0.015485 -0.001084 -0.000039 -0.001408 -0.000010
# 3 -0.005646 -0.001084 0.009603 -0.000002 -0.001100 -0.000003
# 4 0.000019 -0.000039 -0.000002 0.032554 -0.000012 -0.004090
# 5 0.004634 -0.001408 -0.001100 -0.000012 0.035701 0.000008
# 6 0.000014 -0.000010 -0.000003 -0.004090 0.000008 0.042024
#
#
# Mechanical properties :
#
#
# Convention : Reuss Voigt Hill
#
# Bulk Modulus (GPa) = 42.53949 47.48636 45.01293
# Shear Modulus (GPa) = 25.98189 28.65181 27.31685
#
# Velocity S-wave (km/s) = 3.70438 3.89006 3.79836
# Velocity P-wave (km/s) = 6.38467 6.72733 6.55824
#
# Compressibility (1/GPa) = 0.02350757
#
# Stress axis : x y z
#
# Youngs Moduli (GPa) = 41.96677 64.57845 104.12897
#
# Poissons Ratio (x) = 0.38583 0.58794
# Poissons Ratio (y) = 0.25073 0.11286
# Poissons Ratio (z) = 0.23695 0.07000
#
# Static dielectric constant tensor:
#      x y z
#    x 3.165820 0.000000 0.077980 
#    y 0.000000 3.437390 0.000020 
#    z 0.077980 0.000020 3.757040 
# 
# 
# High freq. dielectric constant tensor:
#      x y z
#    x 1.699480 0.000000 0.009780 
#    y 0.000000 1.741480 0.000000 
#    z 0.009780 0.000000 1.755830 
# 
# From -- ./inp_files/31642.got.cif
#   From: 2010.03.12/outbox.cif.g09.slc.cpg/sg8_16_cif.got.tgz:31642.got - 2010.03.31 10:45:26.
