data_PCOD8053802
_publ_section_title
;
Structure prediction by ZEFSAII (Michael W. Deem and Ramdas Pophale) SiO2 
 PCOD8053802
Probable space group: C M
;
_chemical_formula_sum "Si O2"
_cell_formula_units_Z 32
_cell_length_a 11.110609
_cell_length_b 23.522932
_cell_length_c 6.468526
_cell_angle_alpha 90.000000
_cell_angle_beta 77.199380
_cell_angle_gamma 90.000000
_cell_volume 1648.559838
_symmetry_space_group_name_H-M "C M"
_symmetry_group_IT_number 8
_symmetry_cell_setting 'monoclinic'
loop_
_space_group_symop_operation_xyz
x,y,z
x,-y,z
1/2+x,1/2+y,z
1/2+x,1/2-y,z
loop_
_atom_site_type_symbol
_atom_site_label
_atom_site_fract_x
_atom_site_fract_y
_atom_site_fract_z
Si Si1 0.843930 0.241061 0.393870
Si Si2 0.612079 0.565430 0.427786
Si Si3 0.439115 0.345236 0.686356
Si Si4 0.167230 0.214467 0.791669
Si Si5 0.226091 0.317156 0.044204
Si Si6 0.853529 0.437045 0.603360
Si Si7 0.773786 0.384057 0.027760
Si Si8 0.476660 0.148382 0.279759
O O1 0.893552 0.188763 0.505232
O O2 0.737935 0.277366 0.548308
O O3 0.793029 0.218501 0.197189
O O4 0.957395 0.284506 0.324048
O O5 0.575677 0.500000 0.404744
O O6 0.495723 0.596412 0.578139
O O7 0.724379 0.573167 0.540162
O O8 0.651982 0.593920 0.194959
O O9 0.532756 0.308133 0.787513
O O10 0.323998 0.356431 0.883214
O O11 0.158632 0.274210 0.911889
O O12 0.241027 0.171224 0.908667
O O13 0.120938 0.359358 0.170241
O O14 0.905367 0.500000 0.535366
O O15 0.952601 0.390193 0.491727
O O16 0.825613 0.432584 0.856859
O O17 0.886583 0.371883 0.134928
#
# Coordination Sequence:
#
# PCOD8053802 Si02
#       8
#     4   4   4   4   4   4   4   4
#     4  11  22  37  59  91 121 158 195 244 296 356
#     4  10  22  39  61  90 118 151 201 253 298 350
#     4  11  24  38  59  89 124 159 197 243 294 358
#     4  11  21  36  58  91 119 152 195 240 302 352
#     4  11  25  37  57  87 127 167 194 232 293 364
#     4  10  21  38  61  89 118 150 197 252 301 344
#     4  11  20  36  63  90 115 152 191 248 308 341
#     4  11  22  37  60  87 122 157 197 240 290 361
#
# _framework density 19.410882000000001
#
# number of rings (size 3 to 8) (size 9 to 14) (size 15 to 20)
#    0.000    1.250    3.750    2.625    5.250    2.500 
#    0.000    0.625    0.000    2.250    0.000    0.000 
#    0.000    0.000    0.000    0.000    0.000    0.000 
#
# Total GULP energy -198421.545148 kJ/mol
# GULP energy per Si atom -12401.346572 kJ/mol
# Density = 1.936670 g / cm^3
# Si number density = 19.410882 Si / 1000 Ang^3
#
#
#
# Elastic Constant Matrix: (Units=GPa)
#
#
# Indices 1 2 3 4 5 6 
#
# 1 67.6971 31.3018 36.1528 0.0000 -29.5726 0.0000
# 2 31.3018 94.3509 48.2506 0.0000 -26.6151 0.0000
# 3 36.1528 48.2506 127.4183 0.0000 -26.1025 0.0000
# 4 0.0000 0.0000 0.0000 19.1411 0.0000 -2.6080
# 5 -29.5726 -26.6151 -26.1025 0.0000 36.5732 0.0000
# 6 0.0000 0.0000 0.0000 -2.6080 0.0000 18.2901
#
#
#
# Elastic Compliance Matrix: (Units=1/GPa)
#
#
# Indices 1 2 3 4 5 6 
#
# 1 0.024264 -0.002073 -0.002798 0.000000 0.016113 0.000000
# 2 -0.002073 0.015077 -0.003768 0.000000 0.006606 0.000000
# 3 -0.002798 -0.003768 0.010592 0.000000 0.002555 0.000000
# 4 0.000000 0.000000 0.000000 0.053279 0.000000 0.007597
# 5 0.016113 0.006606 0.002555 0.000000 0.047003 0.000000
# 6 0.000000 0.000000 0.000000 0.007597 0.000000 0.055757
#
#
# Mechanical properties :
#
#
# Convention : Reuss Voigt Hill
#
# Bulk Modulus (GPa) = 30.62392 57.87519 44.24956
# Shear Modulus (GPa) = 21.35517 26.38496 23.87007
#
# Velocity S-wave (km/s) = 3.32047 3.69085 3.51055
# Velocity P-wave (km/s) = 5.52373 6.93136 6.26719
#
# Compressibility (1/GPa) = 0.03265421
#
# Stress axis : x y z
#
# Youngs Moduli (GPa) = 41.21393 66.32667 94.40765
#
# Poissons Ratio (x) = 0.13751 0.26419
# Poissons Ratio (y) = 0.08545 0.35570
# Poissons Ratio (z) = 0.11533 0.24990
#
# Static dielectric constant tensor:
#      x y z
#    x 3.394340 0.000000 -0.066830 
#    y 0.000000 3.468800 0.000000 
#    z -0.066830 0.000000 3.889010 
# 
# 
# High freq. dielectric constant tensor:
#      x y z
#    x 1.737910 0.000000 -0.000980 
#    y 0.000000 1.738930 0.000000 
#    z -0.000980 0.000000 1.777840 
# 
# From -- ./inp_files/3153.got.cif
#   From: 2010.03.12/outbox.cif.g09.slc.cpg/sg8_2_cif.got.tgz:3153.got - 2010.03.31 10:45:26.
