data_PCOD8053516
_publ_section_title
;
Structure prediction by ZEFSAII (Michael W. Deem and Ramdas Pophale) SiO2 
 PCOD8053516
Probable space group: C M
;
_chemical_formula_sum "Si O2"
_cell_formula_units_Z 32
_cell_length_a 9.137876
_cell_length_b 27.005394
_cell_length_c 11.746808
_cell_angle_alpha 90.000000
_cell_angle_beta 145.732675
_cell_angle_gamma 90.000000
_cell_volume 1632.173598
_symmetry_space_group_name_H-M "C M"
_symmetry_group_IT_number 8
_symmetry_cell_setting 'monoclinic'
loop_
_space_group_symop_operation_xyz
x,y,z
x,-y,z
1/2+x,1/2+y,z
1/2+x,1/2-y,z
loop_
_atom_site_type_symbol
_atom_site_label
_atom_site_fract_x
_atom_site_fract_y
_atom_site_fract_z
Si Si1 0.917760 0.694647 0.302400
Si Si2 0.470816 0.703398 0.728621
Si Si3 0.806250 0.376476 0.018539
Si Si4 0.728107 0.618327 0.353089
Si Si5 0.019466 0.441834 0.734920
Si Si6 0.478019 0.237176 0.945110
Si Si7 0.628853 0.871699 0.011159
Si Si8 0.114604 0.945486 0.070112
O O1 0.870689 0.661165 0.161888
O O2 0.869592 0.667549 0.394142
O O3 0.730295 0.742898 0.176690
O O4 0.221002 0.710216 0.487142
O O5 0.558691 0.645772 0.790264
O O6 0.383248 0.722783 0.794324
O O7 0.726904 0.735050 0.863913
O O8 0.722623 0.428226 0.017870
O O9 0.046851 0.385236 0.087889
O O10 0.854448 0.591201 0.541913
O O11 0.742495 0.581886 0.256915
O O12 0.437106 0.630612 0.202503
O O13 0.926051 0.500000 0.686807
O O14 0.009212 0.413357 0.849801
O O15 0.306708 0.440721 0.870392
O O16 0.527308 0.183634 0.918530
O O17 0.215734 0.000000 0.151165
#
# Coordination Sequence:
#
# PCOD8053516 Si02
#       8
#     4   4   4   4   4   4   4   4
#     4  10  21  37  58  82 112 150 190 234 279 331
#     4  10  21  36  56  79 113 150 186 232 281 331
#     4   9  20  37  54  81 113 144 187 230 278 344
#     4  10  20  36  59  83 110 145 188 231 280 336
#     4  10  21  37  58  83 109 143 189 234 280 338
#     4  10  22  37  53  82 114 147 192 230 274 343
#     4  10  22  37  55  80 116 149 179 230 286 332
#     4   9  18  35  58  80 106 142 184 233 282 331
#
# _framework density 19.605758000000002
#
# number of rings (size 3 to 8) (size 9 to 14) (size 15 to 20)
#    0.000    2.250    0.000    1.875    0.000   11.000 
#    0.000    0.000    0.000    0.000    0.000    0.000 
#    0.000    0.000    0.000    0.000    0.000    0.000 
#
# Total GULP energy -198257.826028 kJ/mol
# GULP energy per Si atom -12391.114127 kJ/mol
# Density = 1.956113 g / cm^3
# Si number density = 19.605758 Si / 1000 Ang^3
#
#
#
# Elastic Constant Matrix: (Units=GPa)
#
#
# Indices 1 2 3 4 5 6 
#
# 1 114.5494 38.6123 25.4956 0.0000 3.0936 0.0000
# 2 38.6123 87.0668 24.9892 0.0000 5.0465 0.0000
# 3 25.4956 24.9892 103.8504 0.0000 7.3580 0.0000
# 4 0.0000 0.0000 0.0000 24.4478 0.0000 -0.6378
# 5 3.0936 5.0465 7.3580 0.0000 20.7056 0.0000
# 6 0.0000 0.0000 0.0000 -0.6378 0.0000 30.6636
#
#
#
# Elastic Compliance Matrix: (Units=1/GPa)
#
#
# Indices 1 2 3 4 5 6 
#
# 1 0.010496 -0.004206 -0.001566 0.000000 0.000013 0.000000
# 2 -0.004206 0.014105 -0.002218 0.000000 -0.002021 0.000000
# 3 -0.001566 -0.002218 0.010763 0.000000 -0.003050 0.000000
# 4 0.000000 0.000000 0.000000 0.040926 0.000000 0.000851
# 5 0.000013 -0.002021 -0.003050 0.000000 0.049871 0.000000
# 6 0.000000 0.000000 0.000000 0.000851 0.000000 0.032630
#
#
# Mechanical properties :
#
#
# Convention : Reuss Voigt Hill
#
# Bulk Modulus (GPa) = 51.58859 53.74009 52.66434
# Shear Modulus (GPa) = 27.58915 29.58804 28.58860
#
# Velocity S-wave (km/s) = 3.75533 3.88899 3.82275
# Velocity P-wave (km/s) = 6.72112 6.90185 6.81209
#
# Compressibility (1/GPa) = 0.01938413
#
# Stress axis : x y z
#
# Youngs Moduli (GPa) = 95.27674 70.89932 92.90695
#
# Poissons Ratio (x) = 0.29821 0.14545
# Poissons Ratio (y) = 0.40074 0.20608
# Poissons Ratio (z) = 0.14916 0.15726
#
# Static dielectric constant tensor:
#      x y z
#    x 3.661330 0.000000 0.012250 
#    y 0.000000 3.764890 0.000000 
#    z 0.012250 0.000000 3.494750 
# 
# 
# High freq. dielectric constant tensor:
#      x y z
#    x 1.768610 0.000000 0.003290 
#    y 0.000000 1.763310 0.000000 
#    z 0.003290 0.000000 1.755670 
# 
# From -- ./inp_files/1989.got.cif
#   From: 2010.03.12/outbox.cif.g09.slc.cpg/sg8_1_cif.got.tgz:1989.got - 2010.03.31 10:45:26.
