data_PCOD8053189
_publ_section_title
;
Structure prediction by ZEFSAII (Michael W. Deem and Ramdas Pophale) SiO2 
 PCOD8053189
Probable space group: C M
;
_chemical_formula_sum "Si O2"
_cell_formula_units_Z 32
_cell_length_a 22.492752
_cell_length_b 8.432245
_cell_length_c 27.679669
_cell_angle_alpha 90.000000
_cell_angle_beta 162.161545
_cell_angle_gamma 90.000000
_cell_volume 1608.208277
_symmetry_space_group_name_H-M "C M"
_symmetry_group_IT_number 8
_symmetry_cell_setting 'monoclinic'
loop_
_space_group_symop_operation_xyz
x,y,z
x,-y,z
1/2+x,1/2+y,z
1/2+x,1/2-y,z
loop_
_atom_site_type_symbol
_atom_site_label
_atom_site_fract_x
_atom_site_fract_y
_atom_site_fract_z
Si Si1 0.654550 0.188857 0.455800
Si Si2 0.165029 0.814307 0.213814
Si Si3 0.896243 0.188606 0.826798
Si Si4 0.731193 0.311925 0.157506
Si Si5 0.720344 0.684589 0.402226
Si Si6 0.970284 0.187803 0.776323
Si Si7 0.899298 0.313891 0.087663
Si Si8 0.982273 0.816152 0.526011
O O1 0.441599 0.253066 0.304817
O O2 0.723768 0.268592 0.460353
O O3 0.801122 0.249670 0.610494
O O4 0.658051 0.000000 0.452693
O O5 0.174540 0.747841 0.166699
O O6 0.371146 0.783536 0.398907
O O7 0.991630 0.723755 0.107007
O O8 0.119641 0.000000 0.180031
O O9 0.932729 0.253164 0.801058
O O10 0.704844 0.266963 0.700203
O O11 0.875265 0.000000 0.812025
O O12 0.074362 0.247630 0.997516
O O13 0.740851 0.500000 0.166852
O O14 0.763294 0.500000 0.429114
O O15 0.512990 0.725257 0.218283
O O16 0.890235 0.781231 0.507040
O O17 0.968210 0.000000 0.776237
O O18 0.178139 0.247633 0.917544
O O19 0.912062 0.500000 0.108120
O O20 0.958852 0.000000 0.495595
#
# Coordination Sequence:
#
# PCOD8053189 Si02
#       8
#     4   4   4   4   4   4   4   4
#     4  10  19  36  58  82 109 143 183 225 267 320
#     4  10  19  35  57  83 111 145 182 222 267 320
#     4  10  19  36  58  82 109 143 183 225 267 320
#     4   9  19  34  58  84 110 144 183 221 268 323
#     4  11  22  37  56  81 109 144 182 224 272 323
#     4   9  19  34  58  84 110 144 183 221 268 323
#     4  10  19  35  57  83 111 145 182 222 267 320
#     4  11  22  37  56  81 109 144 182 224 272 323
#
# _framework density 19.897921
#
# number of rings (size 3 to 8) (size 9 to 14) (size 15 to 20)
#    0.000    2.000    0.000    6.000    0.000    5.000 
#    0.000   11.250    0.000    0.000    0.000    0.000 
#    0.000    0.000    0.000    0.000    0.000    0.000 
#
# Total GULP energy -198450.790992 kJ/mol
# GULP energy per Si atom -12403.174437 kJ/mol
# Density = 1.985263 g / cm^3
# Si number density = 19.897921 Si / 1000 Ang^3
#
#
#
# Elastic Constant Matrix: (Units=GPa)
#
#
# Indices 1 2 3 4 5 6 
#
# 1 158.4327 12.1575 86.3006 0.0243 -13.8372 -0.0016
# 2 12.1575 42.2014 14.2666 -0.0430 -0.6375 0.0102
# 3 86.3006 14.2666 170.5859 -0.0768 9.0121 0.0439
# 4 0.0243 -0.0430 -0.0768 22.6434 0.0137 3.0180
# 5 -13.8372 -0.6375 9.0121 0.0137 32.3847 0.0034
# 6 -0.0016 0.0102 0.0439 3.0180 0.0034 28.4070
#
#
#
# Elastic Compliance Matrix: (Units=1/GPa)
#
#
# Indices 1 2 3 4 5 6 
#
# 1 0.009639 -0.000974 -0.005086 -0.000034 0.005515 0.000012
# 2 -0.000974 0.024520 -0.001585 0.000043 0.000507 -0.000011
# 3 -0.005086 -0.001585 0.008814 0.000037 -0.004657 -0.000017
# 4 -0.000034 0.000043 0.000037 0.044798 -0.000043 -0.004759
# 5 0.005515 0.000507 -0.004657 -0.000043 0.034541 0.000008
# 6 0.000012 -0.000011 -0.000017 -0.004759 0.000008 0.035708
#
#
# Mechanical properties :
#
#
# Convention : Reuss Voigt Hill
#
# Bulk Modulus (GPa) = 36.12367 66.29661 51.21014
# Shear Modulus (GPa) = 27.39170 33.92003 30.65586
#
# Velocity S-wave (km/s) = 3.71430 4.13328 3.92938
# Velocity P-wave (km/s) = 6.04885 7.49462 6.81021
#
# Compressibility (1/GPa) = 0.02768268
#
# Stress axis : x y z
#
# Youngs Moduli (GPa) = 103.74789 40.78316 113.45732
#
# Poissons Ratio (x) = 0.03973 0.57707
# Poissons Ratio (y) = 0.10106 0.17979
# Poissons Ratio (z) = 0.52768 0.06463
#
# Static dielectric constant tensor:
#      x y z
#    x 3.779070 -0.000030 0.029650 
#    y -0.000030 3.348810 -0.000050 
#    z 0.029650 -0.000050 3.742880 
# 
# 
# High freq. dielectric constant tensor:
#      x y z
#    x 1.787870 0.000000 0.005510 
#    y 0.000000 1.751840 -0.000010 
#    z 0.005510 -0.000010 1.780250 
# 
# From -- ./inp_files/33060.got.cif
#   From: 2010.03.12/outbox.cif.g09.slc.cpg/sg8_17_cif.got.tgz:33060.got - 2010.03.31 10:45:26.
