data_PCOD8053634
_publ_section_title
;
Structure prediction by ZEFSAII (Michael W. Deem and Ramdas Pophale) SiO2 
 PCOD8053634
Probable space group: C M
;
_chemical_formula_sum "Si O2"
_cell_formula_units_Z 28
_cell_length_a 14.043152
_cell_length_b 18.810786
_cell_length_c 5.605135
_cell_angle_alpha 90.000000
_cell_angle_beta 115.024210
_cell_angle_gamma 90.000000
_cell_volume 1341.676179
_symmetry_space_group_name_H-M "C M"
_symmetry_group_IT_number 8
_symmetry_cell_setting 'monoclinic'
loop_
_space_group_symop_operation_xyz
x,y,z
x,-y,z
1/2+x,1/2+y,z
1/2+x,1/2-y,z
loop_
_atom_site_type_symbol
_atom_site_label
_atom_site_fract_x
_atom_site_fract_y
_atom_site_fract_z
Si Si1 0.390490 0.080847 0.959090
Si Si2 0.441575 0.842019 0.519171
Si Si3 0.662551 0.371822 0.673225
Si Si4 0.521588 0.323294 0.145345
Si Si5 0.130126 0.732150 0.894994
Si Si6 0.954685 0.920199 0.693577
Si Si7 0.342827 0.298554 0.324087
O O1 0.436982 0.112278 0.760392
O O2 0.264532 0.079575 0.792631
O O3 0.429848 0.000000 0.020488
O O4 0.421772 0.117862 0.245359
O O5 0.562685 0.813096 0.631976
O O6 0.356459 0.777997 0.467831
O O7 0.633569 0.343816 0.379694
O O8 0.686063 0.301533 0.849644
O O9 0.561059 0.415468 0.653211
O O10 0.432119 0.293475 0.219480
O O11 0.541641 0.258681 0.986424
O O12 0.480519 0.396773 0.988598
O O13 0.225091 0.686924 0.106706
O O14 0.864537 0.866367 0.511806
O O15 0.910251 0.000000 0.641622
#
# Coordination Sequence:
#
# PCOD8053634 Si02
#       7
#     4   4   4   4   4   4   4
#     4  12  27  45  68 100 140 182 221 279 349 406
#     4  12  24  45  69  99 138 173 229 280 327 412
#     4  10  21  37  66  95 132 166 221 276 350 394
#     4  10  20  38  60  99 131 163 218 275 348 387
#     4  11  22  38  65 101 123 171 222 285 321 399
#     4  10  22  39  59  93 134 168 218 280 340 401
#     4  11  22  40  67  95 128 173 223 277 335 395
#
# _framework density 20.869416000000001
#
# number of rings (size 3 to 8) (size 9 to 14) (size 15 to 20)
#    0.000    1.143    5.714    2.571    2.000    4.000 
#    0.000    1.429    0.000    0.000    0.000    0.000 
#    0.000    0.000    0.000    0.000    0.000    0.000 
#
# Total GULP energy -173483.116481 kJ/mol
# GULP energy per Si atom -12391.651177 kJ/mol
# Density = 2.082192 g / cm^3
# Si number density = 20.869416 Si / 1000 Ang^3
#
#
#
# Elastic Constant Matrix: (Units=GPa)
#
#
# Indices 1 2 3 4 5 6 
#
# 1 32.1877 35.5843 43.6931 0.0000 12.6126 0.0000
# 2 35.5843 111.5120 36.1725 0.0000 -0.4769 0.0000
# 3 43.6931 36.1725 114.7221 0.0000 2.3920 0.0000
# 4 0.0000 0.0000 0.0000 22.1574 0.0000 23.4946
# 5 12.6126 -0.4769 2.3920 0.0000 41.7916 0.0000
# 6 0.0000 0.0000 0.0000 23.4946 0.0000 -18.2121
#
#
#
# Elastic Compliance Matrix: (Units=1/GPa)
#
#
# Indices 1 2 3 4 5 6 
#
# 1 0.135825 -0.030068 -0.041437 0.000000 -0.038963 0.000000
# 2 -0.030068 0.016649 0.006016 0.000000 0.008920 0.000000
# 3 -0.041437 0.006016 0.022366 0.000000 0.011294 0.000000
# 4 0.000000 0.000000 0.000000 0.019060 0.000000 0.024588
# 5 -0.038963 0.008920 0.011294 0.000000 0.035142 0.000000
# 6 0.000000 0.000000 0.000000 0.024588 0.000000 -0.023189
#
#
# Mechanical properties :
#
#
# Convention : Reuss Voigt Hill
#
# Bulk Modulus (GPa) = 22.79880 54.36906 38.58393
# Shear Modulus (GPa) = 14.22670 18.67886 16.45278
#
# Velocity S-wave (km/s) = 2.61377 2.99496 2.81083
# Velocity P-wave (km/s) = 4.47854 6.16995 5.39099
#
# Compressibility (1/GPa) = 0.04386196
#
# Stress axis : x y z
#
# Youngs Moduli (GPa) = 7.36244 60.06327 44.71041
#
# Poissons Ratio (x) = 1.80597 1.85268
# Poissons Ratio (y) = 0.22137 -0.26898
# Poissons Ratio (z) = 0.30508 -0.36134
#
# Static dielectric constant tensor:
#      x y z
#    x 3.469020 0.000000 -0.087770 
#    y 0.000000 3.647200 0.000000 
#    z -0.087770 0.000000 4.155910 
# 
# 
# High freq. dielectric constant tensor:
#      x y z
#    x 1.793060 0.000000 0.001940 
#    y 0.000000 1.803840 0.000000 
#    z 0.001940 0.000000 1.838430 
# 
# From -- ./inp_files/4029.got.cif
#   From: 2010.03.12/outbox.cif.g09.slc.cpg/sg8_3_cif.got.tgz:4029.got - 2010.03.31 10:45:26.
