data_PCOD8053904
_publ_section_title
;
Structure prediction by ZEFSAII (Michael W. Deem and Ramdas Pophale) SiO2 
 PCOD8053904
Probable space group: C M
;
_chemical_formula_sum "Si O2"
_cell_formula_units_Z 24
_cell_length_a 17.660879
_cell_length_b 7.752362
_cell_length_c 9.640608
_cell_angle_alpha 90.000000
_cell_angle_beta 90.204972
_cell_angle_gamma 90.000000
_cell_volume 1319.921200
_symmetry_space_group_name_H-M "C M"
_symmetry_group_IT_number 8
_symmetry_cell_setting 'monoclinic'
loop_
_space_group_symop_operation_xyz
x,y,z
x,-y,z
1/2+x,1/2+y,z
1/2+x,1/2-y,z
loop_
_atom_site_type_symbol
_atom_site_label
_atom_site_fract_x
_atom_site_fract_y
_atom_site_fract_z
Si Si1 0.947470 0.189444 0.696470
Si Si2 0.087337 0.000000 0.653864
Si Si3 0.041348 0.000000 0.351706
Si Si4 0.720440 0.500000 0.856479
Si Si5 0.792926 0.193973 0.219217
Si Si6 0.179799 0.000000 0.161043
Si Si7 0.853809 0.689241 0.945622
Si Si8 0.427553 0.806295 0.402428
O O1 0.920697 0.251311 0.846172
O O2 0.922400 0.311595 0.570344
O O3 0.912413 0.000000 0.664320
O O4 0.039488 0.170263 0.701338
O O5 0.170282 0.000000 0.718945
O O6 0.094903 0.000000 0.487594
O O7 0.989988 0.171326 0.348699
O O8 0.095298 0.000000 0.219458
O O9 0.774820 0.670254 0.857918
O O10 0.669573 0.500000 0.995031
O O11 0.723812 0.327720 0.208816
O O12 0.845778 0.251205 0.346057
O O13 0.762003 0.000000 0.245146
O O14 0.842572 0.187857 0.077406
O O15 0.874704 0.500000 0.006917
O O16 0.448344 0.000000 0.352520
#
# Coordination Sequence:
#
# PCOD8053904 Si02
#       8
#     4   2   2   2   4   2   4   4
#     4   9  18  32  53  82 108 140 185 226 276 326
#     4   8  18  34  52  76 109 146 179 218 279 328
#     4  10  22  38  54  84 115 148 187 228 285 334
#     4   8  18  34  52  76 109 146 179 218 279 328
#     4  11  20  36  58  82 114 147 188 235 278 332
#     4  10  22  38  54  84 115 148 187 228 285 334
#     4   9  18  32  53  82 108 140 185 226 276 326
#     4  11  20  36  58  82 114 147 188 235 278 332
#
# _framework density 18.182903
#
# number of rings (size 3 to 8) (size 9 to 14) (size 15 to 20)
#    1.000    1.333    3.333    1.000    0.000    3.333 
#    0.000    0.000    0.000   25.000    0.000    0.000 
#    0.000    0.000    0.000    0.000    0.000    0.000 
#
# Total GULP energy -148672.692339 kJ/mol
# GULP energy per Si atom -12389.391028 kJ/mol
# Density = 1.814152 g / cm^3
# Si number density = 18.182903 Si / 1000 Ang^3
#
#
#
# Elastic Constant Matrix: (Units=GPa)
#
#
# Indices 1 2 3 4 5 6 
#
# 1 25.4667 12.8190 3.7449 0.0000 -1.2769 0.0000
# 2 12.8190 122.8500 0.8579 0.0000 2.1238 0.0000
# 3 3.7449 0.8579 26.0906 0.0000 0.6002 0.0000
# 4 0.0000 0.0000 0.0000 14.4100 0.0000 8.9606
# 5 -1.2769 2.1238 0.6002 0.0000 38.7827 0.0000
# 6 0.0000 0.0000 0.0000 8.9606 0.0000 8.7712
#
#
#
# Elastic Compliance Matrix: (Units=1/GPa)
#
#
# Indices 1 2 3 4 5 6 
#
# 1 0.042459 -0.004419 -0.005989 0.000000 0.001733 0.000000
# 2 -0.004419 0.008609 0.000365 0.000000 -0.000623 0.000000
# 3 -0.005989 0.000365 0.039195 0.000000 -0.000824 0.000000
# 4 0.000000 0.000000 0.000000 0.190259 0.000000 -0.194366
# 5 0.001733 -0.000623 -0.000824 0.000000 0.025889 0.000000
# 6 0.000000 0.000000 0.000000 -0.194366 0.000000 0.312572
#
#
# Mechanical properties :
#
#
# Convention : Reuss Voigt Hill
#
# Bulk Modulus (GPa) = 14.24939 23.25012 18.74975
# Shear Modulus (GPa) = 7.54764 22.85847 15.20306
#
# Velocity S-wave (km/s) = 2.03960 3.54946 2.89471
# Velocity P-wave (km/s) = 3.66065 5.44177 4.63752
#
# Compressibility (1/GPa) = 0.07017847
#
# Stress axis : x y z
#
# Youngs Moduli (GPa) = 23.55235 116.15367 25.51374
#
# Poissons Ratio (x) = 0.51323 0.15280
# Poissons Ratio (y) = 0.10407 -0.00932
# Poissons Ratio (z) = 0.14105 -0.04245
#
# Static dielectric constant tensor:
#      x y z
#    x 3.042790 0.000000 -0.035770 
#    y 0.000000 3.342990 0.000000 
#    z -0.035770 0.000000 3.223380 
# 
# 
# High freq. dielectric constant tensor:
#      x y z
#    x 1.675100 0.000000 -0.002090 
#    y 0.000000 1.701000 0.000000 
#    z -0.002090 0.000000 1.704170 
# 
# From -- ./inp_files/14279.got.cif
#   From: 2010.03.12/outbox.cif.g09.slc.cpg/sg8_8_cif.got.tgz:14279.got - 2010.03.31 10:45:26.
