data_PCOD8053992
_publ_section_title
;
Structure prediction by ZEFSAII (Michael W. Deem and Ramdas Pophale) SiO2 
 PCOD8053992
Probable space group: C M
;
_chemical_formula_sum "Si O2"
_cell_formula_units_Z 32
_cell_length_a 14.776570
_cell_length_b 22.629204
_cell_length_c 9.257032
_cell_angle_alpha 90.000000
_cell_angle_beta 149.805067
_cell_angle_gamma 90.000000
_cell_volume 1556.803818
_symmetry_space_group_name_H-M "C M"
_symmetry_group_IT_number 8
_symmetry_cell_setting 'monoclinic'
loop_
_space_group_symop_operation_xyz
x,y,z
x,-y,z
1/2+x,1/2+y,z
1/2+x,1/2-y,z
loop_
_atom_site_type_symbol
_atom_site_label
_atom_site_fract_x
_atom_site_fract_y
_atom_site_fract_z
Si Si1 0.823990 0.155286 0.796270
Si Si2 0.104774 0.933093 0.315184
Si Si3 0.939465 0.770792 0.698028
Si Si4 0.127755 0.066700 0.690327
Si Si5 0.296744 0.738283 0.018335
Si Si6 0.826116 0.845556 0.296641
Si Si7 0.933522 0.357790 0.774515
Si Si8 0.961240 0.357914 0.152284
O O1 0.953389 0.189779 0.861999
O O2 0.744144 0.200892 0.804231
O O3 0.655121 0.124456 0.483216
O O4 0.935338 0.102999 0.023611
O O5 0.106772 0.931083 0.490092
O O6 0.291855 0.904893 0.516477
O O7 0.092089 0.000000 0.240121
O O8 0.797239 0.802748 0.395370
O O9 0.860728 0.706972 0.631304
O O10 0.127261 0.764945 0.871648
O O11 0.957730 0.101436 0.521826
O O12 0.124382 0.000000 0.744284
O O13 0.308405 0.097403 0.999922
O O14 0.407106 0.694150 0.277515
O O15 0.426080 0.790922 0.151140
O O16 0.630352 0.869533 0.976445
O O17 0.958260 0.364542 0.977966
#
# Coordination Sequence:
#
# PCOD8053992 Si02
#       8
#     4   4   4   4   4   4   4   4
#     4  12  24  40  67  96 134 176 207 273 332 380
#     4  10  24  45  64  88 126 177 225 261 314 392
#     4  11  23  38  63 100 139 161 210 266 329 391
#     4  10  22  43  67  90 128 176 222 264 317 392
#     4  11  23  38  62  96 140 167 209 262 331 397
#     4  11  21  41  61  99 129 168 212 268 322 386
#     4  10  23  37  65  94 129 169 211 264 325 384
#     4  11  22  38  63  97 127 170 214 262 328 386
#
# _framework density 20.554933999999999
#
# number of rings (size 3 to 8) (size 9 to 14) (size 15 to 20)
#    0.000    1.250    5.000    0.750    5.250    1.000 
#    0.000    0.625    0.000    0.000    0.000    0.000 
#    0.000    0.000    0.000    0.000    0.000    0.000 
#
# Total GULP energy -198383.737175 kJ/mol
# GULP energy per Si atom -12398.983573 kJ/mol
# Density = 2.050815 g / cm^3
# Si number density = 20.554934 Si / 1000 Ang^3
#
#
#
# Elastic Constant Matrix: (Units=GPa)
#
#
# Indices 1 2 3 4 5 6 
#
# 1 55.0412 30.4484 29.7628 0.0000 0.4548 0.0000
# 2 30.4484 140.9500 68.6881 0.0000 15.6080 0.0000
# 3 29.7628 68.6881 117.2022 0.0000 18.7029 0.0000
# 4 0.0000 0.0000 0.0000 25.8680 0.0000 2.2126
# 5 0.4548 15.6080 18.7029 0.0000 33.6121 0.0000
# 6 0.0000 0.0000 0.0000 2.2126 0.0000 22.6337
#
#
#
# Elastic Compliance Matrix: (Units=1/GPa)
#
#
# Indices 1 2 3 4 5 6 
#
# 1 0.022215 -0.003034 -0.004434 0.000000 0.003575 0.000000
# 2 -0.003034 0.010415 -0.005014 0.000000 -0.002006 0.000000
# 3 -0.004434 -0.005014 0.013406 0.000000 -0.005071 0.000000
# 4 0.000000 0.000000 0.000000 0.038984 0.000000 -0.003811
# 5 0.003575 -0.002006 -0.005071 0.000000 0.033456 0.000000
# 6 0.000000 0.000000 0.000000 -0.003811 0.000000 0.044554
#
#
# Mechanical properties :
#
#
# Convention : Reuss Voigt Hill
#
# Bulk Modulus (GPa) = 47.45390 63.44356 55.44873
# Shear Modulus (GPa) = 25.63880 28.70903 27.17391
#
# Velocity S-wave (km/s) = 3.53559 3.74130 3.63990
# Velocity P-wave (km/s) = 6.30902 7.04240 6.68577
#
# Compressibility (1/GPa) = 0.02107308
#
# Stress axis : x y z
#
# Youngs Moduli (GPa) = 45.01551 96.01084 74.59518
#
# Poissons Ratio (x) = 0.29131 0.33072
# Poissons Ratio (y) = 0.13658 0.37399
# Poissons Ratio (z) = 0.19958 0.48136
#
# Static dielectric constant tensor:
#      x y z
#    x 3.714930 0.000000 -0.032760 
#    y 0.000000 3.819840 0.000000 
#    z -0.032760 0.000000 3.758070 
# 
# 
# High freq. dielectric constant tensor:
#      x y z
#    x 1.799140 0.000000 0.003530 
#    y 0.000000 1.791580 0.000000 
#    z 0.003530 0.000000 1.804180 
# 
# From -- ./inp_files/13830.got.cif
#   From: 2010.03.12/outbox.cif.g09.slc.cpg/sg8_7_cif.got.tgz:13830.got - 2010.03.31 10:45:26.
