data_PCOD8053874
_publ_section_title
;
Structure prediction by ZEFSAII (Michael W. Deem and Ramdas Pophale) SiO2 
 PCOD8053874
Probable space group: C M
;
_chemical_formula_sum "Si O2"
_cell_formula_units_Z 32
_cell_length_a 12.021489
_cell_length_b 17.257036
_cell_length_c 14.366223
_cell_angle_alpha 90.000000
_cell_angle_beta 150.233828
_cell_angle_gamma 90.000000
_cell_volume 1479.628471
_symmetry_space_group_name_H-M "C M"
_symmetry_group_IT_number 8
_symmetry_cell_setting 'monoclinic'
loop_
_space_group_symop_operation_xyz
x,y,z
x,-y,z
1/2+x,1/2+y,z
1/2+x,1/2-y,z
loop_
_atom_site_type_symbol
_atom_site_label
_atom_site_fract_x
_atom_site_fract_y
_atom_site_fract_z
Si Si1 0.926290 0.908022 0.848590
Si Si2 0.257481 0.335530 0.199579
Si Si3 0.081121 0.672142 0.735650
Si Si4 0.728869 0.730783 0.015880
Si Si5 0.860540 0.913998 0.597666
Si Si6 0.742675 0.224005 0.384783
Si Si7 0.819098 0.413393 0.850410
Si Si8 0.209186 0.090072 0.570114
O O1 0.787413 0.869945 0.832822
O O2 0.782152 0.902329 0.647988
O O3 0.984644 0.000000 0.911000
O O4 0.146756 0.855144 0.987856
O O5 0.142789 0.291014 0.030168
O O6 0.296186 0.281079 0.315455
O O7 0.498652 0.375489 0.359028
O O8 0.051240 0.392896 0.070127
O O9 0.913733 0.711138 0.541999
O O10 0.943874 0.605863 0.689108
O O11 0.154235 0.741889 0.858396
O O12 0.989529 0.747684 0.215303
O O13 0.130846 0.903091 0.792645
O O14 0.750296 0.856240 0.445980
O O15 0.795704 0.000000 0.516034
O O16 0.850406 0.500000 0.838149
O O17 0.732839 0.371856 0.691421
O O18 0.161339 0.000000 0.538575
#
# Coordination Sequence:
#
# PCOD8053874 Si02
#       8
#     4   4   4   4   4   4   4   4
#     4  11  26  48  74 101 143 195 240 291 361 432
#     4  12  24  39  68 104 137 178 233 293 354 417
#     4  12  26  47  72 101 143 189 236 292 354 431
#     4  12  26  45  71 104 136 186 245 293 355 427
#     4  10  22  42  69 100 134 183 234 290 357 420
#     4  12  26  40  69 102 135 182 235 298 355 419
#     4  10  21  40  68 101 138 178 226 289 352 412
#     4  11  23  43  69 101 140 185 231 284 356 428
#
# _framework density 21.627051000000002
#
# number of rings (size 3 to 8) (size 9 to 14) (size 15 to 20)
#    0.000    0.750    5.000    2.250    5.250    1.000 
#    0.000    0.000    0.000    0.000    0.000    0.000 
#    0.000    0.000    0.000    0.000    0.000    0.000 
#
# Total GULP energy -198221.610356 kJ/mol
# GULP energy per Si atom -12388.850647 kJ/mol
# Density = 2.157783 g / cm^3
# Si number density = 21.627051 Si / 1000 Ang^3
#
#
#
# Elastic Constant Matrix: (Units=GPa)
#
#
# Indices 1 2 3 4 5 6 
#
# 1 100.6768 35.8919 15.9784 -0.0568 -8.5168 -0.0302
# 2 35.8919 92.7060 32.2793 -0.1013 1.3307 -0.0760
# 3 15.9784 32.2793 97.6000 -0.2582 -2.4181 -0.1766
# 4 -0.0568 -0.1013 -0.2582 31.8333 -0.0967 -2.2099
# 5 -8.5168 1.3307 -2.4181 -0.0967 26.5949 -0.0464
# 6 -0.0302 -0.0760 -0.1766 -2.2099 -0.0464 28.0230
#
#
#
# Elastic Compliance Matrix: (Units=1/GPa)
#
#
# Indices 1 2 3 4 5 6 
#
# 1 0.011956 -0.004566 -0.000348 0.000017 0.004026 0.000006
# 2 -0.004566 0.013960 -0.003932 -0.000003 -0.002518 0.000004
# 3 -0.000348 -0.003932 0.011632 0.000090 0.001143 0.000071
# 4 0.000017 -0.000003 0.000090 0.031588 0.000133 0.002492
# 5 0.004026 -0.002518 0.001143 0.000133 0.039121 0.000080
# 6 0.000006 0.000004 0.000071 0.002492 0.000080 0.035882
#
#
# Mechanical properties :
#
#
# Convention : Reuss Voigt Hill
#
# Bulk Modulus (GPa) = 50.35867 51.03133 50.69500
# Shear Modulus (GPa) = 29.68281 31.07914 30.38097
#
# Velocity S-wave (km/s) = 3.70873 3.79496 3.75209
# Velocity P-wave (km/s) = 6.45563 6.54596 6.50095
#
# Compressibility (1/GPa) = 0.01985755
#
# Stress axis : x y z
#
# Youngs Moduli (GPa) = 83.63855 71.63534 85.97073
#
# Poissons Ratio (x) = 0.32706 0.02988
# Poissons Ratio (y) = 0.38187 0.33802
# Poissons Ratio (z) = 0.02907 0.28165
#
# Static dielectric constant tensor:
#      x y z
#    x 4.085790 0.000040 -0.095430 
#    y 0.000040 3.914680 -0.000050 
#    z -0.095430 -0.000050 3.828670 
# 
# 
# High freq. dielectric constant tensor:
#      x y z
#    x 1.857790 0.000000 -0.003090 
#    y 0.000000 1.848890 -0.000010 
#    z -0.003090 -0.000010 1.844350 
# 
# From -- ./inp_files/26262.got.cif
#   From: 2010.03.12/outbox.cif.g09.slc.cpg/sg8_14_cif.got.tgz:26262.got - 2010.03.31 10:45:26.
