data_PCOD8053336
_publ_section_title
;
Structure prediction by ZEFSAII (Michael W. Deem and Ramdas Pophale) SiO2 
 PCOD8053336
Probable space group: C M
;
_chemical_formula_sum "Si O2"
_cell_formula_units_Z 32
_cell_length_a 22.937828
_cell_length_b 8.702862
_cell_length_c 11.573834
_cell_angle_alpha 90.000000
_cell_angle_beta 131.765611
_cell_angle_gamma 90.000000
_cell_volume 1723.289429
_symmetry_space_group_name_H-M "C M"
_symmetry_group_IT_number 8
_symmetry_cell_setting 'monoclinic'
loop_
_space_group_symop_operation_xyz
x,y,z
x,-y,z
1/2+x,1/2+y,z
1/2+x,1/2-y,z
loop_
_atom_site_type_symbol
_atom_site_label
_atom_site_fract_x
_atom_site_fract_y
_atom_site_fract_z
Si Si1 0.255080 0.179014 0.659750
Si Si2 0.334954 0.177960 0.080228
Si Si3 0.312378 0.825163 0.500864
Si Si4 0.542312 0.673377 0.698336
Si Si5 0.872156 0.824881 0.367249
Si Si6 0.956751 0.823103 0.803251
Si Si7 0.684386 0.821390 0.767876
Si Si8 0.403618 0.324692 0.968053
O O1 0.243730 0.207041 0.506154
O O2 0.180794 0.229511 0.639842
O O3 0.322941 0.289803 0.795988
O O4 0.275230 0.000000 0.708454
O O5 0.360363 0.216868 0.242527
O O6 0.315759 0.000000 0.045407
O O7 0.257355 0.269926 0.942678
O O8 0.406965 0.220646 0.088017
O O9 0.308370 0.718126 0.382208
O O10 0.392568 0.797522 0.675687
O O11 0.309190 0.000000 0.453416
O O12 0.570416 0.500000 0.709771
O O13 0.458399 0.704631 0.529998
O O14 0.534190 0.699821 0.826861
O O15 0.604810 0.791002 0.731599
O O16 0.858647 0.000000 0.312688
O O17 0.971770 0.793846 0.961154
O O18 0.926735 0.000000 0.745858
O O19 0.690826 0.000000 0.750355
O O20 0.405726 0.500000 0.012839
#
# Coordination Sequence:
#
# PCOD8053336 Si02
#       8
#     4   4   4   4   4   4   4   4
#     4   9  16  27  44  67  95 125 158 197 240 283
#     4  11  21  33  50  72 100 131 163 200 243 289
#     4   9  16  26  44  70  96 122 156 198 240 282
#     4   9  18  33  51  72  99 129 160 197 243 291
#     4  10  20  34  52  73  99 130 162 198 242 290
#     4   8  15  27  45  68  94 125 158 196 239 283
#     4  11  21  32  49  73 100 130 165 203 242 284
#     4   9  15  26  45  69  95 122 158 199 239 282
#
# _framework density 18.569137999999999
#
# number of rings (size 3 to 8) (size 9 to 14) (size 15 to 20)
#    0.000    2.500    0.000    6.000    0.000    4.500 
#    0.000    0.000    0.000    1.500    0.000    7.000 
#    0.000    0.000    0.000    0.000    0.000    0.000 
#
# Total GULP energy -198220.285638 kJ/mol
# GULP energy per Si atom -12388.767852 kJ/mol
# Density = 1.852687 g / cm^3
# Si number density = 18.569138 Si / 1000 Ang^3
#
#
#
# Elastic Constant Matrix: (Units=GPa)
#
#
# Indices 1 2 3 4 5 6 
#
# 1 134.1215 38.2130 38.2890 0.0000 -34.2865 0.0000
# 2 38.2130 77.9453 18.9539 0.0000 -9.1108 0.0000
# 3 38.2890 18.9539 43.6595 0.0000 -24.9515 0.0000
# 4 0.0000 0.0000 0.0000 22.1643 0.0000 -6.3208
# 5 -34.2865 -9.1108 -24.9515 0.0000 30.8077 0.0000
# 6 0.0000 0.0000 0.0000 -6.3208 0.0000 30.8633
#
#
#
# Elastic Compliance Matrix: (Units=1/GPa)
#
#
# Indices 1 2 3 4 5 6 
#
# 1 0.011945 -0.003931 -0.003419 0.000000 0.009363 0.000000
# 2 -0.003931 0.015674 -0.005973 0.000000 -0.004577 0.000000
# 3 -0.003419 -0.005973 0.047124 0.000000 0.032595 0.000000
# 4 0.000000 0.000000 0.000000 0.047916 0.000000 0.009813
# 5 0.009363 -0.004577 0.032595 0.000000 0.067926 0.000000
# 6 0.000000 0.000000 0.000000 0.009813 0.000000 0.034411
#
#
# Mechanical properties :
#
#
# Convention : Reuss Voigt Hill
#
# Bulk Modulus (GPa) = 20.79055 49.62646 35.20851
# Shear Modulus (GPa) = 18.67950 27.45174 23.06562
#
# Velocity S-wave (km/s) = 3.17510 3.84911 3.52824
# Velocity P-wave (km/s) = 4.96611 6.82183 5.96656
#
# Compressibility (1/GPa) = 0.04809877
#
# Stress axis : x y z
#
# Youngs Moduli (GPa) = 83.71538 63.79995 21.22057
#
# Poissons Ratio (x) = 0.25077 0.07254
# Poissons Ratio (y) = 0.32904 0.12676
# Poissons Ratio (z) = 0.28618 0.38109
#
# Static dielectric constant tensor:
#      x y z
#    x 4.001570 0.000000 -0.597590 
#    y 0.000000 3.407520 0.000000 
#    z -0.597590 0.000000 2.944630 
# 
# 
# High freq. dielectric constant tensor:
#      x y z
#    x 1.732010 0.000000 -0.050800 
#    y 0.000000 1.730550 0.000000 
#    z -0.050800 0.000000 1.655830 
# 
# From -- ./inp_files/24314.got.cif
#   From: 2010.03.12/outbox.cif.g09.slc.cpg/sg8_13_cif.got.tgz:24314.got - 2010.03.31 10:45:26.
