data_PCOD8053539
_publ_section_title
;
Structure prediction by ZEFSAII (Michael W. Deem and Ramdas Pophale) SiO2 
 PCOD8053539
Probable space group: C M
;
_chemical_formula_sum "Si O2"
_cell_formula_units_Z 32
_cell_length_a 23.911590
_cell_length_b 8.831182
_cell_length_c 25.128879
_cell_angle_alpha 90.000000
_cell_angle_beta 17.758185
_cell_angle_gamma 90.000000
_cell_volume 1618.455431
_symmetry_space_group_name_H-M "C M"
_symmetry_group_IT_number 8
_symmetry_cell_setting 'monoclinic'
loop_
_space_group_symop_operation_xyz
x,y,z
x,-y,z
1/2+x,1/2+y,z
1/2+x,1/2-y,z
loop_
_atom_site_type_symbol
_atom_site_label
_atom_site_fract_x
_atom_site_fract_y
_atom_site_fract_z
Si Si1 0.431210 0.825809 0.955080
Si Si2 0.051470 0.323613 0.447773
Si Si3 0.037320 0.174154 0.349683
Si Si4 0.664292 0.679428 0.652562
Si Si5 0.266561 0.826156 0.345548
Si Si6 0.657840 0.173941 0.953767
Si Si7 0.041978 0.179189 0.649718
Si Si8 0.644747 0.323554 0.854000
O O1 0.519067 0.732244 0.827763
O O2 0.503789 0.768266 0.945803
O O3 0.487218 0.000000 0.897688
O O4 0.211473 0.804811 0.152966
O O5 0.075347 0.500000 0.413912
O O6 0.848803 0.283611 0.650888
O O7 0.095100 0.231251 0.355339
O O8 0.194489 0.275529 0.362951
O O9 0.869012 0.268408 0.479393
O O10 0.978225 0.000000 0.407340
O O11 0.664093 0.500000 0.652924
O O12 0.603720 0.747599 0.650382
O O13 0.183067 0.764806 0.476520
O O14 0.206138 0.000000 0.390529
O O15 0.486586 0.811610 0.149191
O O16 0.837625 0.236638 0.820897
O O17 0.617043 0.274744 0.939582
O O18 0.687514 0.000000 0.908882
O O19 0.044811 0.000000 0.651486
O O20 0.601040 0.500000 0.887868
#
# Coordination Sequence:
#
# PCOD8053539 Si02
#       8
#     4   4   4   4   4   4   4   4
#     4  11  24  41  62  88 119 158 199 241 294 355
#     4  11  22  36  58  89 121 154 191 238 297 351
#     4  11  24  41  62  88 119 158 199 241 294 355
#     4  11  23  40  63  90 117 154 200 249 300 343
#     4  10  20  36  60  87 115 152 194 235 286 348
#     4  10  20  36  60  87 115 152 194 235 286 348
#     4   9  20  38  59  84 115 150 194 243 288 339
#     4  11  22  36  58  89 121 154 191 238 297 351
#
# _framework density 19.771937000000001
#
# number of rings (size 3 to 8) (size 9 to 14) (size 15 to 20)
#    0.000    1.500    2.500    2.625    0.000    7.500 
#    0.000    5.000    0.000    0.000    0.000    0.000 
#    0.000    0.000    0.000    0.000    0.000    0.000 
#
# Total GULP energy -198468.447590 kJ/mol
# GULP energy per Si atom -12404.277974 kJ/mol
# Density = 1.972694 g / cm^3
# Si number density = 19.771937 Si / 1000 Ang^3
#
#
#
# Elastic Constant Matrix: (Units=GPa)
#
#
# Indices 1 2 3 4 5 6 
#
# 1 142.8506 30.4229 58.6242 0.0037 10.6602 0.0048
# 2 30.4229 69.2605 42.0620 0.0098 -0.0092 0.0036
# 3 58.6242 42.0620 134.2724 0.0002 -3.0376 0.0046
# 4 0.0037 0.0098 0.0002 24.6263 0.0047 0.5625
# 5 10.6602 -0.0092 -3.0376 0.0047 5.3754 -0.0120
# 6 0.0048 0.0036 0.0046 0.5625 -0.0120 26.2259
#
#
#
# Elastic Compliance Matrix: (Units=1/GPa)
#
#
# Indices 1 2 3 4 5 6 
#
# 1 0.011310 -0.002008 -0.004879 0.000004 -0.025190 -0.000013
# 2 -0.002008 0.018240 -0.004808 -0.000007 0.001297 -0.000001
# 3 -0.004879 -0.004808 0.011449 -0.000001 0.016137 0.000007
# 4 0.000004 -0.000007 -0.000001 0.040627 -0.000046 -0.000871
# 5 -0.025190 0.001297 0.016137 -0.000046 0.245109 0.000115
# 6 -0.000013 -0.000001 0.000007 -0.000871 0.000115 0.038149
#
#
# Mechanical properties :
#
#
# Convention : Reuss Voigt Hill
#
# Bulk Modulus (GPa) = 56.78794 67.62240 62.20517
# Shear Modulus (GPa) = 12.68573 25.59715 19.14144
#
# Velocity S-wave (km/s) = 2.53574 3.60199 3.11482
# Velocity P-wave (km/s) = 6.11205 7.18154 6.66827
#
# Compressibility (1/GPa) = 0.01760937
#
# Stress axis : x y z
#
# Youngs Moduli (GPa) = 88.41699 54.82345 87.34570
#
# Poissons Ratio (x) = 0.11011 0.42614
# Poissons Ratio (y) = 0.17758 0.41993
# Poissons Ratio (z) = 0.43136 0.26358
#
# Static dielectric constant tensor:
#      x y z
#    x 3.653870 -0.000010 -0.007430 
#    y -0.000010 3.512980 0.000060 
#    z -0.007430 0.000060 3.824430 
# 
# 
# High freq. dielectric constant tensor:
#      x y z
#    x 1.764080 0.000000 -0.001790 
#    y 0.000000 1.762530 0.000010 
#    z -0.001790 0.000010 1.788870 
# 
# From -- ./inp_files/32406.got.cif
#   From: 2010.03.12/outbox.cif.g09.slc.cpg/sg8_17_cif.got.tgz:32406.got - 2010.03.31 10:45:26.
