data_PCOD8053826
_publ_section_title
;
Structure prediction by ZEFSAII (Michael W. Deem and Ramdas Pophale) SiO2 
 PCOD8053826
Probable space group: C M
;
_chemical_formula_sum "Si O2"
_cell_formula_units_Z 32
_cell_length_a 24.892640
_cell_length_b 8.715389
_cell_length_c 16.455844
_cell_angle_alpha 90.000000
_cell_angle_beta 153.518833
_cell_angle_gamma 90.000000
_cell_volume 1591.911426
_symmetry_space_group_name_H-M "C M"
_symmetry_group_IT_number 8
_symmetry_cell_setting 'monoclinic'
loop_
_space_group_symop_operation_xyz
x,y,z
x,-y,z
1/2+x,1/2+y,z
1/2+x,1/2-y,z
loop_
_atom_site_type_symbol
_atom_site_label
_atom_site_fract_x
_atom_site_fract_y
_atom_site_fract_z
Si Si1 0.791660 0.319916 0.545580
Si Si2 0.646148 0.181246 0.895871
Si Si3 0.748175 0.675484 0.304558
Si Si4 0.545031 0.675389 0.912869
Si Si5 0.605124 0.821196 0.412371
Si Si6 0.827337 0.680883 0.022982
Si Si7 0.467201 0.319420 0.528562
Si Si8 0.147231 0.680256 0.654692
O O1 0.814189 0.500000 0.576925
O O2 0.759490 0.261563 0.411509
O O3 0.681208 0.279376 0.453625
O O4 0.911089 0.239035 0.740316
O O5 0.628986 0.228579 0.965519
O O6 0.769423 0.247940 0.025897
O O7 0.532353 0.250223 0.695164
O O8 0.648068 0.000000 0.889556
O O9 0.792871 0.500000 0.360449
O O10 0.827792 0.775695 0.349879
O O11 0.609347 0.689126 0.087893
O O12 0.539081 0.500000 0.875058
O O13 0.649567 0.780390 0.562944
O O14 0.624762 0.000000 0.420503
O O15 0.466825 0.773805 0.211779
O O16 0.807958 0.500000 0.999497
O O17 0.763279 0.745672 0.855392
O O18 0.485005 0.500000 0.548577
O O19 0.523125 0.247013 0.522855
O O20 0.149563 0.500000 0.674184
#
# Coordination Sequence:
#
# PCOD8053826 Si02
#       8
#     4   4   4   4   4   4   4   4
#     4  11  24  43  65  89 122 162 206 258 306 360
#     4  11  21  36  59  90 128 163 200 251 309 365
#     4  10  23  41  61  88 123 162 201 250 310 369
#     4  11  23  40  63  90 122 163 205 250 309 369
#     4  10  24  43  64  87 120 165 208 249 304 369
#     4  10  21  39  61  90 122 160 204 252 305 361
#     4  11  21  35  60  92 125 162 201 251 307 364
#     4  10  21  39  61  88 122 163 201 249 308 365
#
# _framework density 20.101621000000002
#
# number of rings (size 3 to 8) (size 9 to 14) (size 15 to 20)
#    0.000    1.500    1.250    5.250    1.750    4.500 
#    0.000    3.750    0.000    0.000    0.000    0.000 
#    0.000    0.000    0.000    0.000    0.000    0.000 
#
# Total GULP energy -198450.974248 kJ/mol
# GULP energy per Si atom -12403.185890 kJ/mol
# Density = 2.005587 g / cm^3
# Si number density = 20.101621 Si / 1000 Ang^3
#
#
#
# Elastic Constant Matrix: (Units=GPa)
#
#
# Indices 1 2 3 4 5 6 
#
# 1 106.8855 47.3936 55.7635 0.0000 12.4171 0.0000
# 2 47.3936 121.4503 51.2980 0.0000 6.8900 0.0000
# 3 55.7635 51.2980 121.7565 0.0000 14.6794 0.0000
# 4 0.0000 0.0000 0.0000 28.2868 0.0000 3.0541
# 5 12.4171 6.8900 14.6794 0.0000 24.7252 0.0000
# 6 0.0000 0.0000 0.0000 3.0541 0.0000 36.1369
#
#
#
# Elastic Compliance Matrix: (Units=1/GPa)
#
#
# Indices 1 2 3 4 5 6 
#
# 1 0.013460 -0.003199 -0.004426 0.000000 -0.003240 0.000000
# 2 -0.003199 0.010779 -0.003132 0.000000 0.000462 0.000000
# 3 -0.004426 -0.003132 0.012049 0.000000 -0.004058 0.000000
# 4 0.000000 0.000000 0.000000 0.035678 0.000000 -0.003015
# 5 -0.003240 0.000462 -0.004058 0.000000 0.044352 0.000000
# 6 0.000000 0.000000 0.000000 -0.003015 0.000000 0.027927
#
#
# Mechanical properties :
#
#
# Convention : Reuss Voigt Hill
#
# Bulk Modulus (GPa) = 67.68817 73.22250 70.45534
# Shear Modulus (GPa) = 29.29397 30.87226 30.08311
#
# Velocity S-wave (km/s) = 3.82159 3.92319 3.87273
# Velocity P-wave (km/s) = 7.29513 7.55163 7.42449
#
# Compressibility (1/GPa) = 0.01477363
#
# Stress axis : x y z
#
# Youngs Moduli (GPa) = 74.29495 92.77446 82.99509
#
# Poissons Ratio (x) = 0.29680 0.36733
# Poissons Ratio (y) = 0.23768 0.25993
# Poissons Ratio (z) = 0.32883 0.29055
#
# Static dielectric constant tensor:
#      x y z
#    x 3.581280 0.000000 -0.047250 
#    y 0.000000 3.685380 0.000000 
#    z -0.047250 0.000000 3.712630 
# 
# 
# High freq. dielectric constant tensor:
#      x y z
#    x 1.778560 0.000000 -0.000730 
#    y 0.000000 1.793710 0.000000 
#    z -0.000730 0.000000 1.791140 
# 
# From -- ./inp_files/24832.got.cif
#   From: 2010.03.12/outbox.cif.g09.slc.cpg/sg8_13_cif.got.tgz:24832.got - 2010.03.31 10:45:26.
