data_PCOD8053636
_publ_section_title
;
Structure prediction by ZEFSAII (Michael W. Deem and Ramdas Pophale) SiO2 
 PCOD8053636
Probable space group: C M
;
_chemical_formula_sum "Si O2"
_cell_formula_units_Z 28
_cell_length_a 5.020864
_cell_length_b 31.641549
_cell_length_c 9.571400
_cell_angle_alpha 90.000000
_cell_angle_beta 62.483189
_cell_angle_gamma 90.000000
_cell_volume 1348.572275
_symmetry_space_group_name_H-M "C M"
_symmetry_group_IT_number 8
_symmetry_cell_setting 'monoclinic'
loop_
_space_group_symop_operation_xyz
x,y,z
x,-y,z
1/2+x,1/2+y,z
1/2+x,1/2-y,z
loop_
_atom_site_type_symbol
_atom_site_label
_atom_site_fract_x
_atom_site_fract_y
_atom_site_fract_z
Si Si1 0.561590 0.000000 0.311790
Si Si2 0.051340 0.869134 0.517523
Si Si3 0.303540 0.274106 0.893306
Si Si4 0.734776 0.500000 0.100584
Si Si5 0.674540 0.089312 0.381191
Si Si6 0.813209 0.869667 0.884802
Si Si7 0.074011 0.226244 0.520103
Si Si8 0.184560 0.089319 0.027859
O O1 0.543777 0.958543 0.413748
O O2 0.313882 0.000000 0.247417
O O3 0.879755 0.000000 0.158998
O O4 0.392644 0.882602 0.403581
O O5 0.034951 0.820857 0.469618
O O6 0.800468 0.897548 0.501569
O O7 0.974527 0.873241 0.697802
O O8 0.464470 0.242948 0.964438
O O9 0.333898 0.322146 0.940097
O O10 0.434979 0.270655 0.706865
O O11 0.842245 0.542761 0.997454
O O12 0.957007 0.095777 0.211021
O O13 0.458733 0.878319 0.965357
O O14 0.990264 0.903234 0.936507
O O15 0.417347 0.241293 0.450301
#
# Coordination Sequence:
#
# PCOD8053636 Si02
#       8
#     2   4   4   2   4   4   4   4
#     4  10  20  38  61  84 109 150 201 232 263 340
#     4  11  22  37  59  89 119 146 188 243 291 332
#     4   9  17  31  53  79 108 147 191 229 269 330
#     4  10  20  38  61  84 109 150 201 232 263 340
#     4  11  22  39  61  84 113 153 194 233 282 343
#     4  11  22  37  59  89 119 146 188 243 291 332
#     4   9  17  31  53  79 108 147 191 229 269 330
#     4  11  22  39  61  84 113 153 194 233 282 343
#
# _framework density 20.762696999999999
#
# number of rings (size 3 to 8) (size 9 to 14) (size 15 to 20)
#    0.000    1.714    0.000    6.857    0.000    4.571 
#    0.000    4.286    0.000   17.143    0.000    0.000 
#    0.000    0.000    0.000    0.000    0.000    0.000 
#
# Total GULP energy -173535.030390 kJ/mol
# GULP energy per Si atom -12395.359314 kJ/mol
# Density = 2.071544 g / cm^3
# Si number density = 20.762697 Si / 1000 Ang^3
#
#
#
# Elastic Constant Matrix: (Units=GPa)
#
#
# Indices 1 2 3 4 5 6 
#
# 1 119.4976 34.9257 8.3228 0.0000 0.3974 0.0000
# 2 34.9257 117.7580 32.3920 0.0000 6.6403 0.0000
# 3 8.3228 32.3920 30.8266 0.0000 0.2861 0.0000
# 4 0.0000 0.0000 0.0000 3.4772 0.0000 -9.1799
# 5 0.3974 6.6403 0.2861 0.0000 28.0630 0.0000
# 6 0.0000 0.0000 0.0000 -9.1799 0.0000 30.0122
#
#
#
# Elastic Compliance Matrix: (Units=1/GPa)
#
#
# Indices 1 2 3 4 5 6 
#
# 1 0.009177 -0.002912 0.000577 0.000000 0.000553 0.000000
# 2 -0.002912 0.013076 -0.012927 0.000000 -0.002921 0.000000
# 3 0.000577 -0.012927 0.045843 0.000000 0.002583 0.000000
# 4 0.000000 0.000000 0.000000 1.494066 0.000000 0.456993
# 5 0.000553 -0.002921 0.002583 0.000000 0.036291 0.000000
# 6 0.000000 0.000000 0.000000 0.456993 0.000000 0.173101
#
#
# Mechanical properties :
#
#
# Convention : Reuss Voigt Hill
#
# Bulk Modulus (GPa) = 26.61502 46.59592 36.60547
# Shear Modulus (GPa) = 2.75542 25.13993 13.94768
#
# Velocity S-wave (km/s) = 1.15325 3.48346 2.59466
# Velocity P-wave (km/s) = 3.82359 6.21854 5.16188
#
# Compressibility (1/GPa) = 0.03757276
#
# Stress axis : x y z
#
# Youngs Moduli (GPa) = 108.96361 76.47526 21.81351
#
# Poissons Ratio (x) = 0.22268 -0.01258
# Poissons Ratio (y) = 0.31727 0.28198
# Poissons Ratio (z) = -0.06284 0.98859
#
# Static dielectric constant tensor:
#      x y z
#    x 3.966760 0.000000 0.006280 
#    y 0.000000 4.182440 0.000000 
#    z 0.006280 0.000000 3.349090 
# 
# 
# High freq. dielectric constant tensor:
#      x y z
#    x 1.834390 0.000000 0.002680 
#    y 0.000000 1.826330 0.000000 
#    z 0.002680 0.000000 1.764950 
# 
# From -- ./inp_files/7185.got.cif
#   From: 2010.03.12/outbox.cif.g09.slc.cpg/sg8_4_cif.got.tgz:7185.got - 2010.03.31 10:45:26.
