data_PCOD8053838
_publ_section_title
;
Structure prediction by ZEFSAII (Michael W. Deem and Ramdas Pophale) SiO2 
 PCOD8053838
Probable space group: C M
;
_chemical_formula_sum "Si O2"
_cell_formula_units_Z 32
_cell_length_a 28.425587
_cell_length_b 8.444760
_cell_length_c 12.174329
_cell_angle_alpha 90.000000
_cell_angle_beta 148.482012
_cell_angle_gamma 90.000000
_cell_volume 1527.739502
_symmetry_space_group_name_H-M "C M"
_symmetry_group_IT_number 8
_symmetry_cell_setting 'monoclinic'
loop_
_space_group_symop_operation_xyz
x,y,z
x,-y,z
1/2+x,1/2+y,z
1/2+x,1/2-y,z
loop_
_atom_site_type_symbol
_atom_site_label
_atom_site_fract_x
_atom_site_fract_y
_atom_site_fract_z
Si Si1 0.433890 0.180416 0.617930
Si Si2 0.909488 0.319202 0.809958
Si Si3 0.622881 0.679960 0.992045
Si Si4 0.760348 0.816049 0.659540
Si Si5 0.607942 0.687309 0.202898
Si Si6 0.617807 0.815864 0.758812
Si Si7 0.918857 0.815406 0.370662
Si Si8 0.774339 0.684693 0.926520
O O1 0.378244 0.199842 0.619973
O O2 0.377561 0.224657 0.396254
O O3 0.470461 0.000000 0.681268
O O4 0.515085 0.305047 0.780092
O O5 0.894308 0.500000 0.817853
O O6 0.848907 0.204090 0.761691
O O7 0.013913 0.276854 0.031436
O O8 0.651163 0.500000 0.023985
O O9 0.654280 0.731824 0.177114
O O10 0.660054 0.785748 0.965110
O O11 0.673428 0.743752 0.428240
O O12 0.774451 0.720862 0.798658
O O13 0.744822 0.000000 0.653039
O O14 0.591196 0.500000 0.176119
O O15 0.521885 0.732051 0.554404
O O16 0.682251 0.746616 0.794941
O O17 0.605761 0.000000 0.714324
O O18 0.911312 0.000000 0.376545
O O19 0.860460 0.770713 0.149270
O O20 0.783580 0.500000 0.965755
#
# Coordination Sequence:
#
# PCOD8053838 Si02
#       8
#     4   4   4   4   4   4   4   4
#     4   9  17  32  57  89 123 157 195 239 291 351
#     4  10  21  39  63  91 123 159 198 243 296 352
#     4   9  17  32  57  89 123 157 195 239 291 351
#     4  12  26  43  62  87 118 155 203 251 297 352
#     4  10  21  39  63  91 123 159 198 243 296 352
#     4  11  22  39  63  92 124 158 197 242 297 355
#     4  11  22  39  63  92 124 158 197 242 297 355
#     4  12  26  45  64  85 116 155 203 253 299 350
#
# _framework density 20.945981
#
# number of rings (size 3 to 8) (size 9 to 14) (size 15 to 20)
#    0.000    1.500    0.000    7.500    0.000    5.000 
#    0.000    6.250    0.000    0.000    0.000    0.000 
#    0.000    0.000    0.000    0.000    0.000    0.000 
#
# Total GULP energy -198381.651494 kJ/mol
# GULP energy per Si atom -12398.853218 kJ/mol
# Density = 2.089831 g / cm^3
# Si number density = 20.945981 Si / 1000 Ang^3
#
#
#
# Elastic Constant Matrix: (Units=GPa)
#
#
# Indices 1 2 3 4 5 6 
#
# 1 125.9670 25.3114 63.5207 0.0000 -14.6045 0.0000
# 2 25.3114 102.1239 17.8289 0.0000 -1.7350 0.0000
# 3 63.5207 17.8289 138.0774 0.0000 -25.0883 0.0000
# 4 0.0000 0.0000 0.0000 33.8767 0.0000 -1.5894
# 5 -14.6045 -1.7350 -25.0883 0.0000 29.7024 0.0000
# 6 0.0000 0.0000 0.0000 -1.5894 0.0000 34.8976
#
#
#
# Elastic Compliance Matrix: (Units=1/GPa)
#
#
# Indices 1 2 3 4 5 6 
#
# 1 0.010710 -0.001857 -0.004430 0.000000 0.001416 0.000000
# 2 -0.001857 0.010349 -0.000636 0.000000 -0.000845 0.000000
# 3 -0.004430 -0.000636 0.010584 0.000000 0.006725 0.000000
# 4 0.000000 0.000000 0.000000 0.029582 0.000000 0.001347
# 5 0.001416 -0.000845 0.006725 0.000000 0.039994 0.000000
# 6 0.000000 0.000000 0.000000 0.001347 0.000000 0.028717
#
#
# Mechanical properties :
#
#
# Convention : Reuss Voigt Hill
#
# Bulk Modulus (GPa) = 56.18653 64.38781 60.28717
# Shear Modulus (GPa) = 33.39725 36.99581 35.19653
#
# Velocity S-wave (km/s) = 3.99738 4.20724 4.10365
# Velocity P-wave (km/s) = 6.94177 7.37616 7.16226
#
# Compressibility (1/GPa) = 0.01779786
#
# Stress axis : x y z
#
# Youngs Moduli (GPa) = 93.37354 96.62882 94.48099
#
# Poissons Ratio (x) = 0.17944 0.41854
# Poissons Ratio (y) = 0.17339 0.06005
# Poissons Ratio (z) = 0.41363 0.06142
#
# Static dielectric constant tensor:
#      x y z
#    x 3.844150 0.000000 -0.307750 
#    y 0.000000 3.831400 0.000000 
#    z -0.307750 0.000000 3.746560 
# 
# 
# High freq. dielectric constant tensor:
#      x y z
#    x 1.820010 0.000000 -0.013560 
#    y 0.000000 1.833860 0.000000 
#    z -0.013560 0.000000 1.812250 
# 
# From -- ./inp_files/24827.got.cif
#   From: 2010.03.12/outbox.cif.g09.slc.cpg/sg8_13_cif.got.tgz:24827.got - 2010.03.31 10:45:26.
