data_PCOD8053907
_publ_section_title
;
Structure prediction by ZEFSAII (Michael W. Deem and Ramdas Pophale) SiO2 
 PCOD8053907
Probable space group: C M
;
_chemical_formula_sum "Si O2"
_cell_formula_units_Z 32
_cell_length_a 8.562965
_cell_length_b 13.068756
_cell_length_c 20.277078
_cell_angle_alpha 90.000000
_cell_angle_beta 140.720019
_cell_angle_gamma 90.000000
_cell_volume 1436.624526
_symmetry_space_group_name_H-M "C M"
_symmetry_group_IT_number 8
_symmetry_cell_setting 'monoclinic'
loop_
_space_group_symop_operation_xyz
x,y,z
x,-y,z
1/2+x,1/2+y,z
1/2+x,1/2-y,z
loop_
_atom_site_type_symbol
_atom_site_label
_atom_site_fract_x
_atom_site_fract_y
_atom_site_fract_z
Si Si1 0.478880 0.882246 0.261470
Si Si2 0.780971 0.386379 0.659628
Si Si3 0.754727 0.196302 0.471466
Si Si4 0.038901 0.307623 0.865271
Si Si5 0.069416 0.290275 0.156169
Si Si6 0.033533 0.711070 0.004898
Si Si7 0.739472 0.115640 0.726060
Si Si8 0.489559 0.116038 0.512064
O O1 0.683097 0.870923 0.384864
O O2 0.250523 0.807847 0.206781
O O3 0.622809 0.854756 0.239826
O O4 0.386377 0.000000 0.227978
O O5 0.687327 0.500000 0.614509
O O6 0.544594 0.314787 0.582568
O O7 0.915161 0.385239 0.774328
O O8 0.972812 0.349481 0.667021
O O9 0.583878 0.164960 0.475388
O O10 0.745156 0.318569 0.452800
O O11 0.962731 0.348736 0.913989
O O12 0.334075 0.301780 0.952552
O O13 0.946890 0.191121 0.821201
O O14 0.077257 0.352416 0.087949
O O15 0.786581 0.263362 0.069534
O O16 0.712969 0.119177 0.638152
O O17 0.802668 0.000000 0.770484
O O18 0.400988 0.000000 0.471372
#
# Coordination Sequence:
#
# PCOD8053907 Si02
#       8
#     4   4   4   4   4   4   4   4
#     4  11  23  44  72  97 130 173 218 275 340 398
#     4  11  23  38  58  89 130 174 222 264 316 391
#     4  12  24  41  66  98 134 179 219 271 325 389
#     4  11  19  37  59  91 122 173 205 262 331 388
#     4   9  21  45  65  96 125 162 216 281 342 388
#     4   9  20  38  66  88 126 164 209 273 338 393
#     4  10  22  38  56  84 125 173 219 260 311 378
#     4  11  24  41  62  93 134 182 222 264 317 375
#
# _framework density 22.274433999999999
#
# number of rings (size 3 to 8) (size 9 to 14) (size 15 to 20)
#    0.000    1.500    2.500    2.625    1.750    0.000 
#    0.000   19.375    0.000    0.000    0.000    0.000 
#    0.000    0.000    0.000    0.000    0.000    0.000 
#
# Total GULP energy -198210.308497 kJ/mol
# GULP energy per Si atom -12388.144281 kJ/mol
# Density = 2.222374 g / cm^3
# Si number density = 22.274434 Si / 1000 Ang^3
#
#
#
# Elastic Constant Matrix: (Units=GPa)
#
#
# Indices 1 2 3 4 5 6 
#
# 1 127.7668 46.2412 48.3213 0.0000 -37.0665 -0.0001
# 2 46.2412 122.8507 16.8259 0.0000 -1.1777 0.0000
# 3 48.3213 16.8259 85.4261 0.0000 -27.3475 -0.0001
# 4 0.0000 0.0000 0.0000 13.9588 0.0000 2.0813
# 5 -37.0665 -1.1777 -27.3475 0.0000 47.3952 -0.0001
# 6 -0.0001 0.0000 -0.0001 2.0813 -0.0001 25.5805
#
#
#
# Elastic Compliance Matrix: (Units=1/GPa)
#
#
# Indices 1 2 3 4 5 6 
#
# 1 0.013238 -0.004344 -0.004112 0.000000 0.007872 0.000000
# 2 -0.004344 0.009823 -0.000597 0.000000 -0.003498 0.000000
# 3 -0.004112 -0.000597 0.016087 0.000000 0.006051 0.000000
# 4 0.000000 0.000000 0.000000 0.072519 0.000000 -0.005900
# 5 0.007872 -0.003498 0.006051 0.000000 0.030661 0.000000
# 6 0.000000 0.000000 0.000000 -0.005900 0.000000 0.039572
#
#
# Mechanical properties :
#
#
# Convention : Reuss Voigt Hill
#
# Bulk Modulus (GPa) = 47.52667 62.09116 54.80892
# Shear Modulus (GPa) = 24.15198 32.36390 28.25794
#
# Velocity S-wave (km/s) = 3.29643 3.81591 3.56564
# Velocity P-wave (km/s) = 5.98931 6.88120 6.45069
#
# Compressibility (1/GPa) = 0.02104082
#
# Stress axis : x y z
#
# Youngs Moduli (GPa) = 75.53938 101.79776 62.16165
#
# Poissons Ratio (x) = 0.44222 0.25563
# Poissons Ratio (y) = 0.32815 0.03714
# Poissons Ratio (z) = 0.31064 0.06082
#
# Static dielectric constant tensor:
#      x y z
#    x 4.615540 0.000000 -0.580910 
#    y 0.000000 3.759320 0.000000 
#    z -0.580910 0.000000 4.323870 
# 
# 
# High freq. dielectric constant tensor:
#      x y z
#    x 1.895120 0.000000 -0.021260 
#    y 0.000000 1.841340 0.000000 
#    z -0.021260 0.000000 1.882540 
# 
# From -- ./inp_files/30384.got.cif
#   From: 2010.03.12/outbox.cif.g09.slc.cpg/sg8_16_cif.got.tgz:30384.got - 2010.03.31 10:45:26.
