data_PCOD8053372
_publ_section_title
;
Structure prediction by ZEFSAII (Michael W. Deem and Ramdas Pophale) SiO2 
 PCOD8053372
Probable space group: C M
;
_chemical_formula_sum "Si O2"
_cell_formula_units_Z 32
_cell_length_a 23.799567
_cell_length_b 8.901814
_cell_length_c 24.787325
_cell_angle_alpha 90.000000
_cell_angle_beta 161.978199
_cell_angle_gamma 90.000000
_cell_volume 1624.680062
_symmetry_space_group_name_H-M "C M"
_symmetry_group_IT_number 8
_symmetry_cell_setting 'monoclinic'
loop_
_space_group_symop_operation_xyz
x,y,z
x,-y,z
1/2+x,1/2+y,z
1/2+x,1/2-y,z
loop_
_atom_site_type_symbol
_atom_site_label
_atom_site_fract_x
_atom_site_fract_y
_atom_site_fract_z
Si Si1 0.891240 0.675529 0.714440
Si Si2 0.531570 0.177633 0.364994
Si Si3 0.943358 0.822999 0.078120
Si Si4 0.323099 0.322954 0.268235
Si Si5 0.326891 0.827790 0.384266
Si Si6 0.798313 0.823230 0.058844
Si Si7 0.927727 0.322895 0.870246
Si Si8 0.219844 0.327470 0.773663
O O1 0.846324 0.500000 0.669801
O O2 0.736529 0.765728 0.540734
O O3 0.893712 0.731531 0.778491
O O4 0.084345 0.711686 0.863654
O O5 0.474265 0.239109 0.371177
O O6 0.394790 0.238919 0.195518
O O7 0.526139 0.000000 0.359600
O O8 0.878337 0.757832 0.076003
O O9 0.152700 0.777908 0.260091
O O10 0.913796 0.000000 0.052895
O O11 0.820616 0.755250 0.917518
O O12 0.349548 0.500000 0.284690
O O13 0.349514 0.280577 0.354297
O O14 0.125727 0.267312 0.069187
O O15 0.503147 0.810335 0.583289
O O16 0.304389 0.000000 0.343834
O O17 0.834387 0.000000 0.099489
O O18 0.914432 0.500000 0.862597
O O19 0.775877 0.253737 0.769947
O O20 0.278367 0.500000 0.821228
#
# Coordination Sequence:
#
# PCOD8053372 Si02
#       8
#     4   4   4   4   4   4   4   4
#     4  10  21  39  62  87 116 151 199 246 290 350
#     4  12  25  39  59  89 122 155 192 241 303 356
#     4   9  19  36  59  85 114 149 194 243 286 334
#     4  11  21  37  60  86 116 154 197 237 288 350
#     4  10  20  35  57  89 120 150 187 233 292 347
#     4  10  21  41  65  87 113 155 205 248 290 341
#     4  10  20  35  57  85 113 147 190 237 287 342
#     4  10  20  34  55  84 116 149 186 229 284 346
#
# _framework density 19.696185
#
# number of rings (size 3 to 8) (size 9 to 14) (size 15 to 20)
#    0.000    1.750    2.500    2.250    0.000    5.000 
#    0.000    5.000    0.000    1.500    0.000    0.000 
#    0.000    0.000    0.000    0.000    0.000    0.000 
#
# Total GULP energy -198453.414543 kJ/mol
# GULP energy per Si atom -12403.338409 kJ/mol
# Density = 1.965136 g / cm^3
# Si number density = 19.696185 Si / 1000 Ang^3
#
#
#
# Elastic Constant Matrix: (Units=GPa)
#
#
# Indices 1 2 3 4 5 6 
#
# 1 121.7090 27.4981 31.0892 0.0053 20.0591 -0.0047
# 2 27.4981 55.8344 34.2906 0.0655 7.5390 0.0192
# 3 31.0892 34.2906 110.2911 0.0860 26.0289 0.0279
# 4 0.0053 0.0655 0.0860 25.0151 0.0384 -1.8668
# 5 20.0591 7.5390 26.0289 0.0384 23.3766 0.0085
# 6 -0.0047 0.0192 0.0279 -1.8668 0.0085 20.3113
#
#
#
# Elastic Compliance Matrix: (Units=1/GPa)
#
#
# Indices 1 2 3 4 5 6 
#
# 1 0.010397 -0.004200 0.000218 0.000021 -0.007810 0.000011
# 2 -0.004200 0.023842 -0.007141 -0.000044 0.003866 -0.000019
# 3 0.000218 -0.007141 0.014550 -0.000010 -0.014085 -0.000008
# 4 0.000021 -0.000044 -0.000010 0.040252 -0.000059 0.003700
# 5 -0.007810 0.003866 -0.014085 -0.000059 0.063915 -0.000018
# 6 0.000011 -0.000019 -0.000008 0.003700 -0.000018 0.049574
#
#
# Mechanical properties :
#
#
# Convention : Reuss Voigt Hill
#
# Bulk Modulus (GPa) = 37.67503 52.62114 45.14808
# Shear Modulus (GPa) = 21.40196 26.73771 24.06984
#
# Velocity S-wave (km/s) = 3.29994 3.68843 3.49958
# Velocity P-wave (km/s) = 5.80423 6.70178 6.26909
#
# Compressibility (1/GPa) = 0.02654278
#
# Stress axis : x y z
#
# Youngs Moduli (GPa) = 96.18526 41.94212 68.72967
#
# Poissons Ratio (x) = 0.17615 -0.01500
# Poissons Ratio (y) = 0.40396 0.49083
# Poissons Ratio (z) = -0.02099 0.29953
#
# Static dielectric constant tensor:
#      x y z
#    x 3.646900 -0.000010 0.070900 
#    y -0.000010 3.325690 -0.000040 
#    z 0.070900 -0.000040 3.786880 
# 
# 
# High freq. dielectric constant tensor:
#      x y z
#    x 1.762280 0.000000 0.007180 
#    y 0.000000 1.740880 0.000000 
#    z 0.007180 0.000000 1.785350 
# 
# From -- ./inp_files/32367.got.cif
#   From: 2010.03.12/outbox.cif.g09.slc.cpg/sg8_17_cif.got.tgz:32367.got - 2010.03.31 10:45:26.
