data_PCOD8053321
_publ_section_title
;
Structure prediction by ZEFSAII (Michael W. Deem and Ramdas Pophale) SiO2 
 PCOD8053321
Probable space group: C M
;
_chemical_formula_sum "Si O2"
_cell_formula_units_Z 32
_cell_length_a 18.809456
_cell_length_b 9.005421
_cell_length_c 25.985316
_cell_angle_alpha 90.000000
_cell_angle_beta 23.576384
_cell_angle_gamma 90.000000
_cell_volume 1760.504269
_symmetry_space_group_name_H-M "C M"
_symmetry_group_IT_number 8
_symmetry_cell_setting 'monoclinic'
loop_
_space_group_symop_operation_xyz
x,y,z
x,-y,z
1/2+x,1/2+y,z
1/2+x,1/2-y,z
loop_
_atom_site_type_symbol
_atom_site_label
_atom_site_fract_x
_atom_site_fract_y
_atom_site_fract_z
Si Si1 0.929450 0.174156 0.807720
Si Si2 0.926403 0.834294 0.540108
Si Si3 0.559303 0.830227 0.821611
Si Si4 0.074877 0.665071 0.087448
Si Si5 0.280181 0.335308 0.058623
Si Si6 0.238148 0.329254 0.555784
Si Si7 0.419464 0.824269 0.340995
Si Si8 0.273646 0.326361 0.336975
O O1 0.004570 0.219230 0.813082
O O2 0.036694 0.264800 0.692964
O O3 0.961995 0.000000 0.777812
O O4 0.716610 0.210786 0.948565
O O5 0.772957 0.818338 0.685935
O O6 0.836985 0.808559 0.544187
O O7 0.075453 0.712002 0.450447
O O8 0.009195 0.000000 0.488027
O O9 0.506008 0.000000 0.843536
O O10 0.450206 0.776303 0.944791
O O11 0.000001 0.500000 0.126035
O O12 0.180328 0.665108 0.070674
O O13 0.909562 0.777394 0.201326
O O14 0.350361 0.500000 0.025464
O O15 0.130270 0.283541 0.199078
O O16 0.225790 0.500000 0.547223
O O17 0.347057 0.237959 0.442007
O O18 0.312079 0.754950 0.364866
O O19 0.392141 0.000000 0.356195
O O20 0.291682 0.500000 0.333707
#
# Coordination Sequence:
#
# PCOD8053321 Si02
#       8
#     4   4   4   4   4   4   4   4
#     4   9  16  27  45  68  94 125 158 194 239 287
#     4   9  19  34  49  69 100 132 159 195 245 294
#     4   9  16  26  44  69  94 122 157 200 242 279
#     4   8  15  28  45  66  94 126 158 194 239 287
#     4   8  15  27  44  67  93 123 157 194 237 285
#     4  10  20  33  51  75 100 127 162 203 242 283
#     4  10  20  34  51  71 100 134 162 194 242 295
#     4  11  21  31  49  75  99 127 165 206 242 280
#
# _framework density 18.176611000000001
#
# number of rings (size 3 to 8) (size 9 to 14) (size 15 to 20)
#    0.000    2.750    0.000    4.875    0.000    8.500 
#    0.000    0.000    0.000    1.500    0.000    5.250 
#    0.000    0.000    0.000    0.000    0.000    0.000 
#
# Total GULP energy -198263.804599 kJ/mol
# GULP energy per Si atom -12391.487787 kJ/mol
# Density = 1.813524 g / cm^3
# Si number density = 18.176611 Si / 1000 Ang^3
#
#
#
# Elastic Constant Matrix: (Units=GPa)
#
#
# Indices 1 2 3 4 5 6 
#
# 1 22.5669 23.5910 32.3741 -0.0004 5.7026 -0.0007
# 2 23.5910 111.3429 74.0070 0.0009 4.7840 -0.0007
# 3 32.3741 74.0070 161.4484 -0.0026 18.6522 0.0076
# 4 -0.0004 0.0009 -0.0026 37.2813 0.0037 2.7316
# 5 5.7026 4.7840 18.6522 0.0037 22.8561 0.0009
# 6 -0.0007 -0.0007 0.0076 2.7316 0.0009 20.6139
#
#
#
# Elastic Compliance Matrix: (Units=1/GPa)
#
#
# Indices 1 2 3 4 5 6 
#
# 1 0.067531 -0.008016 -0.008959 0.000001 -0.007860 0.000006
# 2 -0.008016 0.013984 -0.005184 -0.000001 0.003304 0.000002
# 3 -0.008959 -0.005184 0.011023 0.000002 -0.005675 -0.000004
# 4 0.000001 -0.000001 0.000002 0.027086 -0.000005 -0.003589
# 5 -0.007860 0.003304 -0.005675 -0.000005 0.049652 0.000000
# 6 0.000006 0.000002 -0.000004 -0.003589 0.000000 0.048986
#
#
# Mechanical properties :
#
#
# Convention : Reuss Voigt Hill
#
# Bulk Modulus (GPa) = 20.73878 61.70029 41.21954
# Shear Modulus (GPa) = 17.94344 27.17600 22.55972
#
# Velocity S-wave (km/s) = 3.14534 3.87086 3.52680
# Velocity P-wave (km/s) = 4.96238 7.34824 6.26984
#
# Compressibility (1/GPa) = 0.04821884
#
# Stress axis : x y z
#
# Youngs Moduli (GPa) = 14.80801 71.51255 90.72336
#
# Poissons Ratio (x) = 0.57322 0.81280
# Poissons Ratio (y) = 0.11870 0.47034
# Poissons Ratio (z) = 0.13267 0.37075
#
# Static dielectric constant tensor:
#      x y z
#    x 2.728700 0.000000 0.286730 
#    y 0.000000 3.454300 0.000020 
#    z 0.286730 0.000020 4.147760 
# 
# 
# High freq. dielectric constant tensor:
#      x y z
#    x 1.628560 0.000000 0.015710 
#    y 0.000000 1.712880 0.000000 
#    z 0.015710 0.000000 1.730290 
# 
# From -- ./inp_files/23746.got.cif
#   From: 2010.03.12/outbox.cif.g09.slc.cpg/sg8_12_cif.got.tgz:23746.got - 2010.03.31 10:45:26.
