data_PCOD8053096
_publ_section_title
;
Structure prediction by ZEFSAII (Michael W. Deem and Ramdas Pophale) SiO2 
 PCOD8053096
Probable space group: C M
;
_chemical_formula_sum "Si O2"
_cell_formula_units_Z 32
_cell_length_a 14.210505
_cell_length_b 8.587979
_cell_length_c 25.659233
_cell_angle_alpha 90.000000
_cell_angle_beta 33.934973
_cell_angle_gamma 90.000000
_cell_volume 1748.131760
_symmetry_space_group_name_H-M "C M"
_symmetry_group_IT_number 8
_symmetry_cell_setting 'monoclinic'
loop_
_space_group_symop_operation_xyz
x,y,z
x,-y,z
1/2+x,1/2+y,z
1/2+x,1/2-y,z
loop_
_atom_site_type_symbol
_atom_site_label
_atom_site_fract_x
_atom_site_fract_y
_atom_site_fract_z
Si Si1 0.945200 0.683290 0.644360
Si Si2 0.659230 0.317036 0.638566
Si Si3 0.187810 0.317652 0.147302
Si Si4 0.392261 0.816350 0.147324
Si Si5 0.814411 0.684166 0.295488
Si Si6 0.259175 0.684746 0.998682
Si Si7 0.506121 0.684275 0.505424
Si Si8 0.073082 0.183727 0.791919
O O1 0.967131 0.500000 0.643216
O O2 0.019942 0.728281 0.554032
O O3 0.749701 0.736211 0.736553
O O4 0.041767 0.776629 0.644334
O O5 0.698589 0.500000 0.621772
O O6 0.835515 0.226116 0.553015
O O7 0.566455 0.263820 0.734547
O O8 0.208554 0.500000 0.147262
O O9 0.284962 0.227586 0.147110
O O10 0.268570 0.267515 0.055012
O O11 0.992185 0.267422 0.239657
O O12 0.307034 0.750054 0.239588
O O13 0.584113 0.751893 0.054437
O O14 0.403230 0.000000 0.147626
O O15 0.800059 0.500000 0.300414
O O16 0.660461 0.750765 0.400000
O O17 0.265504 0.500000 0.990986
O O18 0.416967 0.760546 0.895069
O O19 0.517061 0.500000 0.509516
O O20 0.059506 0.000000 0.801567
#
# Coordination Sequence:
#
# PCOD8053096 Si02
#       8
#     4   4   4   4   4   4   4   4
#     4  10  20  34  51  73 101 130 164 203 245 292
#     4  10  20  34  51  73 101 130 164 203 245 292
#     4   9  17  31  50  71  96 125 158 194 235 283
#     4   9  17  31  50  71  96 125 158 194 235 283
#     4   8  17  33  50  69  95 128 159 191 237 291
#     4   8  15  30  50  69  95 130 159 189 237 289
#     4  10  19  34  54  73  97 128 165 206 248 291
#     4   8  16  31  50  71  95 126 163 200 238 285
#
# _framework density 18.305257000000001
#
# number of rings (size 3 to 8) (size 9 to 14) (size 15 to 20)
#    0.000    3.000    0.000    3.375    0.000    2.000 
#    0.000    7.500    0.000    7.500    0.000    0.000 
#    0.000    0.000    0.000    0.000    0.000    0.000 
#
# Total GULP energy -198329.368052 kJ/mol
# GULP energy per Si atom -12395.585503 kJ/mol
# Density = 1.826359 g / cm^3
# Si number density = 18.305257 Si / 1000 Ang^3
#
#
#
# Elastic Constant Matrix: (Units=GPa)
#
#
# Indices 1 2 3 4 5 6 
#
# 1 116.9246 -3.7738 66.0848 0.0000 -2.4188 -0.0001
# 2 -3.7738 18.9083 11.5119 0.0000 0.5096 0.0000
# 3 66.0848 11.5119 182.3138 0.0000 1.1000 -0.0001
# 4 0.0000 0.0000 0.0000 17.8993 0.0000 -0.3380
# 5 -2.4188 0.5096 1.1000 0.0000 14.6470 0.0000
# 6 -0.0001 0.0000 -0.0001 -0.3380 0.0000 31.2001
#
#
#
# Elastic Compliance Matrix: (Units=1/GPa)
#
#
# Indices 1 2 3 4 5 6 
#
# 1 0.011233 0.004861 -0.004391 0.000000 0.002016 0.000000
# 2 0.004861 0.057145 -0.005365 0.000000 -0.000783 0.000000
# 3 -0.004391 -0.005365 0.007422 0.000000 -0.001096 0.000000
# 4 0.000000 0.000000 0.000000 0.055879 0.000000 0.000605
# 5 0.002016 -0.000783 -0.001096 0.000000 0.068716 0.000000
# 6 0.000000 0.000000 0.000000 0.000605 0.000000 0.032058
#
#
# Mechanical properties :
#
#
# Convention : Reuss Voigt Hill
#
# Bulk Modulus (GPa) = 15.14959 51.75474 33.45216
# Shear Modulus (GPa) = 18.92176 29.03754 23.97965
#
# Velocity S-wave (km/s) = 3.21858 3.98715 3.62330
# Velocity P-wave (km/s) = 4.70174 7.03783 5.98487
#
# Compressibility (1/GPa) = 0.06600839
#
# Stress axis : x y z
#
# Youngs Moduli (GPa) = 89.02596 17.49945 134.73488
#
# Poissons Ratio (x) = -0.08506 0.59158
# Poissons Ratio (y) = -0.43273 0.72292
# Poissons Ratio (z) = 0.39089 0.09389
#
# Static dielectric constant tensor:
#      x y z
#    x 3.346450 0.000000 0.028520 
#    y 0.000000 3.009990 0.000000 
#    z 0.028520 0.000000 4.008120 
# 
# 
# High freq. dielectric constant tensor:
#      x y z
#    x 1.711960 0.000000 0.000120 
#    y 0.000000 1.677600 0.000000 
#    z 0.000120 0.000000 1.718120 
# 
# From -- ./inp_files/26463.got.cif
#   From: 2010.03.12/outbox.cif.g09.slc.cpg/sg8_14_cif.got.tgz:26463.got - 2010.03.31 10:45:26.
