data_PCOD8053160
_publ_section_title
;
Structure prediction by ZEFSAII (Michael W. Deem and Ramdas Pophale) SiO2 
 PCOD8053160
Probable space group: C M
;
_chemical_formula_sum "Si O2"
_cell_formula_units_Z 28
_cell_length_a 14.429400
_cell_length_b 13.488065
_cell_length_c 14.624036
_cell_angle_alpha 90.000000
_cell_angle_beta 28.185041
_cell_angle_gamma 90.000000
_cell_volume 1344.318292
_symmetry_space_group_name_H-M "C M"
_symmetry_group_IT_number 8
_symmetry_cell_setting 'monoclinic'
loop_
_space_group_symop_operation_xyz
x,y,z
x,-y,z
1/2+x,1/2+y,z
1/2+x,1/2-y,z
loop_
_atom_site_type_symbol
_atom_site_label
_atom_site_fract_x
_atom_site_fract_y
_atom_site_fract_z
Si Si1 0.786720 0.608182 0.615660
Si Si2 0.709238 0.780681 0.457916
Si Si3 0.481826 0.610405 0.719592
Si Si4 0.956107 0.382244 0.825632
Si Si5 0.132104 0.264194 0.051172
Si Si6 0.721194 0.112254 0.255383
Si Si7 0.539736 0.244696 0.924679
O O1 0.756952 0.500000 0.688528
O O2 0.653712 0.617104 0.642962
O O3 0.737462 0.696047 0.728061
O O4 0.011013 0.619133 0.389958
O O5 0.555299 0.688316 0.578142
O O6 0.639699 0.846234 0.604762
O O7 0.708740 0.849039 0.369738
O O8 0.931423 0.740657 0.284293
O O9 0.457473 0.500000 0.699991
O O10 0.279827 0.644701 0.945084
O O11 0.938837 0.500000 0.839853
O O12 0.995177 0.346763 0.895880
O O13 0.753149 0.337968 0.960896
O O14 0.065300 0.289258 0.005822
O O15 0.801432 0.000000 0.187934
O O16 0.860835 0.178026 0.070841
#
# Coordination Sequence:
#
# PCOD8053160 Si02
#       7
#     4   4   4   4   4   4   4
#     4  10  19  34  59  88 118 154 199 251 309 369
#     4  10  21  41  63  91 126 163 209 263 317 374
#     4  10  21  37  59  90 123 161 205 253 312 370
#     4  11  24  42  64  93 128 168 215 262 320 384
#     4  10  23  41  63  90 125 168 209 262 314 377
#     4  10  22  38  63  94 123 159 208 262 316 375
#     4  11  22  39  63  90 125 163 209 261 318 375
#
# _framework density 20.828399999999998
#
# number of rings (size 3 to 8) (size 9 to 14) (size 15 to 20)
#    0.000    1.714    2.857    2.571    2.000    5.714 
#    0.000    2.143    0.000    0.000    0.000    0.000 
#    0.000    0.000    0.000    0.000    0.000    0.000 
#
# Total GULP energy -173517.926602 kJ/mol
# GULP energy per Si atom -12394.137614 kJ/mol
# Density = 2.078099 g / cm^3
# Si number density = 20.828400 Si / 1000 Ang^3
#
#
#
# Elastic Constant Matrix: (Units=GPa)
#
#
# Indices 1 2 3 4 5 6 
#
# 1 77.8305 24.9146 17.8222 -0.0029 -5.1415 0.0009
# 2 24.9146 155.9222 45.4810 -0.0126 -3.5239 0.0038
# 3 17.8222 45.4810 99.4550 -0.0124 -15.1457 0.0044
# 4 -0.0029 -0.0126 -0.0124 21.6320 0.0091 1.3275
# 5 -5.1415 -3.5239 -15.1457 0.0091 34.8297 0.0001
# 6 0.0009 0.0038 0.0044 1.3275 0.0001 23.3151
#
#
#
# Elastic Compliance Matrix: (Units=1/GPa)
#
#
# Indices 1 2 3 4 5 6 
#
# 1 0.013830 -0.001746 -0.001495 -0.000001 0.001215 0.000000
# 2 -0.001746 0.007641 -0.003323 0.000003 -0.000930 -0.000001
# 3 -0.001495 -0.003323 0.012591 0.000003 0.004918 -0.000002
# 4 -0.000001 0.000003 0.000003 0.046390 -0.000011 -0.002641
# 5 0.001215 -0.000930 0.004918 -0.000011 0.030935 0.000000
# 6 0.000000 -0.000001 -0.000002 -0.002641 0.000000 0.043041
#
#
# Mechanical properties :
#
#
# Convention : Reuss Voigt Hill
#
# Bulk Modulus (GPa) = 47.76867 56.62703 52.19785
# Shear Modulus (GPa) = 28.64775 32.28802 30.46788
#
# Velocity S-wave (km/s) = 3.71269 3.94152 3.82881
# Velocity P-wave (km/s) = 6.43140 6.92535 6.68294
#
# Compressibility (1/GPa) = 0.02093422
#
# Stress axis : x y z
#
# Youngs Moduli (GPa) = 72.30653 130.87784 79.42092
#
# Poissons Ratio (x) = 0.22857 0.11871
# Poissons Ratio (y) = 0.12628 0.26389
# Poissons Ratio (z) = 0.10807 0.43487
#
# Static dielectric constant tensor:
#      x y z
#    x 3.606540 0.000010 -0.254050 
#    y 0.000010 3.960500 0.000050 
#    z -0.254050 0.000050 4.107770 
# 
# 
# High freq. dielectric constant tensor:
#      x y z
#    x 1.804810 0.000000 -0.013210 
#    y 0.000000 1.809880 0.000000 
#    z -0.013210 0.000000 1.825360 
# 
# From -- ./inp_files/26914.got.cif
#   From: 2010.03.12/outbox.cif.g09.slc.cpg/sg8_14_cif.got.tgz:26914.got - 2010.03.31 10:45:26.
