data_PCOD8053837
_publ_section_title
;
Structure prediction by ZEFSAII (Michael W. Deem and Ramdas Pophale) SiO2 
 PCOD8053837
Probable space group: C M
;
_chemical_formula_sum "Si O2"
_cell_formula_units_Z 20
_cell_length_a 7.771061
_cell_length_b 20.120771
_cell_length_c 6.949780
_cell_angle_alpha 90.000000
_cell_angle_beta 110.686029
_cell_angle_gamma 90.000000
_cell_volume 1016.608654
_symmetry_space_group_name_H-M "C M"
_symmetry_group_IT_number 8
_symmetry_cell_setting 'monoclinic'
loop_
_space_group_symop_operation_xyz
x,y,z
x,-y,z
1/2+x,1/2+y,z
1/2+x,1/2-y,z
loop_
_atom_site_type_symbol
_atom_site_label
_atom_site_fract_x
_atom_site_fract_y
_atom_site_fract_z
Si Si1 0.733940 0.639144 0.308980
Si Si2 0.095871 0.574924 0.515010
Si Si3 0.983453 0.689277 0.710355
Si Si4 0.178615 0.174919 0.862916
Si Si5 0.482222 0.576683 0.511950
O O1 0.816544 0.695158 0.486771
O O2 0.559314 0.604382 0.341030
O O3 0.898970 0.586259 0.331132
O O4 0.664397 0.672573 0.086804
O O5 0.104980 0.500000 0.600872
O O6 0.261905 0.587076 0.430356
O O7 0.113607 0.626878 0.700934
O O8 0.891934 0.673822 0.881180
O O9 0.096436 0.756291 0.754677
O O10 0.071734 0.112860 0.730729
O O11 0.537194 0.500000 0.552672
#
# Coordination Sequence:
#
# PCOD8053837 Si02
#       5
#     4   4   4   4   4
#     4   9  22  39  62  88 123 163 204 254 297 365
#     4   9  19  42  65  87 125 162 198 252 309 360
#     4   9  22  38  60  93 122 159 204 252 305 357
#     4  11  21  40  62  92 125 166 204 253 306 370
#     4  10  21  39  63  90 126 164 202 255 306 362
#
# _framework density 19.673254
#
# number of rings (size 3 to 8) (size 9 to 14) (size 15 to 20)
#    1.200    1.200    0.000    1.800    0.000    4.800 
#    7.200    0.000    0.000    0.000    0.000    0.000 
#    0.000    0.000    0.000    0.000    0.000    0.000 
#
# Total GULP energy -123924.571404 kJ/mol
# GULP energy per Si atom -12392.457140 kJ/mol
# Density = 1.962848 g / cm^3
# Si number density = 19.673254 Si / 1000 Ang^3
#
#
#
# Elastic Constant Matrix: (Units=GPa)
#
#
# Indices 1 2 3 4 5 6 
#
# 1 149.6801 59.5454 36.9128 0.0000 -22.1327 0.0000
# 2 59.5454 143.9679 50.0447 0.0000 -12.1158 0.0000
# 3 36.9128 50.0447 91.4950 0.0000 -21.5134 0.0000
# 4 0.0000 0.0000 0.0000 16.4857 0.0000 -2.7316
# 5 -22.1327 -12.1158 -21.5134 0.0000 20.6613 0.0000
# 6 0.0000 0.0000 0.0000 -2.7316 0.0000 32.7436
#
#
#
# Elastic Compliance Matrix: (Units=1/GPa)
#
#
# Indices 1 2 3 4 5 6 
#
# 1 0.009082 -0.003042 -0.000175 0.000000 0.007763 0.000000
# 2 -0.003042 0.009596 -0.004588 0.000000 -0.002409 0.000000
# 3 -0.000175 -0.004588 0.016993 0.000000 0.014817 0.000000
# 4 0.000000 0.000000 0.000000 0.061509 0.000000 0.005131
# 5 0.007763 -0.002409 0.014817 0.000000 0.070731 0.000000
# 6 0.000000 0.000000 0.000000 0.005131 0.000000 0.030968
#
#
# Mechanical properties :
#
#
# Convention : Reuss Voigt Hill
#
# Bulk Modulus (GPa) = 49.84545 75.34985 62.59765
# Shear Modulus (GPa) = 22.60632 29.88747 26.24689
#
# Velocity S-wave (km/s) = 3.39350 3.90191 3.65655
# Velocity P-wave (km/s) = 6.38327 7.66053 7.05088
#
# Compressibility (1/GPa) = 0.02006201
#
# Stress axis : x y z
#
# Youngs Moduli (GPa) = 110.10534 104.20570 58.84657
#
# Poissons Ratio (x) = 0.31703 0.01028
# Poissons Ratio (y) = 0.33498 0.26998
# Poissons Ratio (z) = 0.01924 0.47808
#
# Static dielectric constant tensor:
#      x y z
#    x 3.788320 0.000000 -0.166170 
#    y 0.000000 3.478000 0.000000 
#    z -0.166170 0.000000 3.103070 
# 
# 
# High freq. dielectric constant tensor:
#      x y z
#    x 1.786040 0.000000 -0.018000 
#    y 0.000000 1.766800 0.000000 
#    z -0.018000 0.000000 1.724350 
# 
# From -- ./inp_files/1301.got.cif
#   From: 2010.03.12/outbox.cif.g09.slc.cpg/sg8_1_cif.got.tgz:1301.got - 2010.03.31 10:45:26.
