data_PCOD8053736
_publ_section_title
;
Structure prediction by ZEFSAII (Michael W. Deem and Ramdas Pophale) SiO2 
 PCOD8053736
Probable space group: C M
;
_chemical_formula_sum "Si O2"
_cell_formula_units_Z 32
_cell_length_a 24.127061
_cell_length_b 9.110479
_cell_length_c 25.323485
_cell_angle_alpha 90.000000
_cell_angle_beta 16.923398
_cell_angle_gamma 90.000000
_cell_volume 1620.319756
_symmetry_space_group_name_H-M "C M"
_symmetry_group_IT_number 8
_symmetry_cell_setting 'monoclinic'
loop_
_space_group_symop_operation_xyz
x,y,z
x,-y,z
1/2+x,1/2+y,z
1/2+x,1/2-y,z
loop_
_atom_site_type_symbol
_atom_site_label
_atom_site_fract_x
_atom_site_fract_y
_atom_site_fract_z
Si Si1 0.312550 0.671361 0.495520
Si Si2 0.497550 0.164523 0.909899
Si Si3 0.440477 0.828155 0.596375
Si Si4 0.551462 0.831659 0.975250
Si Si5 0.008574 0.670431 0.220643
Si Si6 0.303757 0.170913 0.297920
Si Si7 0.863395 0.669385 0.551121
Si Si8 0.870547 0.334539 0.916596
O O1 0.354022 0.500000 0.455111
O O2 0.388727 0.743474 0.373157
O O3 0.425417 0.735354 0.443714
O O4 0.087871 0.707382 0.704758
O O5 0.425220 0.182026 0.036145
O O6 0.647817 0.292184 0.762598
O O7 0.335862 0.179980 0.012068
O O8 0.590431 0.000000 0.818345
O O9 0.244247 0.758691 0.794595
O O10 0.607600 0.759330 0.478909
O O11 0.483773 0.796254 0.494630
O O12 0.428276 0.000000 0.618556
O O13 0.607132 0.000000 0.935725
O O14 0.428552 0.768536 0.135385
O O15 0.006610 0.500000 0.236684
O O16 0.916881 0.703056 0.247963
O O17 0.226703 0.725124 0.018768
O O18 0.256753 0.000000 0.333362
O O19 0.878144 0.500000 0.521647
O O20 0.826142 0.500000 0.938357
#
# Coordination Sequence:
#
# PCOD8053736 Si02
#       8
#     4   4   4   4   4   4   4   4
#     4  10  21  38  60  84 111 146 186 226 273 331
#     4   8  15  30  54  83 110 139 179 223 271 330
#     4  10  21  36  57  86 116 145 179 225 280 330
#     4   9  18  36  60  82 108 144 184 226 273 328
#     4  11  24  39  55  79 111 147 190 236 278 323
#     4  10  23  40  56  78 109 149 195 233 269 323
#     4   9  17  31  53  84 117 144 175 219 275 333
#     4   9  19  36  57  82 110 140 178 226 279 332
#
# _framework density 19.749189000000001
#
# number of rings (size 3 to 8) (size 9 to 14) (size 15 to 20)
#    0.000    2.500    0.000    2.250    0.000    7.500 
#    0.000    5.000    0.000    0.000    0.000    0.000 
#    0.000    0.000    0.000    0.000    0.000    0.000 
#
# Total GULP energy -198327.846000 kJ/mol
# GULP energy per Si atom -12395.490375 kJ/mol
# Density = 1.970424 g / cm^3
# Si number density = 19.749189 Si / 1000 Ang^3
#
#
#
# Elastic Constant Matrix: (Units=GPa)
#
#
# Indices 1 2 3 4 5 6 
#
# 1 69.4922 34.2056 11.1012 -0.0259 -1.6799 0.0173
# 2 34.2056 77.6589 19.6742 -0.0250 -5.6283 0.0128
# 3 11.1012 19.6742 42.4364 -0.0206 2.5473 0.0158
# 4 -0.0259 -0.0250 -0.0206 24.8311 -0.0028 2.6113
# 5 -1.6799 -5.6283 2.5473 -0.0028 33.7974 0.0009
# 6 0.0173 0.0128 0.0158 2.6113 0.0009 28.3676
#
#
#
# Elastic Compliance Matrix: (Units=1/GPa)
#
#
# Indices 1 2 3 4 5 6 
#
# 1 0.018430 -0.007844 -0.001166 0.000011 -0.000302 -0.000008
# 2 -0.007844 0.018229 -0.006588 0.000005 0.003142 0.000000
# 3 -0.001166 -0.006588 0.027116 0.000016 -0.003199 -0.000013
# 4 0.000011 0.000005 0.000016 0.040666 0.000004 -0.003743
# 5 -0.000302 0.003142 -0.003199 0.000004 0.030337 -0.000001
# 6 -0.000008 0.000000 -0.000013 -0.003743 -0.000001 0.035596
#
#
# Mechanical properties :
#
#
# Convention : Reuss Voigt Hill
#
# Bulk Modulus (GPa) = 30.69537 35.50551 33.10044
# Shear Modulus (GPa) = 23.53717 25.70632 24.62174
#
# Velocity S-wave (km/s) = 3.45600 3.61174 3.53473
# Velocity P-wave (km/s) = 5.61263 5.95064 5.78410
#
# Compressibility (1/GPa) = 0.03257821
#
# Stress axis : x y z
#
# Youngs Moduli (GPa) = 54.25872 54.85908 36.87860
#
# Poissons Ratio (x) = 0.43032 0.04302
# Poissons Ratio (y) = 0.42561 0.24294
# Poissons Ratio (z) = 0.06329 0.36139
#
# Static dielectric constant tensor:
#      x y z
#    x 3.783100 0.000000 0.114660 
#    y 0.000000 3.567820 0.000100 
#    z 0.114660 0.000100 3.305060 
# 
# 
# High freq. dielectric constant tensor:
#      x y z
#    x 1.775230 0.000000 0.006650 
#    y 0.000000 1.771640 0.000000 
#    z 0.006650 0.000000 1.747750 
# 
# From -- ./inp_files/32382.got.cif
#   From: 2010.03.12/outbox.cif.g09.slc.cpg/sg8_17_cif.got.tgz:32382.got - 2010.03.31 10:45:26.
