data_PCOD8053722
_publ_section_title
;
Structure prediction by ZEFSAII (Michael W. Deem and Ramdas Pophale) SiO2 
 PCOD8053722
Probable space group: C M
;
_chemical_formula_sum "Si O2"
_cell_formula_units_Z 32
_cell_length_a 9.979442
_cell_length_b 18.590671
_cell_length_c 16.003138
_cell_angle_alpha 90.000000
_cell_angle_beta 147.669130
_cell_angle_gamma 90.000000
_cell_volume 1587.830401
_symmetry_space_group_name_H-M "C M"
_symmetry_group_IT_number 8
_symmetry_cell_setting 'monoclinic'
loop_
_space_group_symop_operation_xyz
x,y,z
x,-y,z
1/2+x,1/2+y,z
1/2+x,1/2-y,z
loop_
_atom_site_type_symbol
_atom_site_label
_atom_site_fract_x
_atom_site_fract_y
_atom_site_fract_z
Si Si1 0.467580 0.803665 0.234780
Si Si2 0.429963 0.332972 0.920744
Si Si3 0.729160 0.173502 0.207353
Si Si4 0.849582 0.663211 0.877306
Si Si5 0.063629 0.678411 0.592944
Si Si6 0.694856 0.581896 0.475537
Si Si7 0.040424 0.415965 0.816170
Si Si8 0.819954 0.188736 0.559460
O O1 0.617261 0.785687 0.229016
O O2 0.386348 0.728665 0.233472
O O3 0.650086 0.846438 0.396339
O O4 0.224837 0.851062 0.083142
O O5 0.381894 0.248503 0.909770
O O6 0.319686 0.350971 0.770925
O O7 0.301696 0.383786 0.921790
O O8 0.917507 0.112740 0.337847
O O9 0.505555 0.132549 0.038377
O O10 0.553696 0.640834 0.716824
O O11 0.972109 0.633667 0.858034
O O12 0.130902 0.706296 0.536141
O O13 0.856450 0.615658 0.484229
O O14 0.944088 0.739999 0.587495
O O15 0.669502 0.500000 0.438159
O O16 0.829980 0.594772 0.635131
O O17 0.069828 0.500000 0.856241
#
# Coordination Sequence:
#
# PCOD8053722 Si02
#       8
#     4   4   4   4   4   4   4   4
#     4  11  22  35  58  91 125 155 202 264 316 363
#     4   9  22  34  60  89 126 155 213 256 316 360
#     4  11  23  37  59  91 126 160 203 259 316 365
#     4  10  23  34  63  91 125 160 216 256 313 364
#     4  10  21  35  58  88 118 156 198 258 310 368
#     4  10  22  40  62  85 123 166 209 249 312 385
#     4  10  22  43  65  93 128 172 210 255 320 389
#     4  11  21  34  59  90 122 152 207 257 314 362
#
# _framework density 20.153286999999999
#
# number of rings (size 3 to 8) (size 9 to 14) (size 15 to 20)
#    0.000    1.750    1.250    2.250   17.500    0.500 
#    0.000    1.250    0.000    4.500    0.000    0.000 
#    0.000    0.000    0.000    0.000    0.000    0.000 
#
# Total GULP energy -198255.514525 kJ/mol
# GULP energy per Si atom -12390.969658 kJ/mol
# Density = 2.010742 g / cm^3
# Si number density = 20.153287 Si / 1000 Ang^3
#
#
#
# Elastic Constant Matrix: (Units=GPa)
#
#
# Indices 1 2 3 4 5 6 
#
# 1 150.8042 41.2143 61.4541 -0.0015 -9.6036 0.0022
# 2 41.2143 56.1120 30.3929 -0.0036 6.1521 0.0003
# 3 61.4541 30.3929 157.3110 -0.0145 20.3901 -0.0058
# 4 -0.0015 -0.0036 -0.0145 12.9307 -0.0056 8.5928
# 5 -9.6036 6.1521 20.3901 -0.0056 28.0351 0.0009
# 6 0.0022 0.0003 -0.0058 8.5928 0.0009 12.9599
#
#
#
# Elastic Compliance Matrix: (Units=1/GPa)
#
#
# Indices 1 2 3 4 5 6 
#
# 1 0.010461 -0.006453 -0.003851 0.000002 0.007800 -0.000005
# 2 -0.006453 0.023962 -0.001259 0.000002 -0.006553 -0.000001
# 3 -0.003851 -0.001259 0.009097 0.000005 -0.007659 0.000002
# 4 0.000002 0.000002 0.000005 0.138247 0.000027 -0.091662
# 5 0.007800 -0.006553 -0.007659 0.000027 0.045350 -0.000026
# 6 -0.000005 -0.000001 0.000002 -0.091662 -0.000026 0.137936
#
#
# Mechanical properties :
#
#
# Convention : Reuss Voigt Hill
#
# Bulk Modulus (GPa) = 49.03476 70.03888 59.53682
# Shear Modulus (GPa) = 12.65899 26.19618 19.42759
#
# Velocity S-wave (km/s) = 2.50898 3.60925 3.10819
# Velocity P-wave (km/s) = 5.72512 7.22478 6.51822
#
# Compressibility (1/GPa) = 0.02039369
#
# Stress axis : x y z
#
# Youngs Moduli (GPa) = 95.59689 41.73350 109.92350
#
# Poissons Ratio (x) = 0.26929 0.42329
# Poissons Ratio (y) = 0.61686 0.13843
# Poissons Ratio (z) = 0.36812 0.05256
#
# Static dielectric constant tensor:
#      x y z
#    x 3.637390 0.000000 0.191090 
#    y 0.000000 3.262800 0.000000 
#    z 0.191090 0.000000 4.824010 
# 
# 
# High freq. dielectric constant tensor:
#      x y z
#    x 1.788470 0.000000 0.006110 
#    y 0.000000 1.727140 0.000000 
#    z 0.006110 0.000000 1.817950 
# 
# From -- ./inp_files/25599.got.cif
#   From: 2010.03.12/outbox.cif.g09.slc.cpg/sg8_13_cif.got.tgz:25599.got - 2010.03.31 10:45:26.
