data_PCOD8053703
_publ_section_title
;
Structure prediction by ZEFSAII (Michael W. Deem and Ramdas Pophale) SiO2 
 PCOD8053703
Probable space group: C M
;
_chemical_formula_sum "Si O2"
_cell_formula_units_Z 32
_cell_length_a 19.110117
_cell_length_b 8.798043
_cell_length_c 11.864728
_cell_angle_alpha 90.000000
_cell_angle_beta 127.856904
_cell_angle_gamma 90.000000
_cell_volume 1575.014655
_symmetry_space_group_name_H-M "C M"
_symmetry_group_IT_number 8
_symmetry_cell_setting 'monoclinic'
loop_
_space_group_symop_operation_xyz
x,y,z
x,-y,z
1/2+x,1/2+y,z
1/2+x,1/2-y,z
loop_
_atom_site_type_symbol
_atom_site_label
_atom_site_fract_x
_atom_site_fract_y
_atom_site_fract_z
Si Si1 0.137470 0.830547 0.492100
Si Si2 0.242899 0.321094 0.982940
Si Si3 0.086087 0.323916 0.660388
Si Si4 0.567017 0.324068 0.184895
Si Si5 0.884525 0.322228 0.966332
Si Si6 0.401253 0.676984 0.521385
Si Si7 0.742130 0.320271 0.227215
Si Si8 0.336894 0.171287 0.670790
O O1 0.126202 0.704379 0.576415
O O2 0.071482 0.799768 0.323747
O O3 0.234796 0.821121 0.533949
O O4 0.122434 0.000000 0.528152
O O5 0.248244 0.500000 0.005766
O O6 0.157937 0.273925 0.824412
O O7 0.333176 0.268302 0.012378
O O8 0.233784 0.242101 0.093539
O O9 0.061103 0.500000 0.648612
O O10 0.999773 0.221085 0.583630
O O11 0.549073 0.500000 0.137669
O O12 0.656015 0.266110 0.211527
O O13 0.487343 0.220368 0.063695
O O14 0.872303 0.500000 0.977197
O O15 0.844682 0.273405 0.806777
O O16 0.386885 0.500000 0.489189
O O17 0.331125 0.762516 0.374076
O O18 0.391422 0.719104 0.642972
O O19 0.748113 0.500000 0.229080
O O20 0.374509 0.000000 0.694793
#
# Coordination Sequence:
#
# PCOD8053703 Si02
#       8
#     4   4   4   4   4   4   4   4
#     4  10  20  41  68  91 122 163 210 262 317 373
#     4  11  25  44  65  93 130 169 213 265 317 374
#     4  11  25  43  65  94 129 168 212 263 316 376
#     4  10  23  42  65  93 127 165 207 263 318 375
#     4  11  24  41  66  95 127 169 211 260 316 377
#     4  12  26  42  66  96 128 168 213 262 317 379
#     4  11  24  45  68  92 128 170 212 261 320 379
#     4  10  21  42  67  92 125 164 210 262 317 373
#
# _framework density 20.317273
#
# number of rings (size 3 to 8) (size 9 to 14) (size 15 to 20)
#    0.000    1.250    2.500    2.625    3.500    4.500 
#    0.000    0.000    0.000    0.000    0.000    0.000 
#    0.000    0.000    0.000    0.000    0.000    0.000 
#
# Total GULP energy -198486.900934 kJ/mol
# GULP energy per Si atom -12405.431308 kJ/mol
# Density = 2.027103 g / cm^3
# Si number density = 20.317273 Si / 1000 Ang^3
#
#
#
# Elastic Constant Matrix: (Units=GPa)
#
#
# Indices 1 2 3 4 5 6 
#
# 1 105.9994 43.3890 47.2413 0.0000 -0.1058 0.0000
# 2 43.3890 82.6954 42.8440 0.0000 -1.5249 0.0000
# 3 47.2413 42.8440 93.2703 0.0000 0.7240 0.0000
# 4 0.0000 0.0000 0.0000 31.1036 0.0000 -1.9551
# 5 -0.1058 -1.5249 0.7240 0.0000 37.4578 0.0000
# 6 0.0000 0.0000 0.0000 -1.9551 0.0000 37.4640
#
#
#
# Elastic Compliance Matrix: (Units=1/GPa)
#
#
# Indices 1 2 3 4 5 6 
#
# 1 0.013404 -0.004615 -0.004669 0.000000 -0.000060 0.000000
# 2 -0.004615 0.017482 -0.005699 0.000000 0.000809 0.000000
# 3 -0.004669 -0.005699 0.015708 0.000000 -0.000549 0.000000
# 4 0.000000 0.000000 0.000000 0.032256 0.000000 0.001683
# 5 -0.000060 0.000809 -0.000549 0.000000 0.026740 0.000000
# 6 0.000000 0.000000 0.000000 0.001683 0.000000 0.026780
#
#
# Mechanical properties :
#
#
# Convention : Reuss Voigt Hill
#
# Bulk Modulus (GPa) = 60.13833 60.99043 60.56438
# Shear Modulus (GPa) = 29.78352 31.10446 30.44399
#
# Velocity S-wave (km/s) = 3.83289 3.91696 3.87515
# Velocity P-wave (km/s) = 7.01797 7.10922 7.06374
#
# Compressibility (1/GPa) = 0.01662833
#
# Stress axis : x y z
#
# Youngs Moduli (GPa) = 74.60619 57.20320 63.66084
#
# Poissons Ratio (x) = 0.26400 0.29720
# Poissons Ratio (y) = 0.34431 0.36280
# Poissons Ratio (z) = 0.34830 0.32600
#
# Static dielectric constant tensor:
#      x y z
#    x 3.654780 0.000000 0.010960 
#    y 0.000000 3.619900 0.000000 
#    z 0.010960 0.000000 3.753910 
# 
# 
# High freq. dielectric constant tensor:
#      x y z
#    x 1.799960 0.000000 -0.000950 
#    y 0.000000 1.792970 0.000000 
#    z -0.000950 0.000000 1.805370 
# 
# From -- ./inp_files/23894.got.cif
#   From: 2010.03.12/outbox.cif.g09.slc.cpg/sg8_12_cif.got.tgz:23894.got - 2010.03.31 10:45:26.
