data_PCOD8053662
_publ_section_title
;
Structure prediction by ZEFSAII (Michael W. Deem and Ramdas Pophale) SiO2 
 PCOD8053662
Probable space group: C M
;
_chemical_formula_sum "Si O2"
_cell_formula_units_Z 24
_cell_length_a 13.259654
_cell_length_b 13.638053
_cell_length_c 11.375575
_cell_angle_alpha 90.000000
_cell_angle_beta 146.534550
_cell_angle_gamma 90.000000
_cell_volume 1134.361549
_symmetry_space_group_name_H-M "C M"
_symmetry_group_IT_number 8
_symmetry_cell_setting 'monoclinic'
loop_
_space_group_symop_operation_xyz
x,y,z
x,-y,z
1/2+x,1/2+y,z
1/2+x,1/2-y,z
loop_
_atom_site_type_symbol
_atom_site_label
_atom_site_fract_x
_atom_site_fract_y
_atom_site_fract_z
Si Si1 0.045390 0.610623 0.100260
Si Si2 0.626127 0.112462 0.622405
Si Si3 0.608680 0.260150 0.961303
Si Si4 0.312011 0.610917 0.565666
Si Si5 0.887763 0.218704 0.048763
Si Si6 0.719458 0.615299 0.276896
O O1 0.985601 0.500000 0.016336
O O2 0.235306 0.617410 0.357930
O O3 0.893965 0.664041 0.033268
O O4 0.043686 0.669448 0.976877
O O5 0.649154 0.128639 0.503973
O O6 0.432063 0.147638 0.487503
O O7 0.650669 0.000000 0.679855
O O8 0.789175 0.169476 0.842659
O O9 0.461693 0.302426 0.725278
O O10 0.780244 0.207451 0.064894
O O11 0.656122 0.354575 0.085278
O O12 0.390657 0.500000 0.660817
O O13 0.095222 0.172876 0.253478
O O14 0.692954 0.500000 0.269555
#
# Coordination Sequence:
#
# PCOD8053662 Si02
#       6
#     4   4   4   4   4   4
#     4  10  23  42  63  94 133 171 212 264 324 383
#     4  10  20  38  68  97 125 166 221 269 314 380
#     4  11  23  38  66  94 130 169 211 270 323 380
#     4  10  20  40  70  97 126 171 224 269 317 385
#     4  11  23  38  64  95 130 169 215 266 322 385
#     4  10  21  40  65  95 124 164 217 264 316 379
#
# _framework density 21.157277000000001
#
# number of rings (size 3 to 8) (size 9 to 14) (size 15 to 20)
#    0.000    1.667    3.333    2.000    4.667    4.000 
#    0.000    0.000    0.000    0.000    0.000    0.000 
#    0.000    0.000    0.000    0.000    0.000    0.000 
#
# Total GULP energy -148677.308660 kJ/mol
# GULP energy per Si atom -12389.775722 kJ/mol
# Density = 2.110912 g / cm^3
# Si number density = 21.157277 Si / 1000 Ang^3
#
#
#
# Elastic Constant Matrix: (Units=GPa)
#
#
# Indices 1 2 3 4 5 6 
#
# 1 81.3537 32.6692 9.5130 0.0000 12.9623 0.0000
# 2 32.6692 119.7714 28.7238 0.0000 11.3938 0.0000
# 3 9.5130 28.7238 51.0617 -0.0001 16.8375 0.0000
# 4 0.0000 0.0000 -0.0001 34.5263 -0.0001 4.6511
# 5 12.9623 11.3938 16.8375 -0.0001 31.1670 0.0000
# 6 0.0000 0.0000 0.0000 4.6511 0.0000 21.1442
#
#
#
# Elastic Compliance Matrix: (Units=1/GPa)
#
#
# Indices 1 2 3 4 5 6 
#
# 1 0.014496 -0.003724 0.001136 0.000000 -0.005281 0.000000
# 2 -0.003724 0.010621 -0.005489 0.000000 0.000631 0.000000
# 3 0.001136 -0.005489 0.026713 0.000000 -0.012897 0.000000
# 4 0.000000 0.000000 0.000000 0.029848 0.000000 -0.006566
# 5 -0.005281 0.000631 -0.012897 0.000000 0.041018 0.000000
# 6 0.000000 0.000000 0.000000 -0.006566 0.000000 0.048739
#
#
# Mechanical properties :
#
#
# Convention : Reuss Voigt Hill
#
# Bulk Modulus (GPa) = 28.03055 43.77766 35.90410
# Shear Modulus (GPa) = 25.06488 29.45290 27.25889
#
# Velocity S-wave (km/s) = 3.44567 3.73512 3.59331
# Velocity P-wave (km/s) = 5.39515 6.27200 5.85003
#
# Compressibility (1/GPa) = 0.03567537
#
# Stress axis : x y z
#
# Youngs Moduli (GPa) = 68.98423 94.14973 37.43462
#
# Poissons Ratio (x) = 0.35061 -0.04251
# Poissons Ratio (y) = 0.25689 0.20549
# Poissons Ratio (z) = -0.07834 0.51681
#
# Static dielectric constant tensor:
#      x y z
#    x 3.884420 0.000000 0.217600 
#    y 0.000000 3.943260 0.000000 
#    z 0.217600 0.000000 3.678350 
# 
# 
# High freq. dielectric constant tensor:
#      x y z
#    x 1.825680 0.000000 0.007290 
#    y 0.000000 1.836440 0.000000 
#    z 0.007290 0.000000 1.810580 
# 
# From -- ./inp_files/22158.got.cif
#   From: 2010.03.12/outbox.cif.g09.slc.cpg/sg8_12_cif.got.tgz:22158.got - 2010.03.31 10:45:26.
