data_PCOD8053376
_publ_section_title
;
Structure prediction by ZEFSAII (Michael W. Deem and Ramdas Pophale) SiO2 
 PCOD8053376
Probable space group: C M
;
_chemical_formula_sum "Si O2"
_cell_formula_units_Z 32
_cell_length_a 25.100653
_cell_length_b 9.510577
_cell_length_c 16.628858
_cell_angle_alpha 90.000000
_cell_angle_beta 154.417315
_cell_angle_gamma 90.000000
_cell_volume 1714.155500
_symmetry_space_group_name_H-M "C M"
_symmetry_group_IT_number 8
_symmetry_cell_setting 'monoclinic'
loop_
_space_group_symop_operation_xyz
x,y,z
x,-y,z
1/2+x,1/2+y,z
1/2+x,1/2-y,z
loop_
_atom_site_type_symbol
_atom_site_label
_atom_site_fract_x
_atom_site_fract_y
_atom_site_fract_z
Si Si1 0.304930 0.334221 0.354940
Si Si2 0.168504 0.836144 0.584849
Si Si3 0.507971 0.337772 0.220555
Si Si4 0.908708 0.658453 0.830111
Si Si5 0.089327 0.332574 0.947203
Si Si6 0.544534 0.163034 0.706622
Si Si7 0.625861 0.842449 0.251064
Si Si8 0.229496 0.336926 0.817793
O O1 0.330997 0.500000 0.384794
O O2 0.431410 0.250932 0.517725
O O3 0.242038 0.295681 0.354783
O O4 0.216903 0.282941 0.162040
O O5 0.282132 0.769821 0.687532
O O6 0.156794 0.750920 0.651478
O O7 0.044141 0.816365 0.363449
O O8 0.191616 0.000000 0.637182
O O9 0.515993 0.500000 0.207331
O O10 0.609164 0.259226 0.303985
O O11 0.369474 0.280877 0.018544
O O12 0.874130 0.500000 0.759583
O O13 0.972017 0.730420 0.837741
O O14 0.003258 0.664372 0.031799
O O15 0.084830 0.500000 0.948907
O O16 0.082425 0.280293 0.846404
O O17 0.662272 0.186987 0.810830
O O18 0.505873 0.000000 0.657810
O O19 0.646633 0.000000 0.311771
O O20 0.227447 0.500000 0.790250
#
# Coordination Sequence:
#
# PCOD8053376 Si02
#       8
#     4   4   4   4   4   4   4   4
#     4   9  19  35  55  81 109 139 177 221 265 316
#     4  10  20  34  56  82 104 138 184 223 259 315
#     4  10  21  34  53  81 109 138 180 226 263 310
#     4   8  14  28  51  78 106 134 171 211 254 317
#     4   8  16  32  54  78 106 141 173 212 266 319
#     4  10  21  36  57  78 104 146 185 218 263 318
#     4   9  17  32  54  79 112 143 170 213 272 325
#     4  10  22  39  52  75 114 145 176 222 272 314
#
# _framework density 18.668085000000001
#
# number of rings (size 3 to 8) (size 9 to 14) (size 15 to 20)
#    0.000    2.750    1.250    1.500    1.750    2.500 
#    0.000    3.125    0.000    0.750    0.000    0.000 
#    0.000    0.000    0.000    0.000    0.000    0.000 
#
# Total GULP energy -198340.857603 kJ/mol
# GULP energy per Si atom -12396.303600 kJ/mol
# Density = 1.862560 g / cm^3
# Si number density = 18.668085 Si / 1000 Ang^3
#
#
#
# Elastic Constant Matrix: (Units=GPa)
#
#
# Indices 1 2 3 4 5 6 
#
# 1 96.4449 33.6184 33.7490 0.0000 -13.6163 0.0000
# 2 33.6184 41.3265 26.7260 0.0000 -4.3207 0.0000
# 3 33.7490 26.7260 69.5900 0.0000 -7.6372 0.0000
# 4 0.0000 0.0000 0.0000 25.2878 0.0000 0.3138
# 5 -13.6163 -4.3207 -7.6372 0.0000 29.1877 0.0000
# 6 0.0000 0.0000 0.0000 0.3138 0.0000 27.9490
#
#
#
# Elastic Compliance Matrix: (Units=1/GPa)
#
#
# Indices 1 2 3 4 5 6 
#
# 1 0.015752 -0.010252 -0.003153 0.000000 0.005006 0.000000
# 2 -0.010252 0.038936 -0.010166 0.000000 -0.001679 0.000000
# 3 -0.003153 -0.010166 0.020052 0.000000 0.002271 0.000000
# 4 0.000000 0.000000 0.000000 0.039550 0.000000 -0.000444
# 5 0.005006 -0.001679 0.002271 0.000000 0.036942 0.000000
# 6 0.000000 0.000000 0.000000 -0.000444 0.000000 0.035784
#
#
# Mechanical properties :
#
#
# Convention : Reuss Voigt Hill
#
# Bulk Modulus (GPa) = 36.23220 43.94979 40.09100
# Shear Modulus (GPa) = 20.54589 24.03611 22.29100
#
# Velocity S-wave (km/s) = 3.32111 3.59214 3.45928
# Velocity P-wave (km/s) = 5.84441 6.38737 6.12191
#
# Compressibility (1/GPa) = 0.02759976
#
# Stress axis : x y z
#
# Youngs Moduli (GPa) = 63.48339 25.68320 49.86974
#
# Poissons Ratio (x) = 0.26330 0.15722
# Poissons Ratio (y) = 0.65082 0.50696
# Poissons Ratio (z) = 0.20014 0.26109
#
# Static dielectric constant tensor:
#      x y z
#    x 3.464050 0.000000 0.006370 
#    y 0.000000 3.103140 0.000000 
#    z 0.006370 0.000000 3.398850 
# 
# 
# High freq. dielectric constant tensor:
#      x y z
#    x 1.725300 0.000000 0.000060 
#    y 0.000000 1.688130 0.000000 
#    z 0.000060 0.000000 1.725660 
# 
# From -- ./inp_files/21853.got.cif
#   From: 2010.03.12/outbox.cif.g09.slc.cpg/sg8_11_cif.got.tgz:21853.got - 2010.03.31 10:45:26.
