data_PCOD8053295
_publ_section_title
;
Structure prediction by ZEFSAII (Michael W. Deem and Ramdas Pophale) SiO2 
 PCOD8053295
Probable space group: C M
;
_chemical_formula_sum "Si O2"
_cell_formula_units_Z 24
_cell_length_a 23.252006
_cell_length_b 7.769124
_cell_length_c 10.512673
_cell_angle_alpha 90.000000
_cell_angle_beta 138.770623
_cell_angle_gamma 90.000000
_cell_volume 1251.643292
_symmetry_space_group_name_H-M "C M"
_symmetry_group_IT_number 8
_symmetry_cell_setting 'monoclinic'
loop_
_space_group_symop_operation_xyz
x,y,z
x,-y,z
1/2+x,1/2+y,z
1/2+x,1/2-y,z
loop_
_atom_site_type_symbol
_atom_site_label
_atom_site_fract_x
_atom_site_fract_y
_atom_site_fract_z
Si Si1 0.924021 0.000000 0.032200
Si Si2 0.010131 0.000000 0.763977
Si Si3 0.836962 0.000000 0.639135
Si Si4 0.594113 0.500000 0.157992
Si Si5 0.191135 0.199619 0.740505
Si Si6 0.381614 0.197044 0.139585
Si Si7 0.517393 0.192158 0.582071
Si Si8 0.730577 0.309934 0.519545
O O1 0.928129 0.173205 0.120559
O O2 0.999396 0.000000 0.056142
O O3 0.842879 0.000000 0.802729
O O4 0.019745 0.828801 0.697972
O O5 0.919102 0.000000 0.684713
O O6 0.089266 0.000000 0.996846
O O7 0.786003 0.177000 0.527728
O O8 0.642222 0.329307 0.290341
O O9 0.106654 0.300993 0.649088
O O10 0.209798 0.257307 0.626928
O O11 0.166264 0.000000 0.704726
O O12 0.277442 0.238896 0.970826
O O13 0.429857 0.227198 0.353767
O O14 0.395051 0.000000 0.114990
O O15 0.511241 0.000000 0.629448
O O16 0.777132 0.500000 0.606387
#
# Coordination Sequence:
#
# PCOD8053295 Si02
#       8
#     2   2   2   2   4   4   4   4
#     4  11  19  36  60  92 127 159 188 258 314 385
#     4  11  25  48  56  86 125 176 208 258 291 365
#     4  11  22  38  68  87 126 159 211 246 303 374
#     4   9  22  42  62  83 126 166 203 250 318 350
#     4  10  19  38  65  93 132 154 193 271 318 370
#     4  10  22  37  59  96 125 161 202 250 327 370
#     4  11  24  42  62  89 125 169 214 255 306 365
#     4   9  20  39  61  97 121 151 198 259 317 364
#
# _framework density 19.174792
#
# number of rings (size 3 to 8) (size 9 to 14) (size 15 to 20)
#    0.500    1.333    2.500    1.500    2.333    0.667 
#    6.000    1.667    0.000    0.000    0.000    0.000 
#    0.000    0.000    0.000    0.000    0.000    0.000 
#
# Total GULP energy -148692.975483 kJ/mol
# GULP energy per Si atom -12391.081290 kJ/mol
# Density = 1.913115 g / cm^3
# Si number density = 19.174792 Si / 1000 Ang^3
#
#
#
# Elastic Constant Matrix: (Units=GPa)
#
#
# Indices 1 2 3 4 5 6 
#
# 1 84.5850 47.3043 41.7226 0.0000 -1.1858 0.0000
# 2 47.3043 109.8415 39.2495 0.0000 -6.4082 0.0000
# 3 41.7226 39.2495 134.2120 0.0000 4.2037 0.0000
# 4 0.0000 0.0000 0.0000 -11.8458 0.0000 48.7406
# 5 -1.1858 -6.4082 4.2037 0.0000 22.6873 0.0000
# 6 0.0000 0.0000 0.0000 48.7406 0.0000 -44.7298
#
#
#
# Elastic Compliance Matrix: (Units=1/GPa)
#
#
# Indices 1 2 3 4 5 6 
#
# 1 0.016925 -0.006054 -0.003485 0.000000 -0.000180 0.000000
# 2 -0.006054 0.012606 -0.001917 0.000000 0.003600 0.000000
# 3 -0.003485 -0.001917 0.009171 0.000000 -0.002423 0.000000
# 4 0.000000 0.000000 0.000000 0.024233 0.000000 0.026406
# 5 -0.000180 0.003600 -0.002423 0.000000 0.045534 0.000000
# 6 0.000000 0.000000 0.000000 0.026406 0.000000 0.006418
#
#
# Mechanical properties :
#
#
# Convention : Reuss Voigt Hill
#
# Bulk Modulus (GPa) = 63.33602 65.02125 64.17863
# Shear Modulus (GPa) = 34.94957 6.57982 20.76470
#
# Velocity S-wave (km/s) = 4.27392 1.85444 3.29434
# Velocity P-wave (km/s) = 7.58009 6.21036 6.92916
#
# Compressibility (1/GPa) = 0.01578881
#
# Stress axis : x y z
#
# Youngs Moduli (GPa) = 59.08516 79.32527 109.03907
#
# Poissons Ratio (x) = 0.48022 0.38004
# Poissons Ratio (y) = 0.35769 0.20907
# Poissons Ratio (z) = 0.20593 0.15210
#
# Static dielectric constant tensor:
#      x y z
#    x 3.220600 0.000000 0.125040 
#    y 0.000000 4.043940 0.000000 
#    z 0.125040 0.000000 3.732620 
# 
# 
# High freq. dielectric constant tensor:
#      x y z
#    x 1.722180 0.000000 0.012160 
#    y 0.000000 1.751370 0.000000 
#    z 0.012160 0.000000 1.751020 
# 
# From -- ./inp_files/15897.got.cif
#   From: 2010.03.12/outbox.cif.g09.slc.cpg/sg8_8_cif.got.tgz:15897.got - 2010.03.31 10:45:26.
