data_PCOD8053687
_publ_section_title
;
Structure prediction by ZEFSAII (Michael W. Deem and Ramdas Pophale) SiO2 
 PCOD8053687
Probable space group: C M
;
_chemical_formula_sum "Si O2"
_cell_formula_units_Z 32
_cell_length_a 15.930125
_cell_length_b 17.774002
_cell_length_c 12.630779
_cell_angle_alpha 90.000000
_cell_angle_beta 154.523658
_cell_angle_gamma 90.000000
_cell_volume 1538.305998
_symmetry_space_group_name_H-M "C M"
_symmetry_group_IT_number 8
_symmetry_cell_setting 'monoclinic'
loop_
_space_group_symop_operation_xyz
x,y,z
x,-y,z
1/2+x,1/2+y,z
1/2+x,1/2-y,z
loop_
_atom_site_type_symbol
_atom_site_label
_atom_site_fract_x
_atom_site_fract_y
_atom_site_fract_z
Si Si1 0.958120 0.770585 0.140370
Si Si2 0.140479 0.084461 0.641050
Si Si3 0.965758 0.688371 0.942936
Si Si4 0.160019 0.838770 0.887736
Si Si5 0.299978 0.694581 0.617242
Si Si6 0.731733 0.913970 0.862624
Si Si7 0.708735 0.083231 0.076984
Si Si8 0.510874 0.087318 0.400956
O O1 0.153873 0.765972 0.432226
O O2 0.021178 0.706967 0.126140
O O3 0.762431 0.740994 0.976968
O O4 0.911119 0.855350 0.048123
O O5 0.280330 0.134396 0.728747
O O6 0.127050 0.112037 0.746076
O O7 0.940167 0.088156 0.348902
O O8 0.222112 0.000000 0.737817
O O9 0.932785 0.772235 0.861200
O O10 0.133769 0.647874 0.068614
O O11 0.942294 0.826839 0.683338
O O12 0.297230 0.880243 0.130680
O O13 0.177038 0.622590 0.514749
O O14 0.562220 0.897066 0.583177
O O15 0.809676 0.000000 0.937343
O O16 0.646272 0.902664 0.883667
O O17 0.636328 0.000000 0.030082
O O18 0.511073 0.000000 0.375078
#
# Coordination Sequence:
#
# PCOD8053687 Si02
#       8
#     4   4   4   4   4   4   4   4
#     4  10  21  39  60  89 122 156 203 254 310 356
#     4  10  21  38  61  87 119 157 200 254 308 358
#     4  11  21  37  58  87 118 154 196 249 301 363
#     4  10  22  39  62  92 121 161 204 255 308 365
#     4  11  22  39  61  90 121 159 205 254 302 363
#     4  10  20  40  64  88 126 168 204 249 303 368
#     4  10  21  37  59  88 119 157 203 252 305 360
#     4  10  22  41  63  89 126 166 205 251 303 365
#
# _framework density 20.802102999999999
#
# number of rings (size 3 to 8) (size 9 to 14) (size 15 to 20)
#    0.000    1.750    1.250    3.000    0.000    2.000 
#    4.500    3.750    0.000    5.250    0.000    0.000 
#    0.000    0.000    0.000    0.000    0.000    0.000 
#
# Total GULP energy -198307.083553 kJ/mol
# GULP energy per Si atom -12394.192722 kJ/mol
# Density = 2.075476 g / cm^3
# Si number density = 20.802103 Si / 1000 Ang^3
#
#
#
# Elastic Constant Matrix: (Units=GPa)
#
#
# Indices 1 2 3 4 5 6 
#
# 1 75.9788 24.7905 15.3926 0.0000 2.3704 0.0000
# 2 24.7905 109.7128 23.8566 0.0000 3.6498 0.0000
# 3 15.3926 23.8566 63.1328 0.0000 -9.4389 0.0000
# 4 0.0000 0.0000 0.0000 28.9301 0.0000 -2.4858
# 5 2.3704 3.6498 -9.4389 0.0000 31.3008 0.0000
# 6 0.0000 0.0000 0.0000 -2.4858 0.0000 25.3684
#
#
#
# Elastic Compliance Matrix: (Units=1/GPa)
#
#
# Indices 1 2 3 4 5 6 
#
# 1 0.014646 -0.002641 -0.002820 0.000000 -0.001651 0.000000
# 2 -0.002641 0.010582 -0.003675 0.000000 -0.002142 0.000000
# 3 -0.002820 -0.003675 0.018862 0.000000 0.006330 0.000000
# 4 0.000000 0.000000 0.000000 0.034860 0.000000 0.003416
# 5 -0.001651 -0.002142 0.006330 0.000000 0.034232 0.000000
# 6 0.000000 0.000000 0.000000 0.003416 0.000000 0.039754
#
#
# Mechanical properties :
#
#
# Convention : Reuss Voigt Hill
#
# Bulk Modulus (GPa) = 38.73232 41.87820 40.30526
# Shear Modulus (GPa) = 27.80658 29.43884 28.62271
#
# Velocity S-wave (km/s) = 3.66008 3.76598 3.71341
# Velocity P-wave (km/s) = 6.04330 6.25184 6.14845
#
# Compressibility (1/GPa) = 0.02581823
#
# Stress axis : x y z
#
# Youngs Moduli (GPa) = 68.27733 94.50103 53.01607
#
# Poissons Ratio (x) = 0.24961 0.14949
# Poissons Ratio (y) = 0.18034 0.19483
# Poissons Ratio (z) = 0.19252 0.34729
#
# Static dielectric constant tensor:
#      x y z
#    x 3.611390 0.000000 -0.199350 
#    y 0.000000 3.875310 0.000000 
#    z -0.199350 0.000000 3.730290 
# 
# 
# High freq. dielectric constant tensor:
#      x y z
#    x 1.804870 0.000000 -0.020230 
#    y 0.000000 1.825340 0.000000 
#    z -0.020230 0.000000 1.813660 
# 
# From -- ./inp_files/22387.got.cif
#   From: 2010.03.12/outbox.cif.g09.slc.cpg/sg8_12_cif.got.tgz:22387.got - 2010.03.31 10:45:26.
