data_PCOD8053006
_publ_section_title
;
Structure prediction by ZEFSAII (Michael W. Deem and Ramdas Pophale) SiO2 
 PCOD8053006
Probable space group: C M
;
_chemical_formula_sum "Si O2"
_cell_formula_units_Z 32
_cell_length_a 15.546375
_cell_length_b 8.902463
_cell_length_c 22.990617
_cell_angle_alpha 90.000000
_cell_angle_beta 148.441077
_cell_angle_gamma 90.000000
_cell_volume 1665.340471
_symmetry_space_group_name_H-M "C M"
_symmetry_group_IT_number 8
_symmetry_cell_setting 'monoclinic'
loop_
_space_group_symop_operation_xyz
x,y,z
x,-y,z
1/2+x,1/2+y,z
1/2+x,1/2-y,z
loop_
_atom_site_type_symbol
_atom_site_label
_atom_site_fract_x
_atom_site_fract_y
_atom_site_fract_z
Si Si1 0.687790 0.320243 0.877620
Si Si2 0.012326 0.677299 0.881713
Si Si3 0.288981 0.169468 0.109781
Si Si4 0.002175 0.330986 0.121451
Si Si5 0.523811 0.177621 0.345733
Si Si6 0.855055 0.820605 0.350041
Si Si7 0.668193 0.678441 0.734907
Si Si8 0.861266 0.178838 0.484974
O O1 0.683407 0.500000 0.881264
O O2 0.550816 0.254893 0.842196
O O3 0.654692 0.262791 0.793469
O O4 0.867624 0.256100 0.000850
O O5 0.016201 0.500000 0.875208
O O6 0.834610 0.735356 0.800266
O O7 0.142266 0.720801 0.006731
O O8 0.437529 0.174013 0.149861
O O9 0.368070 0.223162 0.215978
O O10 0.219044 0.000000 0.073673
O O11 0.026639 0.500000 0.113921
O O12 0.181710 0.254105 0.225218
O O13 0.501629 0.255303 0.395480
O O14 0.692531 0.240112 0.415530
O O15 0.533932 0.000000 0.359447
O O16 0.880478 0.761954 0.430295
O O17 0.856009 0.000000 0.349365
O O18 0.667663 0.500000 0.735752
O O19 0.513515 0.742560 0.610178
O O20 0.860765 0.000000 0.485333
#
# Coordination Sequence:
#
# PCOD8053006 Si02
#       8
#     4   4   4   4   4   4   4   4
#     4   9  18  34  54  75 104 140 176 210 252 310
#     4  10  20  33  52  81 109 133 169 220 265 299
#     4   9  17  33  54  75 105 142 174 206 255 316
#     4   8  14  28  51  73  97 133 172 204 242 304
#     4  10  20  34  54  79 105 136 174 217 260 306
#     4  10  19  32  54  79 103 136 174 215 260 306
#     4   9  19  34  55  78 101 139 183 214 246 307
#     4   9  18  36  56  74 102 141 182 212 248 310
#
# _framework density 19.215291000000001
#
# number of rings (size 3 to 8) (size 9 to 14) (size 15 to 20)
#    0.000    2.750    1.250    1.125    1.750    1.500 
#    0.000    4.375    0.000    3.000    0.000    0.000 
#    0.000    0.000    0.000    0.000    0.000    0.000 
#
# Total GULP energy -198336.798371 kJ/mol
# GULP energy per Si atom -12396.049898 kJ/mol
# Density = 1.917156 g / cm^3
# Si number density = 19.215291 Si / 1000 Ang^3
#
#
#
# Elastic Constant Matrix: (Units=GPa)
#
#
# Indices 1 2 3 4 5 6 
#
# 1 165.5539 27.6622 91.4187 0.0000 -8.5574 0.0000
# 2 27.6622 26.2918 24.4339 0.0001 0.6392 0.0000
# 3 91.4187 24.4339 133.0940 0.0008 -7.2804 0.0001
# 4 0.0000 0.0001 0.0008 15.4822 0.0001 2.0751
# 5 -8.5574 0.6392 -7.2804 0.0001 28.7805 0.0000
# 6 0.0000 0.0000 0.0001 2.0751 0.0000 28.4622
#
#
#
# Elastic Compliance Matrix: (Units=1/GPa)
#
#
# Indices 1 2 3 4 5 6 
#
# 1 0.010352 -0.005316 -0.006043 0.000000 0.001667 0.000000
# 2 -0.005316 0.048879 -0.005545 0.000000 -0.004069 0.000000
# 3 -0.006043 -0.005545 0.012768 -0.000001 0.001556 0.000000
# 4 0.000000 0.000000 -0.000001 0.065228 0.000000 -0.004756
# 5 0.001667 -0.004069 0.001556 0.000000 0.035725 0.000000
# 6 0.000000 0.000000 0.000000 -0.004756 0.000000 0.035481
#
#
# Mechanical properties :
#
#
# Convention : Reuss Voigt Hill
#
# Bulk Modulus (GPa) = 26.18414 67.99659 47.09037
# Shear Modulus (GPa) = 19.61009 26.63996 23.12503
#
# Velocity S-wave (km/s) = 3.19806 3.72747 3.47287
# Velocity P-wave (km/s) = 5.22428 7.34772 6.37503
#
# Compressibility (1/GPa) = 0.03819105
#
# Stress axis : x y z
#
# Youngs Moduli (GPa) = 96.60157 20.45855 78.32359
#
# Poissons Ratio (x) = 0.10875 0.47333
# Poissons Ratio (y) = 0.51350 0.43430
# Poissons Ratio (z) = 0.58379 0.11344
#
# Static dielectric constant tensor:
#      x y z
#    x 3.568760 0.000000 -0.029760 
#    y 0.000000 2.988610 0.000000 
#    z -0.029760 0.000000 3.712320 
# 
# 
# High freq. dielectric constant tensor:
#      x y z
#    x 1.754750 0.000000 -0.002160 
#    y 0.000000 1.696150 0.000000 
#    z -0.002160 0.000000 1.749910 
# 
# From -- ./inp_files/30706.got.cif
#   From: 2010.03.12/outbox.cif.g09.slc.cpg/sg8_16_cif.got.tgz:30706.got - 2010.03.31 10:45:26.
