data_PCOD8053778
_publ_section_title
;
Structure prediction by ZEFSAII (Michael W. Deem and Ramdas Pophale) SiO2 
 PCOD8053778
Probable space group: C M
;
_chemical_formula_sum "Si O2"
_cell_formula_units_Z 32
_cell_length_a 23.731540
_cell_length_b 9.288108
_cell_length_c 19.545596
_cell_angle_alpha 90.000000
_cell_angle_beta 157.010603
_cell_angle_gamma 90.000000
_cell_volume 1682.638109
_symmetry_space_group_name_H-M "C M"
_symmetry_group_IT_number 8
_symmetry_cell_setting 'monoclinic'
loop_
_space_group_symop_operation_xyz
x,y,z
x,-y,z
1/2+x,1/2+y,z
1/2+x,1/2-y,z
loop_
_atom_site_type_symbol
_atom_site_label
_atom_site_fract_x
_atom_site_fract_y
_atom_site_fract_z
Si Si1 0.013980 0.163649 0.298230
Si Si2 0.788278 0.835911 0.644115
Si Si3 0.553195 0.166794 0.693429
Si Si4 0.774852 0.835222 0.143879
Si Si5 0.304686 0.833294 0.306633
Si Si6 0.485647 0.671146 0.987819
Si Si7 0.366097 0.328806 0.997206
Si Si8 0.023073 0.165472 0.798209
O O1 0.139504 0.252111 0.473967
O O2 0.873077 0.174727 0.187128
O O3 0.969376 0.226467 0.174061
O O4 0.067507 0.000000 0.351330
O O5 0.867244 0.823867 0.659469
O O6 0.750585 0.000000 0.619668
O O7 0.886668 0.770733 0.815127
O O8 0.424031 0.191411 0.497063
O O9 0.514548 0.259074 0.716054
O O10 0.567394 0.000000 0.731360
O O11 0.701832 0.222839 0.825851
O O12 0.852954 0.762591 0.296043
O O13 0.735783 0.000000 0.116995
O O14 0.631240 0.745148 0.969995
O O15 0.150327 0.777598 0.162066
O O16 0.296383 0.000000 0.275133
O O17 0.481464 0.500000 0.984691
O O18 0.424624 0.734901 0.991073
O O19 0.369228 0.500000 0.999363
O O20 0.071596 0.000000 0.843916
#
# Coordination Sequence:
#
# PCOD8053778 Si02
#       8
#     4   4   4   4   4   4   4   4
#     4  10  22  38  58  85 116 149 191 238 286 345
#     4  10  22  38  58  85 116 149 191 238 286 345
#     4  10  21  37  60  88 115 150 196 238 287 350
#     4  11  22  39  61  85 118 154 194 245 292 342
#     4  10  21  37  60  88 115 150 196 238 287 350
#     4   9  18  35  56  81 114 148 186 235 283 333
#     4   9  18  35  56  81 114 148 186 235 283 333
#     4  11  22  39  61  85 118 154 194 245 292 342
#
# _framework density 19.017755999999999
#
# number of rings (size 3 to 8) (size 9 to 14) (size 15 to 20)
#    0.000    2.000    2.500    0.750    3.500    2.500 
#    0.000    0.000    0.000    1.500    0.000    0.000 
#    0.000    0.000    0.000    0.000    0.000    0.000 
#
# Total GULP energy -198427.913169 kJ/mol
# GULP energy per Si atom -12401.744573 kJ/mol
# Density = 1.897447 g / cm^3
# Si number density = 19.017756 Si / 1000 Ang^3
#
#
#
# Elastic Constant Matrix: (Units=GPa)
#
#
# Indices 1 2 3 4 5 6 
#
# 1 101.7643 28.1460 28.6362 0.0000 -21.5044 0.0000
# 2 28.1460 70.1105 32.6192 0.0000 -10.5418 0.0000
# 3 28.6362 32.6192 112.9241 0.0000 -7.8002 0.0000
# 4 0.0000 0.0000 0.0000 29.0221 0.0000 -2.4443
# 5 -21.5044 -10.5418 -7.8002 0.0000 26.8085 0.0000
# 6 0.0000 0.0000 0.0000 -2.4443 0.0000 29.7692
#
#
#
# Elastic Compliance Matrix: (Units=1/GPa)
#
#
# Indices 1 2 3 4 5 6 
#
# 1 0.013029 -0.003077 -0.001813 0.000000 0.008714 0.000000
# 2 -0.003077 0.017946 -0.004171 0.000000 0.003375 0.000000
# 3 -0.001813 -0.004171 0.010518 0.000000 -0.000034 0.000000
# 4 0.000000 0.000000 0.000000 0.034696 0.000000 0.002849
# 5 0.008714 0.003375 -0.000034 0.000000 0.045609 0.000000
# 6 0.000000 0.000000 0.000000 0.002849 0.000000 0.033826
#
#
# Mechanical properties :
#
#
# Convention : Reuss Voigt Hill
#
# Bulk Modulus (GPa) = 42.78656 51.51130 47.14893
# Shear Modulus (GPa) = 27.54276 30.14649 28.84463
#
# Velocity S-wave (km/s) = 3.80974 3.98575 3.89873
# Velocity P-wave (km/s) = 6.47296 6.95171 6.71660
#
# Compressibility (1/GPa) = 0.02337182
#
# Stress axis : x y z
#
# Youngs Moduli (GPa) = 76.75039 55.72200 95.07786
#
# Poissons Ratio (x) = 0.17144 0.17242
# Poissons Ratio (y) = 0.23614 0.39653
# Poissons Ratio (z) = 0.13918 0.23239
#
# Static dielectric constant tensor:
#      x y z
#    x 3.618500 0.000000 -0.072970 
#    y 0.000000 3.269240 0.000000 
#    z -0.072970 0.000000 3.485560 
# 
# 
# High freq. dielectric constant tensor:
#      x y z
#    x 1.749880 0.000000 -0.004680 
#    y 0.000000 1.708720 0.000000 
#    z -0.004680 0.000000 1.746510 
# 
# From -- ./inp_files/31628.got.cif
#   From: 2010.03.12/outbox.cif.g09.slc.cpg/sg8_16_cif.got.tgz:31628.got - 2010.03.31 10:45:26.
