data_PCOD8053462
_publ_section_title
;
Structure prediction by ZEFSAII (Michael W. Deem and Ramdas Pophale) SiO2 
 PCOD8053462
Probable space group: C M
;
_chemical_formula_sum "Si O2"
_cell_formula_units_Z 32
_cell_length_a 21.965708
_cell_length_b 9.089105
_cell_length_c 27.102733
_cell_angle_alpha 90.000000
_cell_angle_beta 18.074734
_cell_angle_gamma 90.000000
_cell_volume 1678.809222
_symmetry_space_group_name_H-M "C M"
_symmetry_group_IT_number 8
_symmetry_cell_setting 'monoclinic'
loop_
_space_group_symop_operation_xyz
x,y,z
x,-y,z
1/2+x,1/2+y,z
1/2+x,1/2-y,z
loop_
_atom_site_type_symbol
_atom_site_label
_atom_site_fract_x
_atom_site_fract_y
_atom_site_fract_z
Si Si1 0.223190 0.170924 0.314570
Si Si2 0.280102 0.671165 0.633744
Si Si3 0.990065 0.170341 0.789135
Si Si4 0.024336 0.826215 0.012359
Si Si5 0.678953 0.670326 0.092273
Si Si6 0.284502 0.170570 0.381079
Si Si7 0.924065 0.830829 0.727086
Si Si8 0.974786 0.332108 0.950624
O O1 0.377780 0.268075 0.166609
O O2 0.242749 0.208717 0.356742
O O3 0.006226 0.214498 0.463959
O O4 0.265992 0.000000 0.271322
O O5 0.249004 0.500000 0.645440
O O6 0.186762 0.762836 0.661100
O O7 0.171623 0.708175 0.768746
O O8 0.004109 0.195715 0.720159
O O9 0.976769 0.000000 0.813477
O O10 0.793998 0.247581 0.960039
O O11 0.021739 0.000000 0.015516
O O12 0.240834 0.771254 0.857249
O O13 0.953536 0.773340 0.013462
O O14 0.670664 0.500000 0.084199
O O15 0.462436 0.733713 0.264584
O O16 0.786356 0.694191 0.061536
O O17 0.093479 0.215197 0.558908
O O18 0.336807 0.000000 0.348155
O O19 0.860300 0.000000 0.768395
O O20 0.984511 0.500000 0.961858
#
# Coordination Sequence:
#
# PCOD8053462 Si02
#       8
#     4   4   4   4   4   4   4   4
#     4  10  21  38  59  81 110 150 187 222 275 336
#     4   9  19  37  61  85 110 145 187 228 271 325
#     4  10  20  35  58  86 115 148 183 223 274 328
#     4  12  25  37  55  84 113 143 184 234 278 321
#     4  10  21  37  58  84 114 148 185 226 272 325
#     4  10  21  38  60  83 109 145 188 231 274 325
#     4  10  22  40  59  80 111 149 185 224 276 336
#     4   9  19  38  60  81 110 148 185 222 272 332
#
# _framework density 19.061129000000001
#
# number of rings (size 3 to 8) (size 9 to 14) (size 15 to 20)
#    0.000    2.000    0.000    4.125    0.000   11.000 
#    0.000    3.750    0.000    0.000    0.000    0.000 
#    0.000    0.000    0.000    0.000    0.000    0.000 
#
# Total GULP energy -198484.504255 kJ/mol
# GULP energy per Si atom -12405.281516 kJ/mol
# Density = 1.901775 g / cm^3
# Si number density = 19.061129 Si / 1000 Ang^3
#
#
#
# Elastic Constant Matrix: (Units=GPa)
#
#
# Indices 1 2 3 4 5 6 
#
# 1 118.2830 75.6476 79.8816 0.0604 10.5713 0.0069
# 2 75.6476 120.2120 82.5806 0.1355 2.6227 0.0063
# 3 79.8816 82.5806 150.5167 0.2024 0.5678 -0.0778
# 4 0.0604 0.1355 0.2024 32.0699 -0.0365 -5.3362
# 5 10.5713 2.6227 0.5678 -0.0365 29.8731 -0.0253
# 6 0.0069 0.0063 -0.0778 -5.3362 -0.0253 29.0440
#
#
#
# Elastic Compliance Matrix: (Units=1/GPa)
#
#
# Indices 1 2 3 4 5 6 
#
# 1 0.016814 -0.006981 -0.005073 0.000021 -0.005241 -0.000017
# 2 -0.006981 0.016281 -0.005232 -0.000025 0.001140 -0.000019
# 3 -0.005073 -0.005232 0.012199 -0.000038 0.002023 0.000030
# 4 0.000021 -0.000025 -0.000038 0.032166 0.000040 0.005910
# 5 -0.005241 0.001140 0.002023 0.000040 0.035191 0.000044
# 6 -0.000017 -0.000019 0.000030 0.005910 0.000044 0.035516
#
#
# Mechanical properties :
#
#
# Convention : Reuss Voigt Hill
#
# Bulk Modulus (GPa) = 93.27308 96.13680 94.70494
# Shear Modulus (GPa) = 26.83657 28.25752 27.54705
#
# Velocity S-wave (km/s) = 3.75630 3.85446 3.80570
# Velocity P-wave (km/s) = 8.23729 8.38777 8.31287
#
# Compressibility (1/GPa) = 0.01072121
#
# Stress axis : x y z
#
# Youngs Moduli (GPa) = 59.47538 61.42175 81.97288
#
# Poissons Ratio (x) = 0.42879 0.41588
# Poissons Ratio (y) = 0.41520 0.42886
# Poissons Ratio (z) = 0.30174 0.32134
#
# Static dielectric constant tensor:
#      x y z
#    x 3.525410 0.000010 -0.032660 
#    y 0.000010 3.461100 0.000010 
#    z -0.032660 0.000010 3.568670 
# 
# 
# High freq. dielectric constant tensor:
#      x y z
#    x 1.750380 0.000000 -0.003350 
#    y 0.000000 1.737810 0.000010 
#    z -0.003350 0.000010 1.747230 
# 
# From -- ./inp_files/33036.got.cif
#   From: 2010.03.12/outbox.cif.g09.slc.cpg/sg8_17_cif.got.tgz:33036.got - 2010.03.31 10:45:26.
