data_PCOD8053883
_publ_section_title
;
Structure prediction by ZEFSAII (Michael W. Deem and Ramdas Pophale) SiO2 
 PCOD8053883
Probable space group: C M
;
_chemical_formula_sum "Si O2"
_cell_formula_units_Z 32
_cell_length_a 17.964615
_cell_length_b 13.301451
_cell_length_c 11.825336
_cell_angle_alpha 90.000000
_cell_angle_beta 148.705638
_cell_angle_gamma 90.000000
_cell_volume 1467.782335
_symmetry_space_group_name_H-M "C M"
_symmetry_group_IT_number 8
_symmetry_cell_setting 'monoclinic'
loop_
_space_group_symop_operation_xyz
x,y,z
x,-y,z
1/2+x,1/2+y,z
1/2+x,1/2-y,z
loop_
_atom_site_type_symbol
_atom_site_label
_atom_site_fract_x
_atom_site_fract_y
_atom_site_fract_z
Si Si1 0.910960 0.616853 0.611660
Si Si2 0.492440 0.618716 0.492308
Si Si3 0.836529 0.381546 0.267035
Si Si4 0.308949 0.276827 0.646540
Si Si5 0.535217 0.616724 0.799279
Si Si6 0.278544 0.772559 0.853523
Si Si7 0.736135 0.881376 0.997569
Si Si8 0.015235 0.383234 0.290218
O O1 0.875335 0.500000 0.578577
O O2 0.865086 0.659774 0.429483
O O3 0.822989 0.673385 0.594886
O O4 0.079490 0.639813 0.846259
O O5 0.512791 0.500000 0.506067
O O6 0.475053 0.652727 0.600275
O O7 0.631099 0.674604 0.624226
O O8 0.352915 0.655342 0.241891
O O9 0.816208 0.500000 0.247729
O O10 0.974029 0.357233 0.366911
O O11 0.691213 0.332340 0.025616
O O12 0.421446 0.357570 0.746933
O O13 0.350442 0.264655 0.831126
O O14 0.148488 0.317316 0.423324
O O15 0.561101 0.500000 0.831328
O O16 0.259893 0.677363 0.911655
O O17 0.378240 0.858209 0.036157
O O18 0.752636 0.000000 0.991870
O O19 0.053355 0.500000 0.325160
#
# Coordination Sequence:
#
# PCOD8053883 Si02
#       8
#     4   4   4   4   4   4   4   4
#     4  10  23  43  66  96 134 178 223 275 335 394
#     4  10  21  43  72  98 127 170 228 282 330 394
#     4   9  19  41  72  93 121 171 224 275 326 388
#     4  12  27  39  61  99 137 177 215 269 332 399
#     4  10  21  41  67  97 127 168 222 278 330 387
#     4  12  24  41  64  99 136 178 220 267 336 401
#     4  10  23  44  70  99 132 175 227 281 331 392
#     4  11  24  44  69  97 132 173 220 275 333 393
#
# _framework density 21.801597000000001
#
# number of rings (size 3 to 8) (size 9 to 14) (size 15 to 20)
#    0.000    1.500    1.250    3.000    1.750    5.000 
#    0.000    1.875    0.000    0.000    0.000    0.000 
#    0.000    0.000    0.000    0.000    0.000    0.000 
#
# Total GULP energy -198450.210697 kJ/mol
# GULP energy per Si atom -12403.138169 kJ/mol
# Density = 2.175198 g / cm^3
# Si number density = 21.801597 Si / 1000 Ang^3
#
#
#
# Elastic Constant Matrix: (Units=GPa)
#
#
# Indices 1 2 3 4 5 6 
#
# 1 151.0703 47.0328 65.1602 0.0000 -2.2073 0.0000
# 2 47.0328 70.7826 56.6259 0.0000 -0.8329 0.0000
# 3 65.1602 56.6259 148.3136 0.0000 -2.0399 0.0000
# 4 0.0000 0.0000 0.0000 36.2010 0.0000 4.8431
# 5 -2.2073 -0.8329 -2.0399 0.0000 34.4300 0.0000
# 6 0.0000 0.0000 0.0000 4.8431 0.0000 40.5294
#
#
#
# Elastic Compliance Matrix: (Units=1/GPa)
#
#
# Indices 1 2 3 4 5 6 
#
# 1 0.008896 -0.004008 -0.002373 0.000000 0.000333 0.000000
# 2 -0.004008 0.022147 -0.006696 0.000000 -0.000118 0.000000
# 3 -0.002373 -0.006696 0.010346 0.000000 0.000299 0.000000
# 4 0.000000 0.000000 0.000000 0.028072 0.000000 -0.003355
# 5 0.000333 -0.000118 0.000299 0.000000 0.029081 0.000000
# 6 0.000000 0.000000 0.000000 -0.003355 0.000000 0.025074
#
#
# Mechanical properties :
#
#
# Convention : Reuss Voigt Hill
#
# Bulk Modulus (GPa) = 65.64843 78.64494 72.14669
# Shear Modulus (GPa) = 32.28945 35.65525 33.97235
#
# Velocity S-wave (km/s) = 3.85263 4.04845 3.95175
# Velocity P-wave (km/s) = 7.06877 7.61607 7.34752
#
# Compressibility (1/GPa) = 0.01523266
#
# Stress axis : x y z
#
# Youngs Moduli (GPa) = 112.41083 45.15322 96.65699
#
# Poissons Ratio (x) = 0.18100 0.22940
# Poissons Ratio (y) = 0.45060 0.64723
# Poissons Ratio (z) = 0.26679 0.30235
#
# Static dielectric constant tensor:
#      x y z
#    x 3.818400 0.000000 -0.106730 
#    y 0.000000 4.041130 0.000000 
#    z -0.106730 0.000000 4.172860 
# 
# 
# High freq. dielectric constant tensor:
#      x y z
#    x 1.845340 0.000000 -0.002970 
#    y 0.000000 1.880140 0.000000 
#    z -0.002970 0.000000 1.866590 
# 
# From -- ./inp_files/23338.got.cif
#   From: 2010.03.12/outbox.cif.g09.slc.cpg/sg8_12_cif.got.tgz:23338.got - 2010.03.31 10:45:26.
