data_PCOD8053720
_publ_section_title
;
Structure prediction by ZEFSAII (Michael W. Deem and Ramdas Pophale) SiO2 
 PCOD8053720
Probable space group: C M
;
_chemical_formula_sum "Si O2"
_cell_formula_units_Z 28
_cell_length_a 7.795232
_cell_length_b 19.099941
_cell_length_c 14.068827
_cell_angle_alpha 90.000000
_cell_angle_beta 44.479424
_cell_angle_gamma 90.000000
_cell_volume 1467.648293
_symmetry_space_group_name_H-M "C M"
_symmetry_group_IT_number 8
_symmetry_cell_setting 'monoclinic'
loop_
_space_group_symop_operation_xyz
x,y,z
x,-y,z
1/2+x,1/2+y,z
1/2+x,1/2-y,z
loop_
_atom_site_type_symbol
_atom_site_label
_atom_site_fract_x
_atom_site_fract_y
_atom_site_fract_z
Si Si1 0.270590 0.578612 0.298770
Si Si2 0.084282 0.182546 0.651400
Si Si3 0.216183 0.843297 0.048748
Si Si4 0.585723 0.834379 0.743505
Si Si5 0.427057 0.815252 0.343191
Si Si6 0.858062 0.284574 0.170710
Si Si7 0.978462 0.583139 0.595959
O O1 0.216217 0.500000 0.295593
O O2 0.544749 0.595365 0.157136
O O3 0.079667 0.618155 0.309970
O O4 0.208145 0.594742 0.433751
O O5 0.061254 0.252606 0.724212
O O6 0.215612 0.202545 0.501045
O O7 0.235802 0.123902 0.651750
O O8 0.822112 0.153964 0.718147
O O9 0.412879 0.830336 0.055284
O O10 0.063594 0.773668 0.090750
O O11 0.354252 0.860901 0.896961
O O12 0.577112 0.884635 0.655398
O O13 0.585716 0.745639 0.271029
O O14 0.336236 0.832331 0.273075
O O15 0.916737 0.500000 0.631361
#
# Coordination Sequence:
#
# PCOD8053720 Si02
#       7
#     4   4   4   4   4   4   4
#     4   9  20  40  60  81 113 158 201 244 297 362
#     4  11  22  36  64  95 128 156 211 257 308 370
#     4  10  21  35  56  85 121 152 193 243 297 362
#     4  12  23  37  63  95 127 165 206 254 313 367
#     4   9  18  32  56  87 114 149 191 250 300 351
#     4   9  18  32  55  83 118 146 190 244 305 337
#     4  10  24  44  64  90 128 166 206 258 313 367
#
# _framework density 19.078142
#
# number of rings (size 3 to 8) (size 9 to 14) (size 15 to 20)
#    0.000    2.000    1.429    1.714    8.000    1.143 
#    2.571    0.714    0.000    0.000    0.000    0.000 
#    0.000    0.000    0.000    0.000    0.000    0.000 
#
# Total GULP energy -173449.176943 kJ/mol
# GULP energy per Si atom -12389.226924 kJ/mol
# Density = 1.903472 g / cm^3
# Si number density = 19.078142 Si / 1000 Ang^3
#
#
#
# Elastic Constant Matrix: (Units=GPa)
#
#
# Indices 1 2 3 4 5 6 
#
# 1 91.4794 29.3349 36.5493 0.0005 5.9744 -0.0006
# 2 29.3349 79.2234 27.3225 -0.0001 7.6071 0.0001
# 3 36.5493 27.3225 120.2747 0.0000 5.2663 0.0000
# 4 0.0005 -0.0001 0.0000 -151.9888 0.0002 192.0617
# 5 5.9744 7.6071 5.2663 0.0002 28.8066 -0.0002
# 6 -0.0006 0.0001 0.0000 192.0617 -0.0002 -198.2456
#
#
#
# Elastic Compliance Matrix: (Units=1/GPa)
#
#
# Indices 1 2 3 4 5 6 
#
# 1 0.013498 -0.003781 -0.003189 0.000000 -0.001218 0.000000
# 2 -0.003781 0.015030 -0.002143 0.000000 -0.002793 0.000000
# 3 -0.003189 -0.002143 0.009795 0.000000 -0.000563 0.000000
# 4 0.000000 0.000000 0.000000 0.029341 0.000000 0.028426
# 5 -0.001218 -0.002793 -0.000563 0.000000 0.035807 0.000000
# 6 0.000000 0.000000 0.000000 0.028426 0.000000 0.022495
#
#
# Mechanical properties :
#
#
# Convention : Reuss Voigt Hill
#
# Bulk Modulus (GPa) = 49.76222 53.04345 51.40283
# Shear Modulus (GPa) = 33.13639 -51.10085 -8.98223
#
# Velocity S-wave (km/s) = 4.17211 -5.18104 -2.17218
# Velocity P-wave (km/s) = 7.02486 2.81554 4.55090
#
# Compressibility (1/GPa) = 0.02009557
#
# Stress axis : x y z
#
# Youngs Moduli (GPa) = 74.08653 66.53425 102.09287
#
# Poissons Ratio (x) = 0.25157 0.32562
# Poissons Ratio (y) = 0.28012 0.21879
# Poissons Ratio (z) = 0.23630 0.14258
#
# Static dielectric constant tensor:
#      x y z
#    x 3.697620 0.000000 0.171440 
#    y 0.000000 3.646510 0.000000 
#    z 0.171440 0.000000 3.734840 
# 
# 
# High freq. dielectric constant tensor:
#      x y z
#    x 1.749820 0.000000 0.012490 
#    y 0.000000 1.717170 0.000000 
#    z 0.012490 0.000000 1.749990 
# 
# From -- ./inp_files/8567.got.cif
#   From: 2010.03.12/outbox.cif.g09.slc.cpg/sg8_5_cif.got.tgz:8567.got - 2010.03.31 10:45:26.
