data_PCOD8053974
_publ_section_title
;
Structure prediction by ZEFSAII (Michael W. Deem and Ramdas Pophale) SiO2 
 PCOD8053974
Probable space group: C M
;
_chemical_formula_sum "Si O2"
_cell_formula_units_Z 20
_cell_length_a 5.238648
_cell_length_b 18.279429
_cell_length_c 8.848921
_cell_angle_alpha 90.000000
_cell_angle_beta 76.949640
_cell_angle_gamma 90.000000
_cell_volume 825.482346
_symmetry_space_group_name_H-M "C M"
_symmetry_group_IT_number 8
_symmetry_cell_setting 'monoclinic'
loop_
_space_group_symop_operation_xyz
x,y,z
x,-y,z
1/2+x,1/2+y,z
1/2+x,1/2-y,z
loop_
_atom_site_type_symbol
_atom_site_label
_atom_site_fract_x
_atom_site_fract_y
_atom_site_fract_z
Si Si1 0.193730 0.583772 0.623190
Si Si2 0.290933 0.209627 0.392381
Si Si3 0.657180 0.660241 0.717304
Si Si4 0.525701 0.413944 0.294697
Si Si5 0.584327 0.707247 0.061037
O O1 0.244565 0.500000 0.648955
O O2 0.376911 0.624768 0.719020
O O3 0.276397 0.602383 0.438003
O O4 0.890450 0.600992 0.689834
O O5 0.562740 0.250404 0.321575
O O6 0.229669 0.219823 0.578638
O O7 0.276480 0.123190 0.348631
O O8 0.641293 0.701410 0.876635
O O9 0.577329 0.500000 0.261597
O O10 0.492249 0.372205 0.139073
O O11 0.354878 0.768177 0.108843
#
# Coordination Sequence:
#
# PCOD8053974 Si02
#       5
#     4   4   4   4   4
#     4  10  22  41  66  98 134 171 217 272 330 391
#     4  11  21  39  65  94 123 164 213 266 321 380
#     4  11  22  40  67  98 128 171 222 274 325 389
#     4  10  24  44  67  98 135 176 221 270 326 392
#     4  12  26  46  67  98 136 176 219 272 329 392
#
# _framework density 24.228258
#
# number of rings (size 3 to 8) (size 9 to 14) (size 15 to 20)
#    0.000    1.200    0.000    6.600    0.000    5.600 
#    0.000    8.000    0.000    0.000    0.000    0.000 
#    0.000    0.000    0.000    0.000    0.000    0.000 
#
# Total GULP energy -124002.407588 kJ/mol
# GULP energy per Si atom -12400.240759 kJ/mol
# Density = 2.417311 g / cm^3
# Si number density = 24.228258 Si / 1000 Ang^3
#
#
#
# Elastic Constant Matrix: (Units=GPa)
#
#
# Indices 1 2 3 4 5 6 
#
# 1 110.3966 33.1689 47.8969 0.0000 15.5312 0.0000
# 2 33.1689 118.7411 47.6681 0.0000 -4.3394 0.0000
# 3 47.8969 47.6681 125.1531 0.0000 1.4777 0.0000
# 4 0.0000 0.0000 0.0000 31.8702 0.0000 -1.7768
# 5 15.5312 -4.3394 1.4777 0.0000 37.9945 0.0000
# 6 0.0000 0.0000 0.0000 -1.7768 0.0000 30.4428
#
#
#
# Elastic Compliance Matrix: (Units=1/GPa)
#
#
# Indices 1 2 3 4 5 6 
#
# 1 0.012001 -0.002024 -0.003763 0.000000 -0.004991 0.000000
# 2 -0.002024 0.010346 -0.003191 0.000000 0.002133 0.000000
# 3 -0.003763 -0.003191 0.010637 0.000000 0.000760 0.000000
# 4 0.000000 0.000000 0.000000 0.031480 0.000000 0.001837
# 5 -0.004991 0.002133 0.000760 0.000000 0.028574 0.000000
# 6 0.000000 0.000000 0.000000 0.001837 0.000000 0.032956
#
#
# Mechanical properties :
#
#
# Convention : Reuss Voigt Hill
#
# Bulk Modulus (GPa) = 66.54482 67.97318 67.25900
# Shear Modulus (GPa) = 33.56625 35.09861 34.33243
#
# Velocity S-wave (km/s) = 3.72616 3.81026 3.76844
# Velocity P-wave (km/s) = 6.78511 6.89012 6.83782
#
# Compressibility (1/GPa) = 0.01502747
#
# Stress axis : x y z
#
# Youngs Moduli (GPa) = 83.32532 96.65449 94.01296
#
# Poissons Ratio (x) = 0.19564 0.35378
# Poissons Ratio (y) = 0.16866 0.30001
# Poissons Ratio (z) = 0.31356 0.30844
#
# Static dielectric constant tensor:
#      x y z
#    x 4.459050 0.000000 -0.006840 
#    y 0.000000 4.190310 0.000000 
#    z -0.006840 0.000000 4.627750 
# 
# 
# High freq. dielectric constant tensor:
#      x y z
#    x 1.970860 0.000000 0.002490 
#    y 0.000000 1.949900 0.000000 
#    z 0.002490 0.000000 1.989620 
# 
# From -- ./inp_files/6643.got.cif
#   From: 2010.03.12/outbox.cif.g09.slc.cpg/sg8_4_cif.got.tgz:6643.got - 2010.03.31 10:45:26.
