data_PCOD8053699
_publ_section_title
;
Structure prediction by ZEFSAII (Michael W. Deem and Ramdas Pophale) SiO2 
 PCOD8053699
Probable space group: C M
;
_chemical_formula_sum "Si O2"
_cell_formula_units_Z 28
_cell_length_a 7.491327
_cell_length_b 26.111524
_cell_length_c 8.302057
_cell_angle_alpha 90.000000
_cell_angle_beta 133.097513
_cell_angle_gamma 90.000000
_cell_volume 1185.806201
_symmetry_space_group_name_H-M "C M"
_symmetry_group_IT_number 8
_symmetry_cell_setting 'monoclinic'
loop_
_space_group_symop_operation_xyz
x,y,z
x,-y,z
1/2+x,1/2+y,z
1/2+x,1/2-y,z
loop_
_atom_site_type_symbol
_atom_site_label
_atom_site_fract_x
_atom_site_fract_y
_atom_site_fract_z
Si Si1 0.186360 0.875250 0.468090
Si Si2 0.459216 0.124027 0.183433
Si Si3 0.883406 0.058122 0.032214
Si Si4 0.707989 0.128877 0.651914
Si Si5 0.348626 0.057000 0.846887
Si Si6 0.267120 0.691796 0.151292
Si Si7 0.544162 0.696279 0.007132
O O1 0.456048 0.857301 0.586570
O O2 0.184416 0.907129 0.632188
O O3 0.080080 0.911053 0.259792
O O4 0.022970 0.823458 0.398354
O O5 0.665642 0.109651 0.442080
O O6 0.560403 0.153994 0.088840
O O7 0.273394 0.159111 0.168981
O O8 0.331841 0.074686 0.024778
O O9 0.976918 0.000000 0.064403
O O10 0.850625 0.084304 0.836459
O O11 0.629886 0.058122 0.969960
O O12 0.886890 0.180006 0.751588
O O13 0.240753 0.000000 0.768718
O O14 0.332040 0.683008 0.005581
O O15 0.153943 0.747917 0.100791
#
# Coordination Sequence:
#
# PCOD8053699 Si02
#       7
#     4   4   4   4   4   4   4
#     4  11  21  46  75 105 148 189 240 306 360 429
#     4  12  25  46  74 105 151 192 242 303 359 439
#     4  10  20  40  74 107 146 194 242 296 363 432
#     4  11  24  45  70 104 151 185 243 300 360 432
#     4  10  23  42  72 111 148 196 245 296 364 432
#     4  12  24  49  72 101 145 188 243 301 366 426
#     4  12  26  50  69 107 141 192 252 296 368 438
#
# _framework density 23.612625999999999
#
# number of rings (size 3 to 8) (size 9 to 14) (size 15 to 20)
#    0.000    0.857    5.714    1.286    2.000    1.143 
#    7.714    2.143    0.000    0.000    0.000    0.000 
#    0.000    0.000    0.000    0.000    0.000    0.000 
#
# Total GULP energy -173444.005825 kJ/mol
# GULP energy per Si atom -12388.857559 kJ/mol
# Density = 2.355888 g / cm^3
# Si number density = 23.612626 Si / 1000 Ang^3
#
#
#
# Elastic Constant Matrix: (Units=GPa)
#
#
# Indices 1 2 3 4 5 6 
#
# 1 73.3158 35.2462 21.7903 0.0000 1.2700 0.0000
# 2 35.2462 149.7273 80.0678 0.0000 0.0359 0.0000
# 3 21.7903 80.0678 170.2009 0.0000 -16.3382 0.0000
# 4 0.0000 0.0000 0.0000 37.7648 0.0000 9.0625
# 5 1.2700 0.0359 -16.3382 0.0000 44.6294 0.0000
# 6 0.0000 0.0000 0.0000 9.0625 0.0000 30.5488
#
#
#
# Elastic Compliance Matrix: (Units=1/GPa)
#
#
# Indices 1 2 3 4 5 6 
#
# 1 0.015411 -0.003397 -0.000432 0.000000 -0.000594 0.000000
# 2 -0.003397 0.009784 -0.004311 0.000000 -0.001489 0.000000
# 3 -0.000432 -0.004311 0.008250 0.000000 0.003036 0.000000
# 4 0.000000 0.000000 0.000000 0.028509 0.000000 -0.008457
# 5 -0.000594 -0.001489 0.003036 0.000000 0.023536 0.000000
# 6 0.000000 0.000000 0.000000 -0.008457 0.000000 0.035244
#
#
# Mechanical properties :
#
#
# Convention : Reuss Voigt Hill
#
# Bulk Modulus (GPa) = 58.25415 74.16139 66.20777
# Shear Modulus (GPa) = 35.02980 39.66457 37.34718
#
# Velocity S-wave (km/s) = 3.85583 4.10299 3.98133
# Velocity P-wave (km/s) = 6.67439 7.34314 7.01674
#
# Compressibility (1/GPa) = 0.01716616
#
# Stress axis : x y z
#
# Youngs Moduli (GPa) = 64.88755 102.20810 121.21043
#
# Poissons Ratio (x) = 0.34716 0.05239
# Poissons Ratio (y) = 0.22040 0.52251
# Poissons Ratio (z) = 0.02805 0.44060
#
# Static dielectric constant tensor:
#      x y z
#    x 4.353580 0.000000 0.085120 
#    y 0.000000 4.517450 0.000000 
#    z 0.085120 0.000000 4.360590 
# 
# 
# High freq. dielectric constant tensor:
#      x y z
#    x 1.943950 0.000000 0.007070 
#    y 0.000000 1.922560 0.000000 
#    z 0.007070 0.000000 1.939080 
# 
# From -- ./inp_files/9240.got.cif
#   From: 2010.03.12/outbox.cif.g09.slc.cpg/sg8_5_cif.got.tgz:9240.got - 2010.03.31 10:45:26.
