data_PCOD8053426
_publ_section_title
;
Structure prediction by ZEFSAII (Michael W. Deem and Ramdas Pophale) SiO2 
 PCOD8053426
Probable space group: C M
;
_chemical_formula_sum "Si O2"
_cell_formula_units_Z 32
_cell_length_a 8.527414
_cell_length_b 21.921750
_cell_length_c 15.642212
_cell_angle_alpha 90.000000
_cell_angle_beta 144.804919
_cell_angle_gamma 90.000000
_cell_volume 1685.334832
_symmetry_space_group_name_H-M "C M"
_symmetry_group_IT_number 8
_symmetry_cell_setting 'monoclinic'
loop_
_space_group_symop_operation_xyz
x,y,z
x,-y,z
1/2+x,1/2+y,z
1/2+x,1/2-y,z
loop_
_atom_site_type_symbol
_atom_site_label
_atom_site_fract_x
_atom_site_fract_y
_atom_site_fract_z
Si Si1 0.673630 0.673862 0.619400
Si Si2 0.674508 0.212448 0.733417
Si Si3 0.486637 0.146977 0.490845
Si Si4 0.183882 0.185712 0.067521
Si Si5 0.448655 0.644070 0.339227
Si Si6 0.497233 0.931818 0.201385
Si Si7 0.195695 0.240638 0.240411
Si Si8 0.835597 0.931400 0.524278
O O1 0.588557 0.721319 0.656831
O O2 0.484111 0.672097 0.451339
O O3 0.615753 0.607140 0.635475
O O4 0.978071 0.688951 0.722438
O O5 0.674884 0.168183 0.652639
O O6 0.977113 0.211786 0.905430
O O7 0.406076 0.203859 0.394671
O O8 0.655507 0.094638 0.520763
O O9 0.214303 0.117993 0.411145
O O10 0.238868 0.113385 0.079692
O O11 0.071262 0.194646 0.114009
O O12 0.463605 0.223091 0.187328
O O13 0.229046 0.589924 0.237731
O O14 0.349685 0.706894 0.251268
O O15 0.632525 0.930179 0.354206
O O16 0.400047 0.000000 0.133999
O O17 0.928805 0.000000 0.587264
#
# Coordination Sequence:
#
# PCOD8053426 Si02
#       8
#     4   4   4   4   4   4   4   4
#     4  10  20  35  55  82 116 148 184 231 286 340
#     4  11  22  35  57  88 118 148 184 234 298 339
#     4  11  20  34  58  85 111 146 189 237 284 334
#     4  11  22  35  55  86 116 150 184 234 282 341
#     4   9  19  31  55  85 109 146 187 237 280 329
#     4   9  19  36  56  79 114 154 189 228 283 338
#     4  11  19  33  53  81 115 142 187 232 283 330
#     4  10  21  37  59  84 111 150 196 239 278 331
#
# _framework density 18.987324000000001
#
# number of rings (size 3 to 8) (size 9 to 14) (size 15 to 20)
#    0.000    1.750    3.750    1.500    1.750    0.500 
#    0.000    3.125    0.000    0.000    0.000    0.000 
#    0.000    0.000    0.000    0.000    0.000    0.000 
#
# Total GULP energy -198216.217996 kJ/mol
# GULP energy per Si atom -12388.513625 kJ/mol
# Density = 1.894411 g / cm^3
# Si number density = 18.987324 Si / 1000 Ang^3
#
#
#
# Elastic Constant Matrix: (Units=GPa)
#
#
# Indices 1 2 3 4 5 6 
#
# 1 88.0624 63.8467 20.0330 -0.0046 -2.6910 -0.0018
# 2 63.8467 141.5307 17.7139 -0.0055 3.0510 0.0007
# 3 20.0330 17.7139 49.8069 -0.0394 0.4175 -0.0105
# 4 -0.0046 -0.0055 -0.0394 16.3442 -0.0103 1.8509
# 5 -2.6910 3.0510 0.4175 -0.0103 19.4102 -0.0057
# 6 -0.0018 0.0007 -0.0105 1.8509 -0.0057 28.0814
#
#
#
# Elastic Compliance Matrix: (Units=1/GPa)
#
#
# Indices 1 2 3 4 5 6 
#
# 1 0.018066 -0.007659 -0.004574 -0.000006 0.003807 0.000001
# 2 -0.007659 0.010666 -0.000690 -0.000002 -0.002724 -0.000001
# 3 -0.004574 -0.000690 0.022171 0.000051 -0.001003 0.000004
# 4 -0.000006 -0.000002 0.000051 0.061644 0.000030 -0.004063
# 5 0.003807 -0.002724 -0.001003 0.000030 0.052497 0.000009
# 6 0.000001 -0.000001 0.000004 -0.004063 0.000009 0.035879
#
#
# Mechanical properties :
#
#
# Convention : Reuss Voigt Hill
#
# Bulk Modulus (GPa) = 39.91040 53.62079 46.76560
# Shear Modulus (GPa) = 21.26571 24.62091 22.94331
#
# Velocity S-wave (km/s) = 3.35026 3.60488 3.47990
# Velocity P-wave (km/s) = 6.00257 6.75489 6.38981
#
# Compressibility (1/GPa) = 0.02505612
#
# Stress axis : x y z
#
# Youngs Moduli (GPa) = 55.35412 93.75717 45.10381
#
# Poissons Ratio (x) = 0.71811 0.20631
# Poissons Ratio (y) = 0.42397 0.03112
# Poissons Ratio (z) = 0.25319 0.06468
#
# Static dielectric constant tensor:
#      x y z
#    x 3.536260 0.000000 -0.055340 
#    y 0.000000 3.590550 0.000060 
#    z -0.055340 0.000060 3.129910 
# 
# 
# High freq. dielectric constant tensor:
#      x y z
#    x 1.745830 0.000000 -0.004380 
#    y 0.000000 1.726360 0.000000 
#    z -0.004380 0.000000 1.706710 
# 
# From -- ./inp_files/19177.got.cif
#   From: 2010.03.12/outbox.cif.g09.slc.cpg/sg8_10_cif.got.tgz:19177.got - 2010.03.31 10:45:26.
