data_PCOD8053557
_publ_section_title
;
Structure prediction by ZEFSAII (Michael W. Deem and Ramdas Pophale) SiO2 
 PCOD8053557
Probable space group: C M
;
_chemical_formula_sum "Si O2"
_cell_formula_units_Z 32
_cell_length_a 15.159221
_cell_length_b 8.586276
_cell_length_c 12.132593
_cell_angle_alpha 90.000000
_cell_angle_beta 106.609238
_cell_angle_gamma 90.000000
_cell_volume 1513.304054
_symmetry_space_group_name_H-M "C M"
_symmetry_group_IT_number 8
_symmetry_cell_setting 'monoclinic'
loop_
_space_group_symop_operation_xyz
x,y,z
x,-y,z
1/2+x,1/2+y,z
1/2+x,1/2-y,z
loop_
_atom_site_type_symbol
_atom_site_label
_atom_site_fract_x
_atom_site_fract_y
_atom_site_fract_z
Si Si1 0.574150 0.318183 0.811970
Si Si2 0.989559 0.821639 0.555779
Si Si3 0.502364 0.682654 0.188162
Si Si4 0.694719 0.179707 0.300109
Si Si5 0.445732 0.181016 0.943611
Si Si6 0.882876 0.318500 0.334959
Si Si7 0.760076 0.178462 0.796936
Si Si8 0.668158 0.176563 0.540023
O O1 0.598364 0.500000 0.817979
O O2 0.502793 0.275158 0.688331
O O3 0.525199 0.274683 0.908078
O O4 0.668772 0.224267 0.832026
O O5 0.086478 0.798195 0.528659
O O6 0.911363 0.715096 0.471990
O O7 0.958469 0.000000 0.531810
O O8 0.486817 0.500000 0.171659
O O9 0.610241 0.721183 0.223424
O O10 0.461902 0.744458 0.288102
O O11 0.448756 0.768584 0.071373
O O12 0.785737 0.239496 0.270998
O O13 0.711385 0.206782 0.436100
O O14 0.676892 0.000000 0.265242
O O15 0.344505 0.214539 0.861817
O O16 0.466934 0.000000 0.938780
O O17 0.875242 0.500000 0.309891
O O18 0.745821 0.202134 0.660733
O O19 0.784194 0.000000 0.832919
O O20 0.628526 0.000000 0.534188
#
# Coordination Sequence:
#
# PCOD8053557 Si02
#       8
#     4   4   4   4   4   4   4   4
#     4  10  22  41  64  95 131 169 213 264 317 377
#     4  10  20  36  62  93 131 170 211 261 318 377
#     4  12  26  47  69  93 126 168 216 269 322 380
#     4  11  23  41  65  97 130 168 212 263 320 380
#     4  12  26  44  67  95 127 171 218 264 317 381
#     4  12  25  41  63  95 131 170 214 263 317 380
#     4  10  21  40  64  96 131 169 212 263 320 376
#     4   9  19  36  62  92 131 169 206 259 321 379
#
# _framework density 21.145785
#
# number of rings (size 3 to 8) (size 9 to 14) (size 15 to 20)
#    0.000    1.250    1.250    4.875    1.750    3.500 
#    0.000    5.000    0.000    0.000    0.000    0.000 
#    0.000    0.000    0.000    0.000    0.000    0.000 
#
# Total GULP energy -198494.909165 kJ/mol
# GULP energy per Si atom -12405.931823 kJ/mol
# Density = 2.109766 g / cm^3
# Si number density = 21.145785 Si / 1000 Ang^3
#
#
#
# Elastic Constant Matrix: (Units=GPa)
#
#
# Indices 1 2 3 4 5 6 
#
# 1 43.1356 22.5933 13.3304 0.0000 0.4351 0.0000
# 2 22.5933 82.6421 29.4318 0.0000 3.3069 0.0000
# 3 13.3304 29.4318 78.2674 0.0000 7.9240 0.0000
# 4 0.0000 0.0000 0.0000 32.6787 0.0000 3.6040
# 5 0.4351 3.3069 7.9240 0.0000 23.2048 0.0000
# 6 0.0000 0.0000 0.0000 3.6040 0.0000 37.0026
#
#
#
# Elastic Compliance Matrix: (Units=1/GPa)
#
#
# Indices 1 2 3 4 5 6 
#
# 1 0.027395 -0.006735 -0.002257 0.000000 0.001217 0.000000
# 2 -0.006735 0.015628 -0.004679 0.000000 -0.000503 0.000000
# 3 -0.002257 -0.004679 0.015380 0.000000 -0.004543 0.000000
# 4 0.000000 0.000000 0.000000 0.030933 0.000000 -0.003013
# 5 0.001217 -0.000503 -0.004543 0.000000 0.044695 0.000000
# 6 0.000000 0.000000 0.000000 -0.003013 0.000000 0.027319
#
#
# Mechanical properties :
#
#
# Convention : Reuss Voigt Hill
#
# Bulk Modulus (GPa) = 32.19197 37.19513 34.69355
# Shear Modulus (GPa) = 25.12000 27.82319 26.47160
#
# Velocity S-wave (km/s) = 3.45040 3.63130 3.54200
# Velocity P-wave (km/s) = 5.57947 5.93379 5.75936
#
# Compressibility (1/GPa) = 0.03106365
#
# Stress axis : x y z
#
# Youngs Moduli (GPa) = 36.50276 63.98807 65.01766
#
# Poissons Ratio (x) = 0.43093 0.14672
# Poissons Ratio (y) = 0.24583 0.30420
# Poissons Ratio (z) = 0.08237 0.29939
#
# Static dielectric constant tensor:
#      x y z
#    x 3.666470 0.000000 -0.035800 
#    y 0.000000 3.807630 0.000000 
#    z -0.035800 0.000000 3.894340 
# 
# 
# High freq. dielectric constant tensor:
#      x y z
#    x 1.824960 0.000000 0.005160 
#    y 0.000000 1.836040 0.000000 
#    z 0.005160 0.000000 1.828290 
# 
# From -- ./inp_files/21611.got.cif
#   From: 2010.03.12/outbox.cif.g09.slc.cpg/sg8_11_cif.got.tgz:21611.got - 2010.03.31 10:45:26.
