data_PCOD8053063
_publ_section_title
;
Structure prediction by ZEFSAII (Michael W. Deem and Ramdas Pophale) SiO2 
 PCOD8053063
Probable space group: C M
;
_chemical_formula_sum "Si O2"
_cell_formula_units_Z 32
_cell_length_a 22.490402
_cell_length_b 8.443329
_cell_length_c 11.260149
_cell_angle_alpha 90.000000
_cell_angle_beta 131.404426
_cell_angle_gamma 90.000000
_cell_volume 1603.803153
_symmetry_space_group_name_H-M "C M"
_symmetry_group_IT_number 8
_symmetry_cell_setting 'monoclinic'
loop_
_space_group_symop_operation_xyz
x,y,z
x,-y,z
1/2+x,1/2+y,z
1/2+x,1/2-y,z
loop_
_atom_site_type_symbol
_atom_site_label
_atom_site_fract_x
_atom_site_fract_y
_atom_site_fract_z
Si Si1 0.796610 0.186605 0.561640
Si Si2 0.177455 0.315128 0.802529
Si Si3 0.979477 0.688659 0.168403
Si Si4 0.330036 0.814765 0.117341
Si Si5 0.956945 0.315019 0.871504
Si Si6 0.101945 0.183013 0.925402
Si Si7 0.253231 0.316041 0.239981
Si Si8 0.640785 0.187427 0.491734
O O1 0.868520 0.283937 0.711148
O O2 0.789296 0.231349 0.413932
O O3 0.717916 0.247820 0.523958
O O4 0.810406 0.000000 0.598852
O O5 0.198974 0.500000 0.828285
O O6 0.112443 0.282511 0.818118
O O7 0.143452 0.256844 0.631748
O O8 0.256772 0.216934 0.933100
O O9 0.978650 0.500000 0.167981
O O10 0.909183 0.751738 0.159978
O O11 0.062157 0.758861 0.326686
O O12 0.966189 0.750576 0.017398
O O13 0.318367 0.724414 0.226366
O O14 0.336141 0.000000 0.152477
O O15 0.976875 0.500000 0.891237
O O16 0.016963 0.221346 0.867079
O O17 0.106512 0.000000 0.897831
O O18 0.171530 0.222597 0.110628
O O19 0.231357 0.500000 0.206667
O O20 0.636362 0.000000 0.477214
#
# Coordination Sequence:
#
# PCOD8053063 Si02
#       8
#     4   4   4   4   4   4   4   4
#     4  10  21  37  57  81 112 146 181 226 275 322
#     4  10  19  33  56  82 108 142 182 221 267 325
#     4   9  19  35  55  80 108 141 180 224 274 323
#     4  10  19  33  55  81 111 144 179 222 269 320
#     4  11  22  37  58  81 109 144 184 227 272 327
#     4  11  22  37  57  81 112 145 181 226 274 324
#     4  10  20  36  58  82 111 147 184 222 270 325
#     4   9  18  34  56  80 107 141 181 224 271 324
#
# _framework density 19.952572
#
# number of rings (size 3 to 8) (size 9 to 14) (size 15 to 20)
#    0.000    2.000    0.000    5.625    0.000    4.000 
#    0.000    3.750    0.000    6.750    0.000    0.000 
#    0.000    0.000    0.000    0.000    0.000    0.000 
#
# Total GULP energy -198454.224383 kJ/mol
# GULP energy per Si atom -12403.389024 kJ/mol
# Density = 1.990716 g / cm^3
# Si number density = 19.952572 Si / 1000 Ang^3
#
#
#
# Elastic Constant Matrix: (Units=GPa)
#
#
# Indices 1 2 3 4 5 6 
#
# 1 151.6872 7.8206 80.2779 0.0000 6.4702 0.0000
# 2 7.8206 37.7586 13.2725 0.0000 -3.6177 0.0000
# 3 80.2779 13.2725 149.9832 0.0000 -12.2508 0.0000
# 4 0.0000 0.0000 0.0000 25.7371 0.0000 3.6262
# 5 6.4702 -3.6177 -12.2508 0.0000 35.9959 0.0000
# 6 0.0000 0.0000 0.0000 3.6262 0.0000 20.5749
#
#
#
# Elastic Compliance Matrix: (Units=1/GPa)
#
#
# Indices 1 2 3 4 5 6 
#
# 1 0.009635 -0.000439 -0.005414 0.000000 -0.003618 0.000000
# 2 -0.000439 0.027492 -0.002022 0.000000 0.002154 0.000000
# 3 -0.005414 -0.002022 0.010087 0.000000 0.004203 0.000000
# 4 0.000000 0.000000 0.000000 0.039844 0.000000 -0.007022
# 5 -0.003618 0.002154 0.004203 0.000000 0.030078 0.000000
# 6 0.000000 0.000000 0.000000 -0.007022 0.000000 0.049840
#
#
# Mechanical properties :
#
#
# Convention : Reuss Voigt Hill
#
# Bulk Modulus (GPa) = 31.78177 60.24123 46.01150
# Shear Modulus (GPa) = 25.87807 32.33211 29.10509
#
# Velocity S-wave (km/s) = 3.60527 4.02985 3.82345
# Velocity P-wave (km/s) = 5.77008 7.20490 6.52704
#
# Compressibility (1/GPa) = 0.03146458
#
# Stress axis : x y z
#
# Youngs Moduli (GPa) = 103.79343 36.37411 99.13554
#
# Poissons Ratio (x) = 0.01598 0.53667
# Poissons Ratio (y) = 0.04559 0.20043
# Poissons Ratio (z) = 0.56189 0.07354
#
# Static dielectric constant tensor:
#      x y z
#    x 3.824710 0.000000 -0.082520 
#    y 0.000000 3.398660 0.000000 
#    z -0.082520 0.000000 3.690770 
# 
# 
# High freq. dielectric constant tensor:
#      x y z
#    x 1.791550 0.000000 -0.005660 
#    y 0.000000 1.758590 0.000000 
#    z -0.005660 0.000000 1.779770 
# 
# From -- ./inp_files/23909.got.cif
#   From: 2010.03.12/outbox.cif.g09.slc.cpg/sg8_12_cif.got.tgz:23909.got - 2010.03.31 10:45:26.
