data_PCOD8053239
_publ_section_title
;
Structure prediction by ZEFSAII (Michael W. Deem and Ramdas Pophale) SiO2 
 PCOD8053239
Probable space group: C M
;
_chemical_formula_sum "Si O2"
_cell_formula_units_Z 24
_cell_length_a 11.747208
_cell_length_b 21.952807
_cell_length_c 8.393232
_cell_angle_alpha 90.000000
_cell_angle_beta 145.212706
_cell_angle_gamma 90.000000
_cell_volume 1234.904970
_symmetry_space_group_name_H-M "C M"
_symmetry_group_IT_number 8
_symmetry_cell_setting 'monoclinic'
loop_
_space_group_symop_operation_xyz
x,y,z
x,-y,z
1/2+x,1/2+y,z
1/2+x,1/2-y,z
loop_
_atom_site_type_symbol
_atom_site_label
_atom_site_fract_x
_atom_site_fract_y
_atom_site_fract_z
Si Si1 0.122890 0.177608 0.982730
Si Si2 0.350913 0.068800 0.698261
Si Si3 0.268249 0.375649 0.187778
Si Si4 0.795958 0.238502 0.412529
Si Si5 0.038600 0.836500 0.220406
Si Si6 0.144633 0.068427 0.781878
O O1 0.194587 0.116638 0.977451
O O2 0.012191 0.224028 0.734458
O O3 0.310581 0.213568 0.279190
O O4 0.972546 0.159731 0.957228
O O5 0.202221 0.111041 0.430530
O O6 0.316965 0.075478 0.848558
O O7 0.310733 0.000000 0.595865
O O8 0.578062 0.085536 0.918876
O O9 0.202227 0.324269 0.238708
O O10 0.354920 0.343578 0.128326
O O11 0.431291 0.419514 0.454599
O O12 0.647814 0.270172 0.372304
O O13 0.143045 0.000000 0.851273
#
# Coordination Sequence:
#
# PCOD8053239 Si02
#       6
#     4   4   4   4   4   4
#     4   9  19  37  57  84 115 151 187 234 285 337
#     4  10  20  36  58  84 114 150 194 233 279 342
#     4  10  19  36  59  83 110 152 193 229 284 341
#     4   9  19  36  54  85 111 151 188 228 282 340
#     4   9  21  37  54  86 114 148 187 235 286 331
#     4   9  19  36  58  82 113 152 191 233 282 337
#
# _framework density 19.434692999999999
#
# number of rings (size 3 to 8) (size 9 to 14) (size 15 to 20)
#    1.000    1.667    0.000    1.500    0.000    2.667 
#    9.000    1.667    0.000    0.000    0.000    0.000 
#    0.000    0.000    0.000    0.000    0.000    0.000 
#
# Total GULP energy -148657.347004 kJ/mol
# GULP energy per Si atom -12388.112250 kJ/mol
# Density = 1.939046 g / cm^3
# Si number density = 19.434693 Si / 1000 Ang^3
#
#
#
# Elastic Constant Matrix: (Units=GPa)
#
#
# Indices 1 2 3 4 5 6 
#
# 1 77.3559 58.1341 37.7958 0.0000 1.2535 0.0000
# 2 58.1341 125.7747 42.5923 0.0000 -4.4284 0.0000
# 3 37.7958 42.5923 70.8824 0.0000 -6.9565 0.0000
# 4 0.0000 0.0000 0.0000 19.0084 0.0000 -5.0094
# 5 1.2535 -4.4284 -6.9565 0.0000 33.1181 0.0000
# 6 0.0000 0.0000 0.0000 -5.0094 0.0000 35.7110
#
#
#
# Elastic Compliance Matrix: (Units=1/GPa)
#
#
# Indices 1 2 3 4 5 6 
#
# 1 0.022784 -0.008065 -0.007651 0.000000 -0.003548 0.000000
# 2 -0.008065 0.012837 -0.003282 0.000000 0.001332 0.000000
# 3 -0.007651 -0.003282 0.020569 0.000000 0.004171 0.000000
# 4 0.000000 0.000000 0.000000 0.054628 0.000000 0.007663
# 5 -0.003548 0.001332 0.004171 0.000000 0.031384 0.000000
# 6 0.000000 0.000000 0.000000 0.007663 0.000000 0.029077
#
#
# Mechanical properties :
#
#
# Convention : Reuss Voigt Hill
#
# Bulk Modulus (GPa) = 54.96453 61.22862 58.09658
# Shear Modulus (GPa) = 23.21913 26.60022 24.90968
#
# Velocity S-wave (km/s) = 3.46023 3.70361 3.58398
# Velocity P-wave (km/s) = 6.65637 7.06131 6.86183
#
# Compressibility (1/GPa) = 0.01819355
#
# Stress axis : x y z
#
# Youngs Moduli (GPa) = 43.89075 77.90077 48.61641
#
# Poissons Ratio (x) = 0.62826 0.37196
# Poissons Ratio (y) = 0.35398 0.15958
# Poissons Ratio (z) = 0.33580 0.25570
#
# Static dielectric constant tensor:
#      x y z
#    x 3.456210 0.000000 -0.140930 
#    y 0.000000 3.666560 0.000000 
#    z -0.140930 0.000000 3.214090 
# 
# 
# High freq. dielectric constant tensor:
#      x y z
#    x 1.740590 0.000000 -0.011850 
#    y 0.000000 1.769490 0.000000 
#    z -0.011850 0.000000 1.729290 
# 
# From -- ./inp_files/8915.got.cif
#   From: 2010.03.12/outbox.cif.g09.slc.cpg/sg8_5_cif.got.tgz:8915.got - 2010.03.31 10:45:26.
