data_PCOD8053821
_publ_section_title
;
Structure prediction by ZEFSAII (Michael W. Deem and Ramdas Pophale) SiO2 
 PCOD8053821
Probable space group: C M
;
_chemical_formula_sum "Si O2"
_cell_formula_units_Z 32
_cell_length_a 22.211998
_cell_length_b 8.737769
_cell_length_c 27.471889
_cell_angle_alpha 90.000000
_cell_angle_beta 17.766381
_cell_angle_gamma 90.000000
_cell_volume 1626.937916
_symmetry_space_group_name_H-M "C M"
_symmetry_group_IT_number 8
_symmetry_cell_setting 'monoclinic'
loop_
_space_group_symop_operation_xyz
x,y,z
x,-y,z
1/2+x,1/2+y,z
1/2+x,1/2-y,z
loop_
_atom_site_type_symbol
_atom_site_label
_atom_site_fract_x
_atom_site_fract_y
_atom_site_fract_z
Si Si1 0.196480 0.819482 0.365400
Si Si2 0.278844 0.180377 0.671351
Si Si3 0.009894 0.322238 0.799555
Si Si4 0.008943 0.818175 0.053219
Si Si5 0.658533 0.673780 0.139652
Si Si6 0.254673 0.176967 0.432220
Si Si7 0.943579 0.680367 0.742565
Si Si8 0.975804 0.320859 0.976074
O O1 0.377052 0.746633 0.197780
O O2 0.225476 0.774328 0.399113
O O3 0.995739 0.748750 0.499896
O O4 0.193985 0.000000 0.359134
O O5 0.170743 0.249799 0.801703
O O6 0.166450 0.221703 0.708315
O O7 0.289896 0.000000 0.669321
O O8 0.073549 0.500000 0.754435
O O9 0.006265 0.258208 0.747478
O O10 0.791455 0.300946 0.989581
O O11 0.997590 0.000000 0.061973
O O12 0.230219 0.755538 0.891464
O O13 0.930946 0.755729 0.062037
O O14 0.579617 0.500000 0.202445
O O15 0.476107 0.788265 0.278711
O O16 0.785717 0.712433 0.089406
O O17 0.102719 0.273060 0.580638
O O18 0.210026 0.000000 0.475006
O O19 0.930592 0.500000 0.755842
O O20 0.014648 0.500000 0.952272
#
# Coordination Sequence:
#
# PCOD8053821 Si02
#       8
#     4   4   4   4   4   4   4   4
#     4  11  24  41  59  82 115 156 193 233 290 351
#     4  11  22  37  60  89 117 150 193 242 285 330
#     4   9  19  38  61  85 114 151 190 230 283 349
#     4  11  23  39  61  89 115 146 192 244 288 335
#     4   9  19  37  61  84 112 151 190 228 279 340
#     4  11  24  38  57  85 115 148 191 238 283 334
#     4  10  22  39  60  84 114 151 189 231 287 347
#     4  10  21  39  61  86 118 157 192 228 283 350
#
# _framework density 19.668851
#
# number of rings (size 3 to 8) (size 9 to 14) (size 15 to 20)
#    0.000    1.750    0.000    4.875    0.000   10.000 
#    0.000    1.250    0.000    0.000    0.000    0.000 
#    0.000    0.000    0.000    0.000    0.000    0.000 
#
# Total GULP energy -198487.319337 kJ/mol
# GULP energy per Si atom -12405.457459 kJ/mol
# Density = 1.962408 g / cm^3
# Si number density = 19.668851 Si / 1000 Ang^3
#
#
#
# Elastic Constant Matrix: (Units=GPa)
#
#
# Indices 1 2 3 4 5 6 
#
# 1 119.9332 38.2312 48.9586 -0.0817 15.8236 -0.0002
# 2 38.2312 71.9551 30.4555 -0.1474 0.9946 0.0149
# 3 48.9586 30.4555 114.1829 -0.2329 -2.1905 -0.0200
# 4 -0.0817 -0.1474 -0.2329 31.8538 -0.0264 6.3239
# 5 15.8236 0.9946 -2.1905 -0.0264 29.1330 -0.0006
# 6 -0.0002 0.0149 -0.0200 6.3239 -0.0006 26.9507
#
#
#
# Elastic Compliance Matrix: (Units=1/GPa)
#
#
# Indices 1 2 3 4 5 6 
#
# 1 0.012493 -0.004755 -0.004221 -0.000028 -0.006940 0.000006
# 2 -0.004755 0.017497 -0.002594 0.000056 0.001790 -0.000025
# 3 -0.004221 -0.002594 0.011322 0.000064 0.003233 -0.000005
# 4 -0.000028 0.000056 0.000064 0.032928 0.000048 -0.007726
# 5 -0.006940 0.001790 0.003233 0.000048 0.038277 -0.000009
# 6 0.000006 -0.000025 -0.000005 -0.007726 -0.000009 0.038918
#
#
# Mechanical properties :
#
#
# Convention : Reuss Voigt Hill
#
# Bulk Modulus (GPa) = 55.03128 60.15129 57.59128
# Shear Modulus (GPa) = 27.68062 30.14925 28.91493
#
# Velocity S-wave (km/s) = 3.75551 3.91940 3.83833
# Velocity P-wave (km/s) = 6.84433 7.15057 6.99912
#
# Compressibility (1/GPa) = 0.01817148
#
# Stress axis : x y z
#
# Youngs Moduli (GPa) = 80.04699 57.15225 88.32464
#
# Poissons Ratio (x) = 0.27176 0.37286
# Poissons Ratio (y) = 0.38062 0.22909
# Poissons Ratio (z) = 0.33791 0.14823
#
# Static dielectric constant tensor:
#      x y z
#    x 3.731390 -0.000020 -0.022540 
#    y -0.000020 3.529710 0.000060 
#    z -0.022540 0.000060 3.532190 
# 
# 
# High freq. dielectric constant tensor:
#      x y z
#    x 1.779060 0.000000 -0.001700 
#    y 0.000000 1.767300 0.000010 
#    z -0.001700 0.000010 1.770420 
# 
# From -- ./inp_files/33035.got.cif
#   From: 2010.03.12/outbox.cif.g09.slc.cpg/sg8_17_cif.got.tgz:33035.got - 2010.03.31 10:45:26.
