data_PCOD8053742
_publ_section_title
;
Structure prediction by ZEFSAII (Michael W. Deem and Ramdas Pophale) SiO2 
 PCOD8053742
Probable space group: C M
;
_chemical_formula_sum "Si O2"
_cell_formula_units_Z 32
_cell_length_a 23.436026
_cell_length_b 8.889694
_cell_length_c 24.360549
_cell_angle_alpha 90.000000
_cell_angle_beta 161.687063
_cell_angle_gamma 90.000000
_cell_volume 1594.679695
_symmetry_space_group_name_H-M "C M"
_symmetry_group_IT_number 8
_symmetry_cell_setting 'monoclinic'
loop_
_space_group_symop_operation_xyz
x,y,z
x,-y,z
1/2+x,1/2+y,z
1/2+x,1/2-y,z
loop_
_atom_site_type_symbol
_atom_site_label
_atom_site_fract_x
_atom_site_fract_y
_atom_site_fract_z
Si Si1 0.642280 0.823347 0.214120
Si Si2 0.034248 0.822691 0.611388
Si Si3 0.560313 0.678326 0.759941
Si Si4 0.188044 0.823081 0.447520
Si Si5 0.635302 0.329486 0.094187
Si Si6 0.520796 0.824373 0.399008
Si Si7 0.740237 0.828214 0.704606
Si Si8 0.426167 0.322709 0.109828
O O1 0.622512 0.785909 0.132415
O O2 0.488035 0.737631 0.107171
O O3 0.837591 0.765459 0.412719
O O4 0.615363 0.000000 0.198855
O O5 0.187422 0.757337 0.711771
O O6 0.067011 0.766267 0.703018
O O7 0.046856 0.000000 0.619350
O O8 0.563582 0.500000 0.768126
O O9 0.379082 0.738036 0.623105
O O10 0.733788 0.747334 0.949562
O O11 0.074560 0.775512 0.396716
O O12 0.073921 0.773731 0.289906
O O13 0.223214 0.000000 0.480322
O O14 0.648903 0.500000 0.129728
O O15 0.808535 0.292857 0.215093
O O16 0.456378 0.310235 0.893102
O O17 0.635676 0.764252 0.556124
O O18 0.560684 0.000000 0.424053
O O19 0.681598 0.000000 0.659330
O O20 0.399890 0.500000 0.083677
#
# Coordination Sequence:
#
# PCOD8053742 Si02
#       8
#     4   4   4   4   4   4   4   4
#     4  11  21  36  60  90 123 158 199 244 298 358
#     4  10  21  36  58  89 122 155 194 241 297 356
#     4  11  23  41  65  92 123 160 202 247 301 360
#     4  11  25  43  63  88 121 159 204 254 304 357
#     4  10  21  38  60  88 119 155 197 242 297 358
#     4  10  22  40  60  84 117 156 203 251 297 349
#     4  10  21  37  60  88 118 154 196 240 293 355
#     4  11  24  41  62  91 125 161 201 247 303 361
#
# _framework density 20.066724000000001
#
# number of rings (size 3 to 8) (size 9 to 14) (size 15 to 20)
#    0.000    1.500    2.500    2.250    0.000    7.500 
#    0.000    1.250    0.000    0.000    0.000    0.000 
#    0.000    0.000    0.000    0.000    0.000    0.000 
#
# Total GULP energy -198495.098863 kJ/mol
# GULP energy per Si atom -12405.943679 kJ/mol
# Density = 2.002105 g / cm^3
# Si number density = 20.066724 Si / 1000 Ang^3
#
#
#
# Elastic Constant Matrix: (Units=GPa)
#
#
# Indices 1 2 3 4 5 6 
#
# 1 96.1154 29.2764 29.1845 -0.0120 17.4631 -0.0006
# 2 29.2764 56.8597 34.3748 -0.0200 7.0075 0.0012
# 3 29.1845 34.3748 115.5912 -0.0170 30.7151 -0.0001
# 4 -0.0120 -0.0200 -0.0170 30.3203 0.0011 3.5428
# 5 17.4631 7.0075 30.7151 0.0011 27.2431 0.0057
# 6 -0.0006 0.0012 -0.0001 3.5428 0.0057 35.5614
#
#
#
# Elastic Compliance Matrix: (Units=1/GPa)
#
#
# Indices 1 2 3 4 5 6 
#
# 1 0.013573 -0.006341 0.000482 0.000002 -0.007612 0.000002
# 2 -0.006341 0.024515 -0.007272 0.000010 0.005958 -0.000003
# 3 0.000482 -0.007272 0.014673 0.000004 -0.014981 0.000002
# 4 0.000002 0.000010 0.000004 0.033370 -0.000008 -0.003324
# 5 -0.007612 0.005958 -0.014981 -0.000008 0.056944 -0.000009
# 6 0.000002 -0.000003 0.000002 -0.003324 -0.000009 0.028452
#
#
# Mechanical properties :
#
#
# Convention : Reuss Voigt Hill
#
# Bulk Modulus (GPa) = 37.74168 50.47087 44.10627
# Shear Modulus (GPa) = 24.19885 30.34033 27.26959
#
# Velocity S-wave (km/s) = 3.47640 3.89263 3.69039
# Velocity P-wave (km/s) = 5.91293 6.73866 6.33925
#
# Compressibility (1/GPa) = 0.02649591
#
# Stress axis : x y z
#
# Youngs Moduli (GPa) = 73.67838 40.79217 68.15196
#
# Poissons Ratio (x) = 0.25868 -0.03283
# Poissons Ratio (y) = 0.46723 0.49563
# Poissons Ratio (z) = -0.03549 0.29666
#
# Static dielectric constant tensor:
#      x y z
#    x 3.495220 0.000000 0.032100 
#    y 0.000000 3.534240 -0.000010 
#    z 0.032100 -0.000010 3.887780 
# 
# 
# High freq. dielectric constant tensor:
#      x y z
#    x 1.773580 0.000000 0.008700 
#    y 0.000000 1.779200 0.000000 
#    z 0.008700 0.000000 1.800490 
# 
# From -- ./inp_files/32436.got.cif
#   From: 2010.03.12/outbox.cif.g09.slc.cpg/sg8_17_cif.got.tgz:32436.got - 2010.03.31 10:45:26.
