data_PCOD8053549
_publ_section_title
;
Structure prediction by ZEFSAII (Michael W. Deem and Ramdas Pophale) SiO2 
 PCOD8053549
Probable space group: C M
;
_chemical_formula_sum "Si O2"
_cell_formula_units_Z 24
_cell_length_a 11.915730
_cell_length_b 14.696840
_cell_length_c 7.292151
_cell_angle_alpha 90.000000
_cell_angle_beta 135.824272
_cell_angle_gamma 90.000000
_cell_volume 889.911141
_symmetry_space_group_name_H-M "C M"
_symmetry_group_IT_number 8
_symmetry_cell_setting 'monoclinic'
loop_
_space_group_symop_operation_xyz
x,y,z
x,-y,z
1/2+x,1/2+y,z
1/2+x,1/2-y,z
loop_
_atom_site_type_symbol
_atom_site_label
_atom_site_fract_x
_atom_site_fract_y
_atom_site_fract_z
Si Si1 0.283080 0.680518 0.871850
Si Si2 0.525572 0.820447 0.895456
Si Si3 0.976996 0.000000 0.087639
Si Si4 0.491158 0.809451 0.310451
Si Si5 0.349146 0.000000 0.179590
Si Si6 0.341616 0.311009 0.457321
Si Si7 0.828289 0.500000 0.588863
Si Si8 0.002052 0.000000 0.686860
O O1 0.146645 0.679936 0.866504
O O2 0.372457 0.587129 0.010291
O O3 0.185206 0.694090 0.565730
O O4 0.415577 0.762216 0.038508
O O5 0.413771 0.729623 0.733832
O O6 0.415695 0.910795 0.770595
O O7 0.643807 0.816361 0.215687
O O8 0.011808 0.000000 0.915573
O O9 0.135374 0.000000 0.405715
O O10 0.452264 0.914053 0.246848
O O11 0.396124 0.758197 0.361992
O O12 0.324268 0.000000 0.366096
O O13 0.191849 0.000000 0.862573
O O14 0.413241 0.411169 0.504240
#
# Coordination Sequence:
#
# PCOD8053549 Si02
#       8
#     4   4   2   4   2   4   2   2
#     4  10  20  41  60  92 119 162 205 247 309 365
#     4  10  20  37  69  92 118 151 209 264 301 356
#     4  11  26  40  59  86 131 175 199 239 318 370
#     4  10  20  36  69  91 118 154 209 260 302 352
#     4  11  17  34  60  97 120 152 200 259 308 346
#     4  10  20  36  61 100 116 153 203 265 305 345
#     4  11  20  36  60  91 120 161 198 252 302 369
#     4  11  23  36  55  92 135 156 203 252 308 365
#
# _framework density 26.968983000000001
#
# number of rings (size 3 to 8) (size 9 to 14) (size 15 to 20)
#    0.000    1.667    3.333    4.500    2.333    2.000 
#    3.000    0.833    3.667    0.000    0.000    0.000 
#    0.000    0.000    0.000    0.000    0.000    0.000 
#
# Total GULP energy -148816.391489 kJ/mol
# GULP energy per Si atom -12401.365957 kJ/mol
# Density = 2.690760 g / cm^3
# Si number density = 26.968983 Si / 1000 Ang^3
#
#
#
# Elastic Constant Matrix: (Units=GPa)
#
#
# Indices 1 2 3 4 5 6 
#
# 1 51.8388 30.3642 77.1003 0.0000 11.4237 0.0000
# 2 30.3642 250.9899 128.4408 0.0000 29.3296 0.0000
# 3 77.1003 128.4408 309.4875 0.0000 22.4196 0.0000
# 4 0.0000 0.0000 0.0000 76.5073 0.0000 11.3586
# 5 11.4237 29.3296 22.4196 0.0000 69.2537 0.0000
# 6 0.0000 0.0000 0.0000 11.3586 0.0000 26.6779
#
#
#
# Elastic Compliance Matrix: (Units=1/GPa)
#
#
# Indices 1 2 3 4 5 6 
#
# 1 0.031183 0.000547 -0.007789 0.000000 -0.002854 0.000000
# 2 0.000547 0.005225 -0.002189 0.000000 -0.001594 0.000000
# 3 -0.007789 -0.002189 0.006062 0.000000 0.000249 0.000000
# 4 0.000000 0.000000 0.000000 0.013953 0.000000 -0.005941
# 5 -0.002854 -0.001594 0.000249 0.000000 0.015505 0.000000
# 6 0.000000 0.000000 0.000000 -0.005941 0.000000 0.040013
#
#
# Mechanical properties :
#
#
# Convention : Reuss Voigt Hill
#
# Bulk Modulus (GPa) = 42.35852 120.45853 81.40853
# Shear Modulus (GPa) = 36.05639 59.58184 47.81911
#
# Velocity S-wave (km/s) = 3.66041 4.70539 4.21541
# Velocity P-wave (km/s) = 5.79701 8.61879 7.34468
#
# Compressibility (1/GPa) = 0.02360800
#
# Stress axis : x y z
#
# Youngs Moduli (GPa) = 32.06843 191.40422 164.96626
#
# Poissons Ratio (x) = -0.10465 1.28486
# Poissons Ratio (y) = -0.01753 0.36110
# Poissons Ratio (z) = 0.24977 0.41898
#
# Static dielectric constant tensor:
#      x y z
#    x 5.050230 0.000000 -0.251270 
#    y 0.000000 5.140860 0.000000 
#    z -0.251270 0.000000 6.986250 
# 
# 
# High freq. dielectric constant tensor:
#      x y z
#    x 2.136610 0.000000 -0.001560 
#    y 0.000000 2.078160 0.000000 
#    z -0.001560 0.000000 2.135630 
# 
# From -- ./inp_files/23204.got.cif
#   From: 2010.03.12/outbox.cif.g09.slc.cpg/sg8_12_cif.got.tgz:23204.got - 2010.03.31 10:45:26.
