data_PCOD8053877
_publ_section_title
;
Structure prediction by ZEFSAII (Michael W. Deem and Ramdas Pophale) SiO2 
 PCOD8053877
Probable space group: C M
;
_chemical_formula_sum "Si O2"
_cell_formula_units_Z 32
_cell_length_a 15.228690
_cell_length_b 13.207876
_cell_length_c 8.775881
_cell_angle_alpha 90.000000
_cell_angle_beta 118.898714
_cell_angle_gamma 90.000000
_cell_volume 1545.361859
_symmetry_space_group_name_H-M "C M"
_symmetry_group_IT_number 8
_symmetry_cell_setting 'monoclinic'
loop_
_space_group_symop_operation_xyz
x,y,z
x,-y,z
1/2+x,1/2+y,z
1/2+x,1/2-y,z
loop_
_atom_site_type_symbol
_atom_site_label
_atom_site_fract_x
_atom_site_fract_y
_atom_site_fract_z
Si Si1 0.623230 0.609850 0.866340
Si Si2 0.932592 0.219098 0.639333
Si Si3 0.074690 0.698484 0.277431
Si Si4 0.874323 0.725459 0.273515
Si Si5 0.185978 0.886512 0.249161
Si Si6 0.247812 0.615595 0.608779
Si Si7 0.039797 0.614478 0.917480
Si Si8 0.730106 0.188116 0.924430
O O1 0.659451 0.500000 0.835746
O O2 0.508493 0.627453 0.727065
O O3 0.697200 0.695546 0.863350
O O4 0.617378 0.612014 0.043214
O O5 0.943366 0.237933 0.469133
O O6 0.818873 0.185951 0.567752
O O7 0.955627 0.314165 0.770211
O O8 0.128942 0.809618 0.316924
O O9 0.134960 0.634762 0.455419
O O10 0.957377 0.688675 0.221928
O O11 0.079265 0.650074 0.114393
O O12 0.797945 0.643994 0.284315
O O13 0.811976 0.811815 0.129446
O O14 0.192277 0.000000 0.327266
O O15 0.276179 0.500000 0.605870
O O16 0.271071 0.642022 0.803465
O O17 0.998195 0.500000 0.888980
O O18 0.136787 0.618729 0.891389
#
# Coordination Sequence:
#
# PCOD8053877 Si02
#       8
#     4   4   4   4   4   4   4   4
#     4   9  18  37  64  88 120 167 207 254 326 388
#     4  11  21  41  62  93 130 167 216 269 331 394
#     4  12  22  43  66  98 131 172 228 278 332 397
#     4  11  23  41  68  90 132 173 215 276 333 392
#     4  10  21  42  67  94 130 172 215 270 334 394
#     4  12  25  41  64  91 129 177 221 274 338 394
#     4  11  22  40  65  95 133 170 215 276 333 392
#     4  10  21  41  61  95 127 168 218 271 324 391
#
# _framework density 20.707122999999999
#
# number of rings (size 3 to 8) (size 9 to 14) (size 15 to 20)
#    0.000    1.250    5.000    3.375    0.000    1.500 
#    0.000    8.750    0.000    0.000    0.000    0.000 
#    0.000    0.000    0.000    0.000    0.000    0.000 
#
# Total GULP energy -198285.311312 kJ/mol
# GULP energy per Si atom -12392.831957 kJ/mol
# Density = 2.065999 g / cm^3
# Si number density = 20.707123 Si / 1000 Ang^3
#
#
#
# Elastic Constant Matrix: (Units=GPa)
#
#
# Indices 1 2 3 4 5 6 
#
# 1 71.9971 25.0976 9.2035 0.0000 7.5386 0.0000
# 2 25.0976 127.4006 31.4270 0.0000 1.6642 0.0000
# 3 9.2035 31.4270 113.3926 0.0000 6.6864 0.0000
# 4 0.0000 0.0000 0.0000 17.9429 0.0000 -1.2448
# 5 7.5386 1.6642 6.6864 0.0000 34.2017 0.0000
# 6 0.0000 0.0000 0.0000 -1.2448 0.0000 17.5633
#
#
#
# Elastic Compliance Matrix: (Units=1/GPa)
#
#
# Indices 1 2 3 4 5 6 
#
# 1 0.015266 -0.002905 -0.000247 0.000000 -0.003175 0.000000
# 2 -0.002905 0.008978 -0.002291 0.000000 0.000651 0.000000
# 3 -0.000247 -0.002291 0.009574 0.000000 -0.001706 0.000000
# 4 0.000000 0.000000 0.000000 0.056008 0.000000 0.003970
# 5 -0.003175 0.000651 -0.001706 0.000000 0.030240 0.000000
# 6 0.000000 0.000000 0.000000 0.003970 0.000000 0.057218
#
#
# Mechanical properties :
#
#
# Convention : Reuss Voigt Hill
#
# Bulk Modulus (GPa) = 43.60451 49.36070 46.48260
# Shear Modulus (GPa) = 25.53439 30.41241 27.97340
#
# Velocity S-wave (km/s) = 3.51539 3.83651 3.67946
# Velocity P-wave (km/s) = 6.13031 6.59654 6.36770
#
# Compressibility (1/GPa) = 0.02293341
#
# Stress axis : x y z
#
# Youngs Moduli (GPa) = 65.50444 111.38139 104.44440
#
# Poissons Ratio (x) = 0.32357 0.02577
# Poissons Ratio (y) = 0.19029 0.23928
# Poissons Ratio (z) = 0.01616 0.25517
#
# Static dielectric constant tensor:
#      x y z
#    x 3.586020 0.000000 0.075120 
#    y 0.000000 3.915010 0.000000 
#    z 0.075120 0.000000 3.802760 
# 
# 
# High freq. dielectric constant tensor:
#      x y z
#    x 1.799470 0.000000 0.006970 
#    y 0.000000 1.799060 0.000000 
#    z 0.006970 0.000000 1.821780 
# 
# From -- ./inp_files/13289.got.cif
#   From: 2010.03.12/outbox.cif.g09.slc.cpg/sg8_7_cif.got.tgz:13289.got - 2010.03.31 10:45:26.
