data_PCOD8053924
_publ_section_title
;
Structure prediction by ZEFSAII (Michael W. Deem and Ramdas Pophale) SiO2 
 PCOD8053924
Probable space group: C M
;
_chemical_formula_sum "Si O2"
_cell_formula_units_Z 32
_cell_length_a 15.339053
_cell_length_b 8.711991
_cell_length_c 22.729584
_cell_angle_alpha 90.000000
_cell_angle_beta 31.505704
_cell_angle_gamma 90.000000
_cell_volume 1587.314931
_symmetry_space_group_name_H-M "C M"
_symmetry_group_IT_number 8
_symmetry_cell_setting 'monoclinic'
loop_
_space_group_symop_operation_xyz
x,y,z
x,-y,z
1/2+x,1/2+y,z
1/2+x,1/2-y,z
loop_
_atom_site_type_symbol
_atom_site_label
_atom_site_fract_x
_atom_site_fract_y
_atom_site_fract_z
Si Si1 0.756820 0.321240 0.077290
Si Si2 0.601819 0.682444 0.547572
Si Si3 0.743952 0.179599 0.958313
Si Si4 0.919383 0.821451 0.089779
Si Si5 0.195263 0.825869 0.308613
Si Si6 0.391660 0.681969 0.560506
Si Si7 0.416202 0.825591 0.296112
Si Si8 0.064299 0.819693 0.700053
O O1 0.794819 0.500000 0.061257
O O2 0.891836 0.228844 0.038304
O O3 0.572242 0.287373 0.207598
O O4 0.777619 0.271349 0.998308
O O5 0.592088 0.500000 0.552314
O O6 0.463103 0.745459 0.581628
O O7 0.786595 0.732176 0.420293
O O8 0.567850 0.749948 0.631960
O O9 0.888396 0.224490 0.829546
O O10 0.741981 0.000000 0.974308
O O11 0.569645 0.224391 0.030052
O O12 0.751236 0.784250 0.223325
O O13 0.962312 0.000000 0.068731
O O14 0.331436 0.817250 0.281474
O O15 0.016745 0.768029 0.435918
O O16 0.182264 0.000000 0.292455
O O17 0.381304 0.500000 0.568411
O O18 0.209975 0.750185 0.655809
O O19 0.476398 0.000000 0.273728
O O20 0.092033 0.000000 0.681528
#
# Coordination Sequence:
#
# PCOD8053924 Si02
#       8
#     4   4   4   4   4   4   4   4
#     4  12  25  40  61  90 122 160 208 256 310 371
#     4   8  17  36  59  86 119 159 196 234 295 360
#     4  11  24  44  63  86 125 166 210 260 306 360
#     4  12  25  40  62  91 121 161 207 255 313 370
#     4   9  18  35  59  88 127 164 197 246 305 360
#     4   9  19  36  59  88 122 161 200 242 293 356
#     4   9  17  34  61  88 123 162 196 243 303 363
#     4  10  22  39  62  89 119 159 204 250 299 358
#
# _framework density 20.159829999999999
#
# number of rings (size 3 to 8) (size 9 to 14) (size 15 to 20)
#    0.000    2.000    1.250    4.125    1.750    2.500 
#    0.000    3.750    0.000    0.000    0.000    0.000 
#    0.000    0.000    0.000    0.000    0.000    0.000 
#
# Total GULP energy -198431.553722 kJ/mol
# GULP energy per Si atom -12401.972108 kJ/mol
# Density = 2.011395 g / cm^3
# Si number density = 20.159830 Si / 1000 Ang^3
#
#
#
# Elastic Constant Matrix: (Units=GPa)
#
#
# Indices 1 2 3 4 5 6 
#
# 1 92.2085 15.3702 36.6803 0.0002 18.2382 0.0001
# 2 15.3702 47.8588 30.3301 0.0006 0.7810 -0.0003
# 3 36.6803 30.3301 91.7450 -0.0003 16.9127 0.0000
# 4 0.0002 0.0006 -0.0003 25.3520 -0.0002 -5.1056
# 5 18.2382 0.7810 16.9127 -0.0002 23.7906 0.0002
# 6 0.0001 -0.0003 0.0000 -5.1056 0.0002 30.0243
#
#
#
# Elastic Compliance Matrix: (Units=1/GPa)
#
#
# Indices 1 2 3 4 5 6 
#
# 1 0.014241 -0.002294 -0.003379 0.000000 -0.008440 0.000000
# 2 -0.002294 0.027608 -0.009629 -0.000001 0.007698 0.000000
# 3 -0.003379 -0.009629 0.017145 0.000000 -0.009282 0.000000
# 4 0.000000 -0.000001 0.000000 0.040843 0.000000 0.006945
# 5 -0.008440 0.007698 -0.009282 0.000000 0.054849 0.000000
# 6 0.000000 0.000000 0.000000 0.006945 0.000000 0.034487
#
#
# Mechanical properties :
#
#
# Convention : Reuss Voigt Hill
#
# Bulk Modulus (GPa) = 35.22429 44.06370 39.64400
# Shear Modulus (GPa) = 21.81100 25.79548 23.80324
#
# Velocity S-wave (km/s) = 3.29280 3.58096 3.43990
# Velocity P-wave (km/s) = 5.65395 6.24518 5.95691
#
# Compressibility (1/GPa) = 0.02838950
#
# Stress axis : x y z
#
# Youngs Moduli (GPa) = 70.21955 36.22114 58.32566
#
# Poissons Ratio (x) = 0.08310 0.19711
# Poissons Ratio (y) = 0.16110 0.56161
# Poissons Ratio (z) = 0.23730 0.34877
#
# Static dielectric constant tensor:
#      x y z
#    x 3.846480 0.000000 0.121220 
#    y 0.000000 3.382870 0.000000 
#    z 0.121220 0.000000 3.765020 
# 
# 
# High freq. dielectric constant tensor:
#      x y z
#    x 1.796120 0.000000 0.003080 
#    y 0.000000 1.766180 0.000000 
#    z 0.003080 0.000000 1.785170 
# 
# From -- ./inp_files/31980.got.cif
#   From: 2010.03.12/outbox.cif.g09.slc.cpg/sg8_16_cif.got.tgz:31980.got - 2010.03.31 10:45:26.
