data_PCOD8053298
_publ_section_title
;
Structure prediction by ZEFSAII (Michael W. Deem and Ramdas Pophale) SiO2 
 PCOD8053298
Probable space group: C M
;
_chemical_formula_sum "Si O2"
_cell_formula_units_Z 22
_cell_length_a 9.350322
_cell_length_b 16.552193
_cell_length_c 9.010407
_cell_angle_alpha 90.000000
_cell_angle_beta 131.448724
_cell_angle_gamma 90.000000
_cell_volume 1045.264526
_symmetry_space_group_name_H-M "C M"
_symmetry_group_IT_number 8
_symmetry_cell_setting 'monoclinic'
loop_
_space_group_symop_operation_xyz
x,y,z
x,-y,z
1/2+x,1/2+y,z
1/2+x,1/2-y,z
loop_
_atom_site_type_symbol
_atom_site_label
_atom_site_fract_x
_atom_site_fract_y
_atom_site_fract_z
Si Si1 0.483170 0.174595 0.204770
Si Si2 0.313558 0.089372 0.599888
Si Si3 0.134320 0.152249 0.775475
Si Si4 0.138875 0.500000 0.731689
Si Si5 0.462041 0.000000 0.284247
Si Si6 0.545754 0.500000 0.904618
Si Si7 0.344748 0.767174 0.418326
O O1 0.522444 0.078556 0.232213
O O2 0.468599 0.208420 0.361797
O O3 0.663125 0.213937 0.245508
O O4 0.289142 0.196320 0.985603
O O5 0.248491 0.117703 0.714893
O O6 0.254953 0.153771 0.434945
O O7 0.223482 0.000000 0.503529
O O8 0.546784 0.078968 0.750657
O O9 0.975436 0.217261 0.622570
O O10 0.032919 0.079083 0.792582
O O11 0.366028 0.500000 0.893087
O O12 0.061697 0.500000 0.510253
O O13 0.230811 0.000000 0.137240
#
# Coordination Sequence:
#
# PCOD8053298 Si02
#       7
#     4   4   4   2   2   2   4
#     4  11  25  42  66  94 128 169 215 261 322 377
#     4  10  22  43  66  90 131 170 209 267 315 373
#     4  11  24  42  67  93 133 168 212 268 316 380
#     4  10  19  39  67  91 124 166 210 261 314 369
#     4  10  20  42  62  96 126 160 212 262 304 390
#     4  10  21  39  69  99 120 174 214 253 328 377
#     4  12  24  43  63  96 130 170 212 265 320 377
#
# _framework density 21.047302999999999
#
# number of rings (size 3 to 8) (size 9 to 14) (size 15 to 20)
#    0.545    0.727    4.545    1.091    2.545    0.000 
#    3.273    1.818    0.000    0.000    0.000    0.000 
#    0.000    0.000    0.000    0.000    0.000    0.000 
#
# Total GULP energy -136352.304192 kJ/mol
# GULP energy per Si atom -12395.664017 kJ/mol
# Density = 2.099940 g / cm^3
# Si number density = 21.047303 Si / 1000 Ang^3
#
#
#
# Elastic Constant Matrix: (Units=GPa)
#
#
# Indices 1 2 3 4 5 6 
#
# 1 83.4093 26.3761 -1.7185 0.0000 9.9755 0.0000
# 2 26.3761 116.6563 36.0235 0.0000 12.6345 0.0000
# 3 -1.7185 36.0235 69.6766 0.0000 16.0672 0.0000
# 4 0.0000 0.0000 0.0000 29.2778 0.0000 -1.0959
# 5 9.9755 12.6345 16.0672 0.0000 26.7577 0.0000
# 6 0.0000 0.0000 0.0000 -1.0959 0.0000 27.2733
#
#
#
# Elastic Compliance Matrix: (Units=1/GPa)
#
#
# Indices 1 2 3 4 5 6 
#
# 1 0.013868 -0.003611 0.003492 0.000000 -0.005562 0.000000
# 2 -0.003611 0.011227 -0.005782 0.000000 -0.000483 0.000000
# 3 0.003492 -0.005782 0.019846 0.000000 -0.010489 0.000000
# 4 0.000000 0.000000 0.000000 0.034207 0.000000 0.001374
# 5 -0.005562 -0.000483 -0.010489 0.000000 0.045972 0.000000
# 6 0.000000 0.000000 0.000000 0.001374 0.000000 0.036721
#
#
# Mechanical properties :
#
#
# Convention : Reuss Voigt Hill
#
# Bulk Modulus (GPa) = 30.17753 43.45602 36.81678
# Shear Modulus (GPa) = 27.07239 30.59917 28.83578
#
# Velocity S-wave (km/s) = 3.59034 3.81705 3.70543
# Velocity P-wave (km/s) = 5.61752 6.33389 5.98643
#
# Compressibility (1/GPa) = 0.03313724
#
# Stress axis : x y z
#
# Youngs Moduli (GPa) = 72.10740 89.07493 50.38769
#
# Poissons Ratio (x) = 0.32169 -0.17594
# Poissons Ratio (y) = 0.26042 0.29134
# Poissons Ratio (z) = -0.25178 0.51503
#
# Static dielectric constant tensor:
#      x y z
#    x 3.774650 0.000000 -0.044320 
#    y 0.000000 4.067830 0.000000 
#    z -0.044320 0.000000 3.568950 
# 
# 
# High freq. dielectric constant tensor:
#      x y z
#    x 1.823800 0.000000 -0.002880 
#    y 0.000000 1.836800 0.000000 
#    z -0.002880 0.000000 1.802020 
# 
# From -- ./inp_files/8283.got.cif
#   From: 2010.03.12/outbox.cif.g09.slc.cpg/sg8_5_cif.got.tgz:8283.got - 2010.03.31 10:45:26.
