data_PCOD8053178
_publ_section_title
;
Structure prediction by ZEFSAII (Michael W. Deem and Ramdas Pophale) SiO2 
 PCOD8053178
Probable space group: C M
;
_chemical_formula_sum "Si O2"
_cell_formula_units_Z 32
_cell_length_a 24.554873
_cell_length_b 8.499467
_cell_length_c 20.386916
_cell_angle_alpha 90.000000
_cell_angle_beta 23.728666
_cell_angle_gamma 90.000000
_cell_volume 1712.163365
_symmetry_space_group_name_H-M "C M"
_symmetry_group_IT_number 8
_symmetry_cell_setting 'monoclinic'
loop_
_space_group_symop_operation_xyz
x,y,z
x,-y,z
1/2+x,1/2+y,z
1/2+x,1/2-y,z
loop_
_atom_site_type_symbol
_atom_site_label
_atom_site_fract_x
_atom_site_fract_y
_atom_site_fract_z
Si Si1 0.208150 0.814317 0.829540
Si Si2 0.438145 0.314397 0.068608
Si Si3 0.824765 0.183332 0.569636
Si Si4 0.390667 0.813733 0.745104
Si Si5 0.861976 0.685128 0.923695
Si Si6 0.104927 0.684795 0.280518
Si Si7 0.569881 0.685080 0.788999
Si Si8 0.642651 0.187605 0.387262
O O1 0.293261 0.730412 0.679101
O O2 0.264700 0.762873 0.837923
O O3 0.226360 0.000000 0.797325
O O4 0.049381 0.765145 0.000690
O O5 0.426998 0.500000 0.076730
O O6 0.289506 0.245778 0.248758
O O7 0.488481 0.253662 0.942531
O O8 0.727330 0.271676 0.625206
O O9 0.979368 0.229957 0.383342
O O10 0.803591 0.000000 0.582663
O O11 0.367240 0.748262 0.843626
O O12 0.529043 0.743704 0.561437
O O13 0.403209 0.000000 0.733914
O O14 0.833807 0.500000 0.956583
O O15 0.006603 0.724381 0.796844
O O16 0.743066 0.775868 0.091372
O O17 0.079629 0.500000 0.306333
O O18 0.114993 0.746423 0.344046
O O19 0.554652 0.500000 0.794813
O O20 0.640731 0.000000 0.390483
#
# Coordination Sequence:
#
# PCOD8053178 Si02
#       8
#     4   4   4   4   4   4   4   4
#     4   9  16  31  53  77 107 146 187 219 262 332
#     4   8  14  25  49  80 100 123 176 234 260 296
#     4  11  21  33  53  85 115 138 176 238 293 322
#     4   9  18  32  51  76 111 150 184 222 268 326
#     4  11  22  35  52  81 119 150 183 233 285 322
#     4  11  20  35  58  80 107 148 194 230 268 332
#     4  10  19  35  56  79 107 147 191 224 270 339
#     4   9  15  28  52  80 102 132 187 232 256 309
#
# _framework density 18.689803999999999
#
# number of rings (size 3 to 8) (size 9 to 14) (size 15 to 20)
#    0.000    2.250    2.500    3.000    0.000    0.000 
#    0.000    2.500    0.000    4.500    0.000    0.000 
#    0.000    0.000    0.000    0.000    0.000    0.000 
#
# Total GULP energy -198354.920087 kJ/mol
# GULP energy per Si atom -12397.182505 kJ/mol
# Density = 1.864727 g / cm^3
# Si number density = 18.689804 Si / 1000 Ang^3
#
#
#
# Elastic Constant Matrix: (Units=GPa)
#
#
# Indices 1 2 3 4 5 6 
#
# 1 134.4911 14.1603 59.5517 -0.0026 -13.3695 0.0017
# 2 14.1603 36.0652 10.4803 -0.0052 0.3195 0.0038
# 3 59.5517 10.4803 99.4907 -0.0035 -15.0228 0.0029
# 4 -0.0026 -0.0052 -0.0035 19.5138 0.0030 -3.1260
# 5 -13.3695 0.3195 -15.0228 0.0030 36.2991 -0.0019
# 6 0.0017 0.0038 0.0029 -3.1260 -0.0019 21.5266
#
#
#
# Elastic Compliance Matrix: (Units=1/GPa)
#
#
# Indices 1 2 3 4 5 6 
#
# 1 0.010375 -0.002421 -0.005733 0.000000 0.001470 0.000000
# 2 -0.002421 0.029255 -0.001927 0.000007 -0.001946 -0.000004
# 3 -0.005733 -0.001927 0.014261 0.000001 0.003807 -0.000001
# 4 0.000000 0.000007 0.000001 0.052466 -0.000004 0.007619
# 5 0.001470 -0.001946 0.003807 -0.000004 0.029683 0.000002
# 6 0.000000 -0.000004 -0.000001 0.007619 0.000002 0.047560
#
#
# Mechanical properties :
#
#
# Convention : Reuss Voigt Hill
#
# Bulk Modulus (GPa) = 29.64736 48.71461 39.18099
# Shear Modulus (GPa) = 23.25526 27.85821 25.55674
#
# Velocity S-wave (km/s) = 3.53126 3.86496 3.70187
# Velocity P-wave (km/s) = 5.70295 6.78518 6.26747
#
# Compressibility (1/GPa) = 0.03372981
#
# Stress axis : x y z
#
# Youngs Moduli (GPa) = 96.38522 34.18206 70.12251
#
# Poissons Ratio (x) = 0.08274 0.40203
# Poissons Ratio (y) = 0.23330 0.13511
# Poissons Ratio (z) = 0.55260 0.06586
#
# Static dielectric constant tensor:
#      x y z
#    x 3.616830 0.000000 -0.270850 
#    y 0.000000 3.078510 0.000000 
#    z -0.270850 0.000000 3.638440 
# 
# 
# High freq. dielectric constant tensor:
#      x y z
#    x 1.722530 0.000000 -0.028780 
#    y 0.000000 1.694790 0.000000 
#    z -0.028780 0.000000 1.717430 
# 
# From -- ./inp_files/31350.got.cif
#   From: 2010.03.12/outbox.cif.g09.slc.cpg/sg8_16_cif.got.tgz:31350.got - 2010.03.31 10:45:26.
