data_PCOD8053360
_publ_section_title
;
Structure prediction by ZEFSAII (Michael W. Deem and Ramdas Pophale) SiO2 
 PCOD8053360
Probable space group: C M
;
_chemical_formula_sum "Si O2"
_cell_formula_units_Z 32
_cell_length_a 18.141582
_cell_length_b 13.281719
_cell_length_c 19.149694
_cell_angle_alpha 90.000000
_cell_angle_beta 22.246223
_cell_angle_gamma 90.000000
_cell_volume 1746.858278
_symmetry_space_group_name_H-M "C M"
_symmetry_group_IT_number 8
_symmetry_cell_setting 'monoclinic'
loop_
_space_group_symop_operation_xyz
x,y,z
x,-y,z
1/2+x,1/2+y,z
1/2+x,1/2-y,z
loop_
_atom_site_type_symbol
_atom_site_label
_atom_site_fract_x
_atom_site_fract_y
_atom_site_fract_z
Si Si1 0.868510 0.613358 0.062950
Si Si2 0.412573 0.118551 0.288695
Si Si3 0.902857 0.615610 0.802864
Si Si4 0.802827 0.114236 0.521868
Si Si5 0.139197 0.209094 0.144511
Si Si6 0.500620 0.387215 0.482419
Si Si7 0.604859 0.117023 0.979540
Si Si8 0.506100 0.706333 0.623205
O O1 0.907596 0.500000 0.997393
O O2 0.805164 0.690553 0.057521
O O3 0.703337 0.605082 0.265701
O O4 0.049909 0.658638 0.949421
O O5 0.583383 0.172988 0.184068
O O6 0.196915 0.161446 0.494499
O O7 0.423117 0.000000 0.295607
O O8 0.450081 0.146584 0.174901
O O9 0.866652 0.500000 0.812691
O O10 0.968671 0.676720 0.676004
O O11 0.075605 0.626403 0.707445
O O12 0.710586 0.661093 0.008420
O O13 0.933672 0.161080 0.346238
O O14 0.841926 0.156080 0.565900
O O15 0.873985 0.000000 0.461312
O O16 0.445989 0.500000 0.559178
O O17 0.515747 0.307384 0.531651
O O18 0.818538 0.148176 0.817130
O O19 0.596050 0.000000 0.977534
#
# Coordination Sequence:
#
# PCOD8053360 Si02
#       8
#     4   4   4   4   4   4   4   4
#     4   9  18  33  57  86 111 138 181 236 287 332
#     4  11  22  37  55  81 116 149 189 225 267 337
#     4  11  23  36  54  83 114 148 191 223 269 338
#     4   9  19  35  55  82 112 143 183 232 278 326
#     4  11  20  37  56  81 115 149 179 227 283 325
#     4   9  17  31  54  82 110 140 179 230 284 329
#     4  10  20  34  54  84 114 143 182 230 280 329
#     4  12  21  35  55  83 116 150 178 223 284 330
#
# _framework density 18.318601999999998
#
# number of rings (size 3 to 8) (size 9 to 14) (size 15 to 20)
#    0.000    1.750    3.750    3.000    1.750    0.000 
#    0.000    0.000    0.000    3.750    0.000    0.000 
#    0.000    0.000    0.000    0.000    0.000    0.000 
#
# Total GULP energy -198240.727471 kJ/mol
# GULP energy per Si atom -12390.045467 kJ/mol
# Density = 1.827691 g / cm^3
# Si number density = 18.318602 Si / 1000 Ang^3
#
#
#
# Elastic Constant Matrix: (Units=GPa)
#
#
# Indices 1 2 3 4 5 6 
#
# 1 81.4218 78.6996 16.1260 -0.0204 -7.3019 0.0021
# 2 78.6996 62.1537 53.1409 -0.0198 10.6700 0.0157
# 3 16.1260 53.1409 62.6277 -0.0576 -1.1218 0.0192
# 4 -0.0204 -0.0198 -0.0576 24.1508 0.0153 2.0212
# 5 -7.3019 10.6700 -1.1218 0.0153 28.9453 -0.0061
# 6 0.0021 0.0157 0.0192 2.0212 -0.0061 27.9554
#
#
#
# Elastic Compliance Matrix: (Units=1/GPa)
#
#
# Indices 1 2 3 4 5 6 
#
# 1 -0.003381 0.018509 -0.014982 -0.000018 -0.008257 0.000000
# 2 0.018509 -0.020619 0.012959 0.000021 0.012772 0.000002
# 3 -0.014982 0.012959 0.008682 0.000025 -0.008220 -0.000016
# 4 -0.000018 0.000021 0.000025 0.041659 -0.000034 -0.003012
# 5 -0.008257 0.012772 -0.008220 -0.000034 0.027438 0.000008
# 6 0.000000 0.000002 -0.000016 -0.003012 0.000008 0.035989
#
#
# Mechanical properties :
#
#
# Convention : Reuss Voigt Hill
#
# Bulk Modulus (GPa) = 56.65066 55.79292 56.22179
# Shear Modulus (GPa) = 79.77009 20.09275 49.93142
#
# Velocity S-wave (km/s) = 6.60609 3.31547 5.22651
# Velocity P-wave (km/s) = 9.44350 6.72157 8.19631
#
# Compressibility (1/GPa) = 0.01765205
#
# Stress axis : x y z
#
# Youngs Moduli (GPa) = -295.72763 -48.49793 115.18015
#
# Poissons Ratio (x) = 0.89764 1.72567
# Poissons Ratio (y) = 5.47360 -1.49261
# Poissons Ratio (z) = -4.43071 0.62848
#
# Static dielectric constant tensor:
#      x y z
#    x 3.772430 -0.000010 -0.156750 
#    y -0.000010 3.231230 0.000020 
#    z -0.156750 0.000020 3.533570 
# 
# 
# High freq. dielectric constant tensor:
#      x y z
#    x 1.699690 0.000000 -0.005770 
#    y 0.000000 1.670780 0.000000 
#    z -0.005770 0.000000 1.730640 
# 
# From -- ./inp_files/31438.got.cif
#   From: 2010.03.12/outbox.cif.g09.slc.cpg/sg8_16_cif.got.tgz:31438.got - 2010.03.31 10:45:26.
