data_PCOD8053270
_publ_section_title
;
Structure prediction by ZEFSAII (Michael W. Deem and Ramdas Pophale) SiO2 
 PCOD8053270
Probable space group: C M
;
_chemical_formula_sum "Si O2"
_cell_formula_units_Z 28
_cell_length_a 13.613880
_cell_length_b 14.012670
_cell_length_c 14.453269
_cell_angle_alpha 90.000000
_cell_angle_beta 31.608353
_cell_angle_gamma 90.000000
_cell_volume 1445.078380
_symmetry_space_group_name_H-M "C M"
_symmetry_group_IT_number 8
_symmetry_cell_setting 'monoclinic'
loop_
_space_group_symop_operation_xyz
x,y,z
x,-y,z
1/2+x,1/2+y,z
1/2+x,1/2-y,z
loop_
_atom_site_type_symbol
_atom_site_label
_atom_site_fract_x
_atom_site_fract_y
_atom_site_fract_z
Si Si1 0.679010 0.226859 0.009220
Si Si2 0.845001 0.607509 0.556192
Si Si3 0.028941 0.108098 0.668467
Si Si4 0.335994 0.891723 0.773352
Si Si5 0.262450 0.213009 0.322693
Si Si6 0.067155 0.226787 0.292910
Si Si7 0.258387 0.609529 0.439741
O O1 0.476768 0.177279 0.156247
O O2 0.705792 0.253872 0.095717
O O3 0.692302 0.327206 0.945040
O O4 0.829138 0.154090 0.848818
O O5 0.925618 0.500000 0.490814
O O6 0.640030 0.611858 0.675612
O O7 0.835962 0.646071 0.667894
O O8 0.983130 0.671216 0.385691
O O9 0.137388 0.163946 0.501411
O O10 0.999335 0.000000 0.658337
O O11 0.545358 0.884249 0.648944
O O12 0.261689 0.000000 0.837356
O O13 0.183857 0.185670 0.285290
O O14 0.267723 0.327345 0.338290
O O15 0.901181 0.152296 0.401216
O O16 0.311567 0.500000 0.374149
#
# Coordination Sequence:
#
# PCOD8053270 Si02
#       7
#     4   4   4   4   4   4   4
#     4  11  23  39  61  94 123 161 203 259 312 367
#     4  10  19  36  65  92 120 162 210 256 311 370
#     4  11  23  42  62  88 125 162 206 256 309 370
#     4  10  20  38  64  93 126 163 209 260 312 370
#     4  11  23  42  64  90 123 171 206 253 309 378
#     4  11  22  38  63  93 127 159 206 262 310 366
#     4  10  20  39  65  90 122 166 208 252 305 367
#
# _framework density 19.376110000000001
#
# number of rings (size 3 to 8) (size 9 to 14) (size 15 to 20)
#    0.000    1.429    5.714    0.000    2.000    4.000 
#    2.571    0.000    0.000    0.000    0.000    0.000 
#    0.000    0.000    0.000    0.000    0.000    0.000 
#
# Total GULP energy -173586.102386 kJ/mol
# GULP energy per Si atom -12399.007313 kJ/mol
# Density = 1.933201 g / cm^3
# Si number density = 19.376110 Si / 1000 Ang^3
#
#
#
# Elastic Constant Matrix: (Units=GPa)
#
#
# Indices 1 2 3 4 5 6 
#
# 1 136.6015 41.2674 53.1107 -0.0010 10.8242 -0.0001
# 2 41.2674 112.6980 57.9666 -0.0034 10.4557 0.0022
# 3 53.1107 57.9666 133.8118 -0.0057 5.2589 0.0023
# 4 -0.0010 -0.0034 -0.0057 11.1330 0.0019 3.2469
# 5 10.8242 10.4557 5.2589 0.0019 30.5966 -0.0008
# 6 -0.0001 0.0022 0.0023 3.2469 -0.0008 25.2194
#
#
#
# Elastic Compliance Matrix: (Units=1/GPa)
#
#
# Indices 1 2 3 4 5 6 
#
# 1 0.009087 -0.001693 -0.002789 -0.000001 -0.002157 0.000000
# 2 -0.001693 0.012027 -0.004430 0.000002 -0.002750 -0.000001
# 3 -0.002789 -0.004430 0.010471 0.000004 0.000701 -0.000001
# 4 -0.000001 0.000002 0.000004 0.093327 -0.000007 -0.012016
# 5 -0.002157 -0.002750 0.000701 -0.000007 0.034266 0.000002
# 6 0.000000 -0.000001 -0.000001 -0.012016 0.000002 0.041199
#
#
# Mechanical properties :
#
#
# Convention : Reuss Voigt Hill
#
# Bulk Modulus (GPa) = 72.66191 76.42231 74.54211
# Shear Modulus (GPa) = 22.44285 28.77424 25.60855
#
# Velocity S-wave (km/s) = 3.40703 3.85780 3.63940
# Velocity P-wave (km/s) = 7.28419 7.70523 7.49767
#
# Compressibility (1/GPa) = 0.01376237
#
# Stress axis : x y z
#
# Youngs Moduli (GPa) = 110.04562 83.14706 95.49771
#
# Poissons Ratio (x) = 0.14078 0.26630
# Poissons Ratio (y) = 0.18632 0.42305
# Poissons Ratio (z) = 0.30687 0.36834
#
# Static dielectric constant tensor:
#      x y z
#    x 3.738620 0.000000 -0.019870 
#    y 0.000000 3.591540 0.000000 
#    z -0.019870 0.000000 3.478580 
# 
# 
# High freq. dielectric constant tensor:
#      x y z
#    x 1.755880 0.000000 -0.004680 
#    y 0.000000 1.753380 0.000000 
#    z -0.004680 0.000000 1.746630 
# 
# From -- ./inp_files/26896.got.cif
#   From: 2010.03.12/outbox.cif.g09.slc.cpg/sg8_14_cif.got.tgz:26896.got - 2010.03.31 10:45:26.
