data_PCOD8053348
_publ_section_title
;
Structure prediction by ZEFSAII (Michael W. Deem and Ramdas Pophale) SiO2 
 PCOD8053348
Probable space group: C M
;
_chemical_formula_sum "Si O2"
_cell_formula_units_Z 32
_cell_length_a 11.391812
_cell_length_b 23.862413
_cell_length_c 6.731883
_cell_angle_alpha 90.000000
_cell_angle_beta 107.993159
_cell_angle_gamma 90.000000
_cell_volume 1740.471423
_symmetry_space_group_name_H-M "C M"
_symmetry_group_IT_number 8
_symmetry_cell_setting 'monoclinic'
loop_
_space_group_symop_operation_xyz
x,y,z
x,-y,z
1/2+x,1/2+y,z
1/2+x,1/2-y,z
loop_
_atom_site_type_symbol
_atom_site_label
_atom_site_fract_x
_atom_site_fract_y
_atom_site_fract_z
Si Si1 0.701600 0.606696 0.158330
Si Si2 0.221705 0.063005 0.750869
Si Si3 0.058482 0.782591 0.075072
Si Si4 0.622416 0.190045 0.806449
Si Si5 0.508441 0.563460 0.363636
Si Si6 0.839294 0.834795 0.188412
Si Si7 0.370905 0.145525 0.572833
Si Si8 0.741640 0.238027 0.480727
O O1 0.639052 0.664057 0.051954
O O2 0.610288 0.571743 0.248248
O O3 0.829628 0.621098 0.337829
O O4 0.730959 0.566950 0.991168
O O5 0.081194 0.076986 0.606757
O O6 0.321555 0.105476 0.718570
O O7 0.255365 0.000000 0.700849
O O8 0.117784 0.752762 0.296937
O O9 0.922830 0.800507 0.075063
O O10 0.055194 0.742309 0.881672
O O11 0.518717 0.147765 0.669265
O O12 0.705825 0.208164 0.665643
O O13 0.707625 0.157687 0.011335
O O14 0.457254 0.500000 0.332334
O O15 0.393623 0.604650 0.272362
O O16 0.827597 0.801357 0.388912
O O17 0.315587 0.206757 0.577045
#
# Coordination Sequence:
#
# PCOD8053348 Si02
#       8
#     4   4   4   4   4   4   4   4
#     4   9  18  33  55  81 104 130 169 219 269 311
#     4  10  20  35  57  79  99 131 174 221 270 310
#     4   9  19  33  51  78 108 138 174 216 263 312
#     4  11  21  33  52  76 109 148 176 206 257 317
#     4   9  19  36  56  79 105 132 171 222 267 309
#     4  10  21  34  52  81 110 139 177 215 258 314
#     4  10  21  34  52  78 108 138 172 214 258 310
#     4  10  20  34  53  78 109 142 176 217 260 307
#
# _framework density 18.385824
#
# number of rings (size 3 to 8) (size 9 to 14) (size 15 to 20)
#    0.000    2.250    0.000    3.375    0.000    7.500 
#    0.000    0.625    0.000    0.750    0.000    0.000 
#    0.000    0.000    0.000    0.000    0.000    0.000 
#
# Total GULP energy -198393.637127 kJ/mol
# GULP energy per Si atom -12399.602320 kJ/mol
# Density = 1.834398 g / cm^3
# Si number density = 18.385824 Si / 1000 Ang^3
#
#
#
# Elastic Constant Matrix: (Units=GPa)
#
#
# Indices 1 2 3 4 5 6 
#
# 1 83.8218 48.6418 47.8406 0.0000 6.4255 0.0000
# 2 48.6418 98.6501 44.7841 0.0000 2.4182 0.0000
# 3 47.8406 44.7841 99.5992 0.0000 -1.9069 0.0000
# 4 0.0000 0.0000 0.0000 26.3633 0.0000 -0.4895
# 5 6.4255 2.4182 -1.9069 0.0000 28.0137 0.0000
# 6 0.0000 0.0000 0.0000 -0.4895 0.0000 20.2431
#
#
#
# Elastic Compliance Matrix: (Units=1/GPa)
#
#
# Indices 1 2 3 4 5 6 
#
# 1 0.019967 -0.006714 -0.006657 0.000000 -0.004453 0.000000
# 2 -0.006714 0.015057 -0.003545 0.000000 -0.000001 0.000000
# 3 -0.006657 -0.003545 0.014887 0.000000 0.002846 0.000000
# 4 0.000000 0.000000 0.000000 0.037949 0.000000 0.000918
# 5 -0.004453 -0.000001 0.002846 0.000000 0.036912 0.000000
# 6 0.000000 0.000000 0.000000 0.000918 0.000000 0.049422
#
#
# Mechanical properties :
#
#
# Convention : Reuss Voigt Hill
#
# Bulk Modulus (GPa) = 62.19857 62.73379 62.46618
# Shear Modulus (GPa) = 23.43183 24.31099 23.87141
#
# Velocity S-wave (km/s) = 3.57382 3.64025 3.60718
# Velocity P-wave (km/s) = 7.13671 7.20162 7.16924
#
# Compressibility (1/GPa) = 0.01607754
#
# Stress axis : x y z
#
# Youngs Moduli (GPa) = 50.08232 66.41525 67.17484
#
# Poissons Ratio (x) = 0.44591 0.44720
# Poissons Ratio (y) = 0.33625 0.23815
# Poissons Ratio (z) = 0.33341 0.23546
#
# Static dielectric constant tensor:
#      x y z
#    x 3.195050 0.000000 0.095360 
#    y 0.000000 3.277080 0.000000 
#    z 0.095360 0.000000 3.488800 
# 
# 
# High freq. dielectric constant tensor:
#      x y z
#    x 1.693270 0.000000 0.002910 
#    y 0.000000 1.701130 0.000000 
#    z 0.002910 0.000000 1.726580 
# 
# From -- ./inp_files/3127.got.cif
#   From: 2010.03.12/outbox.cif.g09.slc.cpg/sg8_2_cif.got.tgz:3127.got - 2010.03.31 10:45:26.
