data_PCOD8053638
_publ_section_title
;
Structure prediction by ZEFSAII (Michael W. Deem and Ramdas Pophale) SiO2 
 PCOD8053638
Probable space group: C M
;
_chemical_formula_sum "Si O2"
_cell_formula_units_Z 24
_cell_length_a 15.133120
_cell_length_b 8.331018
_cell_length_c 9.341663
_cell_angle_alpha 90.000000
_cell_angle_beta 91.350225
_cell_angle_gamma 90.000000
_cell_volume 1177.416563
_symmetry_space_group_name_H-M "C M"
_symmetry_group_IT_number 8
_symmetry_cell_setting 'monoclinic'
loop_
_space_group_symop_operation_xyz
x,y,z
x,-y,z
1/2+x,1/2+y,z
1/2+x,1/2-y,z
loop_
_atom_site_type_symbol
_atom_site_label
_atom_site_fract_x
_atom_site_fract_y
_atom_site_fract_z
Si Si1 0.701190 0.313451 0.971870
Si Si2 0.057065 0.185966 0.466029
Si Si3 0.708469 0.816098 0.660386
Si Si4 0.354224 0.810632 0.181577
Si Si5 0.552148 0.812971 0.156260
Si Si6 0.369512 0.190000 0.502446
O O1 0.716920 0.500000 0.937283
O O2 0.700460 0.212179 0.828183
O O3 0.778974 0.240549 0.075139
O O4 0.608788 0.292718 0.049664
O O5 0.139167 0.204358 0.575469
O O6 0.079661 0.277791 0.320363
O O7 0.970344 0.259832 0.537797
O O8 0.041963 0.000000 0.431339
O O9 0.807643 0.774056 0.616237
O O10 0.686697 0.000000 0.625493
O O11 0.450511 0.761318 0.126779
O O12 0.341790 0.747072 0.343203
O O13 0.345496 0.000000 0.187169
O O14 0.567336 0.000000 0.125233
O O15 0.360577 0.000000 0.516410
#
# Coordination Sequence:
#
# PCOD8053638 Si02
#       6
#     4   4   4   4   4   4
#     4  11  22  38  58  84 117 156 196 240 290 347
#     4  11  22  39  62  89 117 153 199 247 293 346
#     4  12  25  40  57  84 120 160 200 244 295 351
#     4   8  18  36  60  84 111 146 186 230 286 345
#     4  10  20  38  61  87 116 151 193 241 291 346
#     4  10  20  39  64  90 117 150 192 244 297 351
#
# _framework density 20.383610999999998
#
# number of rings (size 3 to 8) (size 9 to 14) (size 15 to 20)
#    0.000    1.667    0.000    6.500    0.000    2.667 
#    0.000   14.167    0.000    0.000    0.000    0.000 
#    0.000    0.000    0.000    0.000    0.000    0.000 
#
# Total GULP energy -148859.485571 kJ/mol
# GULP energy per Si atom -12404.957131 kJ/mol
# Density = 2.033722 g / cm^3
# Si number density = 20.383611 Si / 1000 Ang^3
#
#
#
# Elastic Constant Matrix: (Units=GPa)
#
#
# Indices 1 2 3 4 5 6 
#
# 1 105.5450 16.9957 55.4900 0.0000 -21.7129 0.0000
# 2 16.9957 67.5944 8.9431 0.0000 1.5500 0.0000
# 3 55.4900 8.9431 78.7146 0.0000 -18.1983 0.0000
# 4 0.0000 0.0000 0.0000 31.4500 0.0000 -3.6199
# 5 -21.7129 1.5500 -18.1983 0.0000 23.6487 0.0000
# 6 0.0000 0.0000 0.0000 -3.6199 0.0000 31.9511
#
#
#
# Elastic Compliance Matrix: (Units=1/GPa)
#
#
# Indices 1 2 3 4 5 6 
#
# 1 0.016651 -0.003119 -0.009491 0.000000 0.008189 0.000000
# 2 -0.003119 0.015757 -0.000599 0.000000 -0.004357 0.000000
# 3 -0.009491 -0.000599 0.021235 0.000000 0.007666 0.000000
# 4 0.000000 0.000000 0.000000 0.032217 0.000000 0.003650
# 5 0.008189 -0.004357 0.007666 0.000000 0.055990 0.000000
# 6 0.000000 0.000000 0.000000 0.003650 0.000000 0.031711
#
#
# Mechanical properties :
#
#
# Convention : Reuss Voigt Hill
#
# Bulk Modulus (GPa) = 36.72857 46.07908 41.40383
# Shear Modulus (GPa) = 23.91724 28.77162 26.34443
#
# Velocity S-wave (km/s) = 3.42915 3.76108 3.59894
# Velocity P-wave (km/s) = 5.80831 6.44329 6.13402
#
# Compressibility (1/GPa) = 0.02722676
#
# Stress axis : x y z
#
# Youngs Moduli (GPa) = 60.05546 63.46186 47.09191
#
# Poissons Ratio (x) = 0.19793 0.44693
# Poissons Ratio (y) = 0.18730 0.02821
# Poissons Ratio (z) = 0.56997 0.03801
#
# Static dielectric constant tensor:
#      x y z
#    x 3.840350 0.000000 0.044150 
#    y 0.000000 3.515110 0.000000 
#    z 0.044150 0.000000 3.659380 
# 
# 
# High freq. dielectric constant tensor:
#      x y z
#    x 1.807260 0.000000 -0.004670 
#    y 0.000000 1.792340 0.000000 
#    z -0.004670 0.000000 1.788240 
# 
# From -- ./inp_files/12074.got.cif
#   From: 2010.03.12/outbox.cif.g09.slc.cpg/sg8_7_cif.got.tgz:12074.got - 2010.03.31 10:45:26.
