data_PCOD8053965
_publ_section_title
;
Structure prediction by ZEFSAII (Michael W. Deem and Ramdas Pophale) SiO2 
 PCOD8053965
Probable space group: C M
;
_chemical_formula_sum "Si O2"
_cell_formula_units_Z 32
_cell_length_a 15.293272
_cell_length_b 8.852992
_cell_length_c 11.834051
_cell_angle_alpha 90.000000
_cell_angle_beta 88.379292
_cell_angle_gamma 90.000000
_cell_volume 1601.585582
_symmetry_space_group_name_H-M "C M"
_symmetry_group_IT_number 8
_symmetry_cell_setting 'monoclinic'
loop_
_space_group_symop_operation_xyz
x,y,z
x,-y,z
1/2+x,1/2+y,z
1/2+x,1/2-y,z
loop_
_atom_site_type_symbol
_atom_site_label
_atom_site_fract_x
_atom_site_fract_y
_atom_site_fract_z
Si Si1 0.110230 0.822512 0.209970
Si Si2 0.194016 0.178024 0.582204
Si Si3 0.090248 0.323576 0.971417
Si Si4 0.254403 0.325824 0.351113
Si Si5 0.007911 0.324900 0.590264
Si Si6 0.750183 0.176468 0.806108
Si Si7 0.450334 0.673922 0.373048
Si Si8 0.923278 0.325910 0.831050
O O1 0.197742 0.745380 0.253158
O O2 0.026204 0.771355 0.285741
O O3 0.123733 0.000000 0.215884
O O4 0.094828 0.774252 0.083047
O O5 0.236962 0.246257 0.469794
O O6 0.246454 0.234722 0.688835
O O7 0.093607 0.223855 0.593801
O O8 0.202118 0.000000 0.574250
O O9 0.094904 0.500000 0.001594
O O10 0.169851 0.276233 0.887953
O O11 0.001013 0.280363 0.911886
O O12 0.228372 0.500000 0.363821
O O13 0.356623 0.305542 0.315749
O O14 0.035433 0.500000 0.582998
O O15 0.951635 0.278216 0.483745
O O16 0.950455 0.292086 0.701899
O O17 0.839884 0.223206 0.865155
O O18 0.747874 0.000000 0.779766
O O19 0.464912 0.500000 0.408430
O O20 0.897770 0.500000 0.848076
#
# Coordination Sequence:
#
# PCOD8053965 Si02
#       8
#     4   4   4   4   4   4   4   4
#     4  11  24  42  63  90 122 159 208 260 306 358
#     4  12  23  37  61  93 128 162 201 250 305 364
#     4  10  23  44  64  85 121 164 207 255 306 363
#     4  11  23  41  65  92 124 164 204 247 307 367
#     4  11  21  37  63  92 125 163 199 243 305 371
#     4  11  23  41  64  92 124 162 206 251 306 366
#     4  10  23  41  61  90 126 159 199 251 302 363
#     4  10  22  41  63  92 126 159 202 253 305 364
#
# _framework density 19.980201000000001
#
# number of rings (size 3 to 8) (size 9 to 14) (size 15 to 20)
#    0.000    1.250    2.500    3.375    0.000    7.000 
#    0.000    3.750    0.000    0.000    0.000    0.000 
#    0.000    0.000    0.000    0.000    0.000    0.000 
#
# Total GULP energy -198498.226035 kJ/mol
# GULP energy per Si atom -12406.139127 kJ/mol
# Density = 1.993473 g / cm^3
# Si number density = 19.980201 Si / 1000 Ang^3
#
#
#
# Elastic Constant Matrix: (Units=GPa)
#
#
# Indices 1 2 3 4 5 6 
#
# 1 123.4175 38.3713 37.0704 0.0000 23.0584 0.0000
# 2 38.3713 89.3700 48.3789 0.0000 10.2959 0.0000
# 3 37.0704 48.3789 101.9755 0.0000 22.7860 0.0000
# 4 0.0000 0.0000 0.0000 34.6708 0.0000 2.5787
# 5 23.0584 10.2959 22.7860 0.0000 16.7575 0.0000
# 6 0.0000 0.0000 0.0000 2.5787 0.0000 33.1944
#
#
#
# Elastic Compliance Matrix: (Units=1/GPa)
#
#
# Indices 1 2 3 4 5 6 
#
# 1 0.011861 -0.003829 0.000899 0.000000 -0.015191 0.000000
# 2 -0.003829 0.016298 -0.007584 0.000000 0.005568 0.000000
# 3 0.000899 -0.007584 0.017686 0.000000 -0.020627 0.000000
# 4 0.000000 0.000000 0.000000 0.029010 0.000000 -0.002254
# 5 -0.015191 0.005568 -0.020627 0.000000 0.105204 0.000000
# 6 0.000000 0.000000 0.000000 -0.002254 0.000000 0.030301
#
#
# Mechanical properties :
#
#
# Convention : Reuss Voigt Hill
#
# Bulk Modulus (GPa) = 40.29497 62.48936 51.39216
# Shear Modulus (GPa) = 20.86282 29.65403 25.25842
#
# Velocity S-wave (km/s) = 3.23487 3.85667 3.55938
# Velocity P-wave (km/s) = 5.84498 7.15370 6.53220
#
# Compressibility (1/GPa) = 0.02481699
#
# Stress axis : x y z
#
# Youngs Moduli (GPa) = 84.30815 61.35887 56.54087
#
# Poissons Ratio (x) = 0.23497 -0.05085
# Poissons Ratio (y) = 0.32285 0.42881
# Poissons Ratio (z) = -0.07582 0.46535
#
# Static dielectric constant tensor:
#      x y z
#    x 3.856160 0.000000 0.024190 
#    y 0.000000 3.677830 0.000000 
#    z 0.024190 0.000000 3.569340 
# 
# 
# High freq. dielectric constant tensor:
#      x y z
#    x 1.796230 0.000000 0.004810 
#    y 0.000000 1.784110 0.000000 
#    z 0.004810 0.000000 1.774300 
# 
# From -- ./inp_files/21528.got.cif
#   From: 2010.03.12/outbox.cif.g09.slc.cpg/sg8_11_cif.got.tgz:21528.got - 2010.03.31 10:45:26.
