data_PCOD8053956
_publ_section_title
;
Structure prediction by ZEFSAII (Michael W. Deem and Ramdas Pophale) SiO2 
 PCOD8053956
Probable space group: C M
;
_chemical_formula_sum "Si O2"
_cell_formula_units_Z 28
_cell_length_a 14.709764
_cell_length_b 17.848016
_cell_length_c 4.985465
_cell_angle_alpha 90.000000
_cell_angle_beta 71.353788
_cell_angle_gamma 90.000000
_cell_volume 1240.182254
_symmetry_space_group_name_H-M "C M"
_symmetry_group_IT_number 8
_symmetry_cell_setting 'monoclinic'
loop_
_space_group_symop_operation_xyz
x,y,z
x,-y,z
1/2+x,1/2+y,z
1/2+x,1/2-y,z
loop_
_atom_site_type_symbol
_atom_site_label
_atom_site_fract_x
_atom_site_fract_y
_atom_site_fract_z
Si Si1 0.425220 0.824815 0.643740
Si Si2 0.579716 0.751214 0.844757
Si Si3 0.184256 0.850547 0.375453
Si Si4 0.262222 0.718951 0.956313
Si Si5 0.379636 0.915236 0.196201
Si Si6 0.004095 0.131143 0.238700
Si Si7 0.390005 0.415457 0.861873
O O1 0.526075 0.792370 0.653773
O O2 0.343322 0.761182 0.702390
O O3 0.441771 0.862387 0.336817
O O4 0.393572 0.890156 0.877818
O O5 0.623911 0.672666 0.693844
O O6 0.666940 0.801362 0.874068
O O7 0.505973 0.720289 0.146167
O O8 0.266905 0.908873 0.378370
O O9 0.112702 0.889470 0.227613
O O10 0.232790 0.773400 0.225560
O O11 0.303146 0.639959 0.029753
O O12 0.414327 0.000000 0.198077
O O13 0.932121 0.119371 0.551039
O O14 0.969104 0.081085 0.022578
O O15 0.352628 0.500000 0.846665
#
# Coordination Sequence:
#
# PCOD8053956 Si02
#       7
#     4   4   4   4   4   4   4
#     4  11  23  41  69  93 127 172 215 265 312 384
#     4  11  22  40  72  99 125 163 230 273 319 371
#     4  10  22  40  68 102 123 168 220 280 319 385
#     4  10  23  39  68  98 130 165 225 266 321 383
#     4  11  25  43  62  94 134 171 207 261 331 383
#     4  11  23  42  64  97 128 168 220 268 331 385
#     4  12  26  43  64  95 138 177 211 269 335 393
#
# _framework density 22.577325999999999
#
# number of rings (size 3 to 8) (size 9 to 14) (size 15 to 20)
#    0.000    1.143    4.286    0.857    8.000    1.143 
#    0.000    1.429    0.000    0.000    0.000    0.000 
#    0.000    0.000    0.000    0.000    0.000    0.000 
#
# Total GULP energy -173567.703416 kJ/mol
# GULP energy per Si atom -12397.693101 kJ/mol
# Density = 2.252594 g / cm^3
# Si number density = 22.577326 Si / 1000 Ang^3
#
#
#
# Elastic Constant Matrix: (Units=GPa)
#
#
# Indices 1 2 3 4 5 6 
#
# 1 110.5389 33.7896 7.9579 0.0000 15.3565 0.0000
# 2 33.7896 102.8212 9.5936 0.0000 -0.2747 0.0000
# 3 7.9579 9.5936 52.1683 0.0000 14.7103 0.0000
# 4 0.0000 0.0000 0.0000 14.2890 0.0000 5.1656
# 5 15.3565 -0.2747 14.7103 0.0000 32.9609 0.0000
# 6 0.0000 0.0000 0.0000 5.1656 0.0000 29.1342
#
#
#
# Elastic Compliance Matrix: (Units=1/GPa)
#
#
# Indices 1 2 3 4 5 6 
#
# 1 0.010858 -0.003630 0.000510 0.000000 -0.005317 0.000000
# 2 -0.003630 0.011139 -0.002285 0.000000 0.002804 0.000000
# 3 0.000510 -0.002285 0.022403 0.000000 -0.010255 0.000000
# 4 0.000000 0.000000 0.000000 0.074777 0.000000 -0.013258
# 5 -0.005317 0.002804 -0.010255 0.000000 0.037416 0.000000
# 6 0.000000 0.000000 0.000000 -0.013258 0.000000 0.036675
#
#
# Mechanical properties :
#
#
# Convention : Reuss Voigt Hill
#
# Bulk Modulus (GPa) = 29.77056 40.91229 35.34142
# Shear Modulus (GPa) = 23.22613 29.55598 26.39105
#
# Velocity S-wave (km/s) = 3.21087 3.62207 3.42265
# Velocity P-wave (km/s) = 5.19239 5.97100 5.59526
#
# Compressibility (1/GPa) = 0.03359024
#
# Stress axis : x y z
#
# Youngs Moduli (GPa) = 92.09692 89.77233 44.63711
#
# Poissons Ratio (x) = 0.32588 -0.02279
# Poissons Ratio (y) = 0.33432 0.10202
# Poissons Ratio (z) = -0.04701 0.20517
#
# Static dielectric constant tensor:
#      x y z
#    x 4.167270 0.000000 0.070500 
#    y 0.000000 3.771040 0.000000 
#    z 0.070500 0.000000 4.076870 
# 
# 
# High freq. dielectric constant tensor:
#      x y z
#    x 1.892080 0.000000 0.013750 
#    y 0.000000 1.854450 0.000000 
#    z 0.013750 0.000000 1.894350 
# 
# From -- ./inp_files/4050.got.cif
#   From: 2010.03.12/outbox.cif.g09.slc.cpg/sg8_3_cif.got.tgz:4050.got - 2010.03.31 10:45:26.
