data_PCOD8053643
_publ_section_title
;
Structure prediction by ZEFSAII (Michael W. Deem and Ramdas Pophale) SiO2 
 PCOD8053643
Probable space group: C M
;
_chemical_formula_sum "Si O2"
_cell_formula_units_Z 24
_cell_length_a 14.989431
_cell_length_b 8.393107
_cell_length_c 14.775634
_cell_angle_alpha 90.000000
_cell_angle_beta 40.197095
_cell_angle_gamma 90.000000
_cell_volume 1199.763794
_symmetry_space_group_name_H-M "C M"
_symmetry_group_IT_number 8
_symmetry_cell_setting 'monoclinic'
loop_
_space_group_symop_operation_xyz
x,y,z
x,-y,z
1/2+x,1/2+y,z
1/2+x,1/2-y,z
loop_
_atom_site_type_symbol
_atom_site_label
_atom_site_fract_x
_atom_site_fract_y
_atom_site_fract_z
Si Si1 0.511240 0.688517 0.079870
Si Si2 0.831659 0.314084 0.064500
Si Si3 0.796434 0.185761 0.589457
Si Si4 0.008460 0.182940 0.766165
Si Si5 0.523391 0.688503 0.274242
Si Si6 0.309852 0.815234 0.776551
O O1 0.490470 0.500000 0.085146
O O2 0.396230 0.781040 0.112101
O O3 0.492775 0.749110 0.196640
O O4 0.661842 0.741092 0.928458
O O5 0.839919 0.500000 0.033134
O O6 0.674046 0.253079 0.189330
O O7 0.911204 0.216464 0.926665
O O8 0.644834 0.209620 0.665658
O O9 0.817394 0.284104 0.664509
O O10 0.907865 0.254941 0.431938
O O11 0.819793 0.000000 0.591600
O O12 0.929648 0.218149 0.733988
O O13 0.054314 0.000000 0.733283
O O14 0.518223 0.500000 0.277882
O O15 0.332836 0.000000 0.779829
#
# Coordination Sequence:
#
# PCOD8053643 Si02
#       6
#     4   4   4   4   4   4
#     4  10  20  38  62  89 121 157 201 248 298 359
#     4  11  21  38  63  91 121 157 203 251 304 360
#     4  11  23  41  64  91 126 162 200 249 308 362
#     4  12  24  39  61  91 124 161 208 252 298 359
#     4   9  21  41  62  87 123 161 197 248 305 360
#     4  11  22  39  64  91 123 160 203 252 303 360
#
# _framework density 20.003937000000001
#
# number of rings (size 3 to 8) (size 9 to 14) (size 15 to 20)
#    0.000    1.333    3.333    3.000    0.000    2.000 
#    0.000    8.333    0.000    0.000    0.000    0.000 
#    0.000    0.000    0.000    0.000    0.000    0.000 
#
# Total GULP energy -148868.108285 kJ/mol
# GULP energy per Si atom -12405.675690 kJ/mol
# Density = 1.995841 g / cm^3
# Si number density = 20.003937 Si / 1000 Ang^3
#
#
#
# Elastic Constant Matrix: (Units=GPa)
#
#
# Indices 1 2 3 4 5 6 
#
# 1 141.9999 9.2452 61.2193 0.0000 0.2752 0.0000
# 2 9.2452 42.9530 9.7901 0.0000 0.5433 0.0000
# 3 61.2193 9.7901 156.6019 0.0000 5.6081 0.0000
# 4 0.0000 0.0000 0.0000 17.8244 0.0000 7.3846
# 5 0.2752 0.5433 5.6081 0.0000 34.7719 0.0000
# 6 0.0000 0.0000 0.0000 7.3846 0.0000 30.5036
#
#
#
# Elastic Compliance Matrix: (Units=1/GPa)
#
#
# Indices 1 2 3 4 5 6 
#
# 1 0.008528 -0.001093 -0.003282 0.000000 0.000479 0.000000
# 2 -0.001093 0.023759 -0.001051 0.000000 -0.000193 0.000000
# 3 -0.003282 -0.001051 0.007778 0.000000 -0.001212 0.000000
# 4 0.000000 0.000000 0.000000 0.062357 0.000000 -0.015096
# 5 0.000479 -0.000193 -0.001212 0.000000 0.028954 0.000000
# 6 0.000000 0.000000 0.000000 -0.015096 0.000000 0.036437
#
#
# Mechanical properties :
#
#
# Convention : Reuss Voigt Hill
#
# Bulk Modulus (GPa) = 34.23419 55.78488 45.00954
# Shear Modulus (GPa) = 26.53892 34.04001 30.28947
#
# Velocity S-wave (km/s) = 3.64632 4.12960 3.89546
# Velocity P-wave (km/s) = 5.90580 7.11938 6.54080
#
# Compressibility (1/GPa) = 0.02921056
#
# Stress axis : x y z
#
# Youngs Moduli (GPa) = 117.26545 42.09010 128.56914
#
# Poissons Ratio (x) = 0.04602 0.42202
# Poissons Ratio (y) = 0.12822 0.13512
# Poissons Ratio (z) = 0.38492 0.04423
#
# Static dielectric constant tensor:
#      x y z
#    x 3.818220 0.000000 -0.019460 
#    y 0.000000 3.457750 0.000000 
#    z -0.019460 0.000000 3.809330 
# 
# 
# High freq. dielectric constant tensor:
#      x y z
#    x 1.796420 0.000000 0.000640 
#    y 0.000000 1.768500 0.000000 
#    z 0.000640 0.000000 1.778610 
# 
# From -- ./inp_files/12077.got.cif
#   From: 2010.03.12/outbox.cif.g09.slc.cpg/sg8_7_cif.got.tgz:12077.got - 2010.03.31 10:45:26.
