data_PCOD8053147
_publ_section_title
;
Structure prediction by ZEFSAII (Michael W. Deem and Ramdas Pophale) SiO2 
 PCOD8053147
Probable space group: C M
;
_chemical_formula_sum "Si O2"
_cell_formula_units_Z 32
_cell_length_a 32.885233
_cell_length_b 9.080624
_cell_length_c 12.586419
_cell_angle_alpha 90.000000
_cell_angle_beta 26.172141
_cell_angle_gamma 90.000000
_cell_volume 1657.776024
_symmetry_space_group_name_H-M "C M"
_symmetry_group_IT_number 8
_symmetry_cell_setting 'monoclinic'
loop_
_space_group_symop_operation_xyz
x,y,z
x,-y,z
1/2+x,1/2+y,z
1/2+x,1/2-y,z
loop_
_atom_site_type_symbol
_atom_site_label
_atom_site_fract_x
_atom_site_fract_y
_atom_site_fract_z
Si Si1 0.255280 0.671216 0.252870
Si Si2 0.489867 0.828039 0.391646
Si Si3 0.381798 0.672889 0.466216
Si Si4 0.555321 0.170844 0.664395
Si Si5 0.743759 0.333367 0.499449
Si Si6 0.684835 0.171916 0.838625
Si Si7 0.434138 0.825795 0.756801
Si Si8 0.946484 0.333672 0.115921
O O1 0.279317 0.500000 0.210416
O O2 0.164004 0.695355 0.395675
O O3 0.234466 0.738560 0.415879
O O4 0.335269 0.751959 0.001946
O O5 0.413860 0.742603 0.501444
O O6 0.476353 0.780934 0.545003
O O7 0.472481 0.000000 0.414895
O O8 0.594272 0.784459 0.116959
O O9 0.395538 0.500000 0.440227
O O10 0.274955 0.715882 0.696205
O O11 0.446785 0.734259 0.220075
O O12 0.502812 0.238712 0.685940
O O13 0.529082 0.000000 0.731200
O O14 0.518933 0.236789 0.861987
O O15 0.710132 0.500000 0.557717
O O16 0.680784 0.261167 0.738202
O O17 0.848969 0.330926 0.287184
O O18 0.687960 0.000000 0.803038
O O19 0.421431 0.000000 0.796505
O O20 0.973199 0.500000 0.087705
#
# Coordination Sequence:
#
# PCOD8053147 Si02
#       8
#     4   4   4   4   4   4   4   4
#     4  11  22  35  57  88 116 147 187 237 289 337
#     4  10  22  39  62  83 109 155 199 232 275 344
#     4  10  21  36  56  86 119 146 183 239 290 331
#     4   9  19  36  58  82 110 151 192 228 277 343
#     4  10  19  34  58  85 116 152 187 232 284 338
#     4   9  20  38  57  83 115 151 191 233 281 336
#     4  10  21  42  62  80 111 153 199 236 276 336
#     4   9  17  34  58  81 112 153 190 225 274 341
#
# _framework density 19.302969000000001
#
# number of rings (size 3 to 8) (size 9 to 14) (size 15 to 20)
#    0.000    2.250    1.250    1.125    1.750    3.000 
#    0.000    4.375    0.000    0.000    0.000    0.000 
#    0.000    0.000    0.000    0.000    0.000    0.000 
#
# Total GULP energy -198422.303130 kJ/mol
# GULP energy per Si atom -12401.393946 kJ/mol
# Density = 1.925903 g / cm^3
# Si number density = 19.302969 Si / 1000 Ang^3
#
#
#
# Elastic Constant Matrix: (Units=GPa)
#
#
# Indices 1 2 3 4 5 6 
#
# 1 87.8616 45.1999 64.2302 0.0000 15.2101 0.0000
# 2 45.1999 58.1066 45.1852 0.0000 8.3252 0.0000
# 3 64.2302 45.1852 141.6067 0.0000 16.9977 0.0000
# 4 0.0000 0.0000 0.0000 26.8056 0.0000 -0.7498
# 5 15.2101 8.3252 16.9977 0.0000 26.6248 0.0000
# 6 0.0000 0.0000 0.0000 -0.7498 0.0000 27.8364
#
#
#
# Elastic Compliance Matrix: (Units=1/GPa)
#
#
# Indices 1 2 3 4 5 6 
#
# 1 0.023068 -0.012676 -0.005753 0.000000 -0.005542 0.000000
# 2 -0.012676 0.030036 -0.003873 0.000000 0.000323 0.000000
# 3 -0.005753 -0.003873 0.011228 0.000000 -0.002670 0.000000
# 4 0.000000 0.000000 0.000000 0.037334 0.000000 0.001006
# 5 -0.005542 0.000323 -0.002670 0.000000 0.042329 0.000000
# 6 0.000000 0.000000 0.000000 0.001006 0.000000 0.035951
#
#
# Mechanical properties :
#
#
# Convention : Reuss Voigt Hill
#
# Bulk Modulus (GPa) = 50.69324 66.31174 58.50249
# Shear Modulus (GPa) = 21.63326 25.11734 23.37530
#
# Velocity S-wave (km/s) = 3.35135 3.61115 3.48367
# Velocity P-wave (km/s) = 6.42606 7.19826 6.82309
#
# Compressibility (1/GPa) = 0.01972650
#
# Stress axis : x y z
#
# Youngs Moduli (GPa) = 43.35049 33.29344 89.06515
#
# Poissons Ratio (x) = 0.42203 0.51240
# Poissons Ratio (y) = 0.54952 0.34497
# Poissons Ratio (z) = 0.24940 0.12895
#
# Static dielectric constant tensor:
#      x y z
#    x 3.602120 0.000000 -0.014730 
#    y 0.000000 3.444600 0.000000 
#    z -0.014730 0.000000 3.613530 
# 
# 
# High freq. dielectric constant tensor:
#      x y z
#    x 1.752210 0.000000 -0.002760 
#    y 0.000000 1.736570 0.000000 
#    z -0.002760 0.000000 1.755020 
# 
# From -- ./inp_files/24777.got.cif
#   From: 2010.03.12/outbox.cif.g09.slc.cpg/sg8_13_cif.got.tgz:24777.got - 2010.03.31 10:45:26.
