data_PCOD8053941
_publ_section_title
;
Structure prediction by ZEFSAII (Michael W. Deem and Ramdas Pophale) SiO2 
 PCOD8053941
Probable space group: C M
;
_chemical_formula_sum "Si O2"
_cell_formula_units_Z 28
_cell_length_a 4.961763
_cell_length_b 22.975953
_cell_length_c 12.559360
_cell_angle_alpha 90.000000
_cell_angle_beta 103.880555
_cell_angle_gamma 90.000000
_cell_volume 1389.971553
_symmetry_space_group_name_H-M "C M"
_symmetry_group_IT_number 8
_symmetry_cell_setting 'monoclinic'
loop_
_space_group_symop_operation_xyz
x,y,z
x,-y,z
1/2+x,1/2+y,z
1/2+x,1/2-y,z
loop_
_atom_site_type_symbol
_atom_site_label
_atom_site_fract_x
_atom_site_fract_y
_atom_site_fract_z
Si Si1 0.423680 0.712014 0.070950
Si Si2 0.233376 0.500000 0.121985
Si Si3 0.848398 0.066319 0.574867
Si Si4 0.318920 0.000000 0.269820
Si Si5 0.540532 0.288095 0.320911
Si Si6 0.682708 0.097533 0.950731
Si Si7 0.279317 0.097061 0.440706
Si Si8 0.614216 0.566289 0.817151
O O1 0.712401 0.733646 0.048501
O O2 0.481528 0.689538 0.195858
O O3 0.303792 0.660142 0.990073
O O4 0.563981 0.500000 0.164429
O O5 0.098176 0.500000 0.226205
O O6 0.141226 0.557822 0.050992
O O7 0.071568 0.066502 0.502189
O O8 0.981359 0.091084 0.695948
O O9 0.580820 0.105445 0.522622
O O10 0.745267 0.000000 0.581134
O O11 0.315342 0.057993 0.339546
O O12 0.252703 0.266066 0.343580
O O13 0.658535 0.340293 0.401247
O O14 0.380625 0.105797 0.869250
O O15 0.889642 0.066576 0.889217
O O16 0.716200 0.500000 0.809756
#
# Coordination Sequence:
#
# PCOD8053941 Si02
#       8
#     4   2   4   2   4   4   4   4
#     4  10  22  40  62  87 117 162 209 242 286 356
#     4  12  24  36  55  90 127 154 184 238 312 364
#     4  11  22  39  62  90 122 158 204 247 299 367
#     4  12  24  36  55  90 127 154 184 238 312 364
#     4  10  22  40  62  87 117 162 209 242 286 356
#     4  12  22  40  62  89 124 158 198 251 304 356
#     4  12  22  40  62  89 124 158 198 251 304 356
#     4  11  22  39  62  90 122 158 204 247 299 367
#
# _framework density 20.144299
#
# number of rings (size 3 to 8) (size 9 to 14) (size 15 to 20)
#    0.000    0.857    2.857    5.143    0.000    5.714 
#    0.000    0.000    0.000   17.143    0.000    0.000 
#    0.000    0.000    0.000    0.000    0.000    0.000 
#
# Total GULP energy -173703.364393 kJ/mol
# GULP energy per Si atom -12407.383171 kJ/mol
# Density = 2.009845 g / cm^3
# Si number density = 20.144299 Si / 1000 Ang^3
#
#
#
# Elastic Constant Matrix: (Units=GPa)
#
#
# Indices 1 2 3 4 5 6 
#
# 1 103.3302 7.6176 35.7893 0.0000 16.7555 0.0000
# 2 7.6176 65.9024 45.9227 0.0000 8.5717 0.0000
# 3 35.7893 45.9227 110.2738 0.0000 26.3228 0.0000
# 4 0.0000 0.0000 0.0000 12.8946 0.0000 8.1597
# 5 16.7555 8.5717 26.3228 0.0000 38.7723 0.0000
# 6 0.0000 0.0000 0.0000 8.1597 0.0000 20.1935
#
#
#
# Elastic Compliance Matrix: (Units=1/GPa)
#
#
# Indices 1 2 3 4 5 6 
#
# 1 0.011276 0.001617 -0.003681 0.000000 -0.002731 0.000000
# 2 0.001617 0.021690 -0.009841 0.000000 0.001187 0.000000
# 3 -0.003681 -0.009841 0.016066 0.000000 -0.007141 0.000000
# 4 0.000000 0.000000 0.000000 0.104194 0.000000 -0.042102
# 5 -0.002731 0.001187 -0.007141 0.000000 0.031557 0.000000
# 6 0.000000 0.000000 0.000000 -0.042102 0.000000 0.066533
#
#
# Mechanical properties :
#
#
# Convention : Reuss Voigt Hill
#
# Bulk Modulus (GPa) = 39.64756 50.90729 45.27742
# Shear Modulus (GPa) = 17.63460 27.05056 22.34258
#
# Velocity S-wave (km/s) = 2.96195 3.66845 3.33397
# Velocity P-wave (km/s) = 5.60554 6.57796 6.11112
#
# Compressibility (1/GPa) = 0.02522223
#
# Stress axis : x y z
#
# Youngs Moduli (GPa) = 88.68064 46.10427 62.24458
#
# Poissons Ratio (x) = -0.07455 0.22913
# Poissons Ratio (y) = -0.14339 0.61253
# Poissons Ratio (z) = 0.32644 0.45370
#
# Static dielectric constant tensor:
#      x y z
#    x 3.809000 0.000000 0.153500 
#    y 0.000000 3.315170 0.000000 
#    z 0.153500 0.000000 3.754550 
# 
# 
# High freq. dielectric constant tensor:
#      x y z
#    x 1.807230 0.000000 0.010410 
#    y 0.000000 1.762610 0.000000 
#    z 0.010410 0.000000 1.787990 
# 
# From -- ./inp_files/18107.got.cif
#   From: 2010.03.12/outbox.cif.g09.slc.cpg/sg8_10_cif.got.tgz:18107.got - 2010.03.31 10:45:26.
