data_PCOD8053797
_publ_section_title
;
Structure prediction by ZEFSAII (Michael W. Deem and Ramdas Pophale) SiO2 
 PCOD8053797
Probable space group: C M
;
_chemical_formula_sum "Si O2"
_cell_formula_units_Z 32
_cell_length_a 22.345721
_cell_length_b 8.828700
_cell_length_c 11.070907
_cell_angle_alpha 90.000000
_cell_angle_beta 49.035386
_cell_angle_gamma 90.000000
_cell_volume 1649.252735
_symmetry_space_group_name_H-M "C M"
_symmetry_group_IT_number 8
_symmetry_cell_setting 'monoclinic'
loop_
_space_group_symop_operation_xyz
x,y,z
x,-y,z
1/2+x,1/2+y,z
1/2+x,1/2-y,z
loop_
_atom_site_type_symbol
_atom_site_label
_atom_site_fract_x
_atom_site_fract_y
_atom_site_fract_z
Si Si1 0.562550 0.178402 0.131190
Si Si2 0.978998 0.172710 0.597114
Si Si3 0.789116 0.679200 0.202212
Si Si4 0.139951 0.175483 0.253629
Si Si5 0.095696 0.823790 0.837467
Si Si6 0.265103 0.176918 0.503749
Si Si7 0.409573 0.322942 0.433982
Si Si8 0.956404 0.677512 0.873918
O O1 0.622043 0.231613 0.156751
O O2 0.474347 0.243600 0.263298
O O3 0.556092 0.000000 0.141514
O O4 0.597930 0.230771 0.957642
O O5 0.925498 0.215059 0.552724
O O6 0.954669 0.287317 0.734329
O O7 0.070962 0.196244 0.443373
O O8 0.963958 0.000000 0.658585
O O9 0.780135 0.500000 0.217209
O O10 0.720153 0.742279 0.205887
O O11 0.778137 0.742489 0.351927
O O12 0.873510 0.731412 0.040279
O O13 0.147477 0.000000 0.206177
O O14 0.175696 0.788924 0.659549
O O15 0.024380 0.773120 0.846976
O O16 0.086655 0.000000 0.879769
O O17 0.322507 0.264549 0.518848
O O18 0.285553 0.000000 0.483563
O O19 0.417340 0.500000 0.399434
O O20 0.970645 0.500000 0.876436
#
# Coordination Sequence:
#
# PCOD8053797 Si02
#       8
#     4   4   4   4   4   4   4   4
#     4  11  22  37  58  85 117 149 186 234 284 335
#     4   9  19  36  57  80 110 148 185 224 275 338
#     4   9  19  36  57  81 109 143 184 231 283 337
#     4   9  18  37  61  81 107 147 192 232 276 334
#     4  11  23  39  59  82 111 151 194 234 284 341
#     4  10  21  38  60  83 110 147 190 237 287 337
#     4  10  21  38  60  85 114 150 190 232 281 337
#     4  11  22  35  56  85 114 145 185 236 288 337
#
# _framework density 19.402726999999999
#
# number of rings (size 3 to 8) (size 9 to 14) (size 15 to 20)
#    0.000    2.000    0.000    4.500    0.000    7.500 
#    0.000    6.250    0.000    0.000    0.000    0.000 
#    0.000    0.000    0.000    0.000    0.000    0.000 
#
# Total GULP energy -198475.610485 kJ/mol
# GULP energy per Si atom -12404.725655 kJ/mol
# Density = 1.935857 g / cm^3
# Si number density = 19.402727 Si / 1000 Ang^3
#
#
#
# Elastic Constant Matrix: (Units=GPa)
#
#
# Indices 1 2 3 4 5 6 
#
# 1 143.1450 45.2302 67.4648 0.0000 -15.5255 0.0000
# 2 45.2302 80.2697 46.0290 0.0000 -1.9143 0.0000
# 3 67.4648 46.0290 119.5339 0.0000 4.2002 0.0000
# 4 0.0000 0.0000 0.0000 29.9541 0.0000 2.1276
# 5 -15.5255 -1.9143 4.2002 0.0000 32.2920 0.0000
# 6 0.0000 0.0000 0.0000 2.1276 0.0000 29.7272
#
#
#
# Elastic Compliance Matrix: (Units=1/GPa)
#
#
# Indices 1 2 3 4 5 6 
#
# 1 0.011074 -0.003080 -0.005269 0.000000 0.005827 0.000000
# 2 -0.003080 0.016945 -0.004792 0.000000 0.000147 0.000000
# 3 -0.005269 -0.004792 0.013345 0.000000 -0.004553 0.000000
# 4 0.000000 0.000000 0.000000 0.033555 0.000000 -0.002402
# 5 0.005827 0.000147 -0.004553 0.000000 0.034370 0.000000
# 6 0.000000 0.000000 0.000000 -0.002402 0.000000 0.033811
#
#
# Mechanical properties :
#
#
# Convention : Reuss Voigt Hill
#
# Bulk Modulus (GPa) = 66.30234 73.37742 69.83988
# Shear Modulus (GPa) = 28.66815 30.67628 29.67221
#
# Velocity S-wave (km/s) = 3.84804 3.98053 3.91484
# Velocity P-wave (km/s) = 7.34772 7.68286 7.51716
#
# Compressibility (1/GPa) = 0.01508242
#
# Stress axis : x y z
#
# Youngs Moduli (GPa) = 90.29764 59.01565 74.93433
#
# Poissons Ratio (x) = 0.18175 0.39485
# Poissons Ratio (y) = 0.27809 0.35908
# Poissons Ratio (z) = 0.47580 0.28280
#
# Static dielectric constant tensor:
#      x y z
#    x 3.684630 0.000000 0.018380 
#    y 0.000000 3.387600 0.000000 
#    z 0.018380 0.000000 3.557000 
# 
# 
# High freq. dielectric constant tensor:
#      x y z
#    x 1.768880 0.000000 0.002440 
#    y 0.000000 1.744230 0.000000 
#    z 0.002440 0.000000 1.757460 
# 
# From -- ./inp_files/23851.got.cif
#   From: 2010.03.12/outbox.cif.g09.slc.cpg/sg8_12_cif.got.tgz:23851.got - 2010.03.31 10:45:26.
