data_PCOD8053988
_publ_section_title
;
Structure prediction by ZEFSAII (Michael W. Deem and Ramdas Pophale) SiO2 
 PCOD8053988
Probable space group: C M
;
_chemical_formula_sum "Si O2"
_cell_formula_units_Z 20
_cell_length_a 7.209184
_cell_length_b 14.417525
_cell_length_c 7.709663
_cell_angle_alpha 90.000000
_cell_angle_beta 79.606831
_cell_angle_gamma 90.000000
_cell_volume 788.184049
_symmetry_space_group_name_H-M "C M"
_symmetry_group_IT_number 8
_symmetry_cell_setting 'monoclinic'
loop_
_space_group_symop_operation_xyz
x,y,z
x,-y,z
1/2+x,1/2+y,z
1/2+x,1/2-y,z
loop_
_atom_site_type_symbol
_atom_site_label
_atom_site_fract_x
_atom_site_fract_y
_atom_site_fract_z
Si Si1 0.809850 0.400293 0.477960
Si Si2 0.616433 0.776875 0.303085
Si Si3 0.973766 0.143897 0.770425
Si Si4 0.595331 0.833647 0.674211
Si Si5 0.956912 0.104969 0.149527
O O1 0.818559 0.500000 0.381685
O O2 0.599298 0.385813 0.585182
O O3 0.902467 0.322524 0.331542
O O4 0.943110 0.406276 0.628222
O O5 0.689517 0.779379 0.491331
O O6 0.754103 0.843534 0.169781
O O7 0.600219 0.669280 0.239438
O O8 0.759168 0.117206 0.755700
O O9 0.988086 0.254619 0.803572
O O10 0.030287 0.094201 0.939851
O O11 0.943852 0.000000 0.230926
#
# Coordination Sequence:
#
# PCOD8053988 Si02
#       5
#     4   4   4   4   4
#     4  10  23  42  71 106 138 188 249 295 356 436
#     4  10  24  46  72  99 147 190 237 304 352 429
#     4  12  21  42  73 104 141 187 241 295 364 428
#     4  10  22  42  72 101 136 192 236 300 350 419
#     4  12  26  46  72 108 148 193 237 298 378 436
#
# _framework density 25.374783999999998
#
# number of rings (size 3 to 8) (size 9 to 14) (size 15 to 20)
#    1.200    0.000    2.000    4.800    0.000    1.600 
#    0.000    8.000    0.000    0.000    0.000    0.000 
#    0.000    0.000    0.000    0.000    0.000    0.000 
#
# Total GULP energy -123886.282167 kJ/mol
# GULP energy per Si atom -12388.628217 kJ/mol
# Density = 2.531703 g / cm^3
# Si number density = 25.374784 Si / 1000 Ang^3
#
#
#
# Elastic Constant Matrix: (Units=GPa)
#
#
# Indices 1 2 3 4 5 6 
#
# 1 90.0967 13.0172 -5.2544 0.0000 3.9163 0.0000
# 2 13.0172 191.0425 19.1149 0.0000 -4.5375 0.0000
# 3 -5.2544 19.1149 69.4499 0.0000 4.9213 0.0000
# 4 0.0000 0.0000 0.0000 29.0910 0.0000 -0.7917
# 5 3.9163 -4.5375 4.9213 0.0000 36.5548 0.0000
# 6 0.0000 0.0000 0.0000 -0.7917 0.0000 21.7119
#
#
#
# Elastic Compliance Matrix: (Units=1/GPa)
#
#
# Indices 1 2 3 4 5 6 
#
# 1 0.011370 -0.000933 0.001223 0.000000 -0.001499 0.000000
# 2 -0.000933 0.005487 -0.001652 0.000000 0.001003 0.000000
# 3 0.001223 -0.001652 0.015114 0.000000 -0.002371 0.000000
# 4 0.000000 0.000000 0.000000 0.034409 0.000000 0.001255
# 5 -0.001499 0.001003 -0.002371 0.000000 0.027960 0.000000
# 6 0.000000 0.000000 0.000000 0.001255 0.000000 0.046103
#
#
# Mechanical properties :
#
#
# Convention : Reuss Voigt Hill
#
# Bulk Modulus (GPa) = 34.18959 44.92716 39.55837
# Shear Modulus (GPa) = 32.69749 39.05232 35.87490
#
# Velocity S-wave (km/s) = 3.59358 3.92729 3.76413
# Velocity P-wave (km/s) = 5.54270 6.18940 5.87495
#
# Compressibility (1/GPa) = 0.02924867
#
# Stress axis : x y z
#
# Youngs Moduli (GPa) = 87.94743 182.24538 66.16352
#
# Poissons Ratio (x) = 0.16999 -0.08093
# Poissons Ratio (y) = 0.08203 0.10930
# Poissons Ratio (z) = -0.10757 0.30105
#
# Static dielectric constant tensor:
#      x y z
#    x 4.446410 0.000000 -0.085810 
#    y 0.000000 4.465390 0.000000 
#    z -0.085810 0.000000 4.111650 
# 
# 
# High freq. dielectric constant tensor:
#      x y z
#    x 2.026160 0.000000 0.000470 
#    y 0.000000 2.009110 0.000000 
#    z 0.000470 0.000000 1.978830 
# 
# From -- ./inp_files/7758.got.cif
#   From: 2010.03.12/outbox.cif.g09.slc.cpg/sg8_4_cif.got.tgz:7758.got - 2010.03.31 10:45:26.
