data_PCOD8053771
_publ_section_title
;
Structure prediction by ZEFSAII (Michael W. Deem and Ramdas Pophale) SiO2 
 PCOD8053771
Probable space group: C M
;
_chemical_formula_sum "Si O2"
_cell_formula_units_Z 32
_cell_length_a 15.062541
_cell_length_b 9.244998
_cell_length_c 22.537100
_cell_angle_alpha 90.000000
_cell_angle_beta 31.686181
_cell_angle_gamma 90.000000
_cell_volume 1648.476430
_symmetry_space_group_name_H-M "C M"
_symmetry_group_IT_number 8
_symmetry_cell_setting 'monoclinic'
loop_
_space_group_symop_operation_xyz
x,y,z
x,-y,z
1/2+x,1/2+y,z
1/2+x,1/2-y,z
loop_
_atom_site_type_symbol
_atom_site_label
_atom_site_fract_x
_atom_site_fract_y
_atom_site_fract_z
Si Si1 0.905130 0.835984 0.603510
Si Si2 0.418159 0.332875 0.382565
Si Si3 0.774056 0.670436 0.362335
Si Si4 0.668835 0.836067 0.625761
Si Si5 0.284898 0.831806 0.221274
Si Si6 0.132348 0.832048 0.823192
Si Si7 0.072640 0.170956 0.992566
Si Si8 0.399153 0.329113 0.846674
O O1 0.809108 0.826187 0.596277
O O2 0.808718 0.746260 0.708785
O O3 0.090476 0.770238 0.486596
O O4 0.915614 0.000000 0.620238
O O5 0.406624 0.500000 0.372315
O O6 0.415054 0.241910 0.323828
O O7 0.258917 0.287285 0.513887
O O8 0.590064 0.298985 0.319012
O O9 0.778884 0.500000 0.367032
O O10 0.818109 0.713145 0.270186
O O11 0.514626 0.728168 0.726830
O O12 0.597909 0.000000 0.661666
O O13 0.329323 0.000000 0.184688
O O14 0.395276 0.729795 0.116772
O O15 0.077282 0.788902 0.920465
O O16 0.984937 0.786660 0.860802
O O17 0.170103 0.000000 0.795504
O O18 0.219657 0.250265 0.945732
O O19 0.086860 0.000000 0.994874
O O20 0.373732 0.500000 0.854608
#
# Coordination Sequence:
#
# PCOD8053771 Si02
#       8
#     4   4   4   4   4   4   4   4
#     4   9  17  33  58  85 116 152 189 230 282 344
#     4  10  21  37  59  86 116 153 194 236 287 344
#     4  10  21  37  58  86 117 151 191 238 289 342
#     4   9  17  34  58  84 119 156 188 233 288 340
#     4  10  22  43  62  80 115 158 197 237 286 343
#     4   9  21  39  57  82 117 152 187 235 290 339
#     4  11  24  41  61  85 115 153 197 242 289 341
#     4  10  21  38  59  86 117 153 193 235 287 345
#
# _framework density 19.411864000000001
#
# number of rings (size 3 to 8) (size 9 to 14) (size 15 to 20)
#    0.000    2.250    1.250    0.750    1.750    4.500 
#    0.000    3.750    0.000    0.000    0.000    0.000 
#    0.000    0.000    0.000    0.000    0.000    0.000 
#
# Total GULP energy -198440.189110 kJ/mol
# GULP energy per Si atom -12402.511819 kJ/mol
# Density = 1.936768 g / cm^3
# Si number density = 19.411864 Si / 1000 Ang^3
#
#
#
# Elastic Constant Matrix: (Units=GPa)
#
#
# Indices 1 2 3 4 5 6 
#
# 1 83.1080 37.9759 30.8126 -0.0003 19.5012 0.0001
# 2 37.9759 62.7696 44.7284 0.0003 11.3374 -0.0001
# 3 30.8126 44.7284 92.5438 -0.0010 18.2101 0.0003
# 4 -0.0003 0.0003 -0.0010 32.6063 0.0003 0.9316
# 5 19.5012 11.3374 18.2101 0.0003 26.9254 -0.0002
# 6 0.0001 -0.0001 0.0003 0.9316 -0.0002 30.8584
#
#
#
# Elastic Compliance Matrix: (Units=1/GPa)
#
#
# Indices 1 2 3 4 5 6 
#
# 1 0.018631 -0.009856 0.000460 0.000000 -0.009655 0.000000
# 2 -0.009856 0.029678 -0.011545 -0.000001 0.002450 0.000000
# 3 0.000460 -0.011545 0.017696 0.000001 -0.007441 0.000000
# 4 0.000000 -0.000001 0.000001 0.030695 -0.000001 -0.000927
# 5 -0.009655 0.002450 -0.007441 -0.000001 0.048133 0.000000
# 6 0.000000 0.000000 0.000000 -0.000927 0.000000 0.032434
#
#
# Mechanical properties :
#
#
# Convention : Reuss Voigt Hill
#
# Bulk Modulus (GPa) = 41.45084 51.71724 46.58404
# Shear Modulus (GPa) = 22.00797 26.40501 24.20649
#
# Velocity S-wave (km/s) = 3.37076 3.69216 3.53511
# Velocity P-wave (km/s) = 6.04558 6.69895 6.38063
#
# Compressibility (1/GPa) = 0.02412497
#
# Stress axis : x y z
#
# Youngs Moduli (GPa) = 53.67364 33.69484 56.50899
#
# Poissons Ratio (x) = 0.33209 -0.02601
# Poissons Ratio (y) = 0.52900 0.65237
# Poissons Ratio (z) = -0.02470 0.38899
#
# Static dielectric constant tensor:
#      x y z
#    x 3.565590 0.000000 0.028830 
#    y 0.000000 3.475230 0.000000 
#    z 0.028830 0.000000 3.521370 
# 
# 
# High freq. dielectric constant tensor:
#      x y z
#    x 1.761260 0.000000 0.000590 
#    y 0.000000 1.748590 0.000000 
#    z 0.000590 0.000000 1.752650 
# 
# From -- ./inp_files/24782.got.cif
#   From: 2010.03.12/outbox.cif.g09.slc.cpg/sg8_13_cif.got.tgz:24782.got - 2010.03.31 10:45:26.
