data_PCOD8053562
_publ_section_title
;
Structure prediction by ZEFSAII (Michael W. Deem and Ramdas Pophale) SiO2 
 PCOD8053562
Probable space group: C M
;
_chemical_formula_sum "Si O2"
_cell_formula_units_Z 28
_cell_length_a 9.119534
_cell_length_b 9.958408
_cell_length_c 19.992338
_cell_angle_alpha 90.000000
_cell_angle_beta 47.656475
_cell_angle_gamma 90.000000
_cell_volume 1341.964049
_symmetry_space_group_name_H-M "C M"
_symmetry_group_IT_number 8
_symmetry_cell_setting 'monoclinic'
loop_
_space_group_symop_operation_xyz
x,y,z
x,-y,z
1/2+x,1/2+y,z
1/2+x,1/2-y,z
loop_
_atom_site_type_symbol
_atom_site_label
_atom_site_fract_x
_atom_site_fract_y
_atom_site_fract_z
Si Si1 0.058080 0.352608 0.133990
Si Si2 0.178404 0.149622 0.863384
Si Si3 0.647814 0.228416 0.252566
Si Si4 0.335233 0.153085 0.559060
Si Si5 0.227479 0.352549 0.371709
Si Si6 0.316738 0.151928 0.970983
Si Si7 0.982853 0.349139 0.657406
O O1 0.119096 0.500000 0.087038
O O2 0.138688 0.350402 0.185366
O O3 0.819605 0.342226 0.199383
O O4 0.152708 0.229767 0.064547
O O5 0.249888 0.140649 0.916344
O O6 0.358138 0.194702 0.760599
O O7 0.017268 0.265109 0.910201
O O8 0.100550 0.000000 0.865686
O O9 0.429005 0.283756 0.333225
O O10 0.705039 0.136250 0.298152
O O11 0.536154 0.215908 0.465026
O O12 0.157911 0.246066 0.589317
O O13 0.339103 0.156824 0.637964
O O14 0.300436 0.000000 0.544332
O O15 0.239571 0.500000 0.398571
O O16 0.345741 0.000000 0.991168
O O17 0.068167 0.500000 0.640915
#
# Coordination Sequence:
#
# PCOD8053562 Si02
#       7
#     4   4   4   4   4   4   4
#     4  11  23  39  59  84 113 148 190 234 284 338
#     4  10  22  40  60  84 116 151 188 232 281 334
#     4  10  22  37  58  83 111 149 191 232 280 334
#     4  10  21  36  58  87 116 150 190 232 280 333
#     4  10  20  37  57  81 115 149 186 233 280 329
#     4  11  24  39  59  86 114 148 189 233 283 338
#     4  10  21  38  59  85 117 151 188 232 280 332
#
# _framework density 20.864941000000002
#
# number of rings (size 3 to 8) (size 9 to 14) (size 15 to 20)
#    0.000    1.714    0.000    3.857    0.000    8.000 
#    0.000    3.571    0.000    0.000    0.000    0.000 
#    0.000    0.000    0.000    0.000    0.000    0.000 
#
# Total GULP energy -173540.516731 kJ/mol
# GULP energy per Si atom -12395.751195 kJ/mol
# Density = 2.081745 g / cm^3
# Si number density = 20.864941 Si / 1000 Ang^3
#
#
#
# Elastic Constant Matrix: (Units=GPa)
#
#
# Indices 1 2 3 4 5 6 
#
# 1 78.8175 34.0844 15.6673 0.0000 -11.2578 0.0000
# 2 34.0844 134.0979 41.4063 0.0000 -24.5123 0.0000
# 3 15.6673 41.4063 100.7366 0.0000 -8.3115 0.0000
# 4 0.0000 0.0000 0.0000 32.0320 0.0000 -3.4154
# 5 -11.2578 -24.5123 -8.3115 0.0000 38.0150 0.0000
# 6 0.0000 0.0000 0.0000 -3.4154 0.0000 20.1590
#
#
#
# Elastic Compliance Matrix: (Units=1/GPa)
#
#
# Indices 1 2 3 4 5 6 
#
# 1 0.014469 -0.003029 -0.000828 0.000000 0.002151 0.000000
# 2 -0.003029 0.010144 -0.003292 0.000000 0.004924 0.000000
# 3 -0.000828 -0.003292 0.011419 0.000000 0.000129 0.000000
# 4 0.000000 0.000000 0.000000 0.031793 0.000000 0.005386
# 5 0.002151 0.004924 0.000129 0.000000 0.030145 0.000000
# 6 0.000000 0.000000 0.000000 0.005386 0.000000 0.050518
#
#
# Mechanical properties :
#
#
# Convention : Reuss Voigt Hill
#
# Bulk Modulus (GPa) = 46.00976 55.10755 50.55866
# Shear Modulus (GPa) = 29.40629 32.87415 31.14022
#
# Velocity S-wave (km/s) = 3.75822 3.97365 3.86744
# Velocity P-wave (km/s) = 6.39777 6.89363 6.65032
#
# Compressibility (1/GPa) = 0.02173452
#
# Stress axis : x y z
#
# Youngs Moduli (GPa) = 69.11246 98.58328 87.57003
#
# Poissons Ratio (x) = 0.29860 0.07250
# Poissons Ratio (y) = 0.20934 0.28829
# Poissons Ratio (z) = 0.05722 0.32454
#
# Static dielectric constant tensor:
#      x y z
#    x 3.671470 0.000000 0.045880 
#    y 0.000000 3.955180 0.000000 
#    z 0.045880 0.000000 3.902900 
# 
# 
# High freq. dielectric constant tensor:
#      x y z
#    x 1.814240 0.000000 0.004340 
#    y 0.000000 1.813640 0.000000 
#    z 0.004340 0.000000 1.828720 
# 
# From -- ./inp_files/25175.got.cif
#   From: 2010.03.12/outbox.cif.g09.slc.cpg/sg8_13_cif.got.tgz:25175.got - 2010.03.31 10:45:26.
