data_PCOD8053758
_publ_section_title
;
Structure prediction by ZEFSAII (Michael W. Deem and Ramdas Pophale) SiO2 
 PCOD8053758
Probable space group: C M
;
_chemical_formula_sum "Si O2"
_cell_formula_units_Z 32
_cell_length_a 20.136521
_cell_length_b 9.020543
_cell_length_c 24.961214
_cell_angle_alpha 90.000000
_cell_angle_beta 156.514807
_cell_angle_gamma 90.000000
_cell_volume 1806.859118
_symmetry_space_group_name_H-M "C M"
_symmetry_group_IT_number 8
_symmetry_cell_setting 'monoclinic'
loop_
_space_group_symop_operation_xyz
x,y,z
x,-y,z
1/2+x,1/2+y,z
1/2+x,1/2-y,z
loop_
_atom_site_type_symbol
_atom_site_label
_atom_site_fract_x
_atom_site_fract_y
_atom_site_fract_z
Si Si1 0.770510 0.175004 0.635520
Si Si2 0.258890 0.824996 0.277934
Si Si3 0.592467 0.326037 0.816457
Si Si4 0.436825 0.326010 0.096866
Si Si5 0.585409 0.674622 0.321224
Si Si6 0.943674 0.174597 0.591937
Si Si7 0.474361 0.824547 0.341145
Si Si8 0.055044 0.675453 0.572313
O O1 0.637301 0.232999 0.493490
O O2 0.717128 0.219288 0.656440
O O3 0.954268 0.234217 0.756701
O O4 0.765919 0.000000 0.626561
O O5 0.312279 0.780724 0.257019
O O6 0.392116 0.767021 0.419970
O O7 0.075161 0.765720 0.156778
O O8 0.263424 0.000000 0.286850
O O9 0.617529 0.500000 0.841209
O O10 0.532399 0.283454 0.712879
O O11 0.764628 0.249896 0.956579
O O12 0.412037 0.500000 0.072353
O O13 0.496515 0.283264 0.200194
O O14 0.609896 0.500000 0.345276
O O15 0.764600 0.749908 0.456593
O O16 0.465001 0.736845 0.278590
O O17 0.064316 0.236802 0.634799
O O18 0.918983 0.000000 0.567689
O O19 0.480650 0.000000 0.334542
O O20 0.048805 0.500000 0.578959
#
# Coordination Sequence:
#
# PCOD8053758 Si02
#       8
#     4   4   4   4   4   4   4   4
#     4   8  15  31  54  77 104 138 174 213 260 310
#     4   8  15  31  54  77 104 138 174 213 260 310
#     4  10  21  37  54  76 106 142 178 214 259 314
#     4  10  21  37  54  76 106 142 178 214 259 314
#     4  11  21  34  54  80 109 137 174 221 264 310
#     4  11  21  34  54  80 109 137 174 221 264 310
#     4   9  16  31  56  80 103 134 173 221 265 304
#     4   9  16  31  56  80 103 134 173 221 265 304
#
# _framework density 17.710290000000001
#
# number of rings (size 3 to 8) (size 9 to 14) (size 15 to 20)
#    0.000    2.500    2.500    2.250    0.000    2.000 
#    0.000    5.000    0.000    7.500    0.000    0.000 
#    0.000    0.000    0.000    0.000    0.000    0.000 
#
# Total GULP energy -198330.214344 kJ/mol
# GULP energy per Si atom -12395.638396 kJ/mol
# Density = 1.766998 g / cm^3
# Si number density = 17.710290 Si / 1000 Ang^3
#
#
#
# Elastic Constant Matrix: (Units=GPa)
#
#
# Indices 1 2 3 4 5 6 
#
# 1 174.5166 53.8880 84.0919 -0.0003 20.0563 0.0003
# 2 53.8880 49.6610 45.5072 -0.0205 -3.7057 -0.0003
# 3 84.0919 45.5072 130.6854 -0.0374 16.4237 -0.0007
# 4 -0.0003 -0.0205 -0.0374 27.8712 0.0006 -0.4422
# 5 20.0563 -3.7057 16.4237 0.0006 28.0448 0.0017
# 6 0.0003 -0.0003 -0.0007 -0.4422 0.0017 31.6561
#
#
#
# Elastic Compliance Matrix: (Units=1/GPa)
#
#
# Indices 1 2 3 4 5 6 
#
# 1 0.010982 -0.010133 -0.002572 -0.000011 -0.007686 0.000000
# 2 -0.010133 0.042250 -0.010583 0.000016 0.019027 -0.000001
# 3 -0.002572 -0.010583 0.013964 0.000011 -0.007737 0.000001
# 4 -0.000011 0.000016 0.000011 0.035887 0.000002 0.000501
# 5 -0.007686 0.019027 -0.007737 0.000002 0.048199 -0.000002
# 6 0.000000 -0.000001 0.000001 0.000501 -0.000002 0.031596
#
#
# Mechanical properties :
#
#
# Convention : Reuss Voigt Hill
#
# Bulk Modulus (GPa) = 48.49696 80.20412 64.35054
# Shear Modulus (GPa) = 21.15697 28.93949 25.04823
#
# Velocity S-wave (km/s) = 3.46007 4.04672 3.76484
# Velocity P-wave (km/s) = 6.58830 8.19876 7.43725
#
# Compressibility (1/GPa) = 0.02061985
#
# Stress axis : x y z
#
# Youngs Moduli (GPa) = 91.06030 23.66864 71.61095
#
# Poissons Ratio (x) = 0.23984 0.18417
# Poissons Ratio (y) = 0.92275 0.75786
# Poissons Ratio (z) = 0.23419 0.25048
#
# Static dielectric constant tensor:
#      x y z
#    x 3.855850 -0.000020 0.255290 
#    y -0.000020 3.033700 0.000000 
#    z 0.255290 0.000000 3.265120 
# 
# 
# High freq. dielectric constant tensor:
#      x y z
#    x 1.705740 0.000000 0.014110 
#    y 0.000000 1.658670 0.000000 
#    z 0.014110 0.000000 1.659900 
# 
# From -- ./inp_files/29733.got.cif
#   From: 2010.03.12/outbox.cif.g09.slc.cpg/sg8_15_cif.got.tgz:29733.got - 2010.03.31 10:45:26.
