data_PCOD8053776
_publ_section_title
;
Structure prediction by ZEFSAII (Michael W. Deem and Ramdas Pophale) SiO2 
 PCOD8053776
Probable space group: C M
;
_chemical_formula_sum "Si O2"
_cell_formula_units_Z 32
_cell_length_a 12.035383
_cell_length_b 20.493984
_cell_length_c 11.065662
_cell_angle_alpha 90.000000
_cell_angle_beta 144.355981
_cell_angle_gamma 90.000000
_cell_volume 1590.538245
_symmetry_space_group_name_H-M "C M"
_symmetry_group_IT_number 8
_symmetry_cell_setting 'monoclinic'
loop_
_space_group_symop_operation_xyz
x,y,z
x,-y,z
1/2+x,1/2+y,z
1/2+x,1/2-y,z
loop_
_atom_site_type_symbol
_atom_site_label
_atom_site_fract_x
_atom_site_fract_y
_atom_site_fract_z
Si Si1 0.751200 0.152533 0.819610
Si Si2 0.688231 0.808148 0.297136
Si Si3 0.194660 0.150551 0.622510
Si Si4 0.549344 0.206552 0.425949
Si Si5 0.328834 0.572392 0.291580
Si Si6 0.623633 0.697988 0.068953
Si Si7 0.095384 0.785100 0.763520
Si Si8 0.546271 0.073785 0.826690
O O1 0.692547 0.161624 0.627857
O O2 0.699196 0.215709 0.853083
O O3 0.640937 0.091643 0.780753
O O4 0.983517 0.147670 0.017065
O O5 0.541074 0.808875 0.277144
O O6 0.722142 0.882897 0.293788
O O7 0.593202 0.770577 0.099070
O O8 0.886968 0.775996 0.518472
O O9 0.109480 0.217740 0.492857
O O10 0.213379 0.162156 0.785091
O O11 0.389771 0.126791 0.732285
O O12 0.045466 0.093816 0.461845
O O13 0.342823 0.184197 0.291070
O O14 0.325911 0.500000 0.343466
O O15 0.224787 0.576044 0.072429
O O16 0.574664 0.694254 0.883866
O O17 0.461356 0.000000 0.744437
#
# Coordination Sequence:
#
# PCOD8053776 Si02
#       8
#     4   4   4   4   4   4   4   4
#     4  11  23  37  61  87 126 159 204 255 312 370
#     4  11  21  38  58  92 126 159 202 250 313 375
#     4  10  22  39  64  91 126 159 203 265 310 368
#     4  11  23  36  59  98 122 153 206 249 321 380
#     4  10  22  39  60  88 120 163 209 251 302 368
#     4  12  22  36  60  91 124 164 187 260 322 362
#     4  10  21  37  59  94 124 153 200 256 319 374
#     4  11  25  42  63  89 123 172 219 254 303 375
#
# _framework density 20.118977000000001
#
# number of rings (size 3 to 8) (size 9 to 14) (size 15 to 20)
#    0.000    1.250    5.000    2.625    8.750    0.000 
#    0.000    0.625    0.000    0.750    0.000    0.000 
#    0.000    0.000    0.000    0.000    0.000    0.000 
#
# Total GULP energy -198267.808372 kJ/mol
# GULP energy per Si atom -12391.738023 kJ/mol
# Density = 2.007319 g / cm^3
# Si number density = 20.118977 Si / 1000 Ang^3
#
#
#
# Elastic Constant Matrix: (Units=GPa)
#
#
# Indices 1 2 3 4 5 6 
#
# 1 137.7747 46.5389 39.0498 0.0000 2.9040 0.0000
# 2 46.5389 72.9773 39.0186 0.0000 0.1999 0.0000
# 3 39.0498 39.0186 56.2905 0.0000 1.9619 0.0000
# 4 0.0000 0.0000 0.0000 20.6022 0.0000 3.0341
# 5 2.9040 0.1999 1.9619 0.0000 35.7523 0.0000
# 6 0.0000 0.0000 0.0000 3.0341 0.0000 24.4937
#
#
#
# Elastic Compliance Matrix: (Units=1/GPa)
#
#
# Indices 1 2 3 4 5 6 
#
# 1 0.009774 -0.004157 -0.003879 0.000000 -0.000558 0.000000
# 2 -0.004157 0.023558 -0.013479 0.000000 0.000946 0.000000
# 3 -0.003879 -0.013479 0.029842 0.000000 -0.001247 0.000000
# 4 0.000000 0.000000 0.000000 0.049440 0.000000 -0.006124
# 5 -0.000558 0.000946 -0.001247 0.000000 0.028079 0.000000
# 6 0.000000 0.000000 0.000000 -0.006124 0.000000 0.041585
#
#
# Mechanical properties :
#
#
# Convention : Reuss Voigt Hill
#
# Bulk Modulus (GPa) = 49.64217 57.36191 53.50204
# Shear Modulus (GPa) = 21.54956 25.66532 23.60744
#
# Velocity S-wave (km/s) = 3.27633 3.57554 3.42920
# Velocity P-wave (km/s) = 6.24822 6.75420 6.50613
#
# Compressibility (1/GPa) = 0.02014416
#
# Stress axis : x y z
#
# Youngs Moduli (GPa) = 102.31498 42.44826 33.50949
#
# Poissons Ratio (x) = 0.17647 0.12999
# Poissons Ratio (y) = 0.42536 0.45166
# Poissons Ratio (z) = 0.39689 0.57214
#
# Static dielectric constant tensor:
#      x y z
#    x 3.997530 0.000000 0.076630 
#    y 0.000000 3.428470 0.000000 
#    z 0.076630 0.000000 3.762420 
# 
# 
# High freq. dielectric constant tensor:
#      x y z
#    x 1.801230 0.000000 0.009310 
#    y 0.000000 1.736430 0.000000 
#    z 0.009310 0.000000 1.795440 
# 
# From -- ./inp_files/20858.got.cif
#   From: 2010.03.12/outbox.cif.g09.slc.cpg/sg8_11_cif.got.tgz:20858.got - 2010.03.31 10:45:26.
