data_PCOD8053712
_publ_section_title
;
Structure prediction by ZEFSAII (Michael W. Deem and Ramdas Pophale) SiO2 
 PCOD8053712
Probable space group: C M
;
_chemical_formula_sum "Si O2"
_cell_formula_units_Z 20
_cell_length_a 11.155353
_cell_length_b 9.652762
_cell_length_c 18.741361
_cell_angle_alpha 90.000000
_cell_angle_beta 154.420473
_cell_angle_gamma 90.000000
_cell_volume 871.328551
_symmetry_space_group_name_H-M "C M"
_symmetry_group_IT_number 8
_symmetry_cell_setting 'monoclinic'
loop_
_space_group_symop_operation_xyz
x,y,z
x,-y,z
1/2+x,1/2+y,z
1/2+x,1/2-y,z
loop_
_atom_site_type_symbol
_atom_site_label
_atom_site_fract_x
_atom_site_fract_y
_atom_site_fract_z
Si Si1 0.400511 0.500000 0.436031
Si Si2 0.296708 0.000000 0.931588
Si Si3 0.232691 0.758793 0.004374
Si Si4 0.693417 0.000000 0.613148
Si Si5 0.014530 0.500000 0.811138
Si Si6 0.223816 0.792427 0.362376
Si Si7 0.388861 0.500000 0.264744
Si Si8 0.413910 0.500000 0.891881
O O1 0.274934 0.632607 0.408845
O O2 0.300171 0.500000 0.299773
O O3 0.728685 0.500000 0.615558
O O4 0.990717 0.000000 0.728443
O O5 0.305285 0.142800 0.978241
O O6 0.606373 0.000000 0.061695
O O7 0.517004 0.690739 0.184601
O O8 0.030811 0.635949 0.869678
O O9 0.091059 0.856625 0.988947
O O10 0.515840 0.135946 0.498105
O O11 0.747116 0.000000 0.727359
O O12 0.241936 0.500000 0.871493
O O13 0.078199 0.865745 0.351540
#
# Coordination Sequence:
#
# PCOD8053712 Si02
#       8
#     2   2   4   2   2   4   2   2
#     4  12  23  43  66  95 127 168 211 265 312 373
#     4  10  20  44  64  89 128 169 209 252 313 381
#     4  10  22  42  63  94 131 164 212 261 310 376
#     4   9  20  41  67  89 133 167 202 264 321 363
#     4  12  24  38  69  96 127 167 212 259 321 369
#     4  11  22  42  67  94 130 166 208 267 313 371
#     4  11  24  41  71  91 125 173 214 249 325 377
#     4  10  23  43  61  92 130 174 206 259 312 381
#
# _framework density 22.953455999999999
#
# number of rings (size 3 to 8) (size 9 to 14) (size 15 to 20)
#    0.000    1.600    2.000    5.400    2.800    0.000 
#    0.000    2.000    4.400    2.400    0.000    0.000 
#    0.000    0.000    0.000    0.000    0.000    0.000 
#
# Total GULP energy -123901.333830 kJ/mol
# GULP energy per Si atom -12390.133383 kJ/mol
# Density = 2.290121 g / cm^3
# Si number density = 22.953456 Si / 1000 Ang^3
#
#
#
# Elastic Constant Matrix: (Units=GPa)
#
#
# Indices 1 2 3 4 5 6 
#
# 1 56.8392 43.1001 19.5527 -0.0020 25.7054 -0.0020
# 2 43.1001 181.2807 47.3404 0.0098 14.0081 0.0001
# 3 19.5527 47.3404 157.9589 0.0203 24.2739 -0.0102
# 4 -0.0020 0.0098 0.0203 45.3267 -0.0080 3.8174
# 5 25.7054 14.0081 24.2739 -0.0080 39.8720 -0.0080
# 6 -0.0020 0.0001 -0.0102 3.8174 -0.0080 15.9000
#
#
#
# Elastic Compliance Matrix: (Units=1/GPa)
#
#
# Indices 1 2 3 4 5 6 
#
# 1 0.029771 -0.005926 0.000795 0.000000 -0.017595 -0.000004
# 2 -0.005926 0.007210 -0.001793 -0.000001 0.002379 -0.000001
# 3 0.000795 -0.001793 0.007448 -0.000004 -0.004417 0.000004
# 4 0.000000 -0.000001 -0.000004 0.022517 0.000006 -0.005406
# 5 -0.017595 0.002379 -0.004417 0.000006 0.038277 0.000013
# 6 -0.000004 -0.000001 0.000004 -0.005406 0.000013 0.064191
#
#
# Mechanical properties :
#
#
# Convention : Reuss Voigt Hill
#
# Bulk Modulus (GPa) = 32.69997 68.45169 50.57583
# Shear Modulus (GPa) = 25.84556 39.29210 32.56883
#
# Velocity S-wave (km/s) = 3.35923 4.14190 3.77093
# Velocity P-wave (km/s) = 5.41508 7.26364 6.40638
#
# Compressibility (1/GPa) = 0.03058107
#
# Stress axis : x y z
#
# Youngs Moduli (GPa) = 33.58953 138.70400 134.25582
#
# Poissons Ratio (x) = 0.82198 -0.10671
# Poissons Ratio (y) = 0.19906 0.24069
# Poissons Ratio (z) = -0.02670 0.24866
#
# Static dielectric constant tensor:
#      x y z
#    x 3.584530 0.000000 0.317130 
#    y 0.000000 4.534200 -0.000010 
#    z 0.317130 -0.000010 4.580570 
# 
# 
# High freq. dielectric constant tensor:
#      x y z
#    x 1.853710 0.000000 0.022050 
#    y 0.000000 1.927830 0.000000 
#    z 0.022050 0.000000 1.925870 
# 
# From -- ./inp_files/31923.got.cif
#   From: 2010.03.12/outbox.cif.g09.slc.cpg/sg8_16_cif.got.tgz:31923.got - 2010.03.31 10:45:26.
