data_PCOD8053027
_publ_section_title
;
Structure prediction by ZEFSAII (Michael W. Deem and Ramdas Pophale) SiO2 
 PCOD8053027
Probable space group: C M
;
_chemical_formula_sum "Si O2"
_cell_formula_units_Z 32
_cell_length_a 14.230405
_cell_length_b 8.958233
_cell_length_c 25.638483
_cell_angle_alpha 90.000000
_cell_angle_beta 33.500328
_cell_angle_gamma 90.000000
_cell_volume 1803.952894
_symmetry_space_group_name_H-M "C M"
_symmetry_group_IT_number 8
_symmetry_cell_setting 'monoclinic'
loop_
_space_group_symop_operation_xyz
x,y,z
x,-y,z
1/2+x,1/2+y,z
1/2+x,1/2-y,z
loop_
_atom_site_type_symbol
_atom_site_label
_atom_site_fract_x
_atom_site_fract_y
_atom_site_fract_z
Si Si1 0.185570 0.821680 0.146010
Si Si2 0.034936 0.176282 0.003248
Si Si3 0.284320 0.822180 0.505410
Si Si4 0.101497 0.677016 0.291629
Si Si5 0.415067 0.324876 0.652029
Si Si6 0.220700 0.827912 0.649243
Si Si7 0.832796 0.828660 0.806387
Si Si8 0.973229 0.824983 0.147237
O O1 0.094633 0.759074 0.239559
O O2 0.077184 0.756462 0.147417
O O3 0.189673 0.000000 0.146393
O O4 0.375801 0.759969 0.050804
O O5 0.205959 0.218861 0.894522
O O6 0.002303 0.000000 0.014751
O O7 0.051188 0.228795 0.055958
O O8 0.444611 0.762562 0.398602
O O9 0.295475 0.764840 0.559973
O O10 0.109290 0.763295 0.560192
O O11 0.279828 0.000000 0.509045
O O12 0.091813 0.500000 0.286395
O O13 0.274400 0.720867 0.242051
O O14 0.418029 0.500000 0.642896
O O15 0.303465 0.257293 0.658398
O O16 0.331534 0.284193 0.746190
O O17 0.018587 0.803717 0.744639
O O18 0.267855 0.000000 0.633455
O O19 0.775063 0.000000 0.840466
O O20 0.991845 0.000000 0.142872
#
# Coordination Sequence:
#
# PCOD8053027 Si02
#       8
#     4   4   4   4   4   4   4   4
#     4  10  19  33  51  73 101 129 159 200 250 294
#     4  10  20  35  53  73  96 127 167 203 240 291
#     4   8  16  32  52  71  98 135 166 198 245 294
#     4   9  17  33  53  72  97 131 169 203 239 288
#     4   9  18  33  51  72 100 133 165 199 245 294
#     4   9  18  33  52  74  99 130 168 204 240 287
#     4   9  19  35  51  70 100 133 162 198 248 296
#     4   8  17  32  49  69  95 126 158 195 241 292
#
# _framework density 17.738821999999999
#
# number of rings (size 3 to 8) (size 9 to 14) (size 15 to 20)
#    0.000    3.000    0.000    3.000    0.000    3.000 
#    0.000   14.375    0.000    0.000    0.000    0.000 
#    0.000    0.000    0.000    0.000    0.000    0.000 
#
# Total GULP energy -198349.031841 kJ/mol
# GULP energy per Si atom -12396.814490 kJ/mol
# Density = 1.769845 g / cm^3
# Si number density = 17.738822 Si / 1000 Ang^3
#
#
#
# Elastic Constant Matrix: (Units=GPa)
#
#
# Indices 1 2 3 4 5 6 
#
# 1 136.0785 18.5514 60.9189 0.0000 7.6630 0.0001
# 2 18.5514 28.8895 34.6391 0.0000 6.9827 0.0001
# 3 60.9189 34.6391 136.3336 0.0000 4.4115 0.0000
# 4 0.0000 0.0000 0.0000 26.5438 0.0000 1.4563
# 5 7.6630 6.9827 4.4115 0.0000 10.1876 0.0000
# 6 0.0001 0.0001 0.0000 1.4563 0.0000 29.0821
#
#
#
# Elastic Compliance Matrix: (Units=1/GPa)
#
#
# Indices 1 2 3 4 5 6 
#
# 1 0.009467 0.000141 -0.004090 0.000000 -0.005447 0.000000
# 2 0.000141 0.059998 -0.014172 0.000000 -0.035093 0.000000
# 3 -0.004090 -0.014172 0.012525 0.000000 0.007366 0.000000
# 4 0.000000 0.000000 0.000000 0.037777 0.000000 -0.001892
# 5 -0.005447 -0.035093 0.007366 0.000000 0.123119 0.000000
# 6 0.000000 0.000000 0.000000 -0.001892 0.000000 0.034480
#
#
# Mechanical properties :
#
#
# Convention : Reuss Voigt Hill
#
# Bulk Modulus (GPa) = 21.85827 58.83558 40.34693
# Shear Modulus (GPa) = 15.20417 25.64219 20.42318
#
# Velocity S-wave (km/s) = 2.93082 3.80615 3.39680
# Velocity P-wave (km/s) = 4.87873 7.24951 6.17889
#
# Compressibility (1/GPa) = 0.04574927
#
# Stress axis : x y z
#
# Youngs Moduli (GPa) = 105.62880 16.66715 79.84195
#
# Poissons Ratio (x) = -0.00235 0.32654
# Poissons Ratio (y) = -0.01489 1.13149
# Poissons Ratio (z) = 0.43200 0.23620
#
# Static dielectric constant tensor:
#      x y z
#    x 3.605620 0.000000 -0.033090 
#    y 0.000000 3.006120 0.000000 
#    z -0.033090 0.000000 3.410540 
# 
# 
# High freq. dielectric constant tensor:
#      x y z
#    x 1.691790 0.000000 -0.000250 
#    y 0.000000 1.662020 0.000000 
#    z -0.000250 0.000000 1.690730 
# 
# From -- ./inp_files/26411.got.cif
#   From: 2010.03.12/outbox.cif.g09.slc.cpg/sg8_14_cif.got.tgz:26411.got - 2010.03.31 10:45:26.
