data_PCOD8053361
_publ_section_title
;
Structure prediction by ZEFSAII (Michael W. Deem and Ramdas Pophale) SiO2 
 PCOD8053361
Probable space group: C M
;
_chemical_formula_sum "Si O2"
_cell_formula_units_Z 28
_cell_length_a 9.019267
_cell_length_b 12.902371
_cell_length_c 16.964856
_cell_angle_alpha 90.000000
_cell_angle_beta 45.439178
_cell_angle_gamma 90.000000
_cell_volume 1406.628698
_symmetry_space_group_name_H-M "C M"
_symmetry_group_IT_number 8
_symmetry_cell_setting 'monoclinic'
loop_
_space_group_symop_operation_xyz
x,y,z
x,-y,z
1/2+x,1/2+y,z
1/2+x,1/2-y,z
loop_
_atom_site_type_symbol
_atom_site_label
_atom_site_fract_x
_atom_site_fract_y
_atom_site_fract_z
Si Si1 0.319120 0.801662 0.976980
Si Si2 0.195930 0.110968 0.174234
Si Si3 0.588458 0.885525 0.120160
Si Si4 0.266048 0.749937 0.826482
Si Si5 0.881598 0.730496 0.336604
Si Si6 0.490664 0.120733 0.449907
Si Si7 0.174634 0.119424 0.710022
O O1 0.242715 0.815193 0.916142
O O2 0.565608 0.824005 0.889660
O O3 0.177814 0.873635 0.086083
O O4 0.285561 0.684954 0.024580
O O5 0.441748 0.114832 0.098318
O O6 0.079973 0.194520 0.270788
O O7 0.097950 0.000000 0.232258
O O8 0.436463 0.849033 0.246944
O O9 0.673459 0.000000 0.108243
O O10 0.275447 0.830020 0.750412
O O11 0.469507 0.678335 0.756213
O O12 0.686228 0.803878 0.390568
O O13 0.857583 0.664339 0.425525
O O14 0.347237 0.128258 0.579078
O O15 0.557201 0.000000 0.410430
O O16 0.117365 0.000000 0.748635
#
# Coordination Sequence:
#
# PCOD8053361 Si02
#       7
#     4   4   4   4   4   4   4
#     4  10  20  35  57  86 117 152 194 239 291 348
#     4  10  20  34  54  85 120 155 193 236 286 349
#     4  10  20  35  57  86 119 158 197 235 285 353
#     4  10  21  39  61  85 116 153 198 247 296 348
#     4  11  21  39  59  88 122 155 196 242 291 351
#     4  11  23  40  63  89 117 156 199 246 301 351
#     4  10  23  42  63  87 117 153 199 251 302 350
#
# _framework density 19.905752
#
# number of rings (size 3 to 8) (size 9 to 14) (size 15 to 20)
#    0.000    1.714    2.857    1.714    0.000    3.429 
#    0.000    3.571    0.000    8.571    0.000    0.000 
#    0.000    0.000    0.000    0.000    0.000    0.000 
#
# Total GULP energy -173496.014229 kJ/mol
# GULP energy per Si atom -12392.572445 kJ/mol
# Density = 1.986045 g / cm^3
# Si number density = 19.905752 Si / 1000 Ang^3
#
#
#
# Elastic Constant Matrix: (Units=GPa)
#
#
# Indices 1 2 3 4 5 6 
#
# 1 92.9777 39.2169 30.0545 0.0002 11.1942 0.0002
# 2 39.2169 125.2595 37.6522 -0.0001 6.8127 0.0000
# 3 30.0545 37.6522 88.3136 0.0036 18.6835 -0.0011
# 4 0.0002 -0.0001 0.0036 18.8306 -0.0015 -0.9536
# 5 11.1942 6.8127 18.6835 -0.0015 36.9443 0.0002
# 6 0.0002 0.0000 -0.0011 -0.9536 0.0002 28.2981
#
#
#
# Elastic Compliance Matrix: (Units=1/GPa)
#
#
# Indices 1 2 3 4 5 6 
#
# 1 0.013232 -0.003221 -0.002696 0.000000 -0.002052 0.000000
# 2 -0.003221 0.009944 -0.003317 0.000001 0.000820 0.000000
# 3 -0.002696 -0.003317 0.014952 -0.000003 -0.006133 0.000001
# 4 0.000000 0.000001 -0.000003 0.053196 0.000004 0.001793
# 5 -0.002052 0.000820 -0.006133 0.000004 0.030640 0.000000
# 6 0.000000 0.000000 0.000001 0.001793 0.000000 0.035399
#
#
# Mechanical properties :
#
#
# Convention : Reuss Voigt Hill
#
# Bulk Modulus (GPa) = 50.86038 57.82201 54.34119
# Shear Modulus (GPa) = 27.41458 30.12309 28.76883
#
# Velocity S-wave (km/s) = 3.71512 3.89432 3.80577
# Velocity P-wave (km/s) = 6.63392 7.02367 6.83157
#
# Compressibility (1/GPa) = 0.01966167
#
# Stress axis : x y z
#
# Youngs Moduli (GPa) = 75.57293 100.55982 66.87862
#
# Poissons Ratio (x) = 0.32389 0.18029
# Poissons Ratio (y) = 0.24341 0.22184
# Poissons Ratio (z) = 0.20373 0.33356
#
# Static dielectric constant tensor:
#      x y z
#    x 3.556830 0.000000 0.118680 
#    y 0.000000 3.683630 0.000000 
#    z 0.118680 0.000000 3.600070 
# 
# 
# High freq. dielectric constant tensor:
#      x y z
#    x 1.775920 0.000000 0.008380 
#    y 0.000000 1.772520 0.000000 
#    z 0.008380 0.000000 1.780500 
# 
# From -- ./inp_files/18758.got.cif
#   From: 2010.03.12/outbox.cif.g09.slc.cpg/sg8_10_cif.got.tgz:18758.got - 2010.03.31 10:45:26.
