data_PCOD8053141
_publ_section_title
;
Structure prediction by ZEFSAII (Michael W. Deem and Ramdas Pophale) SiO2 
 PCOD8053141
Probable space group: C M
;
_chemical_formula_sum "Si O2"
_cell_formula_units_Z 32
_cell_length_a 20.523337
_cell_length_b 8.620055
_cell_length_c 25.174833
_cell_angle_alpha 90.000000
_cell_angle_beta 22.203467
_cell_angle_gamma 90.000000
_cell_volume 1683.053180
_symmetry_space_group_name_H-M "C M"
_symmetry_group_IT_number 8
_symmetry_cell_setting 'monoclinic'
loop_
_space_group_symop_operation_xyz
x,y,z
x,-y,z
1/2+x,1/2+y,z
1/2+x,1/2-y,z
loop_
_atom_site_type_symbol
_atom_site_label
_atom_site_fract_x
_atom_site_fract_y
_atom_site_fract_z
Si Si1 0.737640 0.821361 0.723940
Si Si2 0.438058 0.179295 0.413335
Si Si3 0.597125 0.321850 0.727051
Si Si4 0.178992 0.820155 0.151572
Si Si5 0.481434 0.320146 0.990928
Si Si6 0.209649 0.322005 0.014378
Si Si7 0.081494 0.819887 0.409281
Si Si8 0.934231 0.820643 0.147621
O O1 0.624918 0.787993 0.756558
O O2 0.668610 0.718710 0.824902
O O3 0.937439 0.779083 0.562228
O O4 0.714996 0.000000 0.756287
O O5 0.236986 0.217567 0.575889
O O6 0.500572 0.280809 0.316393
O O7 0.551736 0.218445 0.379222
O O8 0.468105 0.000000 0.377006
O O9 0.619807 0.500000 0.728875
O O10 0.407160 0.292726 0.847267
O O11 0.188351 0.717948 0.091973
O O12 0.182743 0.000000 0.133392
O O13 0.337871 0.781609 0.070048
O O14 0.436984 0.500000 0.016359
O O15 0.487862 0.273504 0.047642
O O16 0.156825 0.500000 0.045483
O O17 0.091902 0.213991 0.067286
O O18 0.268091 0.777628 0.291890
O O19 0.069525 0.000000 0.402658
O O20 0.886352 0.000000 0.187927
#
# Coordination Sequence:
#
# PCOD8053141 Si02
#       8
#     4   4   4   4   4   4   4   4
#     4  10  20  33  56  88 117 147 189 242 289 337
#     4  10  19  34  57  86 116 149 191 241 289 341
#     4   9  19  35  57  83 114 152 191 232 288 347
#     4  12  23  36  58  88 118 151 195 242 286 341
#     4  11  22  37  58  85 116 152 196 241 288 341
#     4  11  23  40  61  85 117 155 193 238 292 352
#     4  10  20  35  56  85 117 152 193 238 290 344
#     4  11  24  40  59  84 117 156 196 240 290 349
#
# _framework density 19.013065999999998
#
# number of rings (size 3 to 8) (size 9 to 14) (size 15 to 20)
#    0.000    1.500    2.500    3.375    0.000    4.000 
#    0.000    1.250    0.000    4.500    0.000    0.000 
#    0.000    0.000    0.000    0.000    0.000    0.000 
#
# Total GULP energy -198471.223007 kJ/mol
# GULP energy per Si atom -12404.451438 kJ/mol
# Density = 1.896979 g / cm^3
# Si number density = 19.013066 Si / 1000 Ang^3
#
#
#
# Elastic Constant Matrix: (Units=GPa)
#
#
# Indices 1 2 3 4 5 6 
#
# 1 69.9076 9.1870 42.3309 0.0064 -2.1252 -0.0031
# 2 9.1870 54.7969 28.0863 -0.0066 2.3587 0.0053
# 3 42.3309 28.0863 131.6172 -0.0047 3.1909 -0.0011
# 4 0.0064 -0.0066 -0.0047 31.3495 -0.0028 1.2255
# 5 -2.1252 2.3587 3.1909 -0.0028 26.7561 -0.0023
# 6 -0.0031 0.0053 -0.0011 1.2255 -0.0023 28.2392
#
#
#
# Elastic Compliance Matrix: (Units=1/GPa)
#
#
# Indices 1 2 3 4 5 6 
#
# 1 0.017883 -0.000129 -0.005775 -0.000004 0.002121 0.000002
# 2 -0.000129 0.020536 -0.004309 0.000004 -0.001307 -0.000004
# 3 -0.005775 -0.004309 0.010407 0.000002 -0.001320 0.000000
# 4 -0.000004 0.000004 0.000002 0.031953 0.000002 -0.001387
# 5 0.002121 -0.001307 -0.001320 0.000002 0.037816 0.000003
# 6 0.000002 -0.000004 0.000000 -0.001387 0.000003 0.035472
#
#
# Mechanical properties :
#
#
# Convention : Reuss Voigt Hill
#
# Bulk Modulus (GPa) = 35.21327 46.17000 40.69163
# Shear Modulus (GPa) = 27.17991 29.05014 28.11503
#
# Velocity S-wave (km/s) = 3.78503 3.91308 3.84959
# Velocity P-wave (km/s) = 6.13699 6.68972 6.41931
#
# Compressibility (1/GPa) = 0.02839839
#
# Stress axis : x y z
#
# Youngs Moduli (GPa) = 55.91832 48.69574 96.09106
#
# Poissons Ratio (x) = 0.00630 0.55497
# Poissons Ratio (y) = 0.00723 0.41405
# Poissons Ratio (z) = 0.32295 0.20983
#
# Static dielectric constant tensor:
#      x y z
#    x 3.176290 0.000000 0.185840 
#    y 0.000000 3.508010 0.000040 
#    z 0.185840 0.000040 3.813990 
# 
# 
# High freq. dielectric constant tensor:
#      x y z
#    x 1.701130 0.000000 0.012380 
#    y 0.000000 1.749620 0.000000 
#    z 0.012380 0.000000 1.756470 
# 
# From -- ./inp_files/33049.got.cif
#   From: 2010.03.12/outbox.cif.g09.slc.cpg/sg8_17_cif.got.tgz:33049.got - 2010.03.31 10:45:26.
