data_PCOD8053697
_publ_section_title
;
Structure prediction by ZEFSAII (Michael W. Deem and Ramdas Pophale) SiO2 
 PCOD8053697
Probable space group: C M
;
_chemical_formula_sum "Si O2"
_cell_formula_units_Z 24
_cell_length_a 9.414361
_cell_length_b 17.631327
_cell_length_c 9.239510
_cell_angle_alpha 90.000000
_cell_angle_beta 133.593004
_cell_angle_gamma 90.000000
_cell_volume 1110.751545
_symmetry_space_group_name_H-M "C M"
_symmetry_group_IT_number 8
_symmetry_cell_setting 'monoclinic'
loop_
_space_group_symop_operation_xyz
x,y,z
x,-y,z
1/2+x,1/2+y,z
1/2+x,1/2-y,z
loop_
_atom_site_type_symbol
_atom_site_label
_atom_site_fract_x
_atom_site_fract_y
_atom_site_fract_z
Si Si1 0.600450 0.584940 0.463030
Si Si2 0.514948 0.910958 0.852286
Si Si3 0.499099 0.911821 0.167651
Si Si4 0.137274 0.170412 0.994279
Si Si5 0.878072 0.085735 0.596548
Si Si6 0.872970 0.819552 0.077866
O O1 0.575981 0.500000 0.377371
O O2 0.827091 0.611287 0.623361
O O3 0.541941 0.581021 0.588810
O O4 0.468370 0.646416 0.289867
O O5 0.538079 0.000000 0.876656
O O6 0.500635 0.876499 0.005996
O O7 0.704366 0.876841 0.904511
O O8 0.676647 0.879466 0.389999
O O9 0.538714 0.000000 0.178967
O O10 0.293039 0.898566 0.105087
O O11 0.952737 0.146468 0.766273
O O12 0.267177 0.239936 0.028561
O O13 0.049987 0.188805 0.089427
O O14 0.849147 0.000000 0.640744
#
# Coordination Sequence:
#
# PCOD8053697 Si02
#       6
#     4   4   4   4   4   4
#     4  10  21  41  73 101 126 168 219 269 324 390
#     4  10  20  40  70  99 129 169 216 267 325 388
#     4  10  20  40  70  99 129 169 216 267 325 388
#     4  12  27  44  62  95 135 179 219 268 324 386
#     4  10  21  41  73 101 126 168 219 269 324 390
#     4  12  27  44  62  95 135 179 219 268 324 386
#
# _framework density 21.606991000000001
#
# number of rings (size 3 to 8) (size 9 to 14) (size 15 to 20)
#    0.000    1.333    3.333    2.000    0.000    5.333 
#    0.000    3.333    0.000    0.000    0.000    0.000 
#    0.000    0.000    0.000    0.000    0.000    0.000 
#
# Total GULP energy -148770.464693 kJ/mol
# GULP energy per Si atom -12397.538724 kJ/mol
# Density = 2.155781 g / cm^3
# Si number density = 21.606991 Si / 1000 Ang^3
#
#
#
# Elastic Constant Matrix: (Units=GPa)
#
#
# Indices 1 2 3 4 5 6 
#
# 1 96.5015 7.7534 7.4180 0.0000 11.5963 0.0000
# 2 7.7534 52.8284 43.7441 0.0000 -1.7864 0.0000
# 3 7.4180 43.7441 96.3491 0.0000 18.5766 0.0000
# 4 0.0000 0.0000 0.0000 26.2424 0.0000 6.1911
# 5 11.5963 -1.7864 18.5766 0.0000 34.3806 0.0000
# 6 0.0000 0.0000 0.0000 6.1911 0.0000 31.9544
#
#
#
# Elastic Compliance Matrix: (Units=1/GPa)
#
#
# Indices 1 2 3 4 5 6 
#
# 1 0.011045 -0.002898 0.001353 0.000000 -0.004607 0.000000
# 2 -0.002898 0.034571 -0.017869 0.000000 0.012429 0.000000
# 3 0.001353 -0.017869 0.020824 0.000000 -0.012637 0.000000
# 4 0.000000 0.000000 0.000000 0.039932 0.000000 -0.007737
# 5 -0.004607 0.012429 -0.012637 0.000000 0.038114 0.000000
# 6 0.000000 0.000000 0.000000 -0.007737 0.000000 0.032793
#
#
# Mechanical properties :
#
#
# Convention : Reuss Voigt Hill
#
# Bulk Modulus (GPa) = 36.21391 40.39001 38.30196
# Shear Modulus (GPa) = 22.19168 30.96638 26.57903
#
# Velocity S-wave (km/s) = 3.20826 3.78982 3.51110
# Velocity P-wave (km/s) = 5.52454 6.15499 5.84827
#
# Compressibility (1/GPa) = 0.02761370
#
# Stress axis : x y z
#
# Youngs Moduli (GPa) = 90.53926 28.92593 48.02156
#
# Poissons Ratio (x) = 0.08381 -0.06500
# Poissons Ratio (y) = 0.26234 0.85810
# Poissons Ratio (z) = -0.12254 0.51688
#
# Static dielectric constant tensor:
#      x y z
#    x 4.035560 0.000000 0.329270 
#    y 0.000000 3.789580 0.000000 
#    z 0.329270 0.000000 3.971790 
# 
# 
# High freq. dielectric constant tensor:
#      x y z
#    x 1.840550 0.000000 0.027530 
#    y 0.000000 1.837920 0.000000 
#    z 0.027530 0.000000 1.850070 
# 
# From -- ./inp_files/8652.got.cif
#   From: 2010.03.12/outbox.cif.g09.slc.cpg/sg8_5_cif.got.tgz:8652.got - 2010.03.31 10:45:26.
