data_PCOD8053296
_publ_section_title
;
Structure prediction by ZEFSAII (Michael W. Deem and Ramdas Pophale) SiO2 
 PCOD8053296
Probable space group: C M
;
_chemical_formula_sum "Si O2"
_cell_formula_units_Z 24
_cell_length_a 14.026933
_cell_length_b 13.724697
_cell_length_c 9.266830
_cell_angle_alpha 90.000000
_cell_angle_beta 43.135780
_cell_angle_gamma 90.000000
_cell_volume 1219.778777
_symmetry_space_group_name_H-M "C M"
_symmetry_group_IT_number 8
_symmetry_cell_setting 'monoclinic'
loop_
_space_group_symop_operation_xyz
x,y,z
x,-y,z
1/2+x,1/2+y,z
1/2+x,1/2-y,z
loop_
_atom_site_type_symbol
_atom_site_label
_atom_site_fract_x
_atom_site_fract_y
_atom_site_fract_z
Si Si1 0.332901 0.500000 0.716910
Si Si2 0.517136 0.000000 0.162566
Si Si3 0.922536 0.283815 0.217874
Si Si4 0.284930 0.000000 0.640197
Si Si5 0.891280 0.205468 0.551986
Si Si6 0.615124 0.500000 0.543053
Si Si7 0.696331 0.678562 0.264764
Si Si8 0.205844 0.825832 0.930610
O O1 0.363629 0.589481 0.573020
O O2 0.447309 0.500000 0.719269
O O3 0.184923 0.500000 0.964201
O O4 0.466699 0.897714 0.146589
O O5 0.444818 0.000000 0.401900
O O6 0.845730 0.263222 0.456571
O O7 0.818400 0.255513 0.201122
O O8 0.047310 0.205740 0.075112
O O9 0.259828 0.092176 0.765957
O O10 0.166805 0.000000 0.648663
O O11 0.800411 0.232930 0.791313
O O12 0.051074 0.236177 0.408730
O O13 0.681073 0.591702 0.392534
O O14 0.735111 0.641293 0.062024
#
# Coordination Sequence:
#
# PCOD8053296 Si02
#       8
#     2   2   4   2   4   2   4   4
#     4  10  22  37  63  88 124 158 200 243 301 354
#     4  12  20  38  64  87 119 160 197 246 295 355
#     4  11  22  39  63  87 122 157 203 243 301 353
#     4  12  23  40  64  87 121 157 205 244 301 358
#     4  10  21  39  60  89 118 162 197 249 295 352
#     4  10  19  39  61  86 118 163 198 239 303 355
#     4  10  21  37  60  87 121 157 199 243 297 358
#     4  11  23  38  61  91 121 157 200 250 296 353
#
# _framework density 19.675698000000001
#
# number of rings (size 3 to 8) (size 9 to 14) (size 15 to 20)
#    0.000    1.333    5.000    0.500    0.000    6.000 
#    0.000    0.000    0.000    5.000    0.000    0.000 
#    0.000    0.000    0.000    0.000    0.000    0.000 
#
# Total GULP energy -148674.612175 kJ/mol
# GULP energy per Si atom -12389.551015 kJ/mol
# Density = 1.963091 g / cm^3
# Si number density = 19.675698 Si / 1000 Ang^3
#
#
#
# Elastic Constant Matrix: (Units=GPa)
#
#
# Indices 1 2 3 4 5 6 
#
# 1 152.7435 29.2170 63.8602 0.0000 4.5421 0.0000
# 2 29.2170 66.4168 15.5388 0.0000 -0.6594 0.0000
# 3 63.8602 15.5388 117.3101 0.0000 -6.6174 0.0000
# 4 0.0000 0.0000 0.0000 58.4530 0.0000 6.1245
# 5 4.5421 -0.6594 -6.6174 0.0000 27.3105 0.0000
# 6 0.0000 0.0000 0.0000 6.1245 0.0000 20.5592
#
#
#
# Elastic Compliance Matrix: (Units=1/GPa)
#
#
# Indices 1 2 3 4 5 6 
#
# 1 0.009186 -0.002953 -0.004765 0.000000 -0.002753 0.000000
# 2 -0.002953 0.016488 -0.000533 0.000000 0.000760 0.000000
# 3 -0.004765 -0.000533 0.011388 0.000000 0.003539 0.000000
# 4 0.000000 0.000000 0.000000 0.017659 0.000000 -0.005261
# 5 -0.002753 0.000760 0.003539 0.000000 0.037950 0.000000
# 6 0.000000 0.000000 0.000000 -0.005261 0.000000 0.050207
#
#
# Mechanical properties :
#
#
# Convention : Reuss Voigt Hill
#
# Bulk Modulus (GPa) = 48.63954 61.52250 55.08102
# Shear Modulus (GPa) = 30.07812 36.45485 33.26649
#
# Velocity S-wave (km/s) = 3.91409 4.30907 4.11632
# Velocity P-wave (km/s) = 6.72318 7.48957 7.11670
#
# Compressibility (1/GPa) = 0.02055940
#
# Stress axis : x y z
#
# Youngs Moduli (GPa) = 108.86424 60.65012 87.80885
#
# Poissons Ratio (x) = 0.17913 0.41837
# Poissons Ratio (y) = 0.32153 0.04683
# Poissons Ratio (z) = 0.51869 0.03235
#
# Static dielectric constant tensor:
#      x y z
#    x 3.700260 0.000000 -0.102810 
#    y 0.000000 2.641500 0.000000 
#    z -0.102810 0.000000 3.782440 
# 
# 
# High freq. dielectric constant tensor:
#      x y z
#    x 1.754830 0.000000 -0.009140 
#    y 0.000000 1.765830 0.000000 
#    z -0.009140 0.000000 1.776730 
# 
# From -- ./inp_files/11095.got.cif
#   From: 2010.03.12/outbox.cif.g09.slc.cpg/sg8_6_cif.got.tgz:11095.got - 2010.03.31 10:45:26.
