data_PCOD8053240
_publ_section_title
;
Structure prediction by ZEFSAII (Michael W. Deem and Ramdas Pophale) SiO2 
 PCOD8053240
Probable space group: C M
;
_chemical_formula_sum "Si O2"
_cell_formula_units_Z 32
_cell_length_a 18.979192
_cell_length_b 14.234864
_cell_length_c 13.103521
_cell_angle_alpha 90.000000
_cell_angle_beta 29.896304
_cell_angle_gamma 90.000000
_cell_volume 1764.512781
_symmetry_space_group_name_H-M "C M"
_symmetry_group_IT_number 8
_symmetry_cell_setting 'monoclinic'
loop_
_space_group_symop_operation_xyz
x,y,z
x,-y,z
1/2+x,1/2+y,z
1/2+x,1/2-y,z
loop_
_atom_site_type_symbol
_atom_site_label
_atom_site_fract_x
_atom_site_fract_y
_atom_site_fract_z
Si Si1 0.101550 0.607813 0.017050
Si Si2 0.587402 0.758157 0.216042
Si Si3 0.311767 0.391848 0.285046
Si Si4 0.831359 0.222774 0.067977
Si Si5 0.786384 0.253391 0.670495
Si Si6 0.912593 0.397305 0.070066
Si Si7 0.110118 0.109567 0.016376
Si Si8 0.623131 0.203496 0.682349
O O1 0.148349 0.500000 0.971761
O O2 0.063782 0.652766 0.172790
O O3 0.958316 0.616474 0.130204
O O4 0.230572 0.663768 0.803303
O O5 0.727421 0.779147 0.103999
O O6 0.455851 0.750101 0.458218
O O7 0.605479 0.661160 0.131279
O O8 0.270196 0.500000 0.350212
O O9 0.310462 0.367162 0.166831
O O10 0.464791 0.370697 0.139788
O O11 0.197117 0.327531 0.485629
O O12 0.803014 0.316410 0.173497
O O13 0.993051 0.224639 0.822246
O O14 0.734122 0.252844 0.619029
O O15 0.735370 0.348797 0.789663
O O16 0.844782 0.500000 0.137652
O O17 0.056898 0.388149 0.821862
O O18 0.138027 0.000000 0.000768
#
# Coordination Sequence:
#
# PCOD8053240 Si02
#       8
#     4   4   4   4   4   4   4   4
#     4   9  19  36  59  79 104 143 190 225 261 327
#     4  11  22  36  56  84 114 147 179 227 284 328
#     4  11  20  35  60  86 108 147 194 230 270 331
#     4  10  22  36  53  84 119 143 177 234 281 323
#     4  10  19  36  59  83 111 143 185 229 275 325
#     4   8  16  34  57  79 103 140 184 226 264 315
#     4  10  21  37  58  87 114 143 187 235 274 328
#     4   9  18  34  59  80 109 140 189 224 272 323
#
# _framework density 18.135318000000002
#
# number of rings (size 3 to 8) (size 9 to 14) (size 15 to 20)
#    0.750    1.500    2.500    1.125    0.000    4.500 
#    0.000    1.250    0.000    0.750    0.000    0.000 
#    0.000    0.000    0.000    0.000    0.000    0.000 
#
# Total GULP energy -198329.623090 kJ/mol
# GULP energy per Si atom -12395.601443 kJ/mol
# Density = 1.809404 g / cm^3
# Si number density = 18.135318 Si / 1000 Ang^3
#
#
#
# Elastic Constant Matrix: (Units=GPa)
#
#
# Indices 1 2 3 4 5 6 
#
# 1 71.0268 17.1281 16.5236 -0.0001 5.6280 0.0000
# 2 17.1281 78.2213 26.6391 0.0000 12.7108 0.0000
# 3 16.5236 26.6391 85.9155 -0.0001 8.3089 0.0001
# 4 -0.0001 0.0000 -0.0001 16.6260 0.0001 4.6626
# 5 5.6280 12.7108 8.3089 0.0001 20.9706 0.0000
# 6 0.0000 0.0000 0.0001 4.6626 0.0000 13.8678
#
#
#
# Elastic Compliance Matrix: (Units=1/GPa)
#
#
# Indices 1 2 3 4 5 6 
#
# 1 0.015265 -0.002348 -0.002027 0.000000 -0.001870 0.000000
# 2 -0.002348 0.015777 -0.003719 0.000000 -0.007459 0.000000
# 3 -0.002027 -0.003719 0.013426 0.000000 -0.002522 0.000000
# 4 0.000000 0.000000 0.000000 0.066408 0.000000 -0.022328
# 5 -0.001870 -0.007459 -0.002522 0.000000 0.053708 0.000000
# 6 0.000000 0.000000 0.000000 -0.022328 0.000000 0.079616
#
#
# Mechanical properties :
#
#
# Convention : Reuss Voigt Hill
#
# Bulk Modulus (GPa) = 35.36041 39.52723 37.44382
# Shear Modulus (GPa) = 18.53115 21.95108 20.24111
#
# Velocity S-wave (km/s) = 3.20007 3.48286 3.34446
# Velocity P-wave (km/s) = 5.76145 6.16578 5.96704
#
# Compressibility (1/GPa) = 0.02828022
#
# Stress axis : x y z
#
# Youngs Moduli (GPa) = 65.50831 63.38308 74.48191
#
# Poissons Ratio (x) = 0.14885 0.15096
# Poissons Ratio (y) = 0.15384 0.27699
# Poissons Ratio (z) = 0.13277 0.23571
#
# Static dielectric constant tensor:
#      x y z
#    x 3.129920 0.000000 0.057490 
#    y 0.000000 3.278330 0.000000 
#    z 0.057490 0.000000 3.133830 
# 
# 
# High freq. dielectric constant tensor:
#      x y z
#    x 1.688090 0.000000 0.008210 
#    y 0.000000 1.697160 0.000000 
#    z 0.008210 0.000000 1.688260 
# 
# From -- ./inp_files/23319.got.cif
#   From: 2010.03.12/outbox.cif.g09.slc.cpg/sg8_12_cif.got.tgz:23319.got - 2010.03.31 10:45:26.
