data_PCOD8053387
_publ_section_title
;
Structure prediction by ZEFSAII (Michael W. Deem and Ramdas Pophale) SiO2 
 PCOD8053387
Probable space group: C M
;
_chemical_formula_sum "Si O2"
_cell_formula_units_Z 32
_cell_length_a 33.171497
_cell_length_b 8.844447
_cell_length_c 12.503302
_cell_angle_alpha 90.000000
_cell_angle_beta 26.472154
_cell_angle_gamma 90.000000
_cell_volume 1635.175294
_symmetry_space_group_name_H-M "C M"
_symmetry_group_IT_number 8
_symmetry_cell_setting 'monoclinic'
loop_
_space_group_symop_operation_xyz
x,y,z
x,-y,z
1/2+x,1/2+y,z
1/2+x,1/2-y,z
loop_
_atom_site_type_symbol
_atom_site_label
_atom_site_fract_x
_atom_site_fract_y
_atom_site_fract_z
Si Si1 0.362540 0.321334 0.602090
Si Si2 0.679944 0.320788 0.972605
Si Si3 0.318880 0.177593 0.156926
Si Si4 0.558287 0.320512 0.065624
Si Si5 0.609471 0.826441 0.349628
Si Si6 0.494133 0.320941 0.798936
Si Si7 0.120475 0.820063 0.689143
Si Si8 0.306354 0.328564 0.968759
O O1 0.349048 0.500000 0.619297
O O2 0.282195 0.240591 0.728209
O O3 0.457803 0.260537 0.331344
O O4 0.358361 0.279758 0.737531
O O5 0.681886 0.500000 0.978902
O O6 0.631143 0.266538 0.979933
O O7 0.621340 0.254549 0.208351
O O8 0.221224 0.238814 0.425675
O O9 0.328400 0.000000 0.151040
O O10 0.392189 0.261697 0.056924
O O11 0.336170 0.216845 0.991782
O O12 0.554925 0.500000 0.071326
O O13 0.588066 0.254801 0.880100
O O14 0.529866 0.744616 0.602289
O O15 0.583357 0.000000 0.391486
O O16 0.699733 0.812111 0.204758
O O17 0.496542 0.500000 0.788086
O O18 0.553180 0.258878 0.757632
O O19 0.119596 0.000000 0.691999
O O20 0.331726 0.500000 0.940739
#
# Coordination Sequence:
#
# PCOD8053387 Si02
#       8
#     4   4   4   4   4   4   4   4
#     4   9  19  36  57  82 114 152 189 232 286 339
#     4  10  20  34  57  87 116 149 189 233 284 341
#     4  11  22  36  56  85 115 151 191 237 290 339
#     4   9  19  37  60  83 111 153 195 233 282 339
#     4  10  20  36  58  85 119 152 186 237 291 338
#     4  11  22  37  58  85 114 151 195 236 285 344
#     4   9  20  39  59  81 114 151 194 239 282 339
#     4   9  18  33  55  82 115 149 185 233 284 341
#
# _framework density 19.569768
#
# number of rings (size 3 to 8) (size 9 to 14) (size 15 to 20)
#    0.000    2.250    1.250    2.250    1.750    3.000 
#    0.000    1.250    0.000    7.500    0.000    0.000 
#    0.000    0.000    0.000    0.000    0.000    0.000 
#
# Total GULP energy -198432.709249 kJ/mol
# GULP energy per Si atom -12402.044328 kJ/mol
# Density = 1.952523 g / cm^3
# Si number density = 19.569768 Si / 1000 Ang^3
#
#
#
# Elastic Constant Matrix: (Units=GPa)
#
#
# Indices 1 2 3 4 5 6 
#
# 1 137.3799 38.8343 90.7457 0.0000 -4.0045 0.0000
# 2 38.8343 63.1876 36.4402 0.0000 -4.2850 0.0000
# 3 90.7457 36.4402 153.5383 0.0000 -5.0577 0.0000
# 4 0.0000 0.0000 0.0000 25.9650 0.0000 -7.0790
# 5 -4.0045 -4.2850 -5.0577 0.0000 29.1007 0.0000
# 6 0.0000 0.0000 0.0000 -7.0790 0.0000 23.2487
#
#
#
# Elastic Compliance Matrix: (Units=1/GPa)
#
#
# Indices 1 2 3 4 5 6 
#
# 1 0.012778 -0.004052 -0.006590 0.000000 0.000016 0.000000
# 2 -0.004052 0.019731 -0.002224 0.000000 0.001961 0.000000
# 3 -0.006590 -0.002224 0.010958 0.000000 0.000670 0.000000
# 4 0.000000 0.000000 0.000000 0.042000 0.000000 0.012789
# 5 0.000016 0.001961 0.000670 0.000000 0.034771 0.000000
# 6 0.000000 0.000000 0.000000 0.012789 0.000000 0.046907
#
#
# Mechanical properties :
#
#
# Convention : Reuss Voigt Hill
#
# Bulk Modulus (GPa) = 56.38123 76.23844 66.30984
# Shear Modulus (GPa) = 25.15246 28.20193 26.67720
#
# Velocity S-wave (km/s) = 3.58896 3.80030 3.69614
# Velocity P-wave (km/s) = 6.78580 7.63532 7.22306
#
# Compressibility (1/GPa) = 0.01773640
#
# Stress axis : x y z
#
# Youngs Moduli (GPa) = 78.26073 50.68068 91.25976
#
# Poissons Ratio (x) = 0.20534 0.60140
# Poissons Ratio (y) = 0.31708 0.20294
# Poissons Ratio (z) = 0.51573 0.11270
#
# Static dielectric constant tensor:
#      x y z
#    x 3.636950 0.000000 -0.034240 
#    y 0.000000 3.297890 0.000000 
#    z -0.034240 0.000000 3.719130 
# 
# 
# High freq. dielectric constant tensor:
#      x y z
#    x 1.762890 0.000000 -0.007600 
#    y 0.000000 1.739660 0.000000 
#    z -0.007600 0.000000 1.768090 
# 
# From -- ./inp_files/24815.got.cif
#   From: 2010.03.12/outbox.cif.g09.slc.cpg/sg8_13_cif.got.tgz:24815.got - 2010.03.31 10:45:26.
