data_PCOD8053591
_publ_section_title
;
Structure prediction by ZEFSAII (Michael W. Deem and Ramdas Pophale) SiO2 
 PCOD8053591
Probable space group: C M
;
_chemical_formula_sum "Si O2"
_cell_formula_units_Z 32
_cell_length_a 24.265817
_cell_length_b 8.992934
_cell_length_c 14.081523
_cell_angle_alpha 90.000000
_cell_angle_beta 148.986797
_cell_angle_gamma 90.000000
_cell_volume 1583.258403
_symmetry_space_group_name_H-M "C M"
_symmetry_group_IT_number 8
_symmetry_cell_setting 'monoclinic'
loop_
_space_group_symop_operation_xyz
x,y,z
x,-y,z
1/2+x,1/2+y,z
1/2+x,1/2-y,z
loop_
_atom_site_type_symbol
_atom_site_label
_atom_site_fract_x
_atom_site_fract_y
_atom_site_fract_z
Si Si1 0.376900 0.166055 0.474810
Si Si2 0.325336 0.327598 0.748225
Si Si3 0.250357 0.668591 0.432677
Si Si4 0.993193 0.172452 0.491775
Si Si5 0.793247 0.175675 0.069054
Si Si6 0.166966 0.169453 0.037036
Si Si7 0.231025 0.824209 0.791130
Si Si8 0.042987 0.675934 0.010689
O O1 0.348964 0.238566 0.534696
O O2 0.473275 0.248116 0.563248
O O3 0.271925 0.175080 0.255820
O O4 0.415075 0.000000 0.550834
O O5 0.337688 0.500000 0.795451
O O6 0.249735 0.309818 0.544653
O O7 0.269012 0.234630 0.746580
O O8 0.440580 0.259802 0.898422
O O9 0.272864 0.500000 0.435783
O O10 0.135845 0.717896 0.222856
O O11 0.107211 0.220613 0.619194
O O12 0.904797 0.218171 0.283694
O O13 0.987439 0.000000 0.505764
O O14 0.693572 0.251593 0.976544
O O15 0.774615 0.000000 0.037921
O O16 0.800050 0.243596 0.974145
O O17 0.073169 0.260636 0.951143
O O18 0.129859 0.000000 0.963801
O O19 0.249347 0.000000 0.824589
O O20 0.022862 0.500000 0.974016
#
# Coordination Sequence:
#
# PCOD8053591 Si02
#       8
#     4   4   4   4   4   4   4   4
#     4   9  17  30  55  88 116 142 180 226 273 327
#     4  11  24  41  58  80 110 147 190 235 278 329
#     4   9  20  38  59  82 113 149 183 223 277 332
#     4   9  20  38  59  82 113 149 183 223 277 332
#     4  10  20  37  60  86 114 147 185 229 278 330
#     4   9  17  32  55  86 118 148 182 224 275 333
#     4  11  24  41  58  80 110 147 190 235 278 329
#     4  10  20  37  60  86 114 147 185 229 278 330
#
# _framework density 20.211483000000001
#
# number of rings (size 3 to 8) (size 9 to 14) (size 15 to 20)
#    0.000    2.250    0.000    2.250    0.000    8.000 
#    0.000    3.750    0.000    0.000    0.000    0.000 
#    0.000    0.000    0.000    0.000    0.000    0.000 
#
# Total GULP energy -198450.726714 kJ/mol
# GULP energy per Si atom -12403.170420 kJ/mol
# Density = 2.016548 g / cm^3
# Si number density = 20.211483 Si / 1000 Ang^3
#
#
#
# Elastic Constant Matrix: (Units=GPa)
#
#
# Indices 1 2 3 4 5 6 
#
# 1 85.4526 9.7575 3.4502 0.0000 4.3274 0.0000
# 2 9.7575 65.1237 8.2593 0.0000 2.6009 0.0000
# 3 3.4502 8.2593 36.9140 0.0000 7.1008 0.0000
# 4 0.0000 0.0000 0.0000 25.3609 0.0000 2.3846
# 5 4.3274 2.6009 7.1008 0.0000 30.4768 0.0000
# 6 0.0000 0.0000 0.0000 2.3846 0.0000 42.7682
#
#
#
# Elastic Compliance Matrix: (Units=1/GPa)
#
#
# Indices 1 2 3 4 5 6 
#
# 1 0.011986 -0.001679 -0.000466 0.000000 -0.001450 0.000000
# 2 -0.001679 0.016048 -0.003367 0.000000 -0.000347 0.000000
# 3 -0.000466 -0.003367 0.029124 0.000000 -0.006432 0.000000
# 4 0.000000 0.000000 0.000000 0.039639 0.000000 -0.002210
# 5 -0.001450 -0.000347 -0.006432 0.000000 0.034546 0.000000
# 6 0.000000 0.000000 0.000000 -0.002210 0.000000 0.023505
#
#
# Mechanical properties :
#
#
# Convention : Reuss Voigt Hill
#
# Bulk Modulus (GPa) = 21.67551 25.60272 23.63911
# Shear Modulus (GPa) = 27.58628 30.78941 29.18785
#
# Velocity S-wave (km/s) = 3.69844 3.90726 3.80428
# Velocity P-wave (km/s) = 5.38382 5.74896 5.56938
#
# Compressibility (1/GPa) = 0.04613501
#
# Stress axis : x y z
#
# Youngs Moduli (GPa) = 83.42828 62.31380 34.33577
#
# Poissons Ratio (x) = 0.10462 0.01599
# Poissons Ratio (y) = 0.14007 0.11561
# Poissons Ratio (z) = 0.03885 0.20981
#
# Static dielectric constant tensor:
#      x y z
#    x 3.680060 0.000000 -0.016270 
#    y 0.000000 3.763350 0.000000 
#    z -0.016270 0.000000 3.635180 
# 
# 
# High freq. dielectric constant tensor:
#      x y z
#    x 1.787500 0.000000 -0.002690 
#    y 0.000000 1.798380 0.000000 
#    z -0.002690 0.000000 1.787090 
# 
# From -- ./inp_files/26545.got.cif
#   From: 2010.03.12/outbox.cif.g09.slc.cpg/sg8_14_cif.got.tgz:26545.got - 2010.03.31 10:45:26.
