data_PCOD8053451
_publ_section_title
;
Structure prediction by ZEFSAII (Michael W. Deem and Ramdas Pophale) SiO2 
 PCOD8053451
Probable space group: C M
;
_chemical_formula_sum "Si O2"
_cell_formula_units_Z 32
_cell_length_a 19.893062
_cell_length_b 8.708135
_cell_length_c 19.607323
_cell_angle_alpha 90.000000
_cell_angle_beta 149.920176
_cell_angle_gamma 90.000000
_cell_volume 1702.399176
_symmetry_space_group_name_H-M "C M"
_symmetry_group_IT_number 8
_symmetry_cell_setting 'monoclinic'
loop_
_space_group_symop_operation_xyz
x,y,z
x,-y,z
1/2+x,1/2+y,z
1/2+x,1/2-y,z
loop_
_atom_site_type_symbol
_atom_site_label
_atom_site_fract_x
_atom_site_fract_y
_atom_site_fract_z
Si Si1 0.195540 0.820556 0.103600
Si Si2 0.941192 0.175409 0.063410
Si Si3 0.240938 0.822566 0.375182
Si Si4 0.180447 0.822072 0.597008
Si Si5 0.650851 0.820408 0.430952
Si Si6 0.383687 0.678997 0.381262
Si Si7 0.372668 0.679544 0.151903
Si Si8 0.922387 0.322482 0.907708
O O1 0.289881 0.775681 0.249032
O O2 0.238202 0.731268 0.072255
O O3 0.208333 0.000000 0.101446
O O4 0.043055 0.780505 0.986238
O O5 0.858103 0.216937 0.058852
O O6 0.097279 0.204531 0.214452
O O7 0.916254 0.000000 0.019769
O O8 0.891547 0.285258 0.959602
O O9 0.238445 0.764506 0.450518
O O10 0.350635 0.725814 0.429802
O O11 0.281936 0.000000 0.410718
O O12 0.211922 0.722168 0.557822
O O13 0.290552 0.780419 0.749820
O O14 0.037266 0.777995 0.502836
O O15 0.185252 0.000000 0.580499
O O16 0.496385 0.768614 0.294228
O O17 0.660162 0.000000 0.425952
O O18 0.354923 0.500000 0.344141
O O19 0.401096 0.500000 0.187730
O O20 0.961810 0.500000 0.935183
#
# Coordination Sequence:
#
# PCOD8053451 Si02
#       8
#     4   4   4   4   4   4   4   4
#     4  12  23  36  57  88 119 149 194 244 289 345
#     4   9  19  35  56  83 116 149 187 236 288 341
#     4  10  20  35  57  85 119 151 188 240 289 342
#     4  10  23  41  59  83 118 157 195 237 291 349
#     4  11  21  34  57  87 117 151 193 239 290 346
#     4  11  21  36  60  86 115 150 194 245 289 341
#     4  10  20  36  58  84 116 151 191 241 290 341
#     4  11  23  39  60  84 116 158 196 236 290 349
#
# _framework density 18.797003
#
# number of rings (size 3 to 8) (size 9 to 14) (size 15 to 20)
#    0.000    1.500    2.500    4.500    0.000    4.000 
#    0.000    1.250    0.000    3.000    0.000    0.000 
#    0.000    0.000    0.000    0.000    0.000    0.000 
#
# Total GULP energy -198482.827834 kJ/mol
# GULP energy per Si atom -12405.176740 kJ/mol
# Density = 1.875422 g / cm^3
# Si number density = 18.797003 Si / 1000 Ang^3
#
#
#
# Elastic Constant Matrix: (Units=GPa)
#
#
# Indices 1 2 3 4 5 6 
#
# 1 134.5259 29.1562 44.7584 0.0000 -9.3181 0.0000
# 2 29.1562 67.3159 29.5378 0.0000 -8.4278 0.0000
# 3 44.7584 29.5378 83.4769 0.0000 -5.3445 0.0000
# 4 0.0000 0.0000 0.0000 17.0999 0.0000 -5.8378
# 5 -9.3181 -8.4278 -5.3445 0.0000 26.3382 0.0000
# 6 0.0000 0.0000 0.0000 -5.8378 0.0000 37.3523
#
#
#
# Elastic Compliance Matrix: (Units=1/GPa)
#
#
# Indices 1 2 3 4 5 6 
#
# 1 0.009394 -0.001990 -0.004216 0.000000 0.001831 0.000000
# 2 -0.001990 0.018531 -0.005223 0.000000 0.004166 0.000000
# 3 -0.004216 -0.005223 0.016095 0.000000 0.000103 0.000000
# 4 0.000000 0.000000 0.000000 0.061776 0.000000 0.009655
# 5 0.001831 0.004166 0.000103 0.000000 0.039969 0.000000
# 6 0.000000 0.000000 0.000000 0.009655 0.000000 0.028281
#
#
# Mechanical properties :
#
#
# Convention : Reuss Voigt Hill
#
# Bulk Modulus (GPa) = 47.25488 54.69147 50.97318
# Shear Modulus (GPa) = 24.51493 28.28252 26.39873
#
# Velocity S-wave (km/s) = 3.61528 3.88316 3.75161
# Velocity P-wave (km/s) = 6.52849 7.01885 6.77811
#
# Compressibility (1/GPa) = 0.02116183
#
# Stress axis : x y z
#
# Youngs Moduli (GPa) = 106.44852 53.96457 62.13286
#
# Poissons Ratio (x) = 0.10738 0.26193
# Poissons Ratio (y) = 0.21181 0.32454
# Poissons Ratio (z) = 0.44875 0.28188
#
# Static dielectric constant tensor:
#      x y z
#    x 3.696960 0.000000 -0.038060 
#    y 0.000000 3.479730 0.000000 
#    z -0.038060 0.000000 3.185350 
# 
# 
# High freq. dielectric constant tensor:
#      x y z
#    x 1.748350 0.000000 -0.006500 
#    y 0.000000 1.739270 0.000000 
#    z -0.006500 0.000000 1.694890 
# 
# From -- ./inp_files/31366.got.cif
#   From: 2010.03.12/outbox.cif.g09.slc.cpg/sg8_16_cif.got.tgz:31366.got - 2010.03.31 10:45:26.
