data_PCOD8053491
_publ_section_title
;
Structure prediction by ZEFSAII (Michael W. Deem and Ramdas Pophale) SiO2 
 PCOD8053491
Probable space group: C M
;
_chemical_formula_sum "Si O2"
_cell_formula_units_Z 32
_cell_length_a 28.754422
_cell_length_b 8.823109
_cell_length_c 14.414409
_cell_angle_alpha 90.000000
_cell_angle_beta 151.043623
_cell_angle_gamma 90.000000
_cell_volume 1770.505581
_symmetry_space_group_name_H-M "C M"
_symmetry_group_IT_number 8
_symmetry_cell_setting 'monoclinic'
loop_
_space_group_symop_operation_xyz
x,y,z
x,-y,z
1/2+x,1/2+y,z
1/2+x,1/2-y,z
loop_
_atom_site_type_symbol
_atom_site_label
_atom_site_fract_x
_atom_site_fract_y
_atom_site_fract_z
Si Si1 0.605130 0.319540 0.979450
Si Si2 0.220137 0.320967 0.708005
Si Si3 0.018177 0.820942 0.021181
Si Si4 0.178021 0.321630 0.837275
Si Si5 0.338946 0.832115 0.773265
Si Si6 0.991049 0.680466 0.616762
Si Si7 0.128782 0.169210 0.389978
Si Si8 0.287716 0.319544 0.209520
O O1 0.610544 0.500000 0.976796
O O2 0.522514 0.252845 0.769049
O O3 0.576342 0.268590 0.032688
O O4 0.708819 0.245952 0.142427
O O5 0.228327 0.500000 0.723865
O O6 0.204865 0.251315 0.784183
O O7 0.318970 0.252589 0.837347
O O8 0.129033 0.270464 0.484516
O O9 0.066143 0.755544 0.199179
O O10 0.015272 0.000000 0.020015
O O11 0.910613 0.757533 0.831346
O O12 0.179909 0.500000 0.831419
O O13 0.071014 0.270960 0.680466
O O14 0.255860 0.270743 0.050040
O O15 0.238126 0.840029 0.541983
O O16 0.379092 0.000000 0.864124
O O17 0.984603 0.500000 0.616826
O O18 0.889921 0.746616 0.408555
O O19 0.091681 0.000000 0.350009
O O20 0.292431 0.500000 0.229163
#
# Coordination Sequence:
#
# PCOD8053491 Si02
#       8
#     4   4   4   4   4   4   4   4
#     4  10  21  36  56  82 108 139 179 225 272 319
#     4   9  16  33  56  76 105 143 176 217 263 308
#     4  10  20  36  56  77 104 140 178 217 266 316
#     4   8  17  34  55  77 107 140 176 219 266 312
#     4   9  19  34  51  75 106 138 176 218 260 307
#     4  10  20  37  57  80 110 143 176 219 270 323
#     4   8  18  35  50  72 105 137 172 217 260 308
#     4  10  20  37  57  81 109 140 179 222 267 323
#
# _framework density 18.073934000000001
#
# number of rings (size 3 to 8) (size 9 to 14) (size 15 to 20)
#    0.750    2.000    0.000    2.250    0.000    2.500 
#    2.250    8.750    0.000    0.000    0.000    0.000 
#    0.000    0.000    0.000    0.000    0.000    0.000 
#
# Total GULP energy -198266.345886 kJ/mol
# GULP energy per Si atom -12391.646618 kJ/mol
# Density = 1.803280 g / cm^3
# Si number density = 18.073934 Si / 1000 Ang^3
#
#
#
# Elastic Constant Matrix: (Units=GPa)
#
#
# Indices 1 2 3 4 5 6 
#
# 1 98.1054 39.8123 29.3935 0.0000 -6.8994 0.0000
# 2 39.8123 52.6189 27.5830 0.0000 -3.1313 0.0000
# 3 29.3935 27.5830 89.5010 0.0000 4.1958 0.0000
# 4 0.0000 0.0000 0.0000 28.7714 0.0000 2.1160
# 5 -6.8994 -3.1313 4.1958 0.0000 23.9267 0.0000
# 6 0.0000 0.0000 0.0000 2.1160 0.0000 25.2336
#
#
#
# Elastic Compliance Matrix: (Units=1/GPa)
#
#
# Indices 1 2 3 4 5 6 
#
# 1 0.015185 -0.010245 -0.001988 0.000000 0.003386 0.000000
# 2 -0.010245 0.030011 -0.005979 0.000000 0.002022 0.000000
# 3 -0.001988 -0.005979 0.013846 0.000000 -0.003784 0.000000
# 4 0.000000 0.000000 0.000000 0.034972 0.000000 -0.002933
# 5 0.003386 0.002022 -0.003784 0.000000 0.043699 0.000000
# 6 0.000000 0.000000 0.000000 -0.002933 0.000000 0.039876
#
#
# Mechanical properties :
#
#
# Convention : Reuss Voigt Hill
#
# Bulk Modulus (GPa) = 44.21519 48.20034 46.20776
# Shear Modulus (GPa) = 22.56807 25.14877 23.85842
#
# Velocity S-wave (km/s) = 3.53746 3.73425 3.63718
# Velocity P-wave (km/s) = 6.41884 6.73195 6.57726
#
# Compressibility (1/GPa) = 0.02261666
#
# Stress axis : x y z
#
# Youngs Moduli (GPa) = 65.85634 33.32134 72.22280
#
# Poissons Ratio (x) = 0.34138 0.14359
# Poissons Ratio (y) = 0.67471 0.43182
# Poissons Ratio (z) = 0.13093 0.19923
#
# Static dielectric constant tensor:
#      x y z
#    x 3.483730 0.000000 -0.097680 
#    y 0.000000 3.257340 0.000000 
#    z -0.097680 0.000000 3.291970 
# 
# 
# High freq. dielectric constant tensor:
#      x y z
#    x 1.694310 0.000000 -0.000820 
#    y 0.000000 1.698600 0.000000 
#    z -0.000820 0.000000 1.691270 
# 
# From -- ./inp_files/28386.got.cif
#   From: 2010.03.12/outbox.cif.g09.slc.cpg/sg8_15_cif.got.tgz:28386.got - 2010.03.31 10:45:26.
