data_PCOD8053684
_publ_section_title
;
Structure prediction by ZEFSAII (Michael W. Deem and Ramdas Pophale) SiO2 
 PCOD8053684
Probable space group: C M
;
_chemical_formula_sum "Si O2"
_cell_formula_units_Z 26
_cell_length_a 10.873830
_cell_length_b 14.285925
_cell_length_c 14.065487
_cell_angle_alpha 90.000000
_cell_angle_beta 146.363105
_cell_angle_gamma 90.000000
_cell_volume 1210.316150
_symmetry_space_group_name_H-M "C M"
_symmetry_group_IT_number 8
_symmetry_cell_setting 'monoclinic'
loop_
_space_group_symop_operation_xyz
x,y,z
x,-y,z
1/2+x,1/2+y,z
1/2+x,1/2-y,z
loop_
_atom_site_type_symbol
_atom_site_label
_atom_site_fract_x
_atom_site_fract_y
_atom_site_fract_z
Si Si1 0.596470 0.500000 0.154650
Si Si2 0.079082 0.603425 0.191943
Si Si3 0.975649 0.203262 0.548023
Si Si4 0.157161 0.500000 0.964708
Si Si5 0.940398 0.673309 0.905678
Si Si6 0.618866 0.704855 0.438858
Si Si7 0.057137 0.000000 0.341167
Si Si8 0.239210 0.832783 0.113252
O O1 0.324594 0.500000 0.981603
O O2 0.686916 0.500000 0.322080
O O3 0.677635 0.403738 0.158736
O O4 0.119907 0.500000 0.181553
O O5 0.291308 0.630671 0.392551
O O6 0.851212 0.604994 0.104412
O O7 0.049587 0.666825 0.080503
O O8 0.851577 0.276856 0.535790
O O9 0.173820 0.162183 0.740461
O O10 0.104612 0.244640 0.537836
O O11 0.295910 0.500000 0.151689
O O12 0.013685 0.595251 0.875383
O O13 0.024713 0.778060 0.931834
O O14 0.605396 0.592109 0.433927
O O15 0.416961 0.751891 0.252953
#
# Coordination Sequence:
#
# PCOD8053684 Si02
#       8
#     2   4   4   2   4   4   2   4
#     4  10  22  37  66 104 125 179 226 266 341 404
#     4  11  24  44  68  97 129 174 221 277 330 396
#     4  11  27  41  71  98 137 174 225 272 340 390
#     4  10  22  38  63 101 125 167 218 270 327 389
#     4  12  25  42  69  97 135 171 225 274 329 401
#     4  11  23  45  66 101 135 178 224 278 333 397
#     4  10  20  39  73  95 134 172 226 268 328 401
#     4  11  22  41  68  94 135 174 219 277 335 397
#
# _framework density 21.481988999999999
#
# number of rings (size 3 to 8) (size 9 to 14) (size 15 to 20)
#    0.462    0.615    4.615    0.923    8.615    0.000 
#    0.000    0.769    0.000    0.000    0.000    0.000 
#    0.000    0.000    0.000    0.000    0.000    0.000 
#
# Total GULP energy -161051.490449 kJ/mol
# GULP energy per Si atom -12388.576188 kJ/mol
# Density = 2.143310 g / cm^3
# Si number density = 21.481989 Si / 1000 Ang^3
#
#
#
# Elastic Constant Matrix: (Units=GPa)
#
#
# Indices 1 2 3 4 5 6 
#
# 1 128.7452 39.9630 17.1881 -0.0031 21.2315 0.0025
# 2 39.9630 111.2347 32.0712 0.0059 17.9885 0.0059
# 3 17.1881 32.0712 90.3500 -0.0008 26.0694 0.0053
# 4 -0.0031 0.0059 -0.0008 13.3966 0.0020 6.0794
# 5 21.2315 17.9885 26.0694 0.0020 29.2301 0.0033
# 6 0.0025 0.0059 0.0053 6.0794 0.0033 33.7672
#
#
#
# Elastic Compliance Matrix: (Units=1/GPa)
#
#
# Indices 1 2 3 4 5 6 
#
# 1 0.009476 -0.002687 0.000889 0.000005 -0.006022 -0.000001
# 2 -0.002687 0.011142 -0.002731 -0.000005 -0.002469 0.000000
# 3 0.000889 -0.002731 0.015579 0.000005 -0.012859 -0.000002
# 4 0.000005 -0.000005 0.000005 0.081287 -0.000009 -0.014635
# 5 -0.006022 -0.002469 -0.012859 -0.000009 0.051573 -0.000001
# 6 -0.000001 0.000000 -0.000002 -0.014635 -0.000001 0.032249
#
#
# Mechanical properties :
#
#
# Convention : Reuss Voigt Hill
#
# Bulk Modulus (GPa) = 36.84943 56.53049 46.68996
# Shear Modulus (GPa) = 22.78823 31.35262 27.07043
#
# Velocity S-wave (km/s) = 3.26054 3.82446 3.55370
# Velocity P-wave (km/s) = 5.60051 6.77307 6.21450
#
# Compressibility (1/GPa) = 0.02713746
#
# Stress axis : x y z
#
# Youngs Moduli (GPa) = 105.53344 89.74969 64.18970
#
# Poissons Ratio (x) = 0.24113 -0.05704
# Poissons Ratio (y) = 0.28353 0.17533
# Poissons Ratio (z) = -0.09377 0.24515
#
# Static dielectric constant tensor:
#      x y z
#    x 4.245950 -0.000010 0.244760 
#    y -0.000010 3.685240 -0.000010 
#    z 0.244760 -0.000010 3.641100 
# 
# 
# High freq. dielectric constant tensor:
#      x y z
#    x 1.865010 0.000000 0.015680 
#    y 0.000000 1.832930 0.000000 
#    z 0.015680 0.000000 1.817560 
# 
# From -- ./inp_files/26162.got.cif
#   From: 2010.03.12/outbox.cif.g09.slc.cpg/sg8_14_cif.got.tgz:26162.got - 2010.03.31 10:45:26.
