data_PCOD8053389
_publ_section_title
;
Structure prediction by ZEFSAII (Michael W. Deem and Ramdas Pophale) SiO2 
 PCOD8053389
Probable space group: C M
;
_chemical_formula_sum "Si O2"
_cell_formula_units_Z 32
_cell_length_a 24.093125
_cell_length_b 8.616581
_cell_length_c 19.669871
_cell_angle_alpha 90.000000
_cell_angle_beta 23.998560
_cell_angle_gamma 90.000000
_cell_volume 1660.804084
_symmetry_space_group_name_H-M "C M"
_symmetry_group_IT_number 8
_symmetry_cell_setting 'monoclinic'
loop_
_space_group_symop_operation_xyz
x,y,z
x,-y,z
1/2+x,1/2+y,z
1/2+x,1/2-y,z
loop_
_atom_site_type_symbol
_atom_site_label
_atom_site_fract_x
_atom_site_fract_y
_atom_site_fract_z
Si Si1 0.469840 0.820620 0.407360
Si Si2 0.638597 0.179472 0.592775
Si Si3 0.690633 0.819409 0.756676
Si Si4 0.201159 0.180034 0.235561
Si Si5 0.217811 0.179373 0.370724
Si Si6 0.445097 0.679430 0.292909
Si Si7 0.485591 0.679879 0.882038
Si Si8 0.018036 0.679505 0.076921
O O1 0.350200 0.717392 0.573734
O O2 0.608329 0.786908 0.292473
O O3 0.495219 0.779385 0.300418
O O4 0.431413 0.000000 0.457206
O O5 0.629712 0.221592 0.522973
O O6 0.788499 0.221465 0.452741
O O7 0.528331 0.279978 0.757122
O O8 0.604371 0.000000 0.641382
O O9 0.612170 0.717560 0.789208
O O10 0.664635 0.000000 0.769234
O O11 0.640289 0.778261 0.888876
O O12 0.166159 0.218461 0.353101
O O13 0.174178 0.000000 0.249822
O O14 0.358429 0.215937 0.045579
O O15 0.377324 0.224245 0.196795
O O16 0.196933 0.000000 0.411994
O O17 0.464127 0.500000 0.289304
O O18 0.536655 0.721984 0.124926
O O19 0.446814 0.500000 0.930798
O O20 0.020162 0.500000 0.095070
#
# Coordination Sequence:
#
# PCOD8053389 Si02
#       8
#     4   4   4   4   4   4   4   4
#     4  12  25  40  59  87 121 158 198 244 294 350
#     4  10  20  34  57  87 119 153 194 244 292 343
#     4  11  21  38  61  88 119 155 198 242 292 348
#     4  11  23  42  63  85 119 160 196 239 294 357
#     4   9  18  35  58  85 116 151 192 240 295 348
#     4  10  20  35  57  85 118 156 196 240 292 348
#     4  12  23  36  59  90 121 153 196 248 291 342
#     4   9  18  34  58  87 117 148 190 245 294 344
#
# _framework density 19.267776000000001
#
# number of rings (size 3 to 8) (size 9 to 14) (size 15 to 20)
#    0.000    1.500    2.500    3.750    0.000    3.000 
#    0.000    1.250    0.000    4.500    0.000    0.000 
#    0.000    0.000    0.000    0.000    0.000    0.000 
#
# Total GULP energy -198488.291513 kJ/mol
# GULP energy per Si atom -12405.518220 kJ/mol
# Density = 1.922392 g / cm^3
# Si number density = 19.267776 Si / 1000 Ang^3
#
#
#
# Elastic Constant Matrix: (Units=GPa)
#
#
# Indices 1 2 3 4 5 6 
#
# 1 95.6587 36.4610 32.1742 -0.0013 17.8860 0.0002
# 2 36.4610 70.7901 22.2738 0.0023 13.7824 -0.0004
# 3 32.1742 22.2738 74.0934 -0.0011 20.9201 0.0002
# 4 -0.0013 0.0023 -0.0011 30.3626 -0.0006 2.8364
# 5 17.8860 13.7824 20.9201 -0.0006 30.9667 0.0003
# 6 0.0002 -0.0004 0.0002 2.8364 0.0003 30.4408
#
#
#
# Elastic Compliance Matrix: (Units=1/GPa)
#
#
# Indices 1 2 3 4 5 6 
#
# 1 0.014459 -0.005647 -0.003624 0.000001 -0.003390 0.000000
# 2 -0.005647 0.018373 -0.002080 -0.000002 -0.003510 0.000000
# 3 -0.003624 -0.002080 0.018342 0.000001 -0.009372 0.000000
# 4 0.000001 -0.000002 0.000001 0.033224 0.000001 -0.003096
# 5 -0.003390 -0.003510 -0.009372 0.000001 0.042145 0.000000
# 6 0.000000 0.000000 0.000000 -0.003096 0.000000 0.033139
#
#
# Mechanical properties :
#
#
# Convention : Reuss Voigt Hill
#
# Bulk Modulus (GPa) = 35.12267 46.92894 41.02580
# Shear Modulus (GPa) = 26.05885 28.32956 27.19421
#
# Velocity S-wave (km/s) = 3.68157 3.83862 3.76091
# Velocity P-wave (km/s) = 6.02828 6.63745 6.34019
#
# Compressibility (1/GPa) = 0.02847164
#
# Stress axis : x y z
#
# Youngs Moduli (GPa) = 69.16145 54.42873 54.52093
#
# Poissons Ratio (x) = 0.30736 0.19758
# Poissons Ratio (y) = 0.39055 0.11340
# Poissons Ratio (z) = 0.25064 0.11320
#
# Static dielectric constant tensor:
#      x y z
#    x 3.425390 0.000000 0.271300 
#    y 0.000000 3.468700 0.000000 
#    z 0.271300 0.000000 3.434200 
# 
# 
# High freq. dielectric constant tensor:
#      x y z
#    x 1.739370 0.000000 0.026380 
#    y 0.000000 1.754920 0.000000 
#    z 0.026380 0.000000 1.740610 
# 
# From -- ./inp_files/24544.got.cif
#   From: 2010.03.12/outbox.cif.g09.slc.cpg/sg8_13_cif.got.tgz:24544.got - 2010.03.31 10:45:26.
