data_PCOD8053022
_publ_section_title
;
Structure prediction by ZEFSAII (Michael W. Deem and Ramdas Pophale) SiO2 
 PCOD8053022
Probable space group: C M
;
_chemical_formula_sum "Si O2"
_cell_formula_units_Z 32
_cell_length_a 20.454096
_cell_length_b 8.670021
_cell_length_c 12.170313
_cell_angle_alpha 90.000000
_cell_angle_beta 127.717940
_cell_angle_gamma 90.000000
_cell_volume 1707.246572
_symmetry_space_group_name_H-M "C M"
_symmetry_group_IT_number 8
_symmetry_cell_setting 'monoclinic'
loop_
_space_group_symop_operation_xyz
x,y,z
x,-y,z
1/2+x,1/2+y,z
1/2+x,1/2-y,z
loop_
_atom_site_type_symbol
_atom_site_label
_atom_site_fract_x
_atom_site_fract_y
_atom_site_fract_z
Si Si1 0.705010 0.821956 0.910750
Si Si2 0.265396 0.676697 0.208764
Si Si3 0.940634 0.320559 0.359409
Si Si4 0.346428 0.180331 0.913994
Si Si5 0.225294 0.181253 0.607138
Si Si6 0.587012 0.682246 0.630743
Si Si7 0.489995 0.677955 0.181434
Si Si8 0.678709 0.319991 0.324197
O O1 0.778512 0.720945 0.935294
O O2 0.616783 0.761853 0.774838
O O3 0.718706 0.000000 0.892848
O O4 0.706562 0.797702 0.043073
O O5 0.294446 0.500000 0.246390
O O6 0.345606 0.782602 0.282952
O O7 0.211998 0.720115 0.259038
O O8 0.955257 0.500000 0.391529
O O9 0.967129 0.276390 0.264141
O O10 0.994365 0.231099 0.505884
O O11 0.310923 0.224111 0.756504
O O12 0.366353 0.000000 0.943005
O O13 0.429657 0.276449 0.019300
O O14 0.147418 0.245361 0.596232
O O15 0.224124 0.243122 0.481359
O O16 0.212183 0.000000 0.588424
O O17 0.592460 0.500000 0.651484
O O18 0.478073 0.500000 0.201043
O O19 0.581834 0.712452 0.236221
O O20 0.696830 0.500000 0.321951
#
# Coordination Sequence:
#
# PCOD8053022 Si02
#       8
#     4   4   4   4   4   4   4   4
#     4  10  20  35  55  82 117 153 191 237 289 341
#     4  11  24  40  58  83 119 156 193 240 289 339
#     4  12  23  36  59  88 116 150 196 239 285 346
#     4  10  19  32  56  86 114 147 190 239 288 340
#     4   8  16  33  55  81 112 148 185 229 284 336
#     4  10  19  35  59  86 117 147 186 239 292 342
#     4  11  21  36  58  85 117 150 189 242 291 336
#     4  10  21  39  60  81 112 155 196 233 286 348
#
# _framework density 18.743631000000001
#
# number of rings (size 3 to 8) (size 9 to 14) (size 15 to 20)
#    0.000    1.750    2.500    3.750    0.000    2.500 
#    0.000    2.500    0.000    4.500    0.000    0.000 
#    0.000    0.000    0.000    0.000    0.000    0.000 
#
# Total GULP energy -198420.687180 kJ/mol
# GULP energy per Si atom -12401.292949 kJ/mol
# Density = 1.870097 g / cm^3
# Si number density = 18.743631 Si / 1000 Ang^3
#
#
#
# Elastic Constant Matrix: (Units=GPa)
#
#
# Indices 1 2 3 4 5 6 
#
# 1 68.9472 27.4074 47.0417 0.0000 -7.6447 0.0000
# 2 27.4074 50.3943 35.6855 0.0000 -1.6269 0.0000
# 3 47.0417 35.6855 152.1990 0.0000 -1.9677 0.0000
# 4 0.0000 0.0000 0.0000 33.2199 0.0000 2.6074
# 5 -7.6447 -1.6269 -1.9677 0.0000 28.1466 0.0000
# 6 0.0000 0.0000 0.0000 2.6074 0.0000 27.0824
#
#
#
# Elastic Compliance Matrix: (Units=1/GPa)
#
#
# Indices 1 2 3 4 5 6 
#
# 1 0.021513 -0.008244 -0.004651 0.000000 0.005041 0.000000
# 2 -0.008244 0.026980 -0.003790 0.000000 -0.000944 0.000000
# 3 -0.004651 -0.003790 0.008886 0.000000 -0.000861 0.000000
# 4 0.000000 0.000000 0.000000 0.030332 0.000000 -0.002920
# 5 0.005041 -0.000944 -0.000861 0.000000 0.036783 0.000000
# 6 0.000000 0.000000 0.000000 -0.002920 0.000000 0.037206
#
#
# Mechanical properties :
#
#
# Convention : Reuss Voigt Hill
#
# Bulk Modulus (GPa) = 41.65154 54.64553 48.14853
# Shear Modulus (GPa) = 24.62171 28.45015 26.53593
#
# Velocity S-wave (km/s) = 3.62830 3.90019 3.76670
# Velocity P-wave (km/s) = 6.31052 7.03559 6.68290
#
# Compressibility (1/GPa) = 0.02400872
#
# Stress axis : x y z
#
# Youngs Moduli (GPa) = 46.48276 37.06386 112.54281
#
# Poissons Ratio (x) = 0.30555 0.52347
# Poissons Ratio (y) = 0.38319 0.42656
# Poissons Ratio (z) = 0.21620 0.14048
#
# Static dielectric constant tensor:
#      x y z
#    x 3.190690 0.000000 0.045150 
#    y 0.000000 3.405490 0.000000 
#    z 0.045150 0.000000 3.899680 
# 
# 
# High freq. dielectric constant tensor:
#      x y z
#    x 1.690960 0.000000 0.006390 
#    y 0.000000 1.728520 0.000000 
#    z 0.006390 0.000000 1.748630 
# 
# From -- ./inp_files/23887.got.cif
#   From: 2010.03.12/outbox.cif.g09.slc.cpg/sg8_12_cif.got.tgz:23887.got - 2010.03.31 10:45:26.
