data_PCOD8053046
_publ_section_title
;
Structure prediction by ZEFSAII (Michael W. Deem and Ramdas Pophale) SiO2 
 PCOD8053046
Probable space group: C M
;
_chemical_formula_sum "Si O2"
_cell_formula_units_Z 32
_cell_length_a 14.138298
_cell_length_b 8.373012
_cell_length_c 15.762867
_cell_angle_alpha 90.000000
_cell_angle_beta 63.699872
_cell_angle_gamma 90.000000
_cell_volume 1672.851141
_symmetry_space_group_name_H-M "C M"
_symmetry_group_IT_number 8
_symmetry_cell_setting 'monoclinic'
loop_
_space_group_symop_operation_xyz
x,y,z
x,-y,z
1/2+x,1/2+y,z
1/2+x,1/2-y,z
loop_
_atom_site_type_symbol
_atom_site_label
_atom_site_fract_x
_atom_site_fract_y
_atom_site_fract_z
Si Si1 0.897320 0.811880 0.773640
Si Si2 0.938386 0.185134 0.418410
Si Si3 0.187412 0.810424 0.922139
Si Si4 0.830663 0.685612 0.623331
Si Si5 0.607470 0.311685 0.776048
Si Si6 0.580112 0.313337 0.137819
Si Si7 0.864870 0.314515 0.277184
Si Si8 0.156651 0.684415 0.280673
O O1 0.801205 0.773624 0.875059
O O2 0.887820 0.718153 0.689407
O O3 0.002125 0.741284 0.776403
O O4 0.904564 0.000000 0.752855
O O5 0.882832 0.208088 0.530242
O O6 0.862751 0.253758 0.375003
O O7 0.050882 0.273280 0.374049
O O8 0.959063 0.000000 0.392606
O O9 0.120822 0.749351 0.867178
O O10 0.203940 0.000000 0.912499
O O11 0.126411 0.754119 0.030099
O O12 0.841964 0.500000 0.595308
O O13 0.708519 0.738424 0.679655
O O14 0.598436 0.500000 0.782808
O O15 0.599052 0.500000 0.143535
O O16 0.455594 0.276880 0.188669
O O17 0.641111 0.220542 0.187658
O O18 0.892988 0.500000 0.265575
O O19 0.752458 0.287216 0.279034
O O20 0.183969 0.500000 0.282845
#
# Coordination Sequence:
#
# PCOD8053046 Si02
#       8
#     4   4   4   4   4   4   4   4
#     4  10  19  33  54  80 107 139 183 229 270 318
#     4  11  22  38  58  83 112 142 182 229 277 329
#     4   9  19  36  55  77 108 144 178 218 272 329
#     4  10  20  37  56  76 107 145 181 221 275 330
#     4   8  17  34  54  75 104 141 177 215 263 319
#     4  10  20  36  57  82 112 146 185 229 277 329
#     4  11  22  38  58  82 112 145 182 226 277 329
#     4  11  22  38  58  81 110 146 186 227 275 327
#
# _framework density 19.129017000000001
#
# number of rings (size 3 to 8) (size 9 to 14) (size 15 to 20)
#    0.000    2.000    0.000    6.750    0.000    3.000 
#    0.000   11.250    0.000    0.000    0.000    0.000 
#    0.000    0.000    0.000    0.000    0.000    0.000 
#
# Total GULP energy -198443.134808 kJ/mol
# GULP energy per Si atom -12402.695925 kJ/mol
# Density = 1.908548 g / cm^3
# Si number density = 19.129017 Si / 1000 Ang^3
#
#
#
# Elastic Constant Matrix: (Units=GPa)
#
#
# Indices 1 2 3 4 5 6 
#
# 1 144.2892 5.9057 54.6547 0.0000 -4.0012 0.0000
# 2 5.9057 58.4498 12.4749 0.0000 -0.1956 0.0000
# 3 54.6547 12.4749 135.5861 0.0000 -6.6681 0.0000
# 4 0.0000 0.0000 0.0000 30.2565 0.0000 -0.7213
# 5 -4.0012 -0.1956 -6.6681 0.0000 12.2488 0.0000
# 6 0.0000 0.0000 0.0000 -0.7213 0.0000 29.8654
#
#
#
# Elastic Compliance Matrix: (Units=1/GPa)
#
#
# Indices 1 2 3 4 5 6 
#
# 1 0.008190 -0.000132 -0.003245 0.000000 0.000907 0.000000
# 2 -0.000132 0.017458 -0.001584 0.000000 -0.000627 0.000000
# 3 -0.003245 -0.001584 0.009017 0.000000 0.003824 0.000000
# 4 0.000000 0.000000 0.000000 0.033070 0.000000 0.000799
# 5 0.000907 -0.000627 0.003824 0.000000 0.084008 0.000000
# 6 0.000000 0.000000 0.000000 0.000799 0.000000 0.033503
#
#
# Mechanical properties :
#
#
# Convention : Reuss Voigt Hill
#
# Bulk Modulus (GPa) = 40.41366 53.82175 47.11770
# Shear Modulus (GPa) = 24.58024 32.16012 28.37018
#
# Velocity S-wave (km/s) = 3.58854 4.10472 3.85528
# Velocity P-wave (km/s) = 6.19216 7.11774 6.67102
#
# Compressibility (1/GPa) = 0.02474411
#
# Stress axis : x y z
#
# Youngs Moduli (GPa) = 122.09833 57.28043 110.90048
#
# Poissons Ratio (x) = 0.00756 0.35984
# Poissons Ratio (y) = 0.01611 0.17565
# Poissons Ratio (z) = 0.39617 0.09072
#
# Static dielectric constant tensor:
#      x y z
#    x 3.661070 0.000000 0.017550 
#    y 0.000000 3.427440 0.000000 
#    z 0.017550 0.000000 3.513730 
# 
# 
# High freq. dielectric constant tensor:
#      x y z
#    x 1.745370 0.000000 -0.000590 
#    y 0.000000 1.744890 0.000000 
#    z -0.000590 0.000000 1.744950 
# 
# From -- ./inp_files/26514.got.cif
#   From: 2010.03.12/outbox.cif.g09.slc.cpg/sg8_14_cif.got.tgz:26514.got - 2010.03.31 10:45:26.
