data_PCOD8053443
_publ_section_title
;
Structure prediction by ZEFSAII (Michael W. Deem and Ramdas Pophale) SiO2 
 PCOD8053443
Probable space group: C M
;
_chemical_formula_sum "Si O2"
_cell_formula_units_Z 28
_cell_length_a 13.301729
_cell_length_b 12.876657
_cell_length_c 9.739753
_cell_angle_alpha 90.000000
_cell_angle_beta 119.750527
_cell_angle_gamma 90.000000
_cell_volume 1448.358497
_symmetry_space_group_name_H-M "C M"
_symmetry_group_IT_number 8
_symmetry_cell_setting 'monoclinic'
loop_
_space_group_symop_operation_xyz
x,y,z
x,-y,z
1/2+x,1/2+y,z
1/2+x,1/2-y,z
loop_
_atom_site_type_symbol
_atom_site_label
_atom_site_fract_x
_atom_site_fract_y
_atom_site_fract_z
Si Si1 0.470960 0.883457 0.768820
Si Si2 0.529925 0.814868 0.110555
Si Si3 0.573780 0.618248 0.987582
Si Si4 0.860111 0.822709 0.660117
Si Si5 0.775877 0.882269 0.314584
Si Si6 0.302862 0.766674 0.080870
Si Si7 0.709836 0.118387 0.797018
O O1 0.367913 0.803135 0.667195
O O2 0.574556 0.860025 0.731784
O O3 0.422684 0.000000 0.717548
O O4 0.520050 0.869605 0.955461
O O5 0.640905 0.863989 0.260161
O O6 0.419285 0.833455 0.133019
O O7 0.545233 0.690828 0.098646
O O8 0.580751 0.500000 0.043193
O O9 0.476139 0.629359 0.804493
O O10 0.697266 0.652789 0.010048
O O11 0.852180 0.864194 0.501008
O O12 0.744707 0.857143 0.663710
O O13 0.815177 0.800009 0.227121
O O14 0.794756 0.000000 0.275254
O O15 0.290810 0.689256 0.945339
O O16 0.739221 0.000000 0.853783
#
# Coordination Sequence:
#
# PCOD8053443 Si02
#       7
#     4   4   4   4   4   4   4
#     4  10  20  37  62  86 115 152 197 241 283 341
#     4  10  21  37  57  84 115 150 196 234 278 341
#     4  10  20  35  57  83 112 146 187 238 288 332
#     4  11  22  37  59  89 119 145 194 243 291 340
#     4  11  23  39  59  85 118 154 191 239 289 345
#     4  11  21  38  57  87 113 149 193 242 279 345
#     4  11  19  35  61  84 110 152 196 235 280 340
#
# _framework density 19.332232000000001
#
# number of rings (size 3 to 8) (size 9 to 14) (size 15 to 20)
#    0.000    1.429    7.143    2.143    0.000    2.857 
#    0.000    2.857    0.000    0.000    0.000    0.000 
#    0.000    0.000    0.000    0.000    0.000    0.000 
#
# Total GULP energy -173598.305978 kJ/mol
# GULP energy per Si atom -12399.878998 kJ/mol
# Density = 1.928823 g / cm^3
# Si number density = 19.332232 Si / 1000 Ang^3
#
#
#
# Elastic Constant Matrix: (Units=GPa)
#
#
# Indices 1 2 3 4 5 6 
#
# 1 114.2197 20.1943 12.4733 0.0000 -4.2025 0.0000
# 2 20.1943 103.4607 10.1200 0.0000 2.0792 0.0000
# 3 12.4733 10.1200 66.5535 0.0000 -4.1337 0.0000
# 4 0.0000 0.0000 0.0000 13.3077 0.0000 2.0732
# 5 -4.2025 2.0792 -4.1337 0.0000 23.3287 0.0000
# 6 0.0000 0.0000 0.0000 2.0732 0.0000 22.5254
#
#
#
# Elastic Compliance Matrix: (Units=1/GPa)
#
#
# Indices 1 2 3 4 5 6 
#
# 1 0.009265 -0.001705 -0.001379 0.000000 0.001577 0.000000
# 2 -0.001705 0.010156 -0.001314 0.000000 -0.001445 0.000000
# 3 -0.001379 -0.001314 0.015648 0.000000 0.002641 0.000000
# 4 0.000000 0.000000 0.000000 0.076237 0.000000 -0.007017
# 5 0.001577 -0.001445 0.002641 0.000000 0.043746 0.000000
# 6 0.000000 0.000000 0.000000 -0.007017 0.000000 0.045040
#
#
# Mechanical properties :
#
#
# Convention : Reuss Voigt Hill
#
# Bulk Modulus (GPa) = 38.06452 41.08992 39.57722
# Shear Modulus (GPa) = 22.97287 27.92879 25.45083
#
# Velocity S-wave (km/s) = 3.45094 3.80501 3.63229
# Velocity P-wave (km/s) = 5.96750 6.37220 6.17317
#
# Compressibility (1/GPa) = 0.02627118
#
# Stress axis : x y z
#
# Youngs Moduli (GPa) = 107.93101 98.46432 63.90624
#
# Poissons Ratio (x) = 0.16790 0.08814
# Poissons Ratio (y) = 0.18405 0.08400
# Poissons Ratio (z) = 0.14886 0.12943
#
# Static dielectric constant tensor:
#      x y z
#    x 3.655240 0.000000 -0.034940 
#    y 0.000000 3.704620 0.000000 
#    z -0.034940 0.000000 3.163130 
# 
# 
# High freq. dielectric constant tensor:
#      x y z
#    x 1.755240 0.000000 -0.003850 
#    y 0.000000 1.760110 0.000000 
#    z -0.003850 0.000000 1.718840 
# 
# From -- ./inp_files/13178.got.cif
#   From: 2010.03.12/outbox.cif.g09.slc.cpg/sg8_7_cif.got.tgz:13178.got - 2010.03.31 10:45:26.
