data_PCOD8053514
_publ_section_title
;
Structure prediction by ZEFSAII (Michael W. Deem and Ramdas Pophale) SiO2 
 PCOD8053514
Probable space group: C M
;
_chemical_formula_sum "Si O2"
_cell_formula_units_Z 32
_cell_length_a 25.385359
_cell_length_b 8.877826
_cell_length_c 24.041183
_cell_angle_alpha 90.000000
_cell_angle_beta 162.114425
_cell_angle_gamma 90.000000
_cell_volume 1663.986021
_symmetry_space_group_name_H-M "C M"
_symmetry_group_IT_number 8
_symmetry_cell_setting 'monoclinic'
loop_
_space_group_symop_operation_xyz
x,y,z
x,-y,z
1/2+x,1/2+y,z
1/2+x,1/2-y,z
loop_
_atom_site_type_symbol
_atom_site_label
_atom_site_fract_x
_atom_site_fract_y
_atom_site_fract_z
Si Si1 0.541360 0.176021 0.238600
Si Si2 0.908890 0.675565 0.868595
Si Si3 0.534803 0.323258 0.506234
Si Si4 0.738680 0.321144 0.010759
Si Si5 0.424938 0.822693 0.504557
Si Si6 0.223358 0.321297 0.114994
Si Si7 0.065039 0.675942 0.138553
Si Si8 0.926652 0.178507 0.621431
O O1 0.483845 0.211791 0.117337
O O2 0.734708 0.238473 0.444019
O O3 0.543841 0.000000 0.252043
O O4 0.399569 0.246891 0.137326
O O5 0.943537 0.500000 0.899686
O O6 0.714779 0.716383 0.656037
O O7 0.049054 0.746471 0.967420
O O8 0.935431 0.724788 0.959581
O O9 0.522571 0.500000 0.507370
O O10 0.540212 0.234574 0.569533
O O11 0.381007 0.270353 0.312259
O O12 0.748920 0.500000 0.024313
O O13 0.559490 0.271102 0.802500
O O14 0.749162 0.253504 0.081904
O O15 0.232522 0.774423 0.297557
O O16 0.489984 0.749185 0.627214
O O17 0.439918 0.000000 0.525121
O O18 0.220007 0.500000 0.104037
O O19 0.117335 0.500000 0.187516
O O20 0.924366 0.000000 0.610876
#
# Coordination Sequence:
#
# PCOD8053514 Si02
#       8
#     4   4   4   4   4   4   4   4
#     4   8  16  31  53  81 106 132 178 229 267 315
#     4   9  18  33  58  85 104 139 192 232 266 321
#     4  10  20  36  59  81 106 146 191 228 269 326
#     4  10  21  36  57  81 105 144 189 226 269 323
#     4  11  21  33  53  84 120 147 174 223 285 334
#     4  10  21  38  55  79 113 145 182 229 275 324
#     4   9  16  33  58  81 109 145 185 228 270 323
#     4   9  19  36  57  78 105 144 187 227 269 322
#
# _framework density 19.230930000000001
#
# number of rings (size 3 to 8) (size 9 to 14) (size 15 to 20)
#    0.000    2.500    1.250    1.875    1.750    2.000 
#    0.000    3.750    0.000    0.000    0.000    0.000 
#    0.000    0.000    0.000    0.000    0.000    0.000 
#
# Total GULP energy -198328.826964 kJ/mol
# GULP energy per Si atom -12395.551685 kJ/mol
# Density = 1.918716 g / cm^3
# Si number density = 19.230930 Si / 1000 Ang^3
#
#
#
# Elastic Constant Matrix: (Units=GPa)
#
#
# Indices 1 2 3 4 5 6 
#
# 1 150.2811 23.4038 70.5935 0.0091 12.6642 0.0018
# 2 23.4038 32.6004 23.3106 0.0255 -1.6340 0.0058
# 3 70.5935 23.3106 111.0694 0.0456 13.2104 0.0129
# 4 0.0091 0.0255 0.0456 8.3418 0.0125 -2.7129
# 5 12.6642 -1.6340 13.2104 0.0125 28.9108 0.0015
# 6 0.0018 0.0058 0.0129 -2.7129 0.0015 30.6682
#
#
#
# Elastic Compliance Matrix: (Units=1/GPa)
#
#
# Indices 1 2 3 4 5 6 
#
# 1 0.009846 -0.003383 -0.005300 0.000033 -0.002082 0.000005
# 2 -0.003383 0.038202 -0.006663 -0.000091 0.006686 -0.000013
# 3 -0.005300 -0.006663 0.014317 -0.000048 -0.004597 -0.000008
# 4 0.000033 -0.000091 -0.000048 0.123430 -0.000052 0.010919
# 5 -0.002082 0.006686 -0.004597 -0.000052 0.037980 -0.000006
# 6 0.000005 -0.000013 -0.000008 0.010919 -0.000006 0.033573
#
#
# Mechanical properties :
#
#
# Convention : Reuss Voigt Hill
#
# Bulk Modulus (GPa) = 31.57184 58.72963 45.15074
# Shear Modulus (GPa) = 16.74485 25.36035 21.05260
#
# Velocity S-wave (km/s) = 2.95401 3.63537 3.31225
# Velocity P-wave (km/s) = 5.29979 6.94454 6.17715
#
# Compressibility (1/GPa) = 0.03167379
#
# Stress axis : x y z
#
# Youngs Moduli (GPa) = 101.55999 26.17636 69.84541
#
# Poissons Ratio (x) = 0.08856 0.37022
# Poissons Ratio (y) = 0.34358 0.46535
# Poissons Ratio (z) = 0.53832 0.17440
#
# Static dielectric constant tensor:
#      x y z
#    x 3.645850 -0.000010 0.138230 
#    y -0.000010 3.091410 -0.000020 
#    z 0.138230 -0.000020 3.757810 
# 
# 
# High freq. dielectric constant tensor:
#      x y z
#    x 1.749880 0.000000 0.005060 
#    y 0.000000 1.704920 0.000000 
#    z 0.005060 0.000000 1.754730 
# 
# From -- ./inp_files/17258.got.cif
#   From: 2010.03.12/outbox.cif.g09.slc.cpg/sg8_9_cif.got.tgz:17258.got - 2010.03.31 10:45:26.
