data_PCOD8053388
_publ_section_title
;
Structure prediction by ZEFSAII (Michael W. Deem and Ramdas Pophale) SiO2 
 PCOD8053388
Probable space group: C M
;
_chemical_formula_sum "Si O2"
_cell_formula_units_Z 32
_cell_length_a 24.054264
_cell_length_b 8.776727
_cell_length_c 14.222789
_cell_angle_alpha 90.000000
_cell_angle_beta 149.009602
_cell_angle_gamma 90.000000
_cell_volume 1546.064520
_symmetry_space_group_name_H-M "C M"
_symmetry_group_IT_number 8
_symmetry_cell_setting 'monoclinic'
loop_
_space_group_symop_operation_xyz
x,y,z
x,-y,z
1/2+x,1/2+y,z
1/2+x,1/2-y,z
loop_
_atom_site_type_symbol
_atom_site_label
_atom_site_fract_x
_atom_site_fract_y
_atom_site_fract_z
Si Si1 0.309720 0.667251 0.047810
Si Si2 0.768184 0.321218 0.363656
Si Si3 0.700332 0.819552 0.070730
Si Si4 0.674390 0.819744 0.587397
Si Si5 0.876223 0.672483 0.968931
Si Si6 0.621142 0.824107 0.302738
Si Si7 0.989519 0.821020 0.678527
Si Si8 0.570740 0.169311 0.620073
O O1 0.363795 0.500000 0.123512
O O2 0.296385 0.725789 0.136301
O O3 0.379758 0.779144 0.084251
O O4 0.189821 0.656955 0.833831
O O5 0.767200 0.500000 0.341105
O O6 0.737217 0.227336 0.226658
O O7 0.683047 0.283926 0.321112
O O8 0.885508 0.266522 0.568491
O O9 0.678135 0.000000 0.033205
O O10 0.590810 0.731938 0.886572
O O11 0.644387 0.760198 0.440936
O O12 0.584734 0.762657 0.534239
O O13 0.672251 0.000000 0.588073
O O14 0.795270 0.769818 0.788543
O O15 0.836067 0.500000 0.907227
O O16 0.994626 0.691106 0.097029
O O17 0.658644 0.000000 0.347012
O O18 0.000809 0.781260 0.583874
O O19 0.972962 0.000000 0.665770
O O20 0.517603 0.000000 0.543241
#
# Coordination Sequence:
#
# PCOD8053388 Si02
#       8
#     4   4   4   4   4   4   4   4
#     4   8  16  32  56  85 117 149 182 224 280 341
#     4  12  26  42  60  84 113 152 200 247 291 342
#     4  10  21  40  63  88 119 154 191 238 290 343
#     4   9  19  37  60  82 112 153 189 226 281 341
#     4  10  20  34  57  87 117 147 183 232 286 335
#     4  10  23  42  58  78 111 151 194 240 286 338
#     4  11  22  38  61  89 120 155 191 235 290 347
#     4   8  15  31  55  85 117 149 186 230 280 339
#
# _framework density 20.697713
#
# number of rings (size 3 to 8) (size 9 to 14) (size 15 to 20)
#    0.000    2.250    0.000    4.500    0.000    8.500 
#    0.000    3.750    0.000    0.000    0.000    0.000 
#    0.000    0.000    0.000    0.000    0.000    0.000 
#
# Total GULP energy -198375.932630 kJ/mol
# GULP energy per Si atom -12398.495789 kJ/mol
# Density = 2.065060 g / cm^3
# Si number density = 20.697713 Si / 1000 Ang^3
#
#
#
# Elastic Constant Matrix: (Units=GPa)
#
#
# Indices 1 2 3 4 5 6 
#
# 1 76.5279 24.2255 5.8892 0.0000 2.3152 0.0000
# 2 24.2255 60.1832 2.2636 0.0000 6.7816 0.0000
# 3 5.8892 2.2636 34.0571 0.0000 -0.4617 0.0000
# 4 0.0000 0.0000 0.0000 22.6060 0.0000 5.5253
# 5 2.3152 6.7816 -0.4617 0.0000 33.8546 0.0000
# 6 0.0000 0.0000 0.0000 5.5253 0.0000 31.7243
#
#
#
# Elastic Compliance Matrix: (Units=1/GPa)
#
#
# Indices 1 2 3 4 5 6 
#
# 1 0.015141 -0.006027 -0.002216 0.000000 0.000142 0.000000
# 2 -0.006027 0.019446 -0.000297 0.000000 -0.003487 0.000000
# 3 -0.002216 -0.000297 0.029774 0.000000 0.000617 0.000000
# 4 0.000000 0.000000 0.000000 0.046203 0.000000 -0.008047
# 5 0.000142 -0.003487 0.000617 0.000000 0.030235 0.000000
# 6 0.000000 0.000000 0.000000 -0.008047 0.000000 0.032923
#
#
# Mechanical properties :
#
#
# Convention : Reuss Voigt Hill
#
# Bulk Modulus (GPa) = 21.15058 26.16943 23.66001
# Shear Modulus (GPa) = 24.20553 26.86295 25.53424
#
# Velocity S-wave (km/s) = 3.42347 3.60651 3.51618
# Velocity P-wave (km/s) = 5.08605 5.47847 5.28590
#
# Compressibility (1/GPa) = 0.04728002
#
# Stress axis : x y z
#
# Youngs Moduli (GPa) = 66.04406 51.42362 33.58663
#
# Poissons Ratio (x) = 0.30996 0.07442
# Poissons Ratio (y) = 0.39808 0.00999
# Poissons Ratio (z) = 0.14634 0.01530
#
# Static dielectric constant tensor:
#      x y z
#    x 4.107850 0.000000 -0.096360 
#    y 0.000000 3.650990 0.000000 
#    z -0.096360 0.000000 3.559850 
# 
# 
# High freq. dielectric constant tensor:
#      x y z
#    x 1.812170 0.000000 -0.001100 
#    y 0.000000 1.804610 0.000000 
#    z -0.001100 0.000000 1.800060 
# 
# From -- ./inp_files/28215.got.cif
#   From: 2010.03.12/outbox.cif.g09.slc.cpg/sg8_15_cif.got.tgz:28215.got - 2010.03.31 10:45:26.
