data_PCOD8053968
_publ_section_title
;
Structure prediction by ZEFSAII (Michael W. Deem and Ramdas Pophale) SiO2 
 PCOD8053968
Probable space group: C M
;
_chemical_formula_sum "Si O2"
_cell_formula_units_Z 32
_cell_length_a 23.650069
_cell_length_b 8.817937
_cell_length_c 14.211766
_cell_angle_alpha 90.000000
_cell_angle_beta 147.385278
_cell_angle_gamma 90.000000
_cell_volume 1597.445058
_symmetry_space_group_name_H-M "C M"
_symmetry_group_IT_number 8
_symmetry_cell_setting 'monoclinic'
loop_
_space_group_symop_operation_xyz
x,y,z
x,-y,z
1/2+x,1/2+y,z
1/2+x,1/2-y,z
loop_
_atom_site_type_symbol
_atom_site_label
_atom_site_fract_x
_atom_site_fract_y
_atom_site_fract_z
Si Si1 0.367270 0.824430 0.202610
Si Si2 0.771199 0.678220 0.374963
Si Si3 0.692521 0.825644 0.079695
Si Si4 0.746176 0.176421 0.721959
Si Si5 0.924791 0.675434 0.071975
Si Si6 0.665344 0.823799 0.403936
Si Si7 0.009551 0.675867 0.688719
Si Si8 0.563303 0.322286 0.575401
O O1 0.272427 0.730232 0.112381
O O2 0.370694 0.795887 0.096507
O O3 0.476100 0.773561 0.399720
O O4 0.350532 0.000000 0.203847
O O5 0.767528 0.500000 0.366076
O O6 0.704139 0.738627 0.193617
O O7 0.721095 0.730853 0.401238
O O8 0.891278 0.734986 0.538124
O O9 0.716991 0.000000 0.134055
O O10 0.574433 0.801347 0.876122
O O11 0.724106 0.214710 0.582878
O O12 0.675218 0.280083 0.689351
O O13 0.725128 0.000000 0.713589
O O14 0.866114 0.221853 0.912363
O O15 0.916998 0.500000 0.031893
O O16 0.045058 0.728483 0.244590
O O17 0.672968 0.000000 0.389759
O O18 0.011694 0.500000 0.660331
O O19 0.063474 0.778605 0.685063
O O20 0.542239 0.500000 0.534002
#
# Coordination Sequence:
#
# PCOD8053968 Si02
#       8
#     4   4   4   4   4   4   4   4
#     4  11  21  38  62  90 127 164 198 247 308 365
#     4  11  24  42  64  89 120 162 207 258 308 358
#     4  11  23  40  63  93 123 161 204 249 306 367
#     4  11  23  41  64  92 126 163 201 251 308 362
#     4  10  22  41  64  91 124 163 203 248 306 366
#     4  10  23  44  64  85 121 164 205 255 308 360
#     4  10  23  42  63  89 126 163 200 250 308 365
#     4  12  23  36  62  95 125 162 204 248 302 367
#
# _framework density 20.031987000000001
#
# number of rings (size 3 to 8) (size 9 to 14) (size 15 to 20)
#    0.000    1.250    2.500    3.375    0.000    7.000 
#    0.000    3.750    0.000    0.000    0.000    0.000 
#    0.000    0.000    0.000    0.000    0.000    0.000 
#
# Total GULP energy -198496.126510 kJ/mol
# GULP energy per Si atom -12406.007907 kJ/mol
# Density = 1.998639 g / cm^3
# Si number density = 20.031987 Si / 1000 Ang^3
#
#
#
# Elastic Constant Matrix: (Units=GPa)
#
#
# Indices 1 2 3 4 5 6 
#
# 1 103.7639 49.0605 34.4732 0.0000 -17.3331 0.0000
# 2 49.0605 43.5909 31.8260 0.0000 -8.9261 0.0000
# 3 34.4732 31.8260 121.3305 0.0000 -23.9258 0.0000
# 4 0.0000 0.0000 0.0000 33.9060 0.0000 -0.0992
# 5 -17.3331 -8.9261 -23.9258 0.0000 17.8498 0.0000
# 6 0.0000 0.0000 0.0000 -0.0992 0.0000 36.5813
#
#
#
# Elastic Compliance Matrix: (Units=1/GPa)
#
#
# Indices 1 2 3 4 5 6 
#
# 1 0.022650 -0.024728 0.002650 0.000000 0.013181 0.000000
# 2 -0.024728 0.055808 -0.009304 0.000000 -0.008576 0.000000
# 3 0.002650 -0.009304 0.012940 0.000000 0.015265 0.000000
# 4 0.000000 0.000000 0.000000 0.029494 0.000000 0.000080
# 5 0.013181 -0.008576 0.015265 0.000000 0.084995 0.000000
# 6 0.000000 0.000000 0.000000 0.000080 0.000000 0.027337
#
#
# Mechanical properties :
#
#
# Convention : Reuss Voigt Hill
#
# Bulk Modulus (GPa) = 34.92341 55.48940 45.20640
# Shear Modulus (GPa) = 16.36485 27.88913 22.12699
#
# Velocity S-wave (km/s) = 2.86131 3.73531 3.32713
# Velocity P-wave (km/s) = 5.32802 6.80910 6.11358
#
# Compressibility (1/GPa) = 0.02863409
#
# Stress axis : x y z
#
# Youngs Moduli (GPa) = 44.14957 17.91847 77.28133
#
# Poissons Ratio (x) = 0.44309 -0.20480
# Poissons Ratio (y) = 1.09173 0.71904
# Poissons Ratio (z) = -0.11700 0.16672
#
# Static dielectric constant tensor:
#      x y z
#    x 3.564490 0.000000 0.019480 
#    y 0.000000 3.613920 0.000000 
#    z 0.019480 0.000000 3.845860 
# 
# 
# High freq. dielectric constant tensor:
#      x y z
#    x 1.775560 0.000000 -0.003920 
#    y 0.000000 1.784530 0.000000 
#    z -0.003920 0.000000 1.798250 
# 
# From -- ./inp_files/26518.got.cif
#   From: 2010.03.12/outbox.cif.g09.slc.cpg/sg8_14_cif.got.tgz:26518.got - 2010.03.31 10:45:26.
