data_PCOD8053745
_publ_section_title
;
Structure prediction by ZEFSAII (Michael W. Deem and Ramdas Pophale) SiO2 
 PCOD8053745
Probable space group: C M
;
_chemical_formula_sum "Si O2"
_cell_formula_units_Z 24
_cell_length_a 18.629647
_cell_length_b 7.367149
_cell_length_c 15.935487
_cell_angle_alpha 90.000000
_cell_angle_beta 37.410683
_cell_angle_gamma 90.000000
_cell_volume 1328.718016
_symmetry_space_group_name_H-M "C M"
_symmetry_group_IT_number 8
_symmetry_cell_setting 'monoclinic'
loop_
_space_group_symop_operation_xyz
x,y,z
x,-y,z
1/2+x,1/2+y,z
1/2+x,1/2-y,z
loop_
_atom_site_type_symbol
_atom_site_label
_atom_site_fract_x
_atom_site_fract_y
_atom_site_fract_z
Si Si1 0.271730 0.500000 0.468670
Si Si2 0.953451 0.000000 0.148953
Si Si3 0.852617 0.785509 0.931715
Si Si4 0.078874 0.791053 0.616596
Si Si5 0.076503 0.286708 0.427472
Si Si6 0.979750 0.000000 0.398594
Si Si7 0.161517 0.000000 0.076823
Si Si8 0.325503 0.700455 0.140473
O O1 0.353446 0.500000 0.311713
O O2 0.192658 0.679422 0.539535
O O3 0.349310 0.500000 0.480517
O O4 0.930959 0.181041 0.111811
O O5 0.083969 0.000000 0.064047
O O6 0.968338 0.725045 0.774376
O O7 0.830842 0.000000 0.942596
O O8 0.739041 0.681995 0.000702
O O9 0.870496 0.713569 0.011417
O O10 0.043593 0.756527 0.553397
O O11 0.108535 0.000000 0.606029
O O12 0.062319 0.500000 0.423946
O O13 0.208846 0.205621 0.287477
O O14 0.988960 0.180231 0.446812
O O15 0.079420 0.000000 0.234583
O O16 0.280004 0.500000 0.157975
#
# Coordination Sequence:
#
# PCOD8053745 Si02
#       8
#     2   2   4   4   4   2   2   4
#     4  11  21  40  54  88 122 144 184 255 284 335
#     4   9  18  34  59  84 112 148 182 234 291 329
#     4  10  21  36  59  85 112 147 196 234 270 344
#     4  11  21  36  63  84 112 156 199 229 285 345
#     4  11  19  36  60  84 110 152 194 239 280 334
#     4  11  24  34  59  90 118 144 192 244 291 339
#     4  11  21  34  60  86 114 150 182 233 302 325
#     4   8  15  33  57  77 105 144 183 228 270 325
#
# _framework density 18.062522999999999
#
# number of rings (size 3 to 8) (size 9 to 14) (size 15 to 20)
#    0.500    1.333    5.000    0.500    0.000    0.667 
#    0.000    4.167    3.667    0.000    0.000    0.000 
#    0.000    0.000    0.000    0.000    0.000    0.000 
#
# Total GULP energy -148707.632612 kJ/mol
# GULP energy per Si atom -12392.302718 kJ/mol
# Density = 1.802141 g / cm^3
# Si number density = 18.062523 Si / 1000 Ang^3
#
#
#
# Elastic Constant Matrix: (Units=GPa)
#
#
# Indices 1 2 3 4 5 6 
#
# 1 168.1516 47.0328 69.9912 -0.0001 -6.3487 0.0001
# 2 47.0328 85.9277 33.0144 -0.0006 -9.8678 0.0004
# 3 69.9912 33.0144 115.4167 -0.0005 9.6727 0.0001
# 4 -0.0001 -0.0006 -0.0005 -0.2397 0.0003 -5.6205
# 5 -6.3487 -9.8678 9.6727 0.0003 30.3488 0.0000
# 6 0.0001 0.0004 0.0001 -5.6205 0.0000 28.4743
#
#
#
# Elastic Compliance Matrix: (Units=1/GPa)
#
#
# Indices 1 2 3 4 5 6 
#
# 1 0.008774 -0.002689 -0.004759 0.000003 0.002478 0.000001
# 2 -0.002689 0.014893 -0.003070 -0.000003 0.005258 -0.000001
# 3 -0.004759 -0.003070 0.012941 -0.000004 -0.006118 -0.000001
# 4 0.000003 -0.000003 -0.000004 -0.741204 0.000007 -0.146306
# 5 0.002478 0.005258 -0.006118 0.000007 0.037128 0.000001
# 6 0.000001 -0.000001 -0.000001 -0.146306 0.000001 0.006240
#
#
# Mechanical properties :
#
#
# Convention : Reuss Voigt Hill
#
# Bulk Modulus (GPa) = 64.22001 74.39696 69.30849
# Shear Modulus (GPa) = -7.87400 26.34718 9.23659
#
# Velocity S-wave (km/s) = -2.09016 3.82339 2.26380
# Velocity P-wave (km/s) = 5.45953 7.79545 6.72962
#
# Compressibility (1/GPa) = 0.01557147
#
# Stress axis : x y z
#
# Youngs Moduli (GPa) = 113.97822 67.14545 77.27359
#
# Poissons Ratio (x) = 0.18057 0.36774
# Poissons Ratio (y) = 0.30652 0.23722
# Poissons Ratio (z) = 0.54241 0.20613
#
# Static dielectric constant tensor:
#      x y z
#    x 3.329980 0.000000 0.193500 
#    y 0.000000 3.243490 0.000000 
#    z 0.193500 0.000000 3.406030 
# 
# 
# High freq. dielectric constant tensor:
#      x y z
#    x 1.689150 0.000000 0.018920 
#    y 0.000000 1.694770 0.000000 
#    z 0.018920 0.000000 1.697880 
# 
# From -- ./inp_files/26495.got.cif
#   From: 2010.03.12/outbox.cif.g09.slc.cpg/sg8_14_cif.got.tgz:26495.got - 2010.03.31 10:45:26.
