data_PCOD8053523
_publ_section_title
;
Structure prediction by ZEFSAII (Michael W. Deem and Ramdas Pophale) SiO2 
 PCOD8053523
Probable space group: C M
;
_chemical_formula_sum "Si O2"
_cell_formula_units_Z 24
_cell_length_a 8.331119
_cell_length_b 22.453007
_cell_length_c 7.476712
_cell_angle_alpha 90.000000
_cell_angle_beta 52.180046
_cell_angle_gamma 90.000000
_cell_volume 1104.799422
_symmetry_space_group_name_H-M "C M"
_symmetry_group_IT_number 8
_symmetry_cell_setting 'monoclinic'
loop_
_space_group_symop_operation_xyz
x,y,z
x,-y,z
1/2+x,1/2+y,z
1/2+x,1/2-y,z
loop_
_atom_site_type_symbol
_atom_site_label
_atom_site_fract_x
_atom_site_fract_y
_atom_site_fract_z
Si Si1 0.420260 0.431836 0.437280
Si Si2 0.255446 0.840029 0.243379
Si Si3 0.488206 0.568215 0.984602
Si Si4 0.531314 0.270711 0.675176
Si Si5 0.717246 0.128451 0.875210
Si Si6 0.732254 0.678547 0.863005
O O1 0.456211 0.500000 0.461317
O O2 0.619434 0.398021 0.376753
O O3 0.386548 0.423039 0.248794
O O4 0.225915 0.407035 0.680143
O O5 0.219130 0.790476 0.421880
O O6 0.486644 0.860544 0.086682
O O7 0.180567 0.811968 0.107018
O O8 0.555511 0.500000 0.906599
O O9 0.322151 0.588063 0.955094
O O10 0.692621 0.609673 0.832508
O O11 0.330483 0.309073 0.769858
O O12 0.585743 0.279246 0.846024
O O13 0.466745 0.201680 0.680258
#
# Coordination Sequence:
#
# PCOD8053523 Si02
#       6
#     4   4   4   4   4   4
#     4   9  19  36  57  84 120 159 201 248 297 357
#     4  10  22  38  59  89 121 158 205 252 304 360
#     4   9  19  37  62  92 126 163 203 248 299 361
#     4  10  22  38  57  87 121 158 205 253 302 360
#     4  10  20  36  59  86 119 160 203 252 305 356
#     4  10  21  39  62  88 124 162 199 251 307 356
#
# _framework density 21.723399000000001
#
# number of rings (size 3 to 8) (size 9 to 14) (size 15 to 20)
#    0.000    2.333    0.000    1.500    0.000    5.333 
#    0.000    5.000    0.000    8.000    0.000    0.000 
#    0.000    0.000    0.000    0.000    0.000    0.000 
#
# Total GULP energy -148722.505993 kJ/mol
# GULP energy per Si atom -12393.542166 kJ/mol
# Density = 2.167396 g / cm^3
# Si number density = 21.723399 Si / 1000 Ang^3
#
#
#
# Elastic Constant Matrix: (Units=GPa)
#
#
# Indices 1 2 3 4 5 6 
#
# 1 90.1556 64.0175 46.9396 0.0000 8.6098 0.0000
# 2 64.0175 131.4526 73.2091 0.0000 -1.0447 0.0000
# 3 46.9396 73.2091 116.4509 0.0000 -9.5732 0.0000
# 4 0.0000 0.0000 0.0000 30.0720 0.0000 -4.5593
# 5 8.6098 -1.0447 -9.5732 0.0000 35.6214 0.0000
# 6 0.0000 0.0000 0.0000 -4.5593 0.0000 30.5460
#
#
#
# Elastic Compliance Matrix: (Units=1/GPa)
#
#
# Indices 1 2 3 4 5 6 
#
# 1 0.018474 -0.007137 -0.003420 0.000000 -0.005594 0.000000
# 2 -0.007137 0.014561 -0.006238 0.000000 0.000476 0.000000
# 3 -0.003420 -0.006238 0.014255 0.000000 0.004475 0.000000
# 4 0.000000 0.000000 0.000000 0.034024 0.000000 0.005078
# 5 -0.005594 0.000476 0.004475 0.000000 0.030642 0.000000
# 6 0.000000 0.000000 0.000000 0.005078 0.000000 0.033496
#
#
# Mechanical properties :
#
#
# Convention : Reuss Voigt Hill
#
# Bulk Modulus (GPa) = 72.98766 78.48795 75.73780
# Shear Modulus (GPa) = 27.23191 29.50740 28.36966
#
# Velocity S-wave (km/s) = 3.54443 3.68954 3.61771
# Velocity P-wave (km/s) = 7.10086 7.37288 7.23815
#
# Compressibility (1/GPa) = 0.01370095
#
# Stress axis : x y z
#
# Youngs Moduli (GPa) = 54.12885 68.67697 70.14896
#
# Poissons Ratio (x) = 0.49014 0.23990
# Poissons Ratio (y) = 0.38631 0.43760
# Poissons Ratio (z) = 0.18511 0.42842
#
# Static dielectric constant tensor:
#      x y z
#    x 3.857620 0.000000 0.285200 
#    y 0.000000 4.130710 0.000000 
#    z 0.285200 0.000000 3.929190 
# 
# 
# High freq. dielectric constant tensor:
#      x y z
#    x 1.851820 0.000000 0.025210 
#    y 0.000000 1.856570 0.000000 
#    z 0.025210 0.000000 1.840110 
# 
# From -- ./inp_files/1622.got.cif
#   From: 2010.03.12/outbox.cif.g09.slc.cpg/sg8_1_cif.got.tgz:1622.got - 2010.03.31 10:45:26.
