data_PCOD8053409
_publ_section_title
;
Structure prediction by ZEFSAII (Michael W. Deem and Ramdas Pophale) SiO2 
 PCOD8053409
Probable space group: C M
;
_chemical_formula_sum "Si O2"
_cell_formula_units_Z 32
_cell_length_a 14.622662
_cell_length_b 8.863582
_cell_length_c 29.491509
_cell_angle_alpha 90.000000
_cell_angle_beta 27.857529
_cell_angle_gamma 90.000000
_cell_volume 1786.096277
_symmetry_space_group_name_H-M "C M"
_symmetry_group_IT_number 8
_symmetry_cell_setting 'monoclinic'
loop_
_space_group_symop_operation_xyz
x,y,z
x,-y,z
1/2+x,1/2+y,z
1/2+x,1/2-y,z
loop_
_atom_site_type_symbol
_atom_site_label
_atom_site_fract_x
_atom_site_fract_y
_atom_site_fract_z
Si Si1 0.981530 0.323951 0.435750
Si Si2 0.960064 0.678090 0.723007
Si Si3 0.869762 0.675907 0.111164
Si Si4 0.608303 0.329061 0.938448
Si Si5 0.058860 0.178191 0.588149
Si Si6 0.849340 0.174723 0.213829
Si Si7 0.385589 0.322160 0.568776
Si Si8 0.679633 0.830249 0.119220
O O1 0.975940 0.500000 0.448392
O O2 0.786201 0.273652 0.494168
O O3 0.005816 0.243103 0.473571
O O4 0.165202 0.277968 0.324849
O O5 0.948799 0.500000 0.721115
O O6 0.779840 0.738874 0.832180
O O7 0.940086 0.752267 0.682298
O O8 0.158779 0.725928 0.662005
O O9 0.839117 0.500000 0.116217
O O10 0.858650 0.711492 0.168374
O O11 0.695723 0.773423 0.164270
O O12 0.078230 0.728416 0.997295
O O13 0.661170 0.500000 0.930059
O O14 0.401257 0.327373 0.001400
O O15 0.972395 0.241255 0.578337
O O16 0.032494 0.000000 0.601513
O O17 0.048588 0.205675 0.152806
O O18 0.839470 0.000000 0.203275
O O19 0.410838 0.500000 0.556643
O O20 0.591422 0.000000 0.155669
#
# Coordination Sequence:
#
# PCOD8053409 Si02
#       8
#     4   4   4   4   4   4   4   4
#     4   9  20  35  52  74 105 137 169 214 264 308
#     4   9  17  33  54  76 105 137 170 211 258 307
#     4  10  20  35  54  77 106 140 179 220 262 314
#     4   8  17  35  54  73 107 143 172 217 267 308
#     4   9  18  34  52  76 106 134 169 213 257 310
#     4  11  21  35  54  78 106 143 183 222 266 314
#     4   9  18  33  54  78 103 134 172 211 256 311
#     4   9  19  36  54  74 104 140 176 222 266 310
#
# _framework density 17.916167999999999
#
# number of rings (size 3 to 8) (size 9 to 14) (size 15 to 20)
#    0.750    2.000    0.000    1.500    0.000    3.000 
#    2.250    1.250    0.000    0.000    0.000    0.000 
#    0.000    0.000    0.000    0.000    0.000    0.000 
#
# Total GULP energy -198276.296272 kJ/mol
# GULP energy per Si atom -12392.268517 kJ/mol
# Density = 1.787539 g / cm^3
# Si number density = 17.916168 Si / 1000 Ang^3
#
#
#
# Elastic Constant Matrix: (Units=GPa)
#
#
# Indices 1 2 3 4 5 6 
#
# 1 123.8244 24.1442 52.6087 0.0004 13.8821 -0.0003
# 2 24.1442 52.1319 35.7705 -0.0015 7.2417 -0.0009
# 3 52.6087 35.7705 125.2781 -0.0120 15.4470 -0.0010
# 4 0.0004 -0.0015 -0.0120 24.8491 -0.0020 4.0595
# 5 13.8821 7.2417 15.4470 -0.0020 23.1433 -0.0004
# 6 -0.0003 -0.0009 -0.0010 4.0595 -0.0004 30.7218
#
#
#
# Elastic Compliance Matrix: (Units=1/GPa)
#
#
# Indices 1 2 3 4 5 6 
#
# 1 0.010250 -0.002008 -0.003324 -0.000002 -0.003301 0.000000
# 2 -0.002008 0.024466 -0.005827 -0.000002 -0.002562 0.000001
# 3 -0.003324 -0.005827 0.011519 0.000005 -0.003871 -0.000001
# 4 -0.000002 -0.000002 0.000005 0.041131 0.000002 -0.005435
# 5 -0.003301 -0.002562 -0.003871 0.000002 0.048575 0.000000
# 6 0.000000 0.000001 -0.000001 -0.005435 0.000000 0.033268
#
#
# Mechanical properties :
#
#
# Convention : Reuss Voigt Hill
#
# Bulk Modulus (GPa) = 41.80927 58.47569 50.14248
# Shear Modulus (GPa) = 25.06288 28.32358 26.69323
#
# Velocity S-wave (km/s) = 3.74424 3.98036 3.86410
# Velocity P-wave (km/s) = 6.48685 7.33715 6.92506
#
# Compressibility (1/GPa) = 0.02391814
#
# Stress axis : x y z
#
# Youngs Moduli (GPa) = 97.56316 40.87325 86.81243
#
# Poissons Ratio (x) = 0.08206 0.28856
# Poissons Ratio (y) = 0.19588 0.50583
# Poissons Ratio (z) = 0.32429 0.23815
#
# Static dielectric constant tensor:
#      x y z
#    x 3.230780 0.000000 -0.017700 
#    y 0.000000 3.167350 0.000000 
#    z -0.017700 0.000000 3.313590 
# 
# 
# High freq. dielectric constant tensor:
#      x y z
#    x 1.683790 0.000000 0.002090 
#    y 0.000000 1.690750 0.000000 
#    z 0.002090 0.000000 1.685760 
# 
# From -- ./inp_files/26455.got.cif
#   From: 2010.03.12/outbox.cif.g09.slc.cpg/sg8_14_cif.got.tgz:26455.got - 2010.03.31 10:45:26.
