data_PCOD8053231
_publ_section_title
;
Structure prediction by ZEFSAII (Michael W. Deem and Ramdas Pophale) SiO2 
 PCOD8053231
Probable space group: C M
;
_chemical_formula_sum "Si O2"
_cell_formula_units_Z 32
_cell_length_a 13.761501
_cell_length_b 14.103433
_cell_length_c 9.115833
_cell_angle_alpha 90.000000
_cell_angle_beta 88.997363
_cell_angle_gamma 90.000000
_cell_volume 1768.970158
_symmetry_space_group_name_H-M "C M"
_symmetry_group_IT_number 8
_symmetry_cell_setting 'monoclinic'
loop_
_space_group_symop_operation_xyz
x,y,z
x,-y,z
1/2+x,1/2+y,z
1/2+x,1/2-y,z
loop_
_atom_site_type_symbol
_atom_site_label
_atom_site_fract_x
_atom_site_fract_y
_atom_site_fract_z
Si Si1 0.204070 0.734294 0.668470
Si Si2 0.935221 0.606649 0.979203
Si Si3 0.523415 0.890430 0.665015
Si Si4 0.589665 0.607892 0.176205
Si Si5 0.088914 0.890415 0.515176
Si Si6 0.748706 0.288378 0.985634
Si Si7 0.409163 0.270833 0.175806
Si Si8 0.904863 0.763632 0.514624
O O1 0.128227 0.653151 0.623743
O O2 0.169189 0.836775 0.610322
O O3 0.210543 0.735327 0.843704
O O4 0.306920 0.705448 0.598175
O O5 0.945720 0.500000 0.037621
O O6 0.822292 0.626449 0.938253
O O7 0.003014 0.624095 0.837463
O O8 0.965985 0.678141 0.109358
O O9 0.441084 0.837400 0.573650
O O10 0.521535 0.000000 0.619280
O O11 0.599446 0.500000 0.124615
O O12 0.619365 0.620469 0.344844
O O13 0.477771 0.638112 0.155805
O O14 0.657901 0.672502 0.076711
O O15 0.983088 0.845552 0.546161
O O16 0.085958 0.000000 0.563673
O O17 0.809072 0.214089 0.087057
O O18 0.382844 0.251750 0.344249
#
# Coordination Sequence:
#
# PCOD8053231 Si02
#       8
#     4   4   4   4   4   4   4   4
#     4  11  21  35  56  78 108 140 177 213 262 312
#     4   9  18  34  52  75 106 134 170 215 259 301
#     4  10  21  37  54  78 107 140 176 218 260 309
#     4  10  19  36  57  80 105 137 175 219 262 310
#     4   9  21  36  55  80 107 135 176 220 263 307
#     4  10  20  33  54  77 109 134 174 214 260 307
#     4   9  20  34  55  80 108 137 172 218 266 307
#     4  10  19  37  56  78 106 141 173 217 261 313
#
# _framework density 18.089621000000001
#
# number of rings (size 3 to 8) (size 9 to 14) (size 15 to 20)
#    0.750    1.500    1.250    1.875    0.000    2.500 
#    0.000    0.625    0.000    0.750    0.000    0.000 
#    0.000    0.000    0.000    0.000    0.000    0.000 
#
# Total GULP energy -198368.774574 kJ/mol
# GULP energy per Si atom -12398.048411 kJ/mol
# Density = 1.804845 g / cm^3
# Si number density = 18.089621 Si / 1000 Ang^3
#
#
#
# Elastic Constant Matrix: (Units=GPa)
#
#
# Indices 1 2 3 4 5 6 
#
# 1 80.1625 13.4434 35.8861 0.0000 -13.7989 0.0000
# 2 13.4434 53.4154 17.8381 0.0000 -6.4009 0.0000
# 3 35.8861 17.8381 78.4427 0.0000 -1.2060 0.0000
# 4 0.0000 0.0000 0.0000 20.9082 0.0000 2.1484
# 5 -13.7989 -6.4009 -1.2060 0.0000 33.3680 0.0000
# 6 0.0000 0.0000 0.0000 2.1484 0.0000 19.9229
#
#
#
# Elastic Compliance Matrix: (Units=1/GPa)
#
#
# Indices 1 2 3 4 5 6 
#
# 1 0.017148 -0.001013 -0.007513 0.000000 0.006626 0.000000
# 2 -0.001013 0.020792 -0.004212 0.000000 0.003417 0.000000
# 3 -0.007513 -0.004212 0.017092 0.000000 -0.003297 0.000000
# 4 0.000000 0.000000 0.000000 0.048364 0.000000 -0.005215
# 5 0.006626 0.003417 -0.003297 0.000000 0.033245 0.000000
# 6 0.000000 0.000000 0.000000 -0.005215 0.000000 0.050756
#
#
# Mechanical properties :
#
#
# Convention : Reuss Voigt Hill
#
# Bulk Modulus (GPa) = 33.83310 38.48396 36.15853
# Shear Modulus (GPa) = 22.44908 24.49670 23.47289
#
# Velocity S-wave (km/s) = 3.52659 3.68392 3.60611
# Velocity P-wave (km/s) = 5.94358 6.27816 6.11316
#
# Compressibility (1/GPa) = 0.02955686
#
# Stress axis : x y z
#
# Youngs Moduli (GPa) = 58.31482 48.09462 58.50575
#
# Poissons Ratio (x) = 0.04872 0.43954
# Poissons Ratio (y) = 0.05907 0.24644
# Poissons Ratio (z) = 0.43811 0.20259
#
# Static dielectric constant tensor:
#      x y z
#    x 3.251530 0.000000 -0.031200 
#    y 0.000000 3.172910 0.000000 
#    z -0.031200 0.000000 3.314890 
# 
# 
# High freq. dielectric constant tensor:
#      x y z
#    x 1.700430 0.000000 -0.007170 
#    y 0.000000 1.684820 0.000000 
#    z -0.007170 0.000000 1.704860 
# 
# From -- ./inp_files/13107.got.cif
#   From: 2010.03.12/outbox.cif.g09.slc.cpg/sg8_7_cif.got.tgz:13107.got - 2010.03.31 10:45:26.
