data_PCOD8053873
_publ_section_title
;
Structure prediction by ZEFSAII (Michael W. Deem and Ramdas Pophale) SiO2 
 PCOD8053873
Probable space group: C M
;
_chemical_formula_sum "Si O2"
_cell_formula_units_Z 32
_cell_length_a 17.613082
_cell_length_b 14.153996
_cell_length_c 12.046326
_cell_angle_alpha 90.000000
_cell_angle_beta 30.369325
_cell_angle_gamma 90.000000
_cell_volume 1518.280386
_symmetry_space_group_name_H-M "C M"
_symmetry_group_IT_number 8
_symmetry_cell_setting 'monoclinic'
loop_
_space_group_symop_operation_xyz
x,y,z
x,-y,z
1/2+x,1/2+y,z
1/2+x,1/2-y,z
loop_
_atom_site_type_symbol
_atom_site_label
_atom_site_fract_x
_atom_site_fract_y
_atom_site_fract_z
Si Si1 0.728960 0.395847 0.903530
Si Si2 0.404473 0.284990 0.754586
Si Si3 0.891045 0.897911 0.332369
Si Si4 0.887151 0.353425 0.491509
Si Si5 0.240266 0.266294 0.354766
Si Si6 0.211923 0.386839 0.174021
Si Si7 0.449416 0.893455 0.161921
Si Si8 0.785445 0.842398 0.681931
O O1 0.738100 0.500000 0.949905
O O2 0.826049 0.318459 0.847640
O O3 0.783771 0.411692 0.707661
O O4 0.559422 0.355589 0.118257
O O5 0.573285 0.271158 0.579990
O O6 0.398413 0.336730 0.643258
O O7 0.331253 0.357814 0.931562
O O8 0.778657 0.827721 0.413659
O O9 0.835417 0.919380 0.528918
O O10 0.892363 0.000000 0.270537
O O11 0.897050 0.396919 0.356503
O O12 0.806628 0.252720 0.582972
O O13 0.050724 0.348428 0.340880
O O14 0.261895 0.333298 0.221973
O O15 0.348254 0.174647 0.213293
O O16 0.210482 0.500000 0.192654
O O17 0.436438 0.000000 0.131543
O O18 0.619952 0.857720 0.938848
#
# Coordination Sequence:
#
# PCOD8053873 Si02
#       8
#     4   4   4   4   4   4   4   4
#     4  10  21  40  68 100 132 176 234 282 335 404
#     4  11  25  41  68  99 135 179 223 287 343 395
#     4  11  24  42  67 100 136 180 227 281 346 410
#     4  11  21  41  74 100 130 174 234 284 330 402
#     4  12  26  43  66  98 144 178 220 281 346 410
#     4  12  25  44  69 101 136 181 231 277 339 409
#     4  12  26  45  71 102 137 183 233 282 340 407
#     4  11  22  44  69  98 136 175 228 280 339 403
#
# _framework density 21.076474999999999
#
# number of rings (size 3 to 8) (size 9 to 14) (size 15 to 20)
#    0.000    0.750    5.000    4.125    1.750    2.500 
#    0.000    0.625    0.000    0.000    0.000    0.000 
#    0.000    0.000    0.000    0.000    0.000    0.000 
#
# Total GULP energy -198331.224453 kJ/mol
# GULP energy per Si atom -12395.701528 kJ/mol
# Density = 2.102850 g / cm^3
# Si number density = 21.076475 Si / 1000 Ang^3
#
#
#
# Elastic Constant Matrix: (Units=GPa)
#
#
# Indices 1 2 3 4 5 6 
#
# 1 97.6562 46.6453 41.4096 0.0006 -10.8893 -0.0003
# 2 46.6453 133.0031 27.5053 -0.0003 -7.9768 0.0001
# 3 41.4096 27.5053 122.8628 -0.0011 -7.9816 0.0005
# 4 0.0006 -0.0003 -0.0011-1104.5749 0.0008 536.5415
# 5 -10.8893 -7.9768 -7.9816 0.0008 38.9051 -0.0003
# 6 -0.0003 0.0001 0.0005 536.5415 -0.0003 -235.8779
#
#
#
# Elastic Compliance Matrix: (Units=1/GPa)
#
#
# Indices 1 2 3 4 5 6 
#
# 1 0.013963 -0.004000 -0.003659 0.000000 0.002337 0.000000
# 2 -0.004000 0.009092 -0.000648 0.000000 0.000612 0.000000
# 3 -0.003659 -0.000648 0.009570 0.000000 0.000806 0.000000
# 4 0.000000 0.000000 0.000000 0.008630 0.000000 0.019631
# 5 0.002337 0.000612 0.000806 0.000000 0.026649 0.000000
# 6 0.000000 0.000000 0.000000 0.019631 0.000000 0.040413
#
#
# Mechanical properties :
#
#
# Convention : Reuss Voigt Hill
#
# Bulk Modulus (GPa) = 62.45340 64.96028 63.70684
# Shear Modulus (GPa) = 38.38297 -244.44544 -103.03124
#
# Velocity S-wave (km/s) = 4.27210 -10.78110 -6.99933
# Velocity P-wave (km/s) = 7.35055 11.13947 5.91850
#
# Compressibility (1/GPa) = 0.01601194
#
# Stress axis : x y z
#
# Youngs Moduli (GPa) = 71.61975 109.98601 104.49740
#
# Poissons Ratio (x) = 0.43995 0.38232
# Poissons Ratio (y) = 0.28648 0.06767
# Poissons Ratio (z) = 0.26203 0.07122
#
# Static dielectric constant tensor:
#      x y z
#    x 3.684360 0.000000 0.066120 
#    y 0.000000 11.872830 0.000000 
#    z 0.066120 0.000000 3.958190 
# 
# 
# High freq. dielectric constant tensor:
#      x y z
#    x 1.808100 0.000000 0.004050 
#    y 0.000000 1.842130 0.000000 
#    z 0.004050 0.000000 1.837250 
# 
# From -- ./inp_files/23330.got.cif
#   From: 2010.03.12/outbox.cif.g09.slc.cpg/sg8_12_cif.got.tgz:23330.got - 2010.03.31 10:45:26.
