data_PCOD8053319
_publ_section_title
;
Structure prediction by ZEFSAII (Michael W. Deem and Ramdas Pophale) SiO2 
 PCOD8053319
Probable space group: C M
;
_chemical_formula_sum "Si O2"
_cell_formula_units_Z 32
_cell_length_a 13.079554
_cell_length_b 13.628335
_cell_length_c 8.267878
_cell_angle_alpha 90.000000
_cell_angle_beta 95.586106
_cell_angle_gamma 90.000000
_cell_volume 1466.771399
_symmetry_space_group_name_H-M "C M"
_symmetry_group_IT_number 8
_symmetry_cell_setting 'monoclinic'
loop_
_space_group_symop_operation_xyz
x,y,z
x,-y,z
1/2+x,1/2+y,z
1/2+x,1/2-y,z
loop_
_atom_site_type_symbol
_atom_site_label
_atom_site_fract_x
_atom_site_fract_y
_atom_site_fract_z
Si Si1 0.932850 0.112003 0.800520
Si Si2 0.729890 0.889231 0.594273
Si Si3 0.841954 0.217923 0.351296
Si Si4 0.714472 0.697750 0.061356
Si Si5 0.126279 0.215593 0.708726
Si Si6 0.406394 0.109513 0.961152
Si Si7 0.998854 0.798007 0.127614
Si Si8 0.317383 0.886550 0.605406
O O1 0.815464 0.138306 0.741561
O O2 0.009694 0.176695 0.700589
O O3 0.957508 0.000000 0.762372
O O4 0.943532 0.130016 0.992387
O O5 0.788108 0.872053 0.433999
O O6 0.633349 0.816339 0.604667
O O7 0.689289 0.000000 0.598386
O O8 0.780404 0.225830 0.173666
O O9 0.956132 0.190830 0.304405
O O10 0.846210 0.317327 0.458322
O O11 0.617524 0.667543 0.158316
O O12 0.664274 0.744588 0.893910
O O13 0.792046 0.610094 0.024222
O O14 0.200021 0.134025 0.640488
O O15 0.393853 0.136059 0.768357
O O16 0.451444 0.000000 0.989247
O O17 0.483278 0.185914 0.059013
O O18 0.326646 0.000000 0.553196
#
# Coordination Sequence:
#
# PCOD8053319 Si02
#       8
#     4   4   4   4   4   4   4   4
#     4  10  20  36  60  85 105 135 184 232 270 314
#     4  10  21  37  57  80 109 146 182 219 268 324
#     4  10  20  33  50  77 115 150 177 215 268 329
#     4   9  19  34  54  79 108 142 179 222 272 317
#     4   9  18  36  59  80 106 138 181 231 272 311
#     4   9  18  36  60  83 106 137 184 233 271 313
#     4  10  20  35  55  81 111 145 179 223 273 320
#     4   9  17  31  54  81 108 141 179 223 273 318
#
# _framework density 21.816621999999999
#
# number of rings (size 3 to 8) (size 9 to 14) (size 15 to 20)
#    0.000    2.500    0.000    3.375    0.000    7.500 
#    0.000    5.000    0.000   10.500    0.000    0.000 
#    0.000    0.000    0.000    0.000    0.000    0.000 
#
# Total GULP energy -198271.092650 kJ/mol
# GULP energy per Si atom -12391.943291 kJ/mol
# Density = 2.176697 g / cm^3
# Si number density = 21.816622 Si / 1000 Ang^3
#
#
#
# Elastic Constant Matrix: (Units=GPa)
#
#
# Indices 1 2 3 4 5 6 
#
# 1 48.5362 24.0601 22.6667 0.0000 -24.7041 0.0000
# 2 24.0601 86.4589 9.5762 0.0000 -9.7571 0.0000
# 3 22.6667 9.5762 59.6203 0.0000 -31.2106 0.0000
# 4 0.0000 0.0000 0.0000 23.2075 0.0000 -1.6575
# 5 -24.7041 -9.7571 -31.2106 0.0000 33.4397 0.0000
# 6 0.0000 0.0000 0.0000 -1.6575 0.0000 22.9659
#
#
#
# Elastic Compliance Matrix: (Units=1/GPa)
#
#
# Indices 1 2 3 4 5 6 
#
# 1 0.037200 -0.007501 0.000592 0.000000 0.025846 0.000000
# 2 -0.007501 0.013474 -0.000304 0.000000 -0.001893 0.000000
# 3 0.000592 -0.000304 0.032810 0.000000 0.030971 0.000000
# 4 0.000000 0.000000 0.000000 0.043313 0.000000 0.003126
# 5 0.025846 -0.001893 0.030971 0.000000 0.077353 0.000000
# 6 0.000000 0.000000 0.000000 0.003126 0.000000 0.043768
#
#
# Mechanical properties :
#
#
# Convention : Reuss Voigt Hill
#
# Bulk Modulus (GPa) = 14.48044 34.13570 24.30807
# Shear Modulus (GPa) = 17.52157 25.14345 21.33251
#
# Velocity S-wave (km/s) = 2.83703 3.39852 3.13039
# Velocity P-wave (km/s) = 4.16934 5.57499 4.92260
#
# Compressibility (1/GPa) = 0.06905869
#
# Stress axis : x y z
#
# Youngs Moduli (GPa) = 26.88143 74.21952 30.47886
#
# Poissons Ratio (x) = 0.55672 -0.01805
# Poissons Ratio (y) = 0.20164 0.00925
# Poissons Ratio (z) = -0.01592 0.02253
#
# Static dielectric constant tensor:
#      x y z
#    x 3.969880 0.000000 -0.224270 
#    y 0.000000 3.723790 0.000000 
#    z -0.224270 0.000000 4.071090 
# 
# 
# High freq. dielectric constant tensor:
#      x y z
#    x 1.846880 0.000000 -0.014530 
#    y 0.000000 1.835460 0.000000 
#    z -0.014530 0.000000 1.856970 
# 
# From -- ./inp_files/13104.got.cif
#   From: 2010.03.12/outbox.cif.g09.slc.cpg/sg8_7_cif.got.tgz:13104.got - 2010.03.31 10:45:26.
