data_PCOD8053474
_publ_section_title
;
Structure prediction by ZEFSAII (Michael W. Deem and Ramdas Pophale) SiO2 
 PCOD8053474
Probable space group: C M
;
_chemical_formula_sum "Si O2"
_cell_formula_units_Z 32
_cell_length_a 20.285338
_cell_length_b 8.587728
_cell_length_c 12.053788
_cell_angle_alpha 90.000000
_cell_angle_beta 127.574092
_cell_angle_gamma 90.000000
_cell_volume 1664.252502
_symmetry_space_group_name_H-M "C M"
_symmetry_group_IT_number 8
_symmetry_cell_setting 'monoclinic'
loop_
_space_group_symop_operation_xyz
x,y,z
x,-y,z
1/2+x,1/2+y,z
1/2+x,1/2-y,z
loop_
_atom_site_type_symbol
_atom_site_label
_atom_site_fract_x
_atom_site_fract_y
_atom_site_fract_z
Si Si1 0.103320 0.181008 0.582300
Si Si2 0.293538 0.818710 0.729261
Si Si3 0.574359 0.677219 0.979331
Si Si4 0.519483 0.179274 0.704674
Si Si5 0.430584 0.680440 0.008021
Si Si6 0.685111 0.681120 0.291549
Si Si7 0.342414 0.319371 0.548116
Si Si8 0.047820 0.317367 0.304168
O O1 0.198248 0.221518 0.652609
O O2 0.078558 0.280388 0.663366
O O3 0.046672 0.230860 0.420727
O O4 0.090426 0.000000 0.594727
O O5 0.326256 0.721344 0.658959
O O6 0.307107 0.000000 0.717948
O O7 0.344981 0.766944 0.890353
O O8 0.577954 0.500000 0.940511
O O9 0.570844 0.788607 0.869926
O O10 0.493628 0.704484 0.971426
O O11 0.655967 0.718564 0.136159
O O12 0.436666 0.282047 0.613009
O O13 0.493644 0.000000 0.674905
O O14 0.413783 0.500000 0.014621
O O15 0.467103 0.758813 0.155552
O O16 0.668728 0.500000 0.301656
O O17 0.781608 0.723404 0.404080
O O18 0.632486 0.779265 0.325812
O O19 0.325782 0.500000 0.511705
O O20 0.041965 0.500000 0.318151
#
# Coordination Sequence:
#
# PCOD8053474 Si02
#       8
#     4   4   4   4   4   4   4   4
#     4  11  24  42  62  85 122 161 199 245 302 359
#     4  11  22  37  61  90 119 153 199 251 299 350
#     4   9  19  36  58  85 119 156 194 240 297 351
#     4  12  25  40  61  87 121 159 202 246 297 360
#     4  10  20  35  59  88 121 156 196 245 297 349
#     4  10  20  36  59  88 120 153 197 249 299 347
#     4  12  23  37  60  89 122 156 199 248 299 353
#     4  11  21  35  58  88 122 156 198 244 298 355
#
# _framework density 19.227853
#
# number of rings (size 3 to 8) (size 9 to 14) (size 15 to 20)
#    0.000    1.250    2.500    5.625    0.000    4.000 
#    0.000    1.250    0.000    4.500    0.000    0.000 
#    0.000    0.000    0.000    0.000    0.000    0.000 
#
# Total GULP energy -198495.533128 kJ/mol
# GULP energy per Si atom -12405.970820 kJ/mol
# Density = 1.918409 g / cm^3
# Si number density = 19.227853 Si / 1000 Ang^3
#
#
#
# Elastic Constant Matrix: (Units=GPa)
#
#
# Indices 1 2 3 4 5 6 
#
# 1 44.6786 23.6061 27.4262 0.0000 -2.3671 0.0000
# 2 23.6061 67.7671 31.0314 0.0000 0.5859 0.0000
# 3 27.4262 31.0314 137.6287 0.0000 5.8701 0.0000
# 4 0.0000 0.0000 0.0000 36.8314 0.0000 1.1594
# 5 -2.3671 0.5859 5.8701 0.0000 25.6312 0.0000
# 6 0.0000 0.0000 0.0000 1.1594 0.0000 26.4288
#
#
#
# Elastic Compliance Matrix: (Units=1/GPa)
#
#
# Indices 1 2 3 4 5 6 
#
# 1 0.029601 -0.008439 -0.004161 0.000000 0.003880 0.000000
# 2 -0.008439 0.018867 -0.002545 0.000000 -0.000628 0.000000
# 3 -0.004161 -0.002545 0.008769 0.000000 -0.002334 0.000000
# 4 0.000000 0.000000 0.000000 0.027188 0.000000 -0.001193
# 5 0.003880 -0.000628 -0.002334 0.000000 0.039922 0.000000
# 6 0.000000 0.000000 0.000000 -0.001193 0.000000 0.037890
#
#
# Mechanical properties :
#
#
# Convention : Reuss Voigt Hill
#
# Bulk Modulus (GPa) = 37.11322 46.02242 41.56782
# Shear Modulus (GPa) = 24.81249 28.97899 26.89574
#
# Velocity S-wave (km/s) = 3.59617 3.88640 3.74410
# Velocity P-wave (km/s) = 6.04872 6.64274 6.35268
#
# Compressibility (1/GPa) = 0.02694457
#
# Stress axis : x y z
#
# Youngs Moduli (GPa) = 33.78249 53.00199 114.04178
#
# Poissons Ratio (x) = 0.44730 0.47458
# Poissons Ratio (y) = 0.28510 0.29029
# Poissons Ratio (z) = 0.14059 0.13492
#
# Static dielectric constant tensor:
#      x y z
#    x 3.199020 0.000000 0.087010 
#    y 0.000000 3.537550 0.000000 
#    z 0.087010 0.000000 3.775260 
# 
# 
# High freq. dielectric constant tensor:
#      x y z
#    x 1.712410 0.000000 0.006700 
#    y 0.000000 1.760540 0.000000 
#    z 0.006700 0.000000 1.766970 
# 
# From -- ./inp_files/23715.got.cif
#   From: 2010.03.12/outbox.cif.g09.slc.cpg/sg8_12_cif.got.tgz:23715.got - 2010.03.31 10:45:26.
