data_PCOD8053737
_publ_section_title
;
Structure prediction by ZEFSAII (Michael W. Deem and Ramdas Pophale) SiO2 
 PCOD8053737
Probable space group: C M
;
_chemical_formula_sum "Si O2"
_cell_formula_units_Z 32
_cell_length_a 24.909942
_cell_length_b 9.176599
_cell_length_c 23.702754
_cell_angle_alpha 90.000000
_cell_angle_beta 162.066510
_cell_angle_gamma 90.000000
_cell_volume 1668.326307
_symmetry_space_group_name_H-M "C M"
_symmetry_group_IT_number 8
_symmetry_cell_setting 'monoclinic'
loop_
_space_group_symop_operation_xyz
x,y,z
x,-y,z
1/2+x,1/2+y,z
1/2+x,1/2-y,z
loop_
_atom_site_type_symbol
_atom_site_label
_atom_site_fract_x
_atom_site_fract_y
_atom_site_fract_z
Si Si1 0.854450 0.329215 0.086120
Si Si2 0.354838 0.165339 0.214554
Si Si3 0.758667 0.165357 0.618161
Si Si4 0.258071 0.670805 0.489552
Si Si5 0.056544 0.173697 0.600792
Si Si6 0.749253 0.834874 0.213952
Si Si7 0.556437 0.174240 0.719868
Si Si8 0.363645 0.165128 0.828086
O O1 0.812569 0.500000 0.035446
O O2 0.817102 0.282071 0.113230
O O3 0.056213 0.298627 0.272226
O O4 0.731017 0.231806 0.924180
O O5 0.556809 0.183000 0.430929
O O6 0.246714 0.256463 0.151250
O O7 0.293916 0.000000 0.159723
O O8 0.795957 0.218140 0.591843
O O9 0.867023 0.256346 0.771310
O O10 0.819670 0.000000 0.685098
O O11 0.299861 0.500000 0.522594
O O12 0.381147 0.767998 0.573879
O O13 0.057408 0.265282 0.658093
O O14 0.225552 0.226703 0.734769
O O15 0.886691 0.226695 0.396360
O O16 0.056703 0.000000 0.613492
O O17 0.800796 0.000000 0.252436
O O18 0.556252 0.820684 0.047643
O O19 0.556252 0.000000 0.719897
O O20 0.312439 0.000000 0.763722
#
# Coordination Sequence:
#
# PCOD8053737 Si02
#       8
#     4   4   4   4   4   4   4   4
#     4   9  20  40  63  87 118 160 204 242 289 358
#     4   9  18  34  58  87 119 152 190 236 287 344
#     4   9  18  34  58  87 119 152 190 236 287 344
#     4   9  20  40  63  87 118 160 204 242 289 358
#     4  10  22  42  60  78 114 162 205 244 287 350
#     4  10  21  36  57  86 116 150 193 237 288 347
#     4  12  26  40  60  90 122 156 199 256 307 352
#     4  10  21  36  57  86 116 150 193 237 288 347
#
# _framework density 19.180900000000001
#
# number of rings (size 3 to 8) (size 9 to 14) (size 15 to 20)
#    0.000    2.250    1.250    2.625    1.750    4.000 
#    0.000    5.000    0.000    0.000    0.000    0.000 
#    0.000    0.000    0.000    0.000    0.000    0.000 
#
# Total GULP energy -198383.502753 kJ/mol
# GULP energy per Si atom -12398.968922 kJ/mol
# Density = 1.913724 g / cm^3
# Si number density = 19.180900 Si / 1000 Ang^3
#
#
#
# Elastic Constant Matrix: (Units=GPa)
#
#
# Indices 1 2 3 4 5 6 
#
# 1 134.1044 64.7242 78.5628 -0.0018 -8.8105 -0.0012
# 2 64.7242 83.5994 55.4556 0.0109 -3.5364 0.0021
# 3 78.5628 55.4556 125.0553 0.0136 2.5686 0.0030
# 4 -0.0018 0.0109 0.0136 26.4914 0.0001 -2.1273
# 5 -8.8105 -3.5364 2.5686 0.0001 18.9396 -0.0001
# 6 -0.0012 0.0021 0.0030 -2.1273 -0.0001 33.9069
#
#
#
# Elastic Compliance Matrix: (Units=1/GPa)
#
#
# Indices 1 2 3 4 5 6 
#
# 1 0.015127 -0.007140 -0.006472 0.000007 0.006581 0.000002
# 2 -0.007140 0.020656 -0.004699 -0.000007 0.001173 -0.000002
# 3 -0.006472 -0.004699 0.014266 -0.000006 -0.005823 -0.000002
# 4 0.000007 -0.000007 -0.000006 0.037939 0.000003 0.002380
# 5 0.006581 0.001173 -0.005823 0.000003 0.056870 0.000001
# 6 0.000002 -0.000002 -0.000002 0.002380 0.000001 0.029642
#
#
# Mechanical properties :
#
#
# Convention : Reuss Voigt Hill
#
# Bulk Modulus (GPa) = 74.47426 82.24939 78.36183
# Shear Modulus (GPa) = 23.19158 25.46869 24.33014
#
# Velocity S-wave (km/s) = 3.48098 3.64787 3.56540
# Velocity P-wave (km/s) = 7.42077 7.79209 7.60870
#
# Compressibility (1/GPa) = 0.01342746
#
# Stress axis : x y z
#
# Youngs Moduli (GPa) = 66.10804 48.41222 70.09900
#
# Poissons Ratio (x) = 0.34565 0.45368
# Poissons Ratio (y) = 0.47200 0.32936
# Poissons Ratio (z) = 0.42786 0.22747
#
# Static dielectric constant tensor:
#      x y z
#    x 3.469300 -0.000010 0.057170 
#    y -0.000010 3.359720 -0.000010 
#    z 0.057170 -0.000010 3.672130 
# 
# 
# High freq. dielectric constant tensor:
#      x y z
#    x 1.743840 0.000000 0.004130 
#    y 0.000000 1.729070 0.000000 
#    z 0.004130 0.000000 1.758640 
# 
# From -- ./inp_files/32414.got.cif
#   From: 2010.03.12/outbox.cif.g09.slc.cpg/sg8_17_cif.got.tgz:32414.got - 2010.03.31 10:45:26.
