data_PCOD8053384
_publ_section_title
;
Structure prediction by ZEFSAII (Michael W. Deem and Ramdas Pophale) SiO2 
 PCOD8053384
Probable space group: C M
;
_chemical_formula_sum "Si O2"
_cell_formula_units_Z 32
_cell_length_a 14.610086
_cell_length_b 8.764492
_cell_length_c 24.972174
_cell_angle_alpha 90.000000
_cell_angle_beta 151.018271
_cell_angle_gamma 90.000000
_cell_volume 1549.377208
_symmetry_space_group_name_H-M "C M"
_symmetry_group_IT_number 8
_symmetry_cell_setting 'monoclinic'
loop_
_space_group_symop_operation_xyz
x,y,z
x,-y,z
1/2+x,1/2+y,z
1/2+x,1/2-y,z
loop_
_atom_site_type_symbol
_atom_site_label
_atom_site_fract_x
_atom_site_fract_y
_atom_site_fract_z
Si Si1 0.493970 0.819643 0.038180
Si Si2 0.726079 0.668960 0.639640
Si Si3 0.724989 0.319446 0.461067
Si Si4 0.077023 0.828952 0.683430
Si Si5 0.611561 0.819209 0.882637
Si Si6 0.443933 0.320056 0.902404
Si Si7 0.874192 0.677608 0.423051
Si Si8 0.813134 0.179776 0.283497
O O1 0.652096 0.763564 0.160833
O O2 0.503793 0.000000 0.032603
O O3 0.291917 0.776481 0.958384
O O4 0.538159 0.728795 0.006442
O O5 0.709998 0.500000 0.606095
O O6 0.650729 0.667428 0.661066
O O7 0.597716 0.780255 0.538113
O O8 0.944718 0.721859 0.754625
O O9 0.744793 0.500000 0.475748
O O10 0.774265 0.264626 0.426159
O O11 0.515749 0.259800 0.366771
O O12 0.869085 0.246237 0.577953
O O13 0.222883 0.727492 0.792447
O O14 0.068092 0.000000 0.702747
O O15 0.552956 0.770136 0.912078
O O16 0.652107 0.000000 0.902928
O O17 0.461707 0.500000 0.902070
O O18 0.852254 0.500000 0.404417
O O19 0.768714 0.756055 0.319561
O O20 0.813723 0.000000 0.287378
#
# Coordination Sequence:
#
# PCOD8053384 Si02
#       8
#     4   4   4   4   4   4   4   4
#     4  11  24  41  59  83 114 153 201 247 287 338
#     4   8  16  32  55  82 113 146 180 221 279 343
#     4   9  19  37  58  82 113 149 185 227 282 341
#     4   9  17  32  56  87 117 146 184 232 282 339
#     4  10  21  39  62  88 118 153 190 237 292 345
#     4  11  22  38  61  88 118 154 191 235 290 347
#     4  10  20  34  57  86 113 143 183 230 280 333
#     4  10  23  41  58  78 110 150 192 235 282 336
#
# _framework density 20.653459000000002
#
# number of rings (size 3 to 8) (size 9 to 14) (size 15 to 20)
#    0.000    2.250    0.000    3.375    0.000    7.500 
#    0.000    2.500    0.000    0.000    0.000    0.000 
#    0.000    0.000    0.000    0.000    0.000    0.000 
#
# Total GULP energy -198416.119476 kJ/mol
# GULP energy per Si atom -12401.007467 kJ/mol
# Density = 2.060645 g / cm^3
# Si number density = 20.653459 Si / 1000 Ang^3
#
#
#
# Elastic Constant Matrix: (Units=GPa)
#
#
# Indices 1 2 3 4 5 6 
#
# 1 36.0349 -4.5126 5.0646 0.0002 -1.1583 0.0001
# 2 -4.5126 45.7318 12.3009 0.0002 -3.5068 0.0001
# 3 5.0646 12.3009 82.7684 0.0012 -9.4346 0.0003
# 4 0.0002 0.0002 0.0012 33.1664 0.0002 -2.4562
# 5 -1.1583 -3.5068 -9.4346 0.0002 35.5056 0.0001
# 6 0.0001 0.0001 0.0003 -2.4562 0.0001 28.8844
#
#
#
# Elastic Compliance Matrix: (Units=1/GPa)
#
#
# Indices 1 2 3 4 5 6 
#
# 1 0.028512 0.003453 -0.002179 0.000000 0.000692 0.000000
# 2 0.003453 0.023262 -0.003500 0.000000 0.001480 0.000000
# 3 -0.002179 -0.003500 0.013084 0.000000 0.003060 0.000000
# 4 0.000000 0.000000 0.000000 0.030342 0.000000 0.002580
# 5 0.000692 0.001480 0.003060 0.000000 0.029146 0.000000
# 6 0.000000 0.000000 0.000000 0.002580 0.000000 0.034840
#
#
# Mechanical properties :
#
#
# Convention : Reuss Voigt Hill
#
# Bulk Modulus (GPa) = 16.55461 21.13785 18.84623
# Shear Modulus (GPa) = 27.20731 29.62343 28.41537
#
# Velocity S-wave (km/s) = 3.63343 3.79133 3.71322
# Velocity P-wave (km/s) = 5.06313 5.42424 5.24679
#
# Compressibility (1/GPa) = 0.06040613
#
# Stress axis : x y z
#
# Youngs Moduli (GPa) = 35.07325 42.98822 76.42827
#
# Poissons Ratio (x) = -0.14842 0.16652
# Poissons Ratio (y) = -0.12109 0.26748
# Poissons Ratio (z) = 0.07642 0.15045
#
# Static dielectric constant tensor:
#      x y z
#    x 3.685150 0.000000 0.016630 
#    y 0.000000 3.680530 0.000000 
#    z 0.016630 0.000000 4.005580 
# 
# 
# High freq. dielectric constant tensor:
#      x y z
#    x 1.803070 0.000000 -0.004170 
#    y 0.000000 1.804750 0.000000 
#    z -0.004170 0.000000 1.808970 
# 
# From -- ./inp_files/26569.got.cif
#   From: 2010.03.12/outbox.cif.g09.slc.cpg/sg8_14_cif.got.tgz:26569.got - 2010.03.31 10:45:26.
