data_PCOD8053928
_publ_section_title
;
Structure prediction by ZEFSAII (Michael W. Deem and Ramdas Pophale) SiO2 
 PCOD8053928
Probable space group: C M
;
_chemical_formula_sum "Si O2"
_cell_formula_units_Z 32
_cell_length_a 12.084545
_cell_length_b 23.416300
_cell_length_c 5.308953
_cell_angle_alpha 90.000000
_cell_angle_beta 100.128184
_cell_angle_gamma 90.000000
_cell_volume 1478.892045
_symmetry_space_group_name_H-M "C M"
_symmetry_group_IT_number 8
_symmetry_cell_setting 'monoclinic'
loop_
_space_group_symop_operation_xyz
x,y,z
x,-y,z
1/2+x,1/2+y,z
1/2+x,1/2-y,z
loop_
_atom_site_type_symbol
_atom_site_label
_atom_site_fract_x
_atom_site_fract_y
_atom_site_fract_z
Si Si1 0.730600 0.407085 0.181200
Si Si2 0.958186 0.167118 0.494020
Si Si3 0.373476 0.229838 0.792414
Si Si4 0.551003 0.869842 0.858393
Si Si5 0.681485 0.707248 0.346013
Si Si6 0.757059 0.809354 0.113704
Si Si7 0.988072 0.565371 0.327092
Si Si8 0.098845 0.063426 0.639648
O O1 0.727922 0.337939 0.155652
O O2 0.661671 0.424917 0.402134
O O3 0.854947 0.430550 0.259574
O O4 0.683703 0.434135 0.907395
O O5 0.932375 0.218200 0.671605
O O6 0.844868 0.150261 0.295877
O O7 0.055084 0.189487 0.351205
O O8 0.998975 0.109125 0.647431
O O9 0.462988 0.180442 0.875411
O O10 0.265664 0.201858 0.615146
O O11 0.331511 0.258018 0.031466
O O12 0.531880 0.899616 0.584653
O O13 0.679142 0.845617 0.895094
O O14 0.543993 0.912531 0.091491
O O15 0.674513 0.773563 0.263570
O O16 0.024534 0.500000 0.377555
O O17 0.046308 0.000000 0.608529
#
# Coordination Sequence:
#
# PCOD8053928 Si02
#       8
#     4   4   4   4   4   4   4   4
#     4  11  23  41  68 102 132 172 216 280 348 405
#     4  10  25  40  66  97 136 177 220 273 339 398
#     4  11  23  41  67 102 134 177 218 283 346 409
#     4  12  27  43  72 101 137 179 232 275 343 408
#     4  10  22  39  64 100 136 168 214 273 347 411
#     4  11  25  41  66  95 142 179 223 275 335 407
#     4  12  26  47  69  99 136 180 232 286 338 400
#     4  11  24  42  66  98 135 176 224 275 336 404
#
# _framework density 21.637822
#
# number of rings (size 3 to 8) (size 9 to 14) (size 15 to 20)
#    0.000    1.000    1.250    4.500   17.500    0.000 
#    0.000    1.250    0.000    0.000    0.000    0.000 
#    0.000    0.000    0.000    0.000    0.000    0.000 
#
# Total GULP energy -198366.233396 kJ/mol
# GULP energy per Si atom -12397.889587 kJ/mol
# Density = 2.158857 g / cm^3
# Si number density = 21.637822 Si / 1000 Ang^3
#
#
#
# Elastic Constant Matrix: (Units=GPa)
#
#
# Indices 1 2 3 4 5 6 
#
# 1 54.4052 42.5271 31.9668 0.0000 17.6904 0.0000
# 2 42.5271 121.8816 44.0820 0.0000 21.6095 0.0000
# 3 31.9668 44.0820 117.6681 0.0000 15.4345 0.0000
# 4 0.0000 0.0000 0.0000 3.5369 0.0000 -2.7281
# 5 17.6904 21.6095 15.4345 0.0000 33.8637 0.0000
# 6 0.0000 0.0000 0.0000 -2.7281 0.0000 20.8486
#
#
#
# Elastic Compliance Matrix: (Units=1/GPa)
#
#
# Indices 1 2 3 4 5 6 
#
# 1 0.029266 -0.007157 -0.004109 0.000000 -0.008849 0.000000
# 2 -0.007157 0.012007 -0.002169 0.000000 -0.002935 0.000000
# 3 -0.004109 -0.002169 0.010598 0.000000 -0.001300 0.000000
# 4 0.000000 0.000000 0.000000 0.314473 0.000000 0.041150
# 5 -0.008849 -0.002935 -0.001300 0.000000 0.036618 0.000000
# 6 0.000000 0.000000 0.000000 0.041150 0.000000 0.053349
#
#
# Mechanical properties :
#
#
# Convention : Reuss Voigt Hill
#
# Bulk Modulus (GPa) = 39.99705 59.01187 49.50446
# Shear Modulus (GPa) = 10.17266 23.34177 16.75722
#
# Velocity S-wave (km/s) = 2.17061 3.28799 2.78590
# Velocity P-wave (km/s) = 4.98066 6.46114 5.76859
#
# Compressibility (1/GPa) = 0.02500184
#
# Stress axis : x y z
#
# Youngs Moduli (GPa) = 34.16889 83.28816 94.35962
#
# Poissons Ratio (x) = 0.59606 0.38772
# Poissons Ratio (y) = 0.24453 0.20465
# Poissons Ratio (z) = 0.14040 0.18064
#
# Static dielectric constant tensor:
#      x y z
#    x 4.062760 0.000000 0.021720 
#    y 0.000000 4.368930 0.000000 
#    z 0.021720 0.000000 3.942190 
# 
# 
# High freq. dielectric constant tensor:
#      x y z
#    x 1.842460 0.000000 0.003810 
#    y 0.000000 1.853490 0.000000 
#    z 0.003810 0.000000 1.858090 
# 
# From -- ./inp_files/3182.got.cif
#   From: 2010.03.12/outbox.cif.g09.slc.cpg/sg8_2_cif.got.tgz:3182.got - 2010.03.31 10:45:26.
