data_PCOD8053732
_publ_section_title
;
Structure prediction by ZEFSAII (Michael W. Deem and Ramdas Pophale) SiO2 
 PCOD8053732
Probable space group: C M
;
_chemical_formula_sum "Si O2"
_cell_formula_units_Z 32
_cell_length_a 10.032528
_cell_length_b 9.206365
_cell_length_c 17.562377
_cell_angle_alpha 90.000000
_cell_angle_beta 90.046136
_cell_angle_gamma 90.000000
_cell_volume 1622.115314
_symmetry_space_group_name_H-M "C M"
_symmetry_group_IT_number 8
_symmetry_cell_setting 'monoclinic'
loop_
_space_group_symop_operation_xyz
x,y,z
x,-y,z
1/2+x,1/2+y,z
1/2+x,1/2-y,z
loop_
_atom_site_type_symbol
_atom_site_label
_atom_site_fract_x
_atom_site_fract_y
_atom_site_fract_z
Si Si1 0.832150 0.670839 0.329160
Si Si2 0.118572 0.832733 0.581978
Si Si3 0.123204 0.168525 0.078428
Si Si4 0.890628 0.670204 0.159107
Si Si5 0.640271 0.331995 0.904908
Si Si6 0.564513 0.330576 0.409350
Si Si7 0.388622 0.831067 0.665361
Si Si8 0.867113 0.830031 0.820934
O O1 0.852675 0.500000 0.337235
O O2 0.855092 0.726252 0.243520
O O3 0.683155 0.715557 0.352890
O O4 0.933060 0.744822 0.387238
O O5 0.104742 0.786402 0.494667
O O6 0.271827 0.806081 0.604259
O O7 0.025096 0.734480 0.634158
O O8 0.077990 0.000000 0.595599
O O9 0.272565 0.212937 0.101647
O O10 0.024224 0.254621 0.132129
O O11 0.097694 0.000000 0.094278
O O12 0.099548 0.209348 0.990721
O O13 0.916501 0.500000 0.159768
O O14 0.684852 0.500000 0.900138
O O15 0.762476 0.230838 0.881655
O O16 0.515586 0.300239 0.850712
O O17 0.533436 0.500000 0.403074
O O18 0.345036 0.752540 0.742364
O O19 0.411162 0.000000 0.682925
O O20 0.840778 0.000000 0.809346
#
# Coordination Sequence:
#
# PCOD8053732 Si02
#       8
#     4   4   4   4   4   4   4   4
#     4  10  21  37  56  82 115 147 184 230 277 329
#     4  10  22  39  58  83 113 144 184 232 277 327
#     4  10  21  38  59  82 111 148 188 230 277 329
#     4  10  21  36  56  83 113 146 186 231 277 328
#     4  10  22  39  58  83 114 147 186 231 277 328
#     4  10  21  38  59  82 111 147 185 228 278 330
#     4  11  23  39  60  84 112 148 186 227 277 330
#     4  11  23  38  58  85 115 147 185 229 276 329
#
# _framework density 19.727326000000001
#
# number of rings (size 3 to 8) (size 9 to 14) (size 15 to 20)
#    0.000    1.750    0.000    3.750    0.000    9.500 
#    0.000    0.000    0.000    0.000    0.000    0.000 
#    0.000    0.000    0.000    0.000    0.000    0.000 
#
# Total GULP energy -198503.410743 kJ/mol
# GULP energy per Si atom -12406.463171 kJ/mol
# Density = 1.968243 g / cm^3
# Si number density = 19.727326 Si / 1000 Ang^3
#
#
#
# Elastic Constant Matrix: (Units=GPa)
#
#
# Indices 1 2 3 4 5 6 
#
# 1 65.6813 34.2361 6.4159 0.0000 -7.7423 0.0000
# 2 34.2361 64.1921 30.0824 0.0000 -4.8968 0.0000
# 3 6.4159 30.0824 86.7997 0.0000 -0.0319 0.0000
# 4 0.0000 0.0000 0.0000 31.4010 0.0000 -3.4932
# 5 -7.7423 -4.8968 -0.0319 0.0000 40.2521 0.0000
# 6 0.0000 0.0000 0.0000 -3.4932 0.0000 30.6318
#
#
#
# Elastic Compliance Matrix: (Units=1/GPa)
#
#
# Indices 1 2 3 4 5 6 
#
# 1 0.021949 -0.012826 0.002824 0.000000 0.002664 0.000000
# 2 -0.012826 0.026302 -0.008167 0.000000 0.000726 0.000000
# 3 0.002824 -0.008167 0.014142 0.000000 -0.000439 0.000000
# 4 0.000000 0.000000 0.000000 0.032255 0.000000 0.003678
# 5 0.002664 0.000726 -0.000439 0.000000 0.025444 0.000000
# 6 0.000000 0.000000 0.000000 0.003678 0.000000 0.033065
#
#
# Mechanical properties :
#
#
# Convention : Reuss Voigt Hill
#
# Bulk Modulus (GPa) = 38.38210 39.79355 39.08782
# Shear Modulus (GPa) = 25.22944 30.18623 27.70784
#
# Velocity S-wave (km/s) = 3.58006 3.91599 3.75179
# Velocity P-wave (km/s) = 6.04878 6.37669 6.21490
#
# Compressibility (1/GPa) = 0.02605381
#
# Stress axis : x y z
#
# Youngs Moduli (GPa) = 45.56050 38.02022 70.70941
#
# Poissons Ratio (x) = 0.48766 -0.19967
# Poissons Ratio (y) = 0.58437 0.57749
# Poissons Ratio (z) = -0.12866 0.31052
#
# Static dielectric constant tensor:
#      x y z
#    x 3.537240 0.000000 0.030410 
#    y 0.000000 3.535360 0.000000 
#    z 0.030410 0.000000 3.751010 
# 
# 
# High freq. dielectric constant tensor:
#      x y z
#    x 1.777390 0.000000 0.001630 
#    y 0.000000 1.764040 0.000000 
#    z 0.001630 0.000000 1.785500 
# 
# From -- ./inp_files/25253.got.cif
#   From: 2010.03.12/outbox.cif.g09.slc.cpg/sg8_13_cif.got.tgz:25253.got - 2010.03.31 10:45:26.
