data_PCOD8053705
_publ_section_title
;
Structure prediction by ZEFSAII (Michael W. Deem and Ramdas Pophale) SiO2 
 PCOD8053705
Probable space group: C M
;
_chemical_formula_sum "Si O2"
_cell_formula_units_Z 28
_cell_length_a 5.479439
_cell_length_b 31.730033
_cell_length_c 7.052055
_cell_angle_alpha 90.000000
_cell_angle_beta 119.424214
_cell_angle_gamma 90.000000
_cell_volume 1067.931982
_symmetry_space_group_name_H-M "C M"
_symmetry_group_IT_number 8
_symmetry_cell_setting 'monoclinic'
loop_
_space_group_symop_operation_xyz
x,y,z
x,-y,z
1/2+x,1/2+y,z
1/2+x,1/2-y,z
loop_
_atom_site_type_symbol
_atom_site_label
_atom_site_fract_x
_atom_site_fract_y
_atom_site_fract_z
Si Si1 0.956060 0.856443 0.867420
Si Si2 0.236151 0.500000 0.836019
Si Si3 0.475950 0.269477 0.356054
Si Si4 0.993520 0.134891 0.439036
Si Si5 0.899399 0.500000 0.096929
Si Si6 0.967126 0.584140 0.716893
Si Si7 0.548460 0.262087 0.875498
Si Si8 0.930532 0.411039 0.133555
O O1 0.028045 0.861711 0.676411
O O2 0.653685 0.873859 0.799516
O O3 0.973198 0.807777 0.925675
O O4 0.165161 0.882158 0.088244
O O5 0.118096 0.542608 0.690263
O O6 0.567026 0.500000 0.923726
O O7 0.128189 0.500000 0.012424
O O8 0.776203 0.243413 0.460548
O O9 0.542276 0.319228 0.368219
O O10 0.286549 0.258242 0.101138
O O11 0.696172 0.117982 0.262549
O O12 0.224568 0.098807 0.475452
O O13 0.952940 0.457153 0.242820
O O14 0.869849 0.574601 0.892974
O O15 0.240902 0.237032 0.752917
#
# Coordination Sequence:
#
# PCOD8053705 Si02
#       8
#     4   2   4   4   2   4   4   4
#     4  11  24  42  69  99 133 181 233 287 348 417
#     4  10  20  45  71 100 141 186 232 282 352 413
#     4  10  23  42  64  94 134 183 227 284 345 406
#     4  11  26  42  67 106 137 181 237 294 349 414
#     4  10  20  41  71 104 133 188 238 274 350 427
#     4  10  24  42  70  99 138 183 229 290 348 422
#     4  10  23  41  67  94 128 181 228 277 343 408
#     4  10  22  43  69  96 140 182 229 288 348 416
#
# _framework density 26.218899
#
# number of rings (size 3 to 8) (size 9 to 14) (size 15 to 20)
#    0.000    1.714    1.429    1.714   10.000    2.857 
#    0.000    1.429    0.000    0.000    0.000    0.000 
#    0.000    0.000    0.000    0.000    0.000    0.000 
#
# Total GULP energy -173458.132476 kJ/mol
# GULP energy per Si atom -12389.866605 kJ/mol
# Density = 2.615922 g / cm^3
# Si number density = 26.218899 Si / 1000 Ang^3
#
#
#
# Elastic Constant Matrix: (Units=GPa)
#
#
# Indices 1 2 3 4 5 6 
#
# 1 127.0301 17.4806 11.7730 0.0000 33.5631 0.0000
# 2 17.4806 178.3696 1.8354 0.0000 11.2698 0.0000
# 3 11.7730 1.8354 47.0926 0.0000 13.3394 0.0000
# 4 0.0000 0.0000 0.0000 20.4278 0.0000 16.8306
# 5 33.5631 11.2698 13.3394 0.0000 37.2316 0.0000
# 6 0.0000 0.0000 0.0000 16.8306 0.0000 46.4155
#
#
#
# Elastic Compliance Matrix: (Units=1/GPa)
#
#
# Indices 1 2 3 4 5 6 
#
# 1 0.010366 -0.000433 0.000039 0.000000 -0.009228 0.000000
# 2 -0.000433 0.005738 0.000296 0.000000 -0.001452 0.000000
# 3 0.000039 0.000296 0.023649 0.000000 -0.008598 0.000000
# 4 0.000000 0.000000 0.000000 0.069808 0.000000 -0.025313
# 5 -0.009228 -0.001452 -0.008598 0.000000 0.038697 0.000000
# 6 0.000000 0.000000 0.000000 -0.025313 0.000000 0.030723
#
#
# Mechanical properties :
#
#
# Convention : Reuss Voigt Hill
#
# Bulk Modulus (GPa) = 25.28031 46.07446 35.67739
# Shear Modulus (GPa) = 25.99251 42.24187 34.11719
#
# Velocity S-wave (km/s) = 3.15201 4.01823 3.61119
# Velocity P-wave (km/s) = 4.78642 6.25615 5.56998
#
# Compressibility (1/GPa) = 0.03955647
#
# Stress axis : x y z
#
# Youngs Moduli (GPa) = 96.46710 174.29177 42.28539
#
# Poissons Ratio (x) = 0.07552 -0.00166
# Poissons Ratio (y) = 0.04180 -0.01252
# Poissons Ratio (z) = -0.00378 -0.05160
#
# Static dielectric constant tensor:
#      x y z
#    x 5.199290 0.000000 -0.069770 
#    y 0.000000 5.434920 0.000000 
#    z -0.069770 0.000000 4.685220 
# 
# 
# High freq. dielectric constant tensor:
#      x y z
#    x 2.065740 0.000000 0.004610 
#    y 0.000000 2.065250 0.000000 
#    z 0.004610 0.000000 2.055150 
# 
# From -- ./inp_files/7171.got.cif
#   From: 2010.03.12/outbox.cif.g09.slc.cpg/sg8_4_cif.got.tgz:7171.got - 2010.03.31 10:45:26.
