data_PCOD8053646
_publ_section_title
;
Structure prediction by ZEFSAII (Michael W. Deem and Ramdas Pophale) SiO2 
 PCOD8053646
Probable space group: C M
;
_chemical_formula_sum "Si O2"
_cell_formula_units_Z 32
_cell_length_a 14.599219
_cell_length_b 8.732027
_cell_length_c 14.069822
_cell_angle_alpha 90.000000
_cell_angle_beta 120.882476
_cell_angle_gamma 90.000000
_cell_volume 1539.334155
_symmetry_space_group_name_H-M "C M"
_symmetry_group_IT_number 8
_symmetry_cell_setting 'monoclinic'
loop_
_space_group_symop_operation_xyz
x,y,z
x,-y,z
1/2+x,1/2+y,z
1/2+x,1/2-y,z
loop_
_atom_site_type_symbol
_atom_site_label
_atom_site_fract_x
_atom_site_fract_y
_atom_site_fract_z
Si Si1 0.646560 0.821251 0.361680
Si Si2 0.171340 0.175505 0.925496
Si Si3 0.512652 0.673754 0.142417
Si Si4 0.357246 0.679711 0.902852
Si Si5 0.377656 0.320189 0.540340
Si Si6 0.948795 0.321096 0.772711
Si Si7 0.335999 0.827369 0.161863
Si Si8 0.458234 0.175037 0.403005
O O1 0.612144 0.769227 0.237005
O O2 0.760297 0.752781 0.453836
O O3 0.558012 0.771643 0.391579
O O4 0.660278 0.000000 0.364259
O O5 0.263195 0.223198 0.900507
O O6 0.071309 0.284784 0.860503
O O7 0.137880 0.000000 0.887089
O O8 0.215417 0.191275 0.058071
O O9 0.549699 0.500000 0.168455
O O10 0.408158 0.700037 0.150790
O O11 0.472564 0.714954 0.014415
O O12 0.329421 0.500000 0.894608
O O13 0.369133 0.730528 0.800285
O O14 0.378425 0.500000 0.563021
O O15 0.423197 0.228619 0.652925
O O16 0.453785 0.285247 0.491214
O O17 0.929181 0.500000 0.775189
O O18 0.348628 0.806899 0.282380
O O19 0.378003 0.000000 0.158020
O O20 0.473083 0.000000 0.444884
#
# Coordination Sequence:
#
# PCOD8053646 Si02
#       8
#     4   4   4   4   4   4   4   4
#     4   9  20  38  59  82 114 152 185 225 283 341
#     4  10  20  38  63  90 119 153 191 236 289 345
#     4   9  17  30  55  88 118 146 182 227 277 335
#     4  10  21  39  61  88 121 155 190 235 288 344
#     4  11  24  41  58  80 110 147 194 245 289 338
#     4  12  26  42  59  82 113 154 201 247 290 340
#     4   8  16  32  56  84 117 151 182 221 278 343
#     4   9  18  36  59  84 114 148 183 224 280 344
#
# _framework density 20.788209999999999
#
# number of rings (size 3 to 8) (size 9 to 14) (size 15 to 20)
#    0.000    2.250    0.000    3.375    0.000    7.000 
#    0.000    7.500    0.000    0.000    0.000    0.000 
#    0.000    0.000    0.000    0.000    0.000    0.000 
#
# Total GULP energy -198337.174142 kJ/mol
# GULP energy per Si atom -12396.073384 kJ/mol
# Density = 2.074090 g / cm^3
# Si number density = 20.788210 Si / 1000 Ang^3
#
#
#
# Elastic Constant Matrix: (Units=GPa)
#
#
# Indices 1 2 3 4 5 6 
#
# 1 29.9326 9.3380 3.9205 0.0000 -1.1328 0.0000
# 2 9.3380 57.6737 24.4395 0.0000 -3.3804 0.0000
# 3 3.9205 24.4395 77.8522 0.0000 -7.8379 0.0000
# 4 0.0000 0.0000 0.0000 30.6854 0.0000 -2.8356
# 5 -1.1328 -3.3804 -7.8379 0.0000 32.2172 0.0000
# 6 0.0000 0.0000 0.0000 -2.8356 0.0000 27.0814
#
#
#
# Elastic Compliance Matrix: (Units=1/GPa)
#
#
# Indices 1 2 3 4 5 6 
#
# 1 0.035199 -0.005695 0.000082 0.000000 0.000660 0.000000
# 2 -0.005695 0.020932 -0.006236 0.000000 0.000479 0.000000
# 3 0.000082 -0.006236 0.015103 0.000000 0.003023 0.000000
# 4 0.000000 0.000000 0.000000 0.032907 0.000000 0.003446
# 5 0.000660 0.000479 0.003023 0.000000 0.031848 0.000000
# 6 0.000000 0.000000 0.000000 0.003446 0.000000 0.037287
#
#
# Mechanical properties :
#
#
# Convention : Reuss Voigt Hill
#
# Bulk Modulus (GPa) = 21.03712 26.76160 23.89936
# Shear Modulus (GPa) = 23.49414 26.51417 25.00415
#
# Velocity S-wave (km/s) = 3.36544 3.57521 3.47191
# Velocity P-wave (km/s) = 5.02427 5.47213 5.25298
#
# Compressibility (1/GPa) = 0.04753503
#
# Stress axis : x y z
#
# Youngs Moduli (GPa) = 28.40960 47.77470 66.21363
#
# Poissons Ratio (x) = 0.27208 -0.00541
# Poissons Ratio (y) = 0.16180 0.41290
# Poissons Ratio (z) = -0.00232 0.29792
#
# Static dielectric constant tensor:
#      x y z
#    x 3.512420 0.000000 0.088230 
#    y 0.000000 3.641900 0.000000 
#    z 0.088230 0.000000 3.990610 
# 
# 
# High freq. dielectric constant tensor:
#      x y z
#    x 1.793570 0.000000 0.002120 
#    y 0.000000 1.809610 0.000000 
#    z 0.002120 0.000000 1.821090 
# 
# From -- ./inp_files/26565.got.cif
#   From: 2010.03.12/outbox.cif.g09.slc.cpg/sg8_14_cif.got.tgz:26565.got - 2010.03.31 10:45:26.
