data_PCOD8053759
_publ_section_title
;
Structure prediction by ZEFSAII (Michael W. Deem and Ramdas Pophale) SiO2 
 PCOD8053759
Probable space group: C M
;
_chemical_formula_sum "Si O2"
_cell_formula_units_Z 32
_cell_length_a 27.708631
_cell_length_b 8.990868
_cell_length_c 21.869426
_cell_angle_alpha 90.000000
_cell_angle_beta 18.661327
_cell_angle_gamma 90.000000
_cell_volume 1743.284195
_symmetry_space_group_name_H-M "C M"
_symmetry_group_IT_number 8
_symmetry_cell_setting 'monoclinic'
loop_
_space_group_symop_operation_xyz
x,y,z
x,-y,z
1/2+x,1/2+y,z
1/2+x,1/2-y,z
loop_
_atom_site_type_symbol
_atom_site_label
_atom_site_fract_x
_atom_site_fract_y
_atom_site_fract_z
Si Si1 0.160250 0.675608 0.585180
Si Si2 0.053411 0.168994 0.595580
Si Si3 0.941950 0.171528 0.324556
Si Si4 0.238739 0.672091 0.684356
Si Si5 0.967486 0.676648 0.926629
Si Si6 0.641994 0.672491 0.353447
Si Si7 0.838836 0.675889 0.685062
Si Si8 0.733506 0.175436 0.931407
O O1 0.151833 0.500000 0.594815
O O2 0.137600 0.733216 0.544433
O O3 0.322970 0.724467 0.415789
O O4 0.029190 0.737702 0.787604
O O5 0.142871 0.191280 0.425258
O O6 0.880435 0.220248 0.794500
O O7 0.060153 0.000000 0.609902
O O8 0.872469 0.194507 0.474966
O O9 0.987136 0.000000 0.260270
O O10 0.088800 0.273654 0.143097
O O11 0.232065 0.500000 0.713028
O O12 0.264406 0.777468 0.710921
O O13 0.080759 0.725191 0.844590
O O14 0.963938 0.500000 0.929841
O O15 0.799849 0.738539 0.139342
O O16 0.618436 0.500000 0.363869
O O17 0.509818 0.765679 0.480998
O O18 0.838384 0.500000 0.692135
O O19 0.739154 0.744442 0.859159
O O20 0.731276 0.000000 0.922029
#
# Coordination Sequence:
#
# PCOD8053759 Si02
#       8
#     4   4   4   4   4   4   4   4
#     4   9  18  33  53  77 104 133 166 206 252 303
#     4   9  19  33  49  73 102 131 167 212 255 300
#     4   9  19  35  54  78 107 137 172 213 255 304
#     4   9  18  35  56  77 105 140 174 209 254 306
#     4   8  16  33  56  77  98 131 174 211 245 298
#     4   9  18  35  55  74  99 133 174 213 252 302
#     4  11  22  35  52  77 107 136 172 216 260 306
#     4  10  21  37  55  75 102 137 177 216 257 307
#
# _framework density 18.356158000000001
#
# number of rings (size 3 to 8) (size 9 to 14) (size 15 to 20)
#    0.000    2.750    0.000    3.750    0.000    5.500 
#    0.000    8.125    0.000    0.000    0.000    0.000 
#    0.000    0.000    0.000    0.000    0.000    0.000 
#
# Total GULP energy -198395.048737 kJ/mol
# GULP energy per Si atom -12399.690546 kJ/mol
# Density = 1.831438 g / cm^3
# Si number density = 18.356158 Si / 1000 Ang^3
#
#
#
# Elastic Constant Matrix: (Units=GPa)
#
#
# Indices 1 2 3 4 5 6 
#
# 1 49.8622 9.4282 -20.4869 -0.0038 0.8816 -0.0007
# 2 9.4282 51.4285 9.9422 -0.0021 0.1831 0.0006
# 3 -20.4869 9.9422 52.9481 -0.0094 -0.7067 0.0024
# 4 -0.0038 -0.0021 -0.0094 24.9395 0.0006 -0.2836
# 5 0.8816 0.1831 -0.7067 0.0006 12.7375 0.0003
# 6 -0.0007 0.0006 0.0024 -0.2836 0.0003 33.2890
#
#
#
# Elastic Compliance Matrix: (Units=1/GPa)
#
#
# Indices 1 2 3 4 5 6 
#
# 1 0.026070 -0.006976 0.011383 0.000008 -0.001073 0.000000
# 2 -0.006976 0.022047 -0.006842 -0.000002 -0.000214 0.000000
# 3 0.011383 -0.006842 0.024584 0.000010 0.000674 -0.000001
# 4 0.000008 -0.000002 0.000010 0.040101 -0.000002 0.000342
# 5 -0.001073 -0.000214 0.000674 -0.000002 0.078623 -0.000001
# 6 0.000000 0.000000 -0.000001 0.000342 -0.000001 0.030043
#
#
# Mechanical properties :
#
#
# Convention : Reuss Voigt Hill
#
# Bulk Modulus (GPa) = 14.74251 16.88955 15.81603
# Shear Modulus (GPa) = 20.08444 24.55020 22.31732
#
# Velocity S-wave (km/s) = 3.31139 3.66107 3.49061
# Velocity P-wave (km/s) = 4.76122 5.20502 4.98805
#
# Compressibility (1/GPa) = 0.06783105
#
# Stress axis : x y z
#
# Youngs Moduli (GPa) = 38.35801 45.35803 40.67620
#
# Poissons Ratio (x) = 0.31642 -0.46301
# Poissons Ratio (y) = 0.26759 0.27830
# Poissons Ratio (z) = -0.43662 0.31033
#
# Static dielectric constant tensor:
#      x y z
#    x 3.317340 0.000000 0.010220 
#    y 0.000000 3.131890 0.000000 
#    z 0.010220 0.000000 3.601280 
# 
# 
# High freq. dielectric constant tensor:
#      x y z
#    x 1.710840 0.000000 -0.001030 
#    y 0.000000 1.692110 0.000000 
#    z -0.001030 0.000000 1.716240 
# 
# From -- ./inp_files/16780.got.cif
#   From: 2010.03.12/outbox.cif.g09.slc.cpg/sg8_9_cif.got.tgz:16780.got - 2010.03.31 10:45:26.
