data_PCOD8053833
_publ_section_title
;
Structure prediction by ZEFSAII (Michael W. Deem and Ramdas Pophale) SiO2 
 PCOD8053833
Probable space group: C M
;
_chemical_formula_sum "Si O2"
_cell_formula_units_Z 32
_cell_length_a 32.918084
_cell_length_b 9.056091
_cell_length_c 12.430671
_cell_angle_alpha 90.000000
_cell_angle_beta 26.373490
_cell_angle_gamma 90.000000
_cell_volume 1646.147281
_symmetry_space_group_name_H-M "C M"
_symmetry_group_IT_number 8
_symmetry_cell_setting 'monoclinic'
loop_
_space_group_symop_operation_xyz
x,y,z
x,-y,z
1/2+x,1/2+y,z
1/2+x,1/2-y,z
loop_
_atom_site_type_symbol
_atom_site_label
_atom_site_fract_x
_atom_site_fract_y
_atom_site_fract_z
Si Si1 0.421980 0.172022 0.154610
Si Si2 0.479397 0.168671 0.416581
Si Si3 0.607895 0.674517 0.412791
Si Si4 0.430153 0.832124 0.769267
Si Si5 0.673171 0.827103 0.051703
Si Si6 0.868025 0.826328 0.500181
Si Si7 0.121337 0.326795 0.601391
Si Si8 0.786669 0.669126 0.284437
O O1 0.391478 0.262409 0.329480
O O2 0.356778 0.215109 0.210889
O O3 0.416690 0.000000 0.194831
O O4 0.524094 0.218811 0.880599
O O5 0.419699 0.193711 0.666448
O O6 0.585069 0.212572 0.187705
O O7 0.440005 0.270964 0.417401
O O8 0.472756 0.000000 0.393296
O O9 0.617605 0.500000 0.392145
O O10 0.502839 0.719663 0.645955
O O11 0.670543 0.737887 0.168954
O O12 0.643102 0.739583 0.440983
O O13 0.465480 0.000000 0.707289
O O14 0.334073 0.806198 0.055691
O O15 0.672643 0.000000 0.080979
O O16 0.764671 0.777894 0.773250
O O17 0.877127 0.000000 0.473440
O O18 0.126857 0.500000 0.566316
O O19 0.198915 0.275329 0.501757
O O20 0.755448 0.500000 0.372251
#
# Coordination Sequence:
#
# PCOD8053833 Si02
#       8
#     4   4   4   4   4   4   4   4
#     4  10  23  44  64  82 119 165 201 242 300 363
#     4   9  19  37  61  86 119 160 197 234 296 367
#     4  11  21  34  59  92 124 157 200 249 295 353
#     4   9  18  37  61  86 125 162 192 240 306 364
#     4   9  21  41  60  84 120 162 196 241 305 361
#     4  11  24  40  62  89 119 154 204 256 293 347
#     4  11  23  40  61  88 121 161 201 244 303 363
#     4  10  21  39  62  91 121 155 201 248 300 358
#
# _framework density 19.439330000000002
#
# number of rings (size 3 to 8) (size 9 to 14) (size 15 to 20)
#    0.000    2.000    1.250    2.625    1.750    6.000 
#    0.000    3.750    0.000    0.000    0.000    0.000 
#    0.000    0.000    0.000    0.000    0.000    0.000 
#
# Total GULP energy -198447.827771 kJ/mol
# GULP energy per Si atom -12402.989236 kJ/mol
# Density = 1.939509 g / cm^3
# Si number density = 19.439330 Si / 1000 Ang^3
#
#
#
# Elastic Constant Matrix: (Units=GPa)
#
#
# Indices 1 2 3 4 5 6 
#
# 1 61.9701 48.8488 85.2159 0.0000 5.6930 0.0000
# 2 48.8488 87.0937 69.1156 0.0000 4.7933 0.0000
# 3 85.2159 69.1156 139.1521 0.0000 -2.0841 0.0000
# 4 0.0000 0.0000 0.0000 31.8366 0.0000 -0.7869
# 5 5.6930 4.7933 -2.0841 0.0000 28.6227 0.0000
# 6 0.0000 0.0000 0.0000 -0.7869 0.0000 34.2388
#
#
#
# Elastic Compliance Matrix: (Units=1/GPa)
#
#
# Indices 1 2 3 4 5 6 
#
# 1 0.131912 -0.013049 -0.074743 0.000000 -0.029494 0.000000
# 2 -0.013049 0.020680 -0.002296 0.000000 -0.001035 0.000000
# 3 -0.074743 -0.002296 0.054386 0.000000 0.019211 0.000000
# 4 0.000000 0.000000 0.000000 0.031428 0.000000 0.000722
# 5 -0.029494 -0.001035 0.019211 0.000000 0.042376 0.000000
# 6 0.000000 0.000000 0.000000 0.000722 0.000000 0.029223
#
#
# Mechanical properties :
#
#
# Convention : Reuss Voigt Hill
#
# Bulk Modulus (GPa) = 37.30887 77.17517 57.24202
# Shear Modulus (GPa) = 10.01774 24.60867 17.31320
#
# Velocity S-wave (km/s) = 2.27256 3.56184 2.98758
# Velocity P-wave (km/s) = 5.11079 7.53009 6.43516
#
# Compressibility (1/GPa) = 0.02680328
#
# Stress axis : x y z
#
# Youngs Moduli (GPa) = 7.58079 48.35698 18.38697
#
# Poissons Ratio (x) = 0.63101 1.37429
# Poissons Ratio (y) = 0.09892 0.04221
# Poissons Ratio (z) = 0.56661 0.11101
#
# Static dielectric constant tensor:
#      x y z
#    x 3.532840 0.000000 0.003000 
#    y 0.000000 3.458970 0.000000 
#    z 0.003000 0.000000 3.632250 
# 
# 
# High freq. dielectric constant tensor:
#      x y z
#    x 1.757020 0.000000 -0.003110 
#    y 0.000000 1.752170 0.000000 
#    z -0.003110 0.000000 1.760040 
# 
# From -- ./inp_files/24785.got.cif
#   From: 2010.03.12/outbox.cif.g09.slc.cpg/sg8_13_cif.got.tgz:24785.got - 2010.03.31 10:45:26.
