data_PCOD8053464
_publ_section_title
;
Structure prediction by ZEFSAII (Michael W. Deem and Ramdas Pophale) SiO2 
 PCOD8053464
Probable space group: C M
;
_chemical_formula_sum "Si O2"
_cell_formula_units_Z 32
_cell_length_a 28.200327
_cell_length_b 8.804362
_cell_length_c 12.069929
_cell_angle_alpha 90.000000
_cell_angle_beta 31.260259
_cell_angle_gamma 90.000000
_cell_volume 1555.114794
_symmetry_space_group_name_H-M "C M"
_symmetry_group_IT_number 8
_symmetry_cell_setting 'monoclinic'
loop_
_space_group_symop_operation_xyz
x,y,z
x,-y,z
1/2+x,1/2+y,z
1/2+x,1/2-y,z
loop_
_atom_site_type_symbol
_atom_site_label
_atom_site_fract_x
_atom_site_fract_y
_atom_site_fract_z
Si Si1 0.572730 0.177781 0.523930
Si Si2 0.531707 0.822142 0.859101
Si Si3 0.215431 0.820404 0.095525
Si Si4 0.904093 0.831972 0.475964
Si Si5 0.178148 0.820629 0.724214
Si Si6 0.187537 0.670708 0.930229
Si Si7 0.420701 0.178310 0.660775
Si Si8 0.373224 0.680534 0.296031
O O1 0.549600 0.214656 0.695835
O O2 0.665858 0.264393 0.305929
O O3 0.491234 0.243867 0.609795
O O4 0.587384 0.000000 0.474416
O O5 0.600035 0.720887 0.793823
O O6 0.543808 0.000000 0.861416
O O7 0.428591 0.767713 0.090012
O O8 0.213007 0.000000 0.090647
O O9 0.161324 0.750437 0.098284
O O10 0.319603 0.759067 0.891296
O O11 0.795657 0.830409 0.702761
O O12 0.949658 0.724675 0.477576
O O13 0.924684 0.778658 0.309354
O O14 0.943074 0.000000 0.418585
O O15 0.146146 0.764251 0.909755
O O16 0.269961 0.738799 0.500384
O O17 0.193778 0.000000 0.696468
O O18 0.147639 0.500000 0.008904
O O19 0.420356 0.000000 0.668431
O O20 0.372168 0.500000 0.278526
#
# Coordination Sequence:
#
# PCOD8053464 Si02
#       8
#     4   4   4   4   4   4   4   4
#     4  10  23  41  57  78 111 151 195 238 282 338
#     4  11  24  41  59  82 114 155 203 248 291 343
#     4  10  20  35  58  87 116 147 186 233 285 340
#     4   8  16  31  54  84 114 142 176 222 276 338
#     4  11  22  38  61  88 118 152 192 241 297 351
#     4   9  17  33  57  85 117 150 186 230 284 347
#     4   9  19  36  57  81 111 145 181 225 276 332
#     4  10  21  39  61  87 119 152 189 237 293 351
#
# _framework density 20.577259000000002
#
# number of rings (size 3 to 8) (size 9 to 14) (size 15 to 20)
#    0.000    2.250    0.000    3.375    0.000    7.500 
#    0.000    3.750    0.000    0.000    0.000    0.000 
#    0.000    0.000    0.000    0.000    0.000    0.000 
#
# Total GULP energy -198411.417052 kJ/mol
# GULP energy per Si atom -12400.713566 kJ/mol
# Density = 2.053042 g / cm^3
# Si number density = 20.577259 Si / 1000 Ang^3
#
#
#
# Elastic Constant Matrix: (Units=GPa)
#
#
# Indices 1 2 3 4 5 6 
#
# 1 66.9201 15.9752 5.1856 0.0000 7.1042 0.0000
# 2 15.9752 69.3195 21.5067 0.0000 9.5244 0.0000
# 3 5.1856 21.5067 69.7438 0.0000 19.1095 0.0000
# 4 0.0000 0.0000 0.0000 33.6856 0.0000 4.0645
# 5 7.1042 9.5244 19.1095 0.0000 28.4635 0.0000
# 6 0.0000 0.0000 0.0000 4.0645 0.0000 30.5695
#
#
#
# Elastic Compliance Matrix: (Units=1/GPa)
#
#
# Indices 1 2 3 4 5 6 
#
# 1 0.016073 -0.003490 0.000809 0.000000 -0.003387 0.000000
# 2 -0.003490 0.016856 -0.004450 0.000000 -0.001782 0.000000
# 3 0.000809 -0.004450 0.018746 0.000000 -0.011298 0.000000
# 4 0.000000 0.000000 0.000000 0.030170 0.000000 -0.004011
# 5 -0.003387 -0.001782 -0.011298 0.000000 0.044160 0.000000
# 6 0.000000 0.000000 0.000000 -0.004011 0.000000 0.033246
#
#
# Mechanical properties :
#
#
# Convention : Reuss Voigt Hill
#
# Bulk Modulus (GPa) = 26.72857 32.36873 29.54865
# Shear Modulus (GPa) = 26.88415 29.43143 28.15779
#
# Velocity S-wave (km/s) = 3.61847 3.78602 3.70319
# Velocity P-wave (km/s) = 5.52045 5.90563 5.71628
#
# Compressibility (1/GPa) = 0.03741316
#
# Stress axis : x y z
#
# Youngs Moduli (GPa) = 62.21552 59.32717 53.34479
#
# Poissons Ratio (x) = 0.20704 -0.04316
# Poissons Ratio (y) = 0.21712 0.23739
# Poissons Ratio (z) = -0.05034 0.26401
#
# Static dielectric constant tensor:
#      x y z
#    x 3.809120 0.000000 0.111320 
#    y 0.000000 3.675050 0.000000 
#    z 0.111320 0.000000 3.783730 
# 
# 
# High freq. dielectric constant tensor:
#      x y z
#    x 1.797200 0.000000 0.003050 
#    y 0.000000 1.803160 0.000000 
#    z 0.003050 0.000000 1.807010 
# 
# From -- ./inp_files/21541.got.cif
#   From: 2010.03.12/outbox.cif.g09.slc.cpg/sg8_11_cif.got.tgz:21541.got - 2010.03.31 10:45:26.
