data_PCOD8053461
_publ_section_title
;
Structure prediction by ZEFSAII (Michael W. Deem and Ramdas Pophale) SiO2 
 PCOD8053461
Probable space group: C M
;
_chemical_formula_sum "Si O2"
_cell_formula_units_Z 32
_cell_length_a 20.201740
_cell_length_b 8.836001
_cell_length_c 14.260778
_cell_angle_alpha 90.000000
_cell_angle_beta 141.688497
_cell_angle_gamma 90.000000
_cell_volume 1578.101791
_symmetry_space_group_name_H-M "C M"
_symmetry_group_IT_number 8
_symmetry_cell_setting 'monoclinic'
loop_
_space_group_symop_operation_xyz
x,y,z
x,-y,z
1/2+x,1/2+y,z
1/2+x,1/2-y,z
loop_
_atom_site_type_symbol
_atom_site_label
_atom_site_fract_x
_atom_site_fract_y
_atom_site_fract_z
Si Si1 0.806250 0.324504 0.174050
Si Si2 0.202063 0.332143 0.784877
Si Si3 0.764403 0.825124 0.320013
Si Si4 0.592161 0.673587 0.820589
Si Si5 0.373894 0.822278 0.616887
Si Si6 0.019839 0.324591 0.084673
Si Si7 0.920544 0.169661 0.141274
Si Si8 0.334862 0.679005 0.762675
O O1 0.824277 0.500000 0.216700
O O2 0.812122 0.228193 0.274741
O O3 0.902571 0.266482 0.215427
O O4 0.693230 0.296380 0.998597
O O5 0.150697 0.500000 0.727284
O O6 0.119627 0.218981 0.743486
O O7 0.231610 0.278710 0.712134
O O8 0.312521 0.335514 0.962739
O O9 0.818520 0.725870 0.459837
O O10 0.638417 0.797613 0.179462
O O11 0.793418 0.000000 0.368675
O O12 0.555895 0.500000 0.780748
O O13 0.497665 0.775515 0.755282
O O14 0.312474 0.741560 0.634300
O O15 0.365310 0.000000 0.621109
O O16 0.990615 0.500000 0.062462
O O17 0.009982 0.248514 0.176237
O O18 0.942874 0.251540 0.922380
O O19 0.957819 0.000000 0.208758
O O20 0.351968 0.500000 0.780007
#
# Coordination Sequence:
#
# PCOD8053461 Si02
#       8
#     4   4   4   4   4   4   4   4
#     4  10  20  35  58  86 113 143 182 226 271 324
#     4   8  16  31  53  82 112 141 176 221 270 318
#     4  11  24  40  56  77 110 148 185 228 276 325
#     4  10  20  35  58  85 113 144 180 224 271 323
#     4  12  25  39  56  78 109 147 187 230 273 324
#     4  10  20  35  58  86 113 143 182 227 273 324
#     4   9  17  31  54  83 114 145 179 223 271 320
#     4  10  20  36  59  85 114 145 179 223 273 326
#
# _framework density 20.277526999999999
#
# number of rings (size 3 to 8) (size 9 to 14) (size 15 to 20)
#    0.000    2.000    0.000    4.875    0.000    9.000 
#    0.000    1.250    0.000    4.500    0.000    0.000 
#    0.000    0.000    0.000    0.000    0.000    0.000 
#
# Total GULP energy -198437.213050 kJ/mol
# GULP energy per Si atom -12402.325816 kJ/mol
# Density = 2.023137 g / cm^3
# Si number density = 20.277527 Si / 1000 Ang^3
#
#
#
# Elastic Constant Matrix: (Units=GPa)
#
#
# Indices 1 2 3 4 5 6 
#
# 1 113.5132 32.5705 15.1707 0.0000 -32.4203 0.0000
# 2 32.5705 99.5304 14.9024 0.0000 -3.5875 0.0000
# 3 15.1707 14.9024 34.7346 0.0000 -15.2057 0.0000
# 4 0.0000 0.0000 0.0000 27.4080 0.0000 -5.4595
# 5 -32.4203 -3.5875 -15.2057 0.0000 17.4333 0.0000
# 6 0.0000 0.0000 0.0000 -5.4595 0.0000 40.2889
#
#
#
# Elastic Compliance Matrix: (Units=1/GPa)
#
#
# Indices 1 2 3 4 5 6 
#
# 1 0.029971 -0.010739 0.024183 0.000000 0.074619 0.000000
# 2 -0.010739 0.014678 -0.014603 0.000000 -0.029688 0.000000
# 3 0.024183 -0.014603 0.069342 0.000000 0.102450 0.000000
# 4 0.000000 0.000000 0.000000 0.037498 0.000000 0.005081
# 5 0.074619 -0.029688 0.102450 0.000000 0.279378 0.000000
# 6 0.000000 0.000000 0.000000 0.005081 0.000000 0.025509
#
#
# Mechanical properties :
#
#
# Convention : Reuss Voigt Hill
#
# Bulk Modulus (GPa) = 8.95477 41.45170 25.20324
# Shear Modulus (GPa) = 10.08231 29.36834 19.72533
#
# Velocity S-wave (km/s) = 2.23225 3.80981 3.12231
# Velocity P-wave (km/s) = 3.32711 6.31185 5.04525
#
# Compressibility (1/GPa) = 0.11167232
#
# Stress axis : x y z
#
# Youngs Moduli (GPa) = 33.36603 68.12990 14.42125
#
# Poissons Ratio (x) = 0.73164 -0.34875
# Poissons Ratio (y) = 0.35832 0.21060
# Poissons Ratio (z) = -0.80690 0.99493
#
# Static dielectric constant tensor:
#      x y z
#    x 4.024240 0.000000 -0.141410 
#    y 0.000000 3.797760 0.000000 
#    z -0.141410 0.000000 3.271180 
# 
# 
# High freq. dielectric constant tensor:
#      x y z
#    x 1.809990 0.000000 -0.011730 
#    y 0.000000 1.804230 0.000000 
#    z -0.011730 0.000000 1.753050 
# 
# From -- ./inp_files/27784.got.cif
#   From: 2010.03.12/outbox.cif.g09.slc.cpg/sg8_14_cif.got.tgz:27784.got - 2010.03.31 10:45:26.
