data_PCOD8053392
_publ_section_title
;
Structure prediction by ZEFSAII (Michael W. Deem and Ramdas Pophale) SiO2 
 PCOD8053392
Probable space group: C M
;
_chemical_formula_sum "Si O2"
_cell_formula_units_Z 28
_cell_length_a 13.925743
_cell_length_b 14.276347
_cell_length_c 15.543527
_cell_angle_alpha 90.000000
_cell_angle_beta 28.112968
_cell_angle_gamma 90.000000
_cell_volume 1456.132674
_symmetry_space_group_name_H-M "C M"
_symmetry_group_IT_number 8
_symmetry_cell_setting 'monoclinic'
loop_
_space_group_symop_operation_xyz
x,y,z
x,-y,z
1/2+x,1/2+y,z
1/2+x,1/2-y,z
loop_
_atom_site_type_symbol
_atom_site_label
_atom_site_fract_x
_atom_site_fract_y
_atom_site_fract_z
Si Si1 0.907210 0.285708 0.375000
Si Si2 0.003678 0.895522 0.710450
Si Si3 0.297836 0.772134 0.277593
Si Si4 0.137111 0.897260 0.790454
Si Si5 0.359821 0.710472 0.591348
Si Si6 0.610659 0.888511 0.922114
Si Si7 0.246578 0.606706 0.201828
O O1 0.698712 0.340173 0.525804
O O2 0.934441 0.251542 0.254762
O O3 0.879306 0.204924 0.470668
O O4 0.092654 0.354569 0.250814
O O5 0.990200 0.891256 0.823853
O O6 0.793156 0.855155 0.839894
O O7 0.028797 0.000000 0.654829
O O8 0.230632 0.669825 0.298437
O O9 0.073538 0.821243 0.466675
O O10 0.413719 0.833595 0.113257
O O11 0.312729 0.819647 0.650496
O O12 0.243834 0.000000 0.709729
O O13 0.983302 0.883961 0.990186
O O14 0.175835 0.645565 0.773845
O O15 0.567648 0.000000 0.956240
O O16 0.185552 0.500000 0.269921
#
# Coordination Sequence:
#
# PCOD8053392 Si02
#       7
#     4   4   4   4   4   4   4
#     4  10  20  34  58  88 121 152 193 243 293 355
#     4   9  17  30  53  84 113 142 182 237 295 341
#     4  11  22  37  58  91 119 157 195 251 304 352
#     4   9  17  33  58  86 115 145 184 241 300 353
#     4  10  21  38  56  86 118 159 194 238 296 357
#     4  11  22  37  58  84 119 158 200 244 294 356
#     4  10  20  35  59  89 119 151 196 246 296 352
#
# _framework density 19.229018
#
# number of rings (size 3 to 8) (size 9 to 14) (size 15 to 20)
#    0.000    2.000    2.857    1.286    0.000    6.286 
#    0.000    0.714    0.000    0.857    0.000    0.000 
#    0.000    0.000    0.000    0.000    0.000    0.000 
#
# Total GULP energy -173442.629222 kJ/mol
# GULP energy per Si atom -12388.759230 kJ/mol
# Density = 1.918525 g / cm^3
# Si number density = 19.229018 Si / 1000 Ang^3
#
#
#
# Elastic Constant Matrix: (Units=GPa)
#
#
# Indices 1 2 3 4 5 6 
#
# 1 86.9639 42.9769 27.7264 -0.0024 2.9922 0.0028
# 2 42.9769 82.4010 32.3555 -0.0117 -1.2067 0.0096
# 3 27.7264 32.3555 87.2601 -0.0007 -0.9050 0.0050
# 4 -0.0024 -0.0117 -0.0007 19.1470 0.0057 -6.3324
# 5 2.9922 -1.2067 -0.9050 0.0057 31.6435 -0.0106
# 6 0.0028 0.0096 0.0050 -6.3324 -0.0106 22.4733
#
#
#
# Elastic Compliance Matrix: (Units=1/GPa)
#
#
# Indices 1 2 3 4 5 6 
#
# 1 0.015990 -0.007449 -0.002338 -0.000002 -0.001863 0.000000
# 2 -0.007449 0.017679 -0.004175 0.000008 0.001259 -0.000003
# 3 -0.002338 -0.004175 0.013756 -0.000003 0.000455 -0.000002
# 4 -0.000002 0.000008 -0.000003 0.057595 -0.000005 0.016229
# 5 -0.001863 0.001259 0.000455 -0.000005 0.031839 0.000013
# 6 0.000000 -0.000003 -0.000002 0.016229 0.000013 0.049070
#
#
# Mechanical properties :
#
#
# Convention : Reuss Voigt Hill
#
# Bulk Modulus (GPa) = 51.28206 51.41585 51.34896
# Shear Modulus (GPa) = 22.69094 24.89049 23.79071
#
# Velocity S-wave (km/s) = 3.43889 3.60171 3.52124
# Velocity P-wave (km/s) = 6.51882 6.64027 6.57982
#
# Compressibility (1/GPa) = 0.01950000
#
# Stress axis : x y z
#
# Youngs Moduli (GPa) = 62.54046 56.56547 72.69684
#
# Poissons Ratio (x) = 0.42134 0.16996
# Poissons Ratio (y) = 0.46585 0.30353
# Poissons Ratio (z) = 0.14622 0.23618
#
# Static dielectric constant tensor:
#      x y z
#    x 3.466930 -0.000010 0.086330 
#    y -0.000010 3.388990 0.000010 
#    z 0.086330 0.000010 3.684780 
# 
# 
# High freq. dielectric constant tensor:
#      x y z
#    x 1.731630 0.000000 -0.001630 
#    y 0.000000 1.723270 0.000000 
#    z -0.001630 0.000000 1.764410 
# 
# From -- ./inp_files/26905.got.cif
#   From: 2010.03.12/outbox.cif.g09.slc.cpg/sg8_14_cif.got.tgz:26905.got - 2010.03.31 10:45:26.
