data_PCOD8053762
_publ_section_title
;
Structure prediction by ZEFSAII (Michael W. Deem and Ramdas Pophale) SiO2 
 PCOD8053762
Probable space group: C M
;
_chemical_formula_sum "Si O2"
_cell_formula_units_Z 32
_cell_length_a 15.391893
_cell_length_b 8.659985
_cell_length_c 12.005040
_cell_angle_alpha 90.000000
_cell_angle_beta 89.214899
_cell_angle_gamma 90.000000
_cell_volume 1600.044325
_symmetry_space_group_name_H-M "C M"
_symmetry_group_IT_number 8
_symmetry_cell_setting 'monoclinic'
loop_
_space_group_symop_operation_xyz
x,y,z
x,-y,z
1/2+x,1/2+y,z
1/2+x,1/2-y,z
loop_
_atom_site_type_symbol
_atom_site_label
_atom_site_fract_x
_atom_site_fract_y
_atom_site_fract_z
Si Si1 0.000000 0.179539 0.506830
Si Si2 0.650903 0.182610 0.644224
Si Si3 0.810262 0.323160 0.025479
Si Si4 0.658780 0.181940 0.892684
Si Si5 0.003654 0.679492 0.050054
Si Si6 0.068192 0.821202 0.262280
Si Si7 0.252861 0.319010 0.250635
Si Si8 0.306017 0.683206 0.490931
O O1 0.060886 0.275437 0.587306
O O2 0.020628 0.216075 0.378361
O O3 0.901108 0.233537 0.531706
O O4 0.012866 0.000000 0.533043
O O5 0.652930 0.252995 0.768633
O O6 0.732551 0.252879 0.574158
O O7 0.659453 0.000000 0.648138
O O8 0.781831 0.500000 0.013062
O O9 0.911004 0.298124 0.990662
O O10 0.800390 0.273877 0.153269
O O11 0.750949 0.223135 0.944900
O O12 0.650753 0.000000 0.885497
O O13 0.578943 0.245811 0.967873
O O14 0.019339 0.500000 0.078663
O O15 0.003026 0.778913 0.163403
O O16 0.150529 0.710929 0.247496
O O17 0.095819 0.000000 0.254960
O O18 0.270638 0.500000 0.234027
O O19 0.289733 0.254478 0.366645
O O20 0.298524 0.500000 0.486982
#
# Coordination Sequence:
#
# PCOD8053762 Si02
#       8
#     4   4   4   4   4   4   4   4
#     4  10  21  37  57  84 117 148 183 233 287 333
#     4  10  21  39  60  82 110 149 198 236 275 335
#     4  11  23  38  58  86 117 148 190 239 285 338
#     4  10  22  40  60  81 111 153 194 236 285 337
#     4  10  22  39  58  83 117 154 188 232 289 339
#     4  11  21  34  57  88 118 148 189 235 281 340
#     4  11  20  35  60  85 116 153 186 226 288 349
#     4   9  19  36  58  83 114 151 186 227 280 339
#
# _framework density 19.999447
#
# number of rings (size 3 to 8) (size 9 to 14) (size 15 to 20)
#    0.000    1.750    2.500    1.875    0.000    4.000 
#    0.000    1.875    0.000    0.000    0.000    0.000 
#    0.000    0.000    0.000    0.000    0.000    0.000 
#
# Total GULP energy -198442.643119 kJ/mol
# GULP energy per Si atom -12402.665195 kJ/mol
# Density = 1.995393 g / cm^3
# Si number density = 19.999447 Si / 1000 Ang^3
#
#
#
# Elastic Constant Matrix: (Units=GPa)
#
#
# Indices 1 2 3 4 5 6 
#
# 1 127.9444 5.9126 52.4816 0.0000 9.9162 0.0000
# 2 5.9126 11.7039 11.4230 0.0000 -2.0906 0.0000
# 3 52.4816 11.4230 144.2512 0.0000 11.7011 0.0000
# 4 0.0000 0.0000 0.0000 15.3341 0.0000 6.1402
# 5 9.9162 -2.0906 11.7011 0.0000 16.1499 0.0000
# 6 0.0000 0.0000 0.0000 6.1402 0.0000 29.7455
#
#
#
# Elastic Compliance Matrix: (Units=1/GPa)
#
#
# Indices 1 2 3 4 5 6 
#
# 1 0.009440 -0.002665 -0.002895 0.000000 -0.004044 0.000000
# 2 -0.002665 0.098787 -0.008524 0.000000 0.020600 0.000000
# 3 -0.002895 -0.008524 0.009143 0.000000 -0.005950 0.000000
# 4 0.000000 0.000000 0.000000 0.071090 0.000000 -0.014675
# 5 -0.004044 0.020600 -0.005950 0.000000 0.071381 0.000000
# 6 0.000000 0.000000 0.000000 -0.014675 0.000000 0.036648
#
#
# Mechanical properties :
#
#
# Convention : Reuss Voigt Hill
#
# Bulk Modulus (GPa) = 11.21063 47.05930 29.13497
# Shear Modulus (GPa) = 14.10865 26.51807 20.31336
#
# Velocity S-wave (km/s) = 2.65892 3.64530 3.19046
# Velocity P-wave (km/s) = 3.87867 6.42643 5.30769
#
# Compressibility (1/GPa) = 0.08920102
#
# Stress axis : x y z
#
# Youngs Moduli (GPa) = 105.93060 10.12278 109.36789
#
# Poissons Ratio (x) = 0.02698 0.31667
# Poissons Ratio (y) = 0.28233 0.93226
# Poissons Ratio (z) = 0.30672 0.08629
#
# Static dielectric constant tensor:
#      x y z
#    x 3.772260 0.000000 -0.152560 
#    y 0.000000 3.381850 0.000000 
#    z -0.152560 0.000000 3.817850 
# 
# 
# High freq. dielectric constant tensor:
#      x y z
#    x 1.792480 0.000000 0.000310 
#    y 0.000000 1.758160 0.000000 
#    z 0.000310 0.000000 1.779360 
# 
# From -- ./inp_files/21351.got.cif
#   From: 2010.03.12/outbox.cif.g09.slc.cpg/sg8_11_cif.got.tgz:21351.got - 2010.03.31 10:45:26.
