data_PCOD8053179
_publ_section_title
;
Structure prediction by ZEFSAII (Michael W. Deem and Ramdas Pophale) SiO2 
 PCOD8053179
Probable space group: C M
;
_chemical_formula_sum "Si O2"
_cell_formula_units_Z 32
_cell_length_a 14.743262
_cell_length_b 8.789972
_cell_length_c 14.290745
_cell_angle_alpha 90.000000
_cell_angle_beta 104.316903
_cell_angle_gamma 90.000000
_cell_volume 1794.461291
_symmetry_space_group_name_H-M "C M"
_symmetry_group_IT_number 8
_symmetry_cell_setting 'monoclinic'
loop_
_space_group_symop_operation_xyz
x,y,z
x,-y,z
1/2+x,1/2+y,z
1/2+x,1/2-y,z
loop_
_atom_site_type_symbol
_atom_site_label
_atom_site_fract_x
_atom_site_fract_y
_atom_site_fract_z
Si Si1 0.670780 0.179377 0.880430
Si Si2 0.859024 0.821146 0.023909
Si Si3 0.565577 0.318726 0.023124
Si Si4 0.808025 0.670629 0.367328
Si Si5 0.433316 0.324406 0.534352
Si Si6 0.768495 0.329351 0.557016
Si Si7 0.238669 0.678804 0.166324
Si Si8 0.622189 0.678598 0.673373
O O1 0.650199 0.225113 0.769851
O O2 0.660380 0.000000 0.892188
O O3 0.777369 0.231722 0.931052
O O4 0.594830 0.258860 0.928333
O O5 0.822652 0.770169 0.117665
O O6 0.961585 0.753215 0.023827
O O7 0.870306 0.000000 0.023034
O O8 0.565461 0.500000 0.021998
O O9 0.641085 0.261771 0.118176
O O10 0.820538 0.500000 0.330749
O O11 0.908639 0.732797 0.432022
O O12 0.736727 0.673121 0.438649
O O13 0.768361 0.780385 0.278312
O O14 0.442485 0.500000 0.510416
O O15 0.352601 0.291387 0.590683
O O16 0.524382 0.263080 0.608984
O O17 0.802935 0.500000 0.590916
O O18 0.688518 0.276862 0.605153
O O19 0.220699 0.500000 0.152447
O O20 0.622615 0.500000 0.698200
#
# Coordination Sequence:
#
# PCOD8053179 Si02
#       8
#     4   4   4   4   4   4   4   4
#     4  10  21  36  54  79 109 138 172 220 265 308
#     4   8  18  36  55  76 104 137 172 210 259 315
#     4  10  19  36  58  79 104 138 175 214 261 318
#     4   9  18  35  55  76 107 143 175 216 263 308
#     4   9  18  33  53  75 102 136 177 219 259 305
#     4   8  18  35  52  72 105 139 175 217 257 306
#     4  10  19  35  56  80 109 138 173 217 261 310
#     4  10  20  36  55  77 104 143 181 213 261 318
#
# _framework density 17.832650000000001
#
# number of rings (size 3 to 8) (size 9 to 14) (size 15 to 20)
#    0.750    2.000    0.000    2.250    0.000    2.500 
#    2.250   11.250    0.000    0.000    0.000    0.000 
#    0.000    0.000    0.000    0.000    0.000    0.000 
#
# Total GULP energy -198219.363272 kJ/mol
# GULP energy per Si atom -12388.710205 kJ/mol
# Density = 1.779206 g / cm^3
# Si number density = 17.832650 Si / 1000 Ang^3
#
#
#
# Elastic Constant Matrix: (Units=GPa)
#
#
# Indices 1 2 3 4 5 6 
#
# 1 141.4981 34.0419 61.3563 0.0000 1.7838 0.0000
# 2 34.0419 58.2805 33.0718 0.0000 1.6548 0.0000
# 3 61.3563 33.0718 125.4020 0.0000 6.0744 0.0000
# 4 0.0000 0.0000 0.0000 32.2477 0.0000 2.0977
# 5 1.7838 1.6548 6.0744 0.0000 22.7231 0.0000
# 6 0.0000 0.0000 0.0000 2.0977 0.0000 22.7702
#
#
#
# Elastic Compliance Matrix: (Units=1/GPa)
#
#
# Indices 1 2 3 4 5 6 
#
# 1 0.009526 -0.003434 -0.003780 0.000000 0.000513 0.000000
# 2 -0.003434 0.021416 -0.003957 0.000000 -0.000232 0.000000
# 3 -0.003780 -0.003957 0.010981 0.000000 -0.002351 0.000000
# 4 0.000000 0.000000 0.000000 0.031197 0.000000 -0.002874
# 5 0.000513 -0.000232 -0.002351 0.000000 0.044613 0.000000
# 6 0.000000 0.000000 0.000000 -0.002874 0.000000 0.044182
#
#
# Mechanical properties :
#
#
# Convention : Reuss Voigt Hill
#
# Bulk Modulus (GPa) = 51.06690 64.68006 57.87348
# Shear Modulus (GPa) = 26.20776 28.66224 27.43500
#
# Velocity S-wave (km/s) = 3.83776 4.01345 3.92659
# Velocity P-wave (km/s) = 6.95247 7.60437 7.28571
#
# Compressibility (1/GPa) = 0.01958216
#
# Stress axis : x y z
#
# Youngs Moduli (GPa) = 104.97598 46.69439 91.06446
#
# Poissons Ratio (x) = 0.16033 0.34424
# Poissons Ratio (y) = 0.36045 0.36031
# Poissons Ratio (z) = 0.39682 0.18475
#
# Static dielectric constant tensor:
#      x y z
#    x 3.413620 0.000000 -0.006080 
#    y 0.000000 3.196590 0.000000 
#    z -0.006080 0.000000 3.205050 
# 
# 
# High freq. dielectric constant tensor:
#      x y z
#    x 1.681120 0.000000 0.000780 
#    y 0.000000 1.686930 0.000000 
#    z 0.000780 0.000000 1.686100 
# 
# From -- ./inp_files/26446.got.cif
#   From: 2010.03.12/outbox.cif.g09.slc.cpg/sg8_14_cif.got.tgz:26446.got - 2010.03.31 10:45:26.
