data_PCOD8053345
_publ_section_title
;
Structure prediction by ZEFSAII (Michael W. Deem and Ramdas Pophale) SiO2 
 PCOD8053345
Probable space group: C M
;
_chemical_formula_sum "Si O2"
_cell_formula_units_Z 24
_cell_length_a 18.968231
_cell_length_b 8.745678
_cell_length_c 20.594208
_cell_angle_alpha 90.000000
_cell_angle_beta 21.854118
_cell_angle_gamma 90.000000
_cell_volume 1271.726976
_symmetry_space_group_name_H-M "C M"
_symmetry_group_IT_number 8
_symmetry_cell_setting 'monoclinic'
loop_
_space_group_symop_operation_xyz
x,y,z
x,-y,z
1/2+x,1/2+y,z
1/2+x,1/2-y,z
loop_
_atom_site_type_symbol
_atom_site_label
_atom_site_fract_x
_atom_site_fract_y
_atom_site_fract_z
Si Si1 0.232560 0.819725 0.101060
Si Si2 0.280585 0.179712 0.699692
Si Si3 0.088118 0.818606 0.734438
Si Si4 0.310301 0.318857 0.427722
Si Si5 0.393367 0.679508 0.089636
Si Si6 0.683659 0.818563 0.396280
O O1 0.268210 0.769132 0.144355
O O2 0.022379 0.765392 0.262060
O O3 0.256405 0.000000 0.074061
O O4 0.375878 0.740208 0.928415
O O5 0.223056 0.241827 0.677609
O O6 0.477341 0.253324 0.555841
O O7 0.308049 0.000000 0.671018
O O8 0.114808 0.221140 0.892467
O O9 0.162122 0.753807 0.603846
O O10 0.083949 0.000000 0.735921
O O11 0.290559 0.500000 0.448709
O O12 0.256782 0.254807 0.402289
O O13 0.358656 0.500000 0.107224
O O14 0.330896 0.731455 0.214613
O O15 0.670141 0.000000 0.411533
#
# Coordination Sequence:
#
# PCOD8053345 Si02
#       6
#     4   4   4   4   4   4
#     4  10  20  34  53  78 107 136 167 208 258 308
#     4   8  15  28  49  74  94 120 165 214 250 284
#     4  10  20  35  56  78 100 133 176 216 253 298
#     4  10  21  34  51  78 108 137 168 207 258 308
#     4   9  17  31  52  75  97 128 172 213 248 293
#     4   9  17  30  49  73 100 130 166 208 251 297
#
# _framework density 18.871976
#
# number of rings (size 3 to 8) (size 9 to 14) (size 15 to 20)
#    0.000    2.667    0.000    3.000    0.000    4.000 
#    0.000    5.833    0.000    9.000    0.000    0.000 
#    0.000    0.000    0.000    0.000    0.000    0.000 
#
# Total GULP energy -148789.416608 kJ/mol
# GULP energy per Si atom -12399.118051 kJ/mol
# Density = 1.882902 g / cm^3
# Si number density = 18.871976 Si / 1000 Ang^3
#
#
#
# Elastic Constant Matrix: (Units=GPa)
#
#
# Indices 1 2 3 4 5 6 
#
# 1 105.2022 12.3864 71.6088 -0.0163 23.9722 0.0023
# 2 12.3864 23.8469 16.7983 0.0252 4.5569 -0.0053
# 3 71.6088 16.7983 134.8618 -0.0002 26.4833 -0.0041
# 4 -0.0163 0.0252 -0.0002 23.6138 -0.0015 2.3455
# 5 23.9722 4.5569 26.4833 -0.0015 29.8378 -0.0016
# 6 0.0023 -0.0053 -0.0041 2.3455 -0.0016 21.9706
#
#
#
# Elastic Compliance Matrix: (Units=1/GPa)
#
#
# Indices 1 2 3 4 5 6 
#
# 1 0.015926 -0.002174 -0.006950 0.000013 -0.006295 -0.000005
# 2 -0.002174 0.046401 -0.004332 -0.000053 -0.001495 0.000016
# 3 -0.006950 -0.004332 0.012617 -0.000001 -0.004954 0.000002
# 4 0.000013 -0.000053 -0.000001 0.042802 0.000000 -0.004569
# 5 -0.006295 -0.001495 -0.004954 0.000000 0.043198 0.000003
# 6 -0.000005 0.000016 0.000002 -0.004569 0.000003 0.046003
#
#
# Mechanical properties :
#
#
# Convention : Reuss Voigt Hill
#
# Bulk Modulus (GPa) = 20.81862 51.72197 36.27029
# Shear Modulus (GPa) = 20.01050 25.95894 22.98472
#
# Velocity S-wave (km/s) = 3.25980 3.71284 3.49367
# Velocity P-wave (km/s) = 5.02234 6.77100 5.96114
#
# Compressibility (1/GPa) = 0.04803392
#
# Stress axis : x y z
#
# Youngs Moduli (GPa) = 62.78892 21.55147 79.25531
#
# Poissons Ratio (x) = 0.04685 0.55079
# Poissons Ratio (y) = 0.13650 0.34331
# Poissons Ratio (z) = 0.43636 0.09335
#
# Static dielectric constant tensor:
#      x y z
#    x 3.680180 -0.000010 -0.063570 
#    y -0.000010 3.101700 0.000000 
#    z -0.063570 0.000000 3.664040 
# 
# 
# High freq. dielectric constant tensor:
#      x y z
#    x 1.729600 0.000000 0.001060 
#    y 0.000000 1.697700 0.000000 
#    z 0.001060 0.000000 1.749090 
# 
# From -- ./inp_files/14235.got.cif
#   From: 2010.03.12/outbox.cif.g09.slc.cpg/sg8_8_cif.got.tgz:14235.got - 2010.03.31 10:45:26.
