data_PCOD8053380
_publ_section_title
;
Structure prediction by ZEFSAII (Michael W. Deem and Ramdas Pophale) SiO2 
 PCOD8053380
Probable space group: C M
;
_chemical_formula_sum "Si O2"
_cell_formula_units_Z 32
_cell_length_a 29.505032
_cell_length_b 9.502207
_cell_length_c 5.365007
_cell_angle_alpha 90.000000
_cell_angle_beta 100.890041
_cell_angle_gamma 90.000000
_cell_volume 1477.061668
_symmetry_space_group_name_H-M "C M"
_symmetry_group_IT_number 8
_symmetry_cell_setting 'monoclinic'
loop_
_space_group_symop_operation_xyz
x,y,z
x,-y,z
1/2+x,1/2+y,z
1/2+x,1/2-y,z
loop_
_atom_site_type_symbol
_atom_site_label
_atom_site_fract_x
_atom_site_fract_y
_atom_site_fract_z
Si Si1 0.495130 0.337965 0.459590
Si Si2 0.161677 0.653109 0.674701
Si Si3 0.296743 0.163257 0.225824
Si Si4 0.116181 0.845960 0.026415
Si Si5 0.207968 0.152659 0.398582
Si Si6 0.345409 0.168176 0.780103
Si Si7 0.438457 0.662343 0.898742
Si Si8 0.568139 0.845164 0.309284
O O1 0.511520 0.500000 0.476248
O O2 0.468014 0.301605 0.683349
O O3 0.539547 0.234728 0.496008
O O4 0.465895 0.304753 0.180827
O O5 0.175112 0.500000 0.802781
O O6 0.207831 0.721833 0.600911
O O7 0.120909 0.628644 0.436044
O O8 0.143333 0.761755 0.851240
O O9 0.241825 0.194654 0.204464
O O10 0.322389 0.223247 0.499349
O O11 0.307357 0.000000 0.222216
O O12 0.315263 0.226844 0.984381
O O13 0.154567 0.869740 0.277081
O O14 0.070997 0.759310 0.072570
O O15 0.098794 0.000000 0.914975
O O16 0.225908 0.000000 0.525855
O O17 0.395416 0.235058 0.853433
O O18 0.350065 0.000000 0.788486
O O19 0.422457 0.500000 0.875565
O O20 0.546450 0.000000 0.224453
#
# Coordination Sequence:
#
# PCOD8053380 Si02
#       8
#     4   4   4   4   4   4   4   4
#     4  10  22  39  60  86 114 150 194 239 286 346
#     4  10  21  36  54  79 116 153 188 238 292 340
#     4   9  19  34  58  87 116 146 190 242 284 336
#     4  10  20  34  57  82 110 152 197 237 282 342
#     4   9  19  35  55  81 109 149 197 239 283 335
#     4  10  20  36  59  86 114 148 187 235 291 347
#     4  10  22  40  60  84 116 150 187 237 291 347
#     4  10  22  38  55  81 115 150 190 241 293 341
#
# _framework density 21.664636000000002
#
# number of rings (size 3 to 8) (size 9 to 14) (size 15 to 20)
#    0.000    2.250    0.000    1.875    3.500    3.000 
#    0.000    1.250    0.000    0.000    0.000    0.000 
#    0.000    0.000    0.000    0.000    0.000    0.000 
#
# Total GULP energy -198233.532626 kJ/mol
# GULP energy per Si atom -12389.595789 kJ/mol
# Density = 2.161533 g / cm^3
# Si number density = 21.664636 Si / 1000 Ang^3
#
#
#
# Elastic Constant Matrix: (Units=GPa)
#
#
# Indices 1 2 3 4 5 6 
#
# 1 86.6641 35.0763 22.6479 0.0000 -29.1445 0.0000
# 2 35.0763 135.9991 27.7411 0.0000 -31.8322 0.0000
# 3 22.6479 27.7411 105.2653 0.0000 -29.2456 0.0000
# 4 0.0000 0.0000 0.0000 17.8926 0.0000 -6.1379
# 5 -29.1445 -31.8322 -29.2456 0.0000 39.0061 0.0000
# 6 0.0000 0.0000 0.0000 -6.1379 0.0000 23.6372
#
#
#
# Elastic Compliance Matrix: (Units=1/GPa)
#
#
# Indices 1 2 3 4 5 6 
#
# 1 0.015692 -0.001608 -0.000075 0.000000 0.010356 0.000000
# 2 -0.001608 0.009269 -0.000416 0.000000 0.006051 0.000000
# 3 -0.000075 -0.000416 0.012019 0.000000 0.008616 0.000000
# 4 0.000000 0.000000 0.000000 0.061354 0.000000 0.015932
# 5 0.010356 0.006051 0.008616 0.000000 0.044773 0.000000
# 6 0.000000 0.000000 0.000000 0.015932 0.000000 0.046443
#
#
# Mechanical properties :
#
#
# Convention : Reuss Voigt Hill
#
# Bulk Modulus (GPa) = 30.50372 55.42877 42.96625
# Shear Modulus (GPa) = 24.42887 32.27141 28.35014
#
# Velocity S-wave (km/s) = 3.36161 3.86371 3.62137
# Velocity P-wave (km/s) = 5.40164 6.74869 6.11238
#
# Compressibility (1/GPa) = 0.03278288
#
# Stress axis : x y z
#
# Youngs Moduli (GPa) = 63.72715 107.88885 83.19901
#
# Poissons Ratio (x) = 0.17347 0.00626
# Poissons Ratio (y) = 0.10247 0.03457
# Poissons Ratio (z) = 0.00479 0.04483
#
# Static dielectric constant tensor:
#      x y z
#    x 3.894820 0.000000 -0.073320 
#    y 0.000000 4.326650 0.000000 
#    z -0.073320 0.000000 4.086950 
# 
# 
# High freq. dielectric constant tensor:
#      x y z
#    x 1.839590 0.000000 -0.018590 
#    y 0.000000 1.843510 0.000000 
#    z -0.018590 0.000000 1.847270 
# 
# From -- ./inp_files/6339.got.cif
#   From: 2010.03.12/outbox.cif.g09.slc.cpg/sg8_4_cif.got.tgz:6339.got - 2010.03.31 10:45:26.
