data_PCOD8053569
_publ_section_title
;
Structure prediction by ZEFSAII (Michael W. Deem and Ramdas Pophale) SiO2 
 PCOD8053569
Probable space group: C M
;
_chemical_formula_sum "Si O2"
_cell_formula_units_Z 32
_cell_length_a 33.168939
_cell_length_b 8.531733
_cell_length_c 12.571451
_cell_angle_alpha 90.000000
_cell_angle_beta 153.623909
_cell_angle_gamma 90.000000
_cell_volume 1580.493784
_symmetry_space_group_name_H-M "C M"
_symmetry_group_IT_number 8
_symmetry_cell_setting 'monoclinic'
loop_
_space_group_symop_operation_xyz
x,y,z
x,-y,z
1/2+x,1/2+y,z
1/2+x,1/2-y,z
loop_
_atom_site_type_symbol
_atom_site_label
_atom_site_fract_x
_atom_site_fract_y
_atom_site_fract_z
Si Si1 0.601990 0.816145 0.291040
Si Si2 0.974543 0.820086 0.500022
Si Si3 0.779274 0.179843 0.097058
Si Si4 0.227081 0.313823 0.396311
Si Si5 0.487702 0.183411 0.309881
Si Si6 0.161395 0.313757 0.014883
Si Si7 0.668640 0.681546 0.657873
Si Si8 0.417760 0.684978 0.935593
O O1 0.653126 0.754010 0.306942
O O2 0.666791 0.780125 0.544561
O O3 0.582581 0.000000 0.240052
O O4 0.505914 0.728185 0.074378
O O5 0.947646 0.727704 0.329343
O O6 0.059490 0.745615 0.760442
O O7 0.995388 0.000000 0.521696
O O8 0.887302 0.804581 0.371303
O O9 0.726362 0.248921 0.074133
O O10 0.755189 0.274764 0.933363
O O11 0.750558 0.000000 0.011259
O O12 0.227373 0.500000 0.396512
O O13 0.327827 0.253503 0.663449
O O14 0.200108 0.246506 0.217273
O O15 0.580778 0.278936 0.520161
O O16 0.508362 0.000000 0.351566
O O17 0.419252 0.231897 0.054219
O O18 0.160688 0.500000 0.014740
O O19 0.670842 0.500000 0.632622
O O20 0.415412 0.500000 0.948449
#
# Coordination Sequence:
#
# PCOD8053569 Si02
#       8
#     4   4   4   4   4   4   4   4
#     4  10  20  37  58  85 119 156 195 240 296 352
#     4  11  23  38  58  89 120 154 197 247 298 349
#     4  10  22  38  59  85 118 157 196 239 299 356
#     4   9  21  39  62  86 115 158 203 240 290 353
#     4  11  21  36  58  86 121 159 194 240 301 357
#     4  10  21  42  64  84 115 159 203 244 292 353
#     4  11  21  35  58  88 122 153 194 246 296 351
#     4  10  20  37  59  87 118 154 196 244 292 349
#
# _framework density 20.246835999999998
#
# number of rings (size 3 to 8) (size 9 to 14) (size 15 to 20)
#    0.000    1.750    1.250    4.875    1.750    2.000 
#    0.000    5.625    0.000    0.000    0.000    0.000 
#    0.000    0.000    0.000    0.000    0.000    0.000 
#
# Total GULP energy -198428.450718 kJ/mol
# GULP energy per Si atom -12401.778170 kJ/mol
# Density = 2.020075 g / cm^3
# Si number density = 20.246836 Si / 1000 Ang^3
#
#
#
# Elastic Constant Matrix: (Units=GPa)
#
#
# Indices 1 2 3 4 5 6 
#
# 1 112.1517 11.1117 73.5555 0.0000 -10.5178 0.0000
# 2 11.1117 45.3519 15.1852 0.0000 -3.6701 0.0000
# 3 73.5555 15.1852 149.3308 0.0000 -9.9592 0.0000
# 4 0.0000 0.0000 0.0000 29.1497 0.0000 3.5673
# 5 -10.5178 -3.6701 -9.9592 0.0000 28.4250 0.0000
# 6 0.0000 0.0000 0.0000 3.5673 0.0000 19.6863
#
#
#
# Elastic Compliance Matrix: (Units=1/GPa)
#
#
# Indices 1 2 3 4 5 6 
#
# 1 0.013411 -0.000953 -0.006334 0.000000 0.002620 0.000000
# 2 -0.000953 0.023028 -0.001738 0.000000 0.002012 0.000000
# 3 -0.006334 -0.001738 0.010057 0.000000 0.000955 0.000000
# 4 0.000000 0.000000 0.000000 0.035084 0.000000 -0.006357
# 5 0.002620 0.002012 0.000955 0.000000 0.036744 0.000000
# 6 0.000000 0.000000 0.000000 -0.006357 0.000000 0.051949
#
#
# Mechanical properties :
#
#
# Convention : Reuss Voigt Hill
#
# Bulk Modulus (GPa) = 35.15492 56.28214 45.71853
# Shear Modulus (GPa) = 25.27745 29.25101 27.26423
#
# Velocity S-wave (km/s) = 3.53719 3.80507 3.67358
# Velocity P-wave (km/s) = 5.83808 6.86754 6.37363
#
# Compressibility (1/GPa) = 0.02844552
#
# Stress axis : x y z
#
# Youngs Moduli (GPa) = 74.56618 43.42533 99.43317
#
# Poissons Ratio (x) = 0.04138 0.62982
# Poissons Ratio (y) = 0.07106 0.17283
# Poissons Ratio (z) = 0.47231 0.07548
#
# Static dielectric constant tensor:
#      x y z
#    x 3.780770 0.000000 -0.051700 
#    y 0.000000 3.549750 0.000000 
#    z -0.051700 0.000000 3.719120 
# 
# 
# High freq. dielectric constant tensor:
#      x y z
#    x 1.789430 0.000000 0.004570 
#    y 0.000000 1.780440 0.000000 
#    z 0.004570 0.000000 1.791770 
# 
# From -- ./inp_files/24825.got.cif
#   From: 2010.03.12/outbox.cif.g09.slc.cpg/sg8_13_cif.got.tgz:24825.got - 2010.03.31 10:45:26.
