data_PCOD8053820
_publ_section_title
;
Structure prediction by ZEFSAII (Michael W. Deem and Ramdas Pophale) SiO2 
 PCOD8053820
Probable space group: C M
;
_chemical_formula_sum "Si O2"
_cell_formula_units_Z 24
_cell_length_a 15.009642
_cell_length_b 8.598989
_cell_length_c 17.948344
_cell_angle_alpha 90.000000
_cell_angle_beta 31.489444
_cell_angle_gamma 90.000000
_cell_volume 1210.031336
_symmetry_space_group_name_H-M "C M"
_symmetry_group_IT_number 8
_symmetry_cell_setting 'monoclinic'
loop_
_space_group_symop_operation_xyz
x,y,z
x,-y,z
1/2+x,1/2+y,z
1/2+x,1/2-y,z
loop_
_atom_site_type_symbol
_atom_site_label
_atom_site_fract_x
_atom_site_fract_y
_atom_site_fract_z
Si Si1 0.747130 0.182938 0.939950
Si Si2 0.095402 0.817001 0.472398
Si Si3 0.464054 0.182125 0.255295
Si Si4 0.260567 0.181716 0.771804
Si Si5 0.591568 0.181442 0.751736
Si Si6 0.942691 0.178826 0.425704
O O1 0.706475 0.274519 0.893554
O O2 0.935113 0.216189 0.836101
O O3 0.728131 0.000000 0.939097
O O4 0.612025 0.248044 0.096636
O O5 0.280070 0.749921 0.362779
O O6 0.958205 0.726283 0.619897
O O7 0.067788 0.782264 0.404850
O O8 0.073193 0.000000 0.504716
O O9 0.505643 0.222160 0.310837
O O10 0.457721 0.000000 0.249708
O O11 0.139529 0.276277 0.802082
O O12 0.234600 0.000000 0.776319
O O13 0.750006 0.223117 0.585390
O O14 0.545174 0.000000 0.780673
O O15 0.954808 0.000000 0.394354
#
# Coordination Sequence:
#
# PCOD8053820 Si02
#       6
#     4   4   4   4   4   4
#     4  11  23  38  55  82 118 154 188 228 277 333
#     4   9  19  38  59  80 109 147 185 227 277 331
#     4  10  22  37  55  80 112 148 185 224 275 331
#     4  11  22  37  59  87 113 145 188 234 281 332
#     4  10  21  39  61  85 111 146 189 234 281 332
#     4   9  19  35  57  82 107 138 183 231 277 327
#
# _framework density 19.834197
#
# number of rings (size 3 to 8) (size 9 to 14) (size 15 to 20)
#    0.000    2.000    0.000    4.500    0.000    9.333 
#    0.000    1.667    0.000    0.000    0.000    0.000 
#    0.000    0.000    0.000    0.000    0.000    0.000 
#
# Total GULP energy -148850.581353 kJ/mol
# GULP energy per Si atom -12404.215113 kJ/mol
# Density = 1.978905 g / cm^3
# Si number density = 19.834197 Si / 1000 Ang^3
#
#
#
# Elastic Constant Matrix: (Units=GPa)
#
#
# Indices 1 2 3 4 5 6 
#
# 1 78.4963 7.0466 35.8447 -0.0002 22.3798 0.0000
# 2 7.0466 45.8448 21.1697 -0.0003 5.7735 0.0001
# 3 35.8447 21.1697 72.4692 -0.0008 29.4500 0.0002
# 4 -0.0002 -0.0003 -0.0008 27.4077 0.0003 4.5455
# 5 22.3798 5.7735 29.4500 0.0003 29.5306 0.0000
# 6 0.0000 0.0001 0.0002 4.5455 0.0000 34.8080
#
#
#
# Elastic Compliance Matrix: (Units=1/GPa)
#
#
# Indices 1 2 3 4 5 6 
#
# 1 0.017491 0.000966 -0.005835 0.000000 -0.007626 0.000000
# 2 0.000966 0.025560 -0.009443 0.000000 0.003688 0.000000
# 3 -0.005835 -0.009443 0.028410 0.000001 -0.022064 0.000000
# 4 0.000000 0.000000 0.000001 0.037294 -0.000001 -0.004870
# 5 -0.007626 0.003688 -0.022064 -0.000001 0.060926 0.000000
# 6 0.000000 0.000000 0.000000 -0.004870 0.000000 0.029365
#
#
# Mechanical properties :
#
#
# Convention : Reuss Voigt Hill
#
# Bulk Modulus (GPa) = 23.34383 36.10357 29.72370
# Shear Modulus (GPa) = 20.66548 27.19921 23.93234
#
# Velocity S-wave (km/s) = 3.23137 3.70716 3.47741
# Velocity P-wave (km/s) = 5.07123 6.04701 5.58049
#
# Compressibility (1/GPa) = 0.04283787
#
# Stress axis : x y z
#
# Youngs Moduli (GPa) = 57.17124 39.12301 35.19874
#
# Poissons Ratio (x) = -0.03780 0.20538
# Poissons Ratio (y) = -0.05524 0.33239
# Poissons Ratio (z) = 0.33359 0.36945
#
# Static dielectric constant tensor:
#      x y z
#    x 3.663580 0.000000 -0.030810 
#    y 0.000000 3.465060 0.000000 
#    z -0.030810 0.000000 3.718870 
# 
# 
# High freq. dielectric constant tensor:
#      x y z
#    x 1.784410 0.000000 0.004420 
#    y 0.000000 1.766820 0.000000 
#    z 0.004420 0.000000 1.768260 
# 
# From -- ./inp_files/12061.got.cif
#   From: 2010.03.12/outbox.cif.g09.slc.cpg/sg8_7_cif.got.tgz:12061.got - 2010.03.31 10:45:26.
