data_PCOD8053823
_publ_section_title
;
Structure prediction by ZEFSAII (Michael W. Deem and Ramdas Pophale) SiO2 
 PCOD8053823
Probable space group: C M
;
_chemical_formula_sum "Si O2"
_cell_formula_units_Z 32
_cell_length_a 15.364372
_cell_length_b 8.805052
_cell_length_c 25.682876
_cell_angle_alpha 90.000000
_cell_angle_beta 27.701381
_cell_angle_gamma 90.000000
_cell_volume 1615.160687
_symmetry_space_group_name_H-M "C M"
_symmetry_group_IT_number 8
_symmetry_cell_setting 'monoclinic'
loop_
_space_group_symop_operation_xyz
x,y,z
x,-y,z
1/2+x,1/2+y,z
1/2+x,1/2-y,z
loop_
_atom_site_type_symbol
_atom_site_label
_atom_site_fract_x
_atom_site_fract_y
_atom_site_fract_z
Si Si1 0.977130 0.679220 0.251960
Si Si2 0.269846 0.676128 0.273028
Si Si3 0.513022 0.320355 0.656541
Si Si4 0.155226 0.824607 0.798816
Si Si5 0.931817 0.825175 0.817242
Si Si6 0.369489 0.821227 0.028705
Si Si7 0.048636 0.175052 0.032746
Si Si8 0.407735 0.819559 0.404702
O O1 0.000964 0.500000 0.239813
O O2 0.805517 0.728139 0.306221
O O3 0.934513 0.742842 0.332127
O O4 0.165512 0.751098 0.129646
O O5 0.250033 0.500000 0.298309
O O6 0.441376 0.702985 0.143091
O O7 0.078721 0.740134 0.349291
O O8 0.495944 0.500000 0.658923
O O9 0.358867 0.243253 0.701718
O O10 0.489621 0.271679 0.728980
O O11 0.713733 0.259096 0.531163
O O12 0.107881 0.803877 0.762690
O O13 0.153255 0.000000 0.816351
O O14 0.000765 0.737646 0.913580
O O15 0.865248 0.000000 0.851752
O O16 0.763230 0.721600 0.927288
O O17 0.456469 0.778891 0.037878
O O18 0.352924 0.000000 0.032585
O O19 0.033559 0.000000 0.023287
O O20 0.411222 0.000000 0.401823
#
# Coordination Sequence:
#
# PCOD8053823 Si02
#       8
#     4   4   4   4   4   4   4   4
#     4  11  22  39  61  89 121 157 198 245 294 346
#     4  10  21  39  61  88 119 157 198 239 295 357
#     4  10  21  40  63  85 114 160 205 245 293 349
#     4  11  23  39  60  90 123 155 194 246 297 347
#     4  10  22  38  58  87 120 155 195 237 292 354
#     4  12  23  37  60  89 120 157 196 238 296 360
#     4  11  21  36  61  89 120 153 190 240 300 355
#     4   9  20  40  62  83 117 160 202 244 295 348
#
# _framework density 19.812270000000002
#
# number of rings (size 3 to 8) (size 9 to 14) (size 15 to 20)
#    0.000    1.500    2.500    3.000    0.000    5.000 
#    0.000    3.125    0.000    0.000    0.000    0.000 
#    0.000    0.000    0.000    0.000    0.000    0.000 
#
# Total GULP energy -198473.293609 kJ/mol
# GULP energy per Si atom -12404.580851 kJ/mol
# Density = 1.976718 g / cm^3
# Si number density = 19.812270 Si / 1000 Ang^3
#
#
#
# Elastic Constant Matrix: (Units=GPa)
#
#
# Indices 1 2 3 4 5 6 
#
# 1 149.3546 39.5875 63.1773 0.0006 -19.9594 -0.0003
# 2 39.5875 72.7924 40.4504 0.0001 -6.7582 -0.0003
# 3 63.1773 40.4504 126.7834 -0.0044 -24.3528 -0.0002
# 4 0.0006 0.0001 -0.0044 23.6746 0.0002 -5.4636
# 5 -19.9594 -6.7582 -24.3528 0.0002 19.9608 0.0003
# 6 -0.0003 -0.0003 -0.0002 -5.4636 0.0003 35.1907
#
#
#
# Elastic Compliance Matrix: (Units=1/GPa)
#
#
# Indices 1 2 3 4 5 6 
#
# 1 0.009327 -0.003110 -0.002699 -0.000001 0.004981 0.000000
# 2 -0.003110 0.017754 -0.004646 -0.000001 -0.002768 0.000000
# 3 -0.002699 -0.004646 0.012922 0.000002 0.011494 0.000000
# 4 -0.000001 -0.000001 0.000002 0.043809 0.000001 0.006802
# 5 0.004981 -0.002768 0.011494 0.000001 0.068165 0.000000
# 6 0.000000 0.000000 0.000000 0.006802 0.000000 0.029473
#
#
# Mechanical properties :
#
#
# Convention : Reuss Voigt Hill
#
# Bulk Modulus (GPa) = 52.37446 70.59565 61.48505
# Shear Modulus (GPa) = 23.95496 29.47957 26.71726
#
# Velocity S-wave (km/s) = 3.48098 3.86157 3.67621
# Velocity P-wave (km/s) = 6.53062 7.45600 7.00860
#
# Compressibility (1/GPa) = 0.01909328
#
# Stress axis : x y z
#
# Youngs Moduli (GPa) = 107.21470 56.32486 77.38479
#
# Poissons Ratio (x) = 0.17519 0.20884
# Poissons Ratio (y) = 0.33348 0.35954
# Poissons Ratio (z) = 0.28934 0.26169
#
# Static dielectric constant tensor:
#      x y z
#    x 3.835090 0.000000 -0.034180 
#    y 0.000000 3.483650 0.000000 
#    z -0.034180 0.000000 3.675830 
# 
# 
# High freq. dielectric constant tensor:
#      x y z
#    x 1.788760 0.000000 -0.002480 
#    y 0.000000 1.760680 0.000000 
#    z -0.002480 0.000000 1.768330 
# 
# From -- ./inp_files/26553.got.cif
#   From: 2010.03.12/outbox.cif.g09.slc.cpg/sg8_14_cif.got.tgz:26553.got - 2010.03.31 10:45:26.
