data_PCOD8053825
_publ_section_title
;
Structure prediction by ZEFSAII (Michael W. Deem and Ramdas Pophale) SiO2 
 PCOD8053825
Probable space group: C M
;
_chemical_formula_sum "Si O2"
_cell_formula_units_Z 32
_cell_length_a 15.406582
_cell_length_b 8.513324
_cell_length_c 11.978424
_cell_angle_alpha 90.000000
_cell_angle_beta 90.077774
_cell_angle_gamma 90.000000
_cell_volume 1571.103310
_symmetry_space_group_name_H-M "C M"
_symmetry_group_IT_number 8
_symmetry_cell_setting 'monoclinic'
loop_
_space_group_symop_operation_xyz
x,y,z
x,-y,z
1/2+x,1/2+y,z
1/2+x,1/2-y,z
loop_
_atom_site_type_symbol
_atom_site_label
_atom_site_fract_x
_atom_site_fract_y
_atom_site_fract_z
Si Si1 0.332370 0.683607 0.269760
Si Si2 0.397295 0.818521 0.049198
Si Si3 0.648415 0.685392 0.817844
Si Si4 0.829167 0.184056 0.827341
Si Si5 0.137449 0.679354 0.288546
Si Si6 0.486456 0.313415 0.674771
Si Si7 0.485615 0.316336 0.426277
Si Si8 0.083947 0.818313 0.060786
O O1 0.347562 0.500000 0.243686
O O2 0.338446 0.781543 0.156098
O O3 0.237271 0.711848 0.322178
O O4 0.404522 0.750854 0.355472
O O5 0.481591 0.709560 0.051094
O O6 0.424756 0.000000 0.049439
O O7 0.340403 0.780832 0.940924
O O8 0.660632 0.500000 0.803552
O O9 0.734661 0.775346 0.778244
O O10 0.570417 0.749869 0.740908
O O11 0.628735 0.730510 0.945528
O O12 0.899885 0.242437 0.737846
O O13 0.839144 0.000000 0.851724
O O14 0.111686 0.500000 0.310515
O O15 0.125222 0.714457 0.158002
O O16 0.076157 0.785477 0.364707
O O17 0.490093 0.500000 0.671101
O O18 0.486203 0.240788 0.549984
O O19 0.472314 0.500000 0.438735
O O20 0.099482 0.000000 0.089063
#
# Coordination Sequence:
#
# PCOD8053825 Si02
#       8
#     4   4   4   4   4   4   4   4
#     4  10  22  39  60  87 121 158 196 238 295 355
#     4  12  23  36  60  91 122 153 194 243 295 352
#     4  10  21  39  61  88 121 155 195 244 294 350
#     4  11  22  39  62  89 121 157 197 240 293 355
#     4  11  23  38  58  89 123 153 194 249 295 346
#     4   9  20  40  62  84 115 158 204 244 292 350
#     4  10  21  40  64  84 112 161 206 243 293 352
#     4  11  21  37  61  86 119 159 194 235 297 360
#
# _framework density 20.367851000000002
#
# number of rings (size 3 to 8) (size 9 to 14) (size 15 to 20)
#    0.000    1.500    2.500    3.000    0.000    5.000 
#    0.000    3.125    0.000    0.000    0.000    0.000 
#    0.000    0.000    0.000    0.000    0.000    0.000 
#
# Total GULP energy -198475.564442 kJ/mol
# GULP energy per Si atom -12404.722778 kJ/mol
# Density = 2.032149 g / cm^3
# Si number density = 20.367851 Si / 1000 Ang^3
#
#
#
# Elastic Constant Matrix: (Units=GPa)
#
#
# Indices 1 2 3 4 5 6 
#
# 1 152.3981 15.5093 63.2828 0.0000 -3.4866 0.0000
# 2 15.5093 29.5117 20.8501 0.0000 0.0918 0.0000
# 3 63.2828 20.8501 146.5595 0.0000 -4.3778 0.0000
# 4 0.0000 0.0000 0.0000 7.5360 0.0000 0.1656
# 5 -3.4866 0.0918 -4.3778 0.0000 13.5996 0.0000
# 6 0.0000 0.0000 0.0000 0.1656 0.0000 31.7546
#
#
#
# Elastic Compliance Matrix: (Units=1/GPa)
#
#
# Indices 1 2 3 4 5 6 
#
# 1 0.008114 -0.002018 -0.003185 0.000000 0.001069 0.000000
# 2 -0.002018 0.038227 -0.004635 0.000000 -0.002267 0.000000
# 3 -0.003185 -0.004635 0.008920 0.000000 0.002086 0.000000
# 4 0.000000 0.000000 0.000000 0.132711 0.000000 -0.000692
# 5 0.001069 -0.002267 0.002086 0.000000 0.074493 0.000000
# 6 0.000000 0.000000 0.000000 -0.000692 0.000000 0.031495
#
#
# Mechanical properties :
#
#
# Convention : Reuss Voigt Hill
#
# Bulk Modulus (GPa) = 28.10041 58.63930 43.36985
# Shear Modulus (GPa) = 15.36118 25.83318 20.59718
#
# Velocity S-wave (km/s) = 2.74923 3.56523 3.18348
# Velocity P-wave (km/s) = 4.88918 6.76760 5.90358
#
# Compressibility (1/GPa) = 0.03558667
#
# Stress axis : x y z
#
# Youngs Moduli (GPa) = 123.24522 26.15971 112.10881
#
# Poissons Ratio (x) = 0.05278 0.35702
# Poissons Ratio (y) = 0.24865 0.51961
# Poissons Ratio (z) = 0.39248 0.12125
#
# Static dielectric constant tensor:
#      x y z
#    x 3.796420 0.000000 0.095760 
#    y 0.000000 3.402520 0.000000 
#    z 0.095760 0.000000 3.844990 
# 
# 
# High freq. dielectric constant tensor:
#      x y z
#    x 1.809990 0.000000 0.001360 
#    y 0.000000 1.776470 0.000000 
#    z 0.001360 0.000000 1.791720 
# 
# From -- ./inp_files/21385.got.cif
#   From: 2010.03.12/outbox.cif.g09.slc.cpg/sg8_11_cif.got.tgz:21385.got - 2010.03.31 10:45:26.
