data_PCOD8053427
_publ_section_title
;
Structure prediction by ZEFSAII (Michael W. Deem and Ramdas Pophale) SiO2 
 PCOD8053427
Probable space group: C M
;
_chemical_formula_sum "Si O2"
_cell_formula_units_Z 28
_cell_length_a 17.374760
_cell_length_b 13.719028
_cell_length_c 9.596163
_cell_angle_alpha 90.000000
_cell_angle_beta 142.011676
_cell_angle_gamma 90.000000
_cell_volume 1407.889111
_symmetry_space_group_name_H-M "C M"
_symmetry_group_IT_number 8
_symmetry_cell_setting 'monoclinic'
loop_
_space_group_symop_operation_xyz
x,y,z
x,-y,z
1/2+x,1/2+y,z
1/2+x,1/2-y,z
loop_
_atom_site_type_symbol
_atom_site_label
_atom_site_fract_x
_atom_site_fract_y
_atom_site_fract_z
Si Si1 0.472420 0.702851 0.260170
Si Si2 0.829800 0.787605 0.586856
Si Si3 0.069700 0.111441 0.957785
Si Si4 0.524533 0.734675 0.647229
Si Si5 0.109174 0.390477 0.385089
Si Si6 0.709476 0.110311 0.833046
Si Si7 0.688634 0.391884 0.413294
O O1 0.515708 0.690494 0.481272
O O2 0.494720 0.814081 0.237032
O O3 0.555098 0.625458 0.293695
O O4 0.328443 0.676336 0.038302
O O5 0.705021 0.855142 0.400019
O O6 0.791173 0.686733 0.609997
O O7 0.939770 0.840779 0.830620
O O8 0.883584 0.761054 0.509689
O O9 0.108852 0.165266 0.869333
O O10 0.042409 0.000000 0.882164
O O11 0.174020 0.121714 0.225270
O O12 0.588672 0.841304 0.734971
O O13 0.058601 0.500000 0.281018
O O14 0.191662 0.389875 0.642323
O O15 0.724232 0.000000 0.910951
O O16 0.736234 0.500000 0.517499
#
# Coordination Sequence:
#
# PCOD8053427 Si02
#       7
#     4   4   4   4   4   4   4
#     4  10  20  35  55  83 109 138 177 229 262 313
#     4   9  19  33  57  79 109 134 178 224 264 310
#     4   9  19  35  54  77 104 140 178 210 259 322
#     4   9  22  34  54  82 112 134 176 224 272 306
#     4   9  18  36  59  81 104 142 185 219 261 320
#     4  10  20  36  58  78 107 147 183 215 263 324
#     4  10  20  35  57  80 103 141 183 217 261 317
#
# _framework density 19.887930000000001
#
# number of rings (size 3 to 8) (size 9 to 14) (size 15 to 20)
#    0.857    1.714    0.000    1.714    2.000    4.000 
#    0.000    0.714    0.000   18.857    0.000    0.000 
#    0.000    0.000    0.000    0.000    0.000    0.000 
#
# Total GULP energy -173463.135124 kJ/mol
# GULP energy per Si atom -12390.223937 kJ/mol
# Density = 1.984266 g / cm^3
# Si number density = 19.887930 Si / 1000 Ang^3
#
#
#
# Elastic Constant Matrix: (Units=GPa)
#
#
# Indices 1 2 3 4 5 6 
#
# 1 94.3748 45.0703 18.6812 0.0000 -1.0548 0.0000
# 2 45.0703 165.0892 33.1981 0.0000 8.8102 0.0000
# 3 18.6812 33.1981 39.5232 0.0000 4.0718 0.0000
# 4 0.0000 0.0000 0.0000 26.4189 0.0000 3.4151
# 5 -1.0548 8.8102 4.0718 0.0000 17.0095 0.0000
# 6 0.0000 0.0000 0.0000 3.4151 0.0000 25.3080
#
#
#
# Elastic Compliance Matrix: (Units=1/GPa)
#
#
# Indices 1 2 3 4 5 6 
#
# 1 0.012786 -0.002865 -0.003970 0.000000 0.003227 0.000000
# 2 -0.002865 0.008024 -0.005065 0.000000 -0.003122 0.000000
# 3 -0.003970 -0.005065 0.031976 0.000000 -0.005277 0.000000
# 4 0.000000 0.000000 0.000000 0.038524 0.000000 -0.005198
# 5 0.003227 -0.003122 -0.005277 0.000000 0.061871 0.000000
# 6 0.000000 0.000000 0.000000 -0.005198 0.000000 0.040215
#
#
# Mechanical properties :
#
#
# Convention : Reuss Voigt Hill
#
# Bulk Modulus (GPa) = 34.49687 54.76517 44.63102
# Shear Modulus (GPa) = 22.04041 27.21646 24.62844
#
# Velocity S-wave (km/s) = 3.33262 3.70333 3.52285
# Velocity P-wave (km/s) = 5.67378 6.77369 6.24798
#
# Compressibility (1/GPa) = 0.02898814
#
# Stress axis : x y z
#
# Youngs Moduli (GPa) = 78.21090 124.61956 31.27368
#
# Poissons Ratio (x) = 0.35698 0.12415
# Poissons Ratio (y) = 0.22404 0.15839
# Poissons Ratio (z) = 0.31048 0.63116
#
# Static dielectric constant tensor:
#      x y z
#    x 3.535270 0.000000 -0.044470 
#    y 0.000000 3.775550 0.000000 
#    z -0.044470 0.000000 3.215780 
# 
# 
# High freq. dielectric constant tensor:
#      x y z
#    x 1.770490 0.000000 -0.000520 
#    y 0.000000 1.782830 0.000000 
#    z -0.000520 0.000000 1.741410 
# 
# From -- ./inp_files/15181.got.cif
#   From: 2010.03.12/outbox.cif.g09.slc.cpg/sg8_8_cif.got.tgz:15181.got - 2010.03.31 10:45:26.
