data_PCOD8053369
_publ_section_title
;
Structure prediction by ZEFSAII (Michael W. Deem and Ramdas Pophale) SiO2 
 PCOD8053369
Probable space group: C M
;
_chemical_formula_sum "Si O2"
_cell_formula_units_Z 32
_cell_length_a 28.772756
_cell_length_b 9.035585
_cell_length_c 21.721566
_cell_angle_alpha 90.000000
_cell_angle_beta 163.871292
_cell_angle_gamma 90.000000
_cell_volume 1568.754136
_symmetry_space_group_name_H-M "C M"
_symmetry_group_IT_number 8
_symmetry_cell_setting 'monoclinic'
loop_
_space_group_symop_operation_xyz
x,y,z
x,-y,z
1/2+x,1/2+y,z
1/2+x,1/2-y,z
loop_
_atom_site_type_symbol
_atom_site_label
_atom_site_fract_x
_atom_site_fract_y
_atom_site_fract_z
Si Si1 0.729000 0.663097 0.623500
Si Si2 0.246919 0.825010 0.836025
Si Si3 0.225531 0.831005 0.264118
Si Si4 0.109835 0.670092 0.775259
Si Si5 0.140415 0.829908 0.943034
Si Si6 0.021249 0.663097 0.094791
Si Si7 0.024718 0.331005 0.454175
Si Si8 0.503330 0.825010 0.882267
O O1 0.647787 0.500000 0.512837
O O2 0.875124 0.655931 0.859146
O O3 0.586801 0.776272 0.465564
O O4 0.818171 0.713479 0.673363
O O5 0.432079 0.786520 0.044929
O O6 0.235836 0.747693 0.888023
O O7 0.102041 0.766226 0.606745
O O8 0.222044 0.000000 0.810981
O O9 0.423590 0.815110 0.511909
O O10 0.168181 0.000000 0.182355
O O11 0.148209 0.733774 0.111547
O O12 0.163448 0.776272 0.252728
O O13 0.162144 0.500000 0.849668
O O14 0.125126 0.750000 0.859147
O O15 0.014414 0.752306 0.830270
O O16 0.088105 0.000000 0.868624
O O17 0.326660 0.815111 0.206383
O O18 0.102461 0.500000 0.205454
O O19 0.082069 0.500000 0.535938
O O20 0.528207 0.000000 0.907314
#
# Coordination Sequence:
#
# PCOD8053369 Si02
#       8
#     4   4   4   4   4   4   4   4
#     4   8  16  31  52  80 109 136 171 215 261 311
#     4  10  20  35  57  83 109 139 176 216 261 315
#     4  10  20  34  55  83 110 137 175 220 263 312
#     4  11  24  39  54  76 107 142 181 222 264 313
#     4  11  24  39  54  76 107 142 181 222 264 313
#     4   8  16  31  52  80 109 136 171 215 261 311
#     4  10  20  34  55  83 110 137 175 220 263 312
#     4  10  20  35  57  83 109 139 176 216 261 315
#
# _framework density 20.398351000000002
#
# number of rings (size 3 to 8) (size 9 to 14) (size 15 to 20)
#    0.000    2.250    0.000    4.500    0.000   12.500 
#    0.000    1.250    0.000    0.000    0.000    0.000 
#    0.000    0.000    0.000    0.000    0.000    0.000 
#
# Total GULP energy -198388.164631 kJ/mol
# GULP energy per Si atom -12399.260289 kJ/mol
# Density = 2.035192 g / cm^3
# Si number density = 20.398351 Si / 1000 Ang^3
#
#
#
# Elastic Constant Matrix: (Units=GPa)
#
#
# Indices 1 2 3 4 5 6 
#
# 1 164.9728 68.9280 9.3970 0.0003 16.4158 0.0002
# 2 68.9280 131.0340 12.8402 0.0000 8.1838 -0.0004
# 3 9.3970 12.8402 7.5421 0.0007 5.1996 0.0005
# 4 0.0003 0.0000 0.0007 23.6284 0.0005 6.1884
# 5 16.4158 8.1838 5.1996 0.0005 28.1295 0.0005
# 6 0.0002 -0.0004 0.0005 6.1884 0.0005 42.0682
#
#
#
# Elastic Compliance Matrix: (Units=1/GPa)
#
#
# Indices 1 2 3 4 5 6 
#
# 1 0.008109 -0.003952 -0.001037 0.000000 -0.003391 0.000000
# 2 -0.003952 0.011088 -0.015263 0.000000 0.001902 0.000000
# 3 -0.001037 -0.015263 0.179227 -0.000005 -0.028083 -0.000001
# 4 0.000000 0.000000 -0.000005 0.044018 0.000000 -0.006475
# 5 -0.003391 0.001902 -0.028083 0.000000 0.042166 0.000000
# 6 0.000000 0.000000 -0.000001 -0.006475 0.000000 0.024723
#
#
# Mechanical properties :
#
#
# Convention : Reuss Voigt Hill
#
# Bulk Modulus (GPa) = 6.33237 53.98660 30.15948
# Shear Modulus (GPa) = 12.42306 32.92415 22.67360
#
# Velocity S-wave (km/s) = 2.47052 4.02189 3.33760
# Velocity P-wave (km/s) = 3.35396 6.93478 5.44702
#
# Compressibility (1/GPa) = 0.15791873
#
# Stress axis : x y z
#
# Youngs Moduli (GPa) = 123.31240 90.19130 5.57950
#
# Poissons Ratio (x) = 0.35647 0.00579
# Poissons Ratio (y) = 0.48738 0.08516
# Poissons Ratio (z) = 0.12793 1.37659
#
# Static dielectric constant tensor:
#      x y z
#    x 4.208840 0.000000 0.457900 
#    y 0.000000 3.880120 0.000000 
#    z 0.457900 0.000000 3.396670 
# 
# 
# High freq. dielectric constant tensor:
#      x y z
#    x 1.808570 0.000000 0.024170 
#    y 0.000000 1.806740 0.000000 
#    z 0.024170 0.000000 1.761380 
# 
# From -- ./inp_files/31660.got.cif
#   From: 2010.03.12/outbox.cif.g09.slc.cpg/sg8_16_cif.got.tgz:31660.got - 2010.03.31 10:45:26.
