data_PCOD8053086
_publ_section_title
;
Structure prediction by ZEFSAII (Michael W. Deem and Ramdas Pophale) SiO2 
 PCOD8053086
Probable space group: C M
;
_chemical_formula_sum "Si O2"
_cell_formula_units_Z 26
_cell_length_a 33.070091
_cell_length_b 7.798595
_cell_length_c 13.411839
_cell_angle_alpha 90.000000
_cell_angle_beta 155.703200
_cell_angle_gamma 90.000000
_cell_volume 1423.217769
_symmetry_space_group_name_H-M "C M"
_symmetry_group_IT_number 8
_symmetry_cell_setting 'monoclinic'
loop_
_space_group_symop_operation_xyz
x,y,z
x,-y,z
1/2+x,1/2+y,z
1/2+x,1/2-y,z
loop_
_atom_site_type_symbol
_atom_site_label
_atom_site_fract_x
_atom_site_fract_y
_atom_site_fract_z
Si Si1 0.853690 0.316049 0.001020
Si Si2 0.910676 0.203499 0.713082
Si Si3 0.229588 0.804923 0.190140
Si Si4 0.753917 0.000000 0.885051
Si Si5 0.540215 0.000000 0.456081
Si Si6 0.312643 0.694180 0.693949
Si Si7 0.190752 0.500000 0.954303
Si Si8 0.630421 0.299058 0.172615
O O1 0.807122 0.500000 0.929948
O O2 0.972516 0.329756 0.285777
O O3 0.804759 0.166658 0.953864
O O4 0.834739 0.302223 0.841088
O O5 0.843222 0.291074 0.477691
O O6 0.878045 0.265828 0.749531
O O7 0.898980 0.000000 0.676658
O O8 0.020503 0.267868 0.941338
O O9 0.205819 0.673960 0.048907
O O10 0.161927 0.751730 0.131452
O O11 0.208057 0.000000 0.106419
O O12 0.635829 0.000000 0.596865
O O13 0.769475 0.000000 0.039673
O O14 0.580273 0.000000 0.660211
O O15 0.340824 0.500000 0.782403
O O16 0.198466 0.704784 0.406250
O O17 0.639606 0.500000 0.212754
#
# Coordination Sequence:
#
# PCOD8053086 Si02
#       8
#     4   4   4   2   2   4   2   4
#     4  10  21  43  64  90 125 164 210 267 314 379
#     4   9  18  35  56  87 127 159 196 243 296 371
#     4  10  20  38  60  85 120 163 197 248 315 356
#     4  10  22  46  64  90 124 158 212 276 316 367
#     4   8  24  44  63  94 121 162 215 270 315 376
#     4  10  19  33  58  86 126 162 195 249 308 358
#     4  10  22  46  59  84 127 152 207 280 301 369
#     4   9  19  34  54  89 124 158 202 239 292 381
#
# _framework density 18.268462
#
# number of rings (size 3 to 8) (size 9 to 14) (size 15 to 20)
#    0.923    1.538    1.538    0.462    1.077    3.077 
#    5.538    1.538    0.000    0.000    0.000    0.000 
#    0.000    0.000    0.000    0.000    0.000    0.000 
#
# Total GULP energy -161119.804774 kJ/mol
# GULP energy per Si atom -12393.831136 kJ/mol
# Density = 1.822688 g / cm^3
# Si number density = 18.268462 Si / 1000 Ang^3
#
#
#
# Elastic Constant Matrix: (Units=GPa)
#
#
# Indices 1 2 3 4 5 6 
#
# 1 100.9957 51.2285 78.6116 0.0000 0.1115 0.0000
# 2 51.2285 105.1438 50.5992 0.0000 -7.9534 0.0000
# 3 78.6116 50.5992 131.3533 0.0000 8.5940 0.0000
# 4 0.0000 0.0000 0.0000 26.0954 0.0000 4.1743
# 5 0.1115 -7.9534 8.5940 0.0000 40.1100 0.0000
# 6 0.0000 0.0000 0.0000 4.1743 0.0000 22.3229
#
#
#
# Elastic Compliance Matrix: (Units=1/GPa)
#
#
# Indices 1 2 3 4 5 6 
#
# 1 0.020538 -0.004861 -0.010499 0.000000 0.001229 0.000000
# 2 -0.004861 0.013280 -0.002413 0.000000 0.003164 0.000000
# 3 -0.010499 -0.002413 0.015067 0.000000 -0.003678 0.000000
# 4 0.000000 0.000000 0.000000 0.039503 0.000000 -0.007387
# 5 0.001229 0.003164 -0.003678 0.000000 0.026343 0.000000
# 6 0.000000 0.000000 0.000000 -0.007387 0.000000 0.046178
#
#
# Mechanical properties :
#
#
# Convention : Reuss Voigt Hill
#
# Bulk Modulus (GPa) = 74.97732 77.59680 76.28706
# Shear Modulus (GPa) = 24.88765 28.17588 26.53177
#
# Velocity S-wave (km/s) = 3.69498 3.93150 3.81507
# Velocity P-wave (km/s) = 7.70291 7.94840 7.82662
#
# Compressibility (1/GPa) = 0.01333737
#
# Stress axis : x y z
#
# Youngs Moduli (GPa) = 48.69002 75.30150 66.37023
#
# Poissons Ratio (x) = 0.36604 0.69685
# Poissons Ratio (y) = 0.23668 0.16018
# Poissons Ratio (z) = 0.51122 0.18174
#
# Static dielectric constant tensor:
#      x y z
#    x 3.307180 0.000000 0.064510 
#    y 0.000000 3.280090 0.000000 
#    z 0.064510 0.000000 3.341830 
# 
# 
# High freq. dielectric constant tensor:
#      x y z
#    x 1.696250 0.000000 0.001010 
#    y 0.000000 1.710990 0.000000 
#    z 0.001010 0.000000 1.702900 
# 
# From -- ./inp_files/24726.got.cif
#   From: 2010.03.12/outbox.cif.g09.slc.cpg/sg8_13_cif.got.tgz:24726.got - 2010.03.31 10:45:26.
