data_PCOD8053855
_publ_section_title
;
Structure prediction by ZEFSAII (Michael W. Deem and Ramdas Pophale) SiO2 
 PCOD8053855
Probable space group: C M
;
_chemical_formula_sum "Si O2"
_cell_formula_units_Z 20
_cell_length_a 9.010348
_cell_length_b 18.464279
_cell_length_c 11.507494
_cell_angle_alpha 90.000000
_cell_angle_beta 153.831075
_cell_angle_gamma 90.000000
_cell_volume 844.329811
_symmetry_space_group_name_H-M "C M"
_symmetry_group_IT_number 8
_symmetry_cell_setting 'monoclinic'
loop_
_space_group_symop_operation_xyz
x,y,z
x,-y,z
1/2+x,1/2+y,z
1/2+x,1/2-y,z
loop_
_atom_site_type_symbol
_atom_site_label
_atom_site_fract_x
_atom_site_fract_y
_atom_site_fract_z
Si Si1 0.204480 0.881855 0.293050
Si Si2 0.232125 0.414786 0.158523
Si Si3 0.404944 0.576646 0.845861
Si Si4 0.599112 0.342937 0.620994
Si Si5 0.777571 0.791636 0.618914
O O1 0.500996 0.931997 0.552605
O O2 0.380463 0.809574 0.362310
O O3 0.949088 0.867624 0.219104
O O4 0.000822 0.920186 0.047667
O O5 0.293349 0.500000 0.184361
O O6 0.342155 0.390735 0.364730
O O7 0.841629 0.396583 0.862517
O O8 0.557997 0.500000 0.903848
O O9 0.515173 0.648384 0.851791
O O10 0.830046 0.289178 0.704773
O O11 0.377907 0.294453 0.554504
#
# Coordination Sequence:
#
# PCOD8053855 Si02
#       5
#     4   4   4   4   4
#     4  10  23  43  71 100 137 176 234 277 346 416
#     4  12  27  47  72 106 142 187 232 290 354 413
#     4  10  21  39  69 103 137 176 231 283 336 415
#     4  12  28  47  73 100 148 183 235 294 346 422
#     4  10  28  46  71 105 137 190 234 284 357 408
#
# _framework density 23.687428000000001
#
# number of rings (size 3 to 8) (size 9 to 14) (size 15 to 20)
#    1.200    0.000    0.000    4.800    8.400    1.600 
#    0.000    0.000    0.000    0.000    0.000    0.000 
#    0.000    0.000    0.000    0.000    0.000    0.000 
#
# Total GULP energy -123902.464180 kJ/mol
# GULP energy per Si atom -12390.246418 kJ/mol
# Density = 2.363351 g / cm^3
# Si number density = 23.687428 Si / 1000 Ang^3
#
#
#
# Elastic Constant Matrix: (Units=GPa)
#
#
# Indices 1 2 3 4 5 6 
#
# 1 120.4120 18.0074 38.2367 0.0009 -8.5050 -0.0015
# 2 18.0074 95.6287 33.2609 0.0006 -11.1984 -0.0063
# 3 38.2367 33.2609 152.7885 0.0026 -40.0133 0.0030
# 4 0.0009 0.0006 0.0026 38.8454 0.0000 -10.3596
# 5 -8.5050 -11.1984 -40.0133 0.0000 34.5109 0.0014
# 6 -0.0015 -0.0063 0.0030 -10.3596 0.0014 33.7028
#
#
#
# Elastic Compliance Matrix: (Units=1/GPa)
#
#
# Indices 1 2 3 4 5 6 
#
# 1 0.009120 -0.001018 -0.002238 0.000000 -0.000678 0.000000
# 2 -0.001018 0.011460 -0.001913 0.000001 0.001250 0.000002
# 3 -0.002238 -0.001913 0.010360 -0.000001 0.010840 -0.000002
# 4 0.000000 0.000001 -0.000001 0.028042 -0.000001 0.008620
# 5 -0.000678 0.001250 0.010840 -0.000001 0.041783 -0.000003
# 6 0.000000 0.000002 -0.000002 0.008620 -0.000003 0.032321
#
#
# Mechanical properties :
#
#
# Convention : Reuss Voigt Hill
#
# Bulk Modulus (GPa) = 48.53746 60.87102 54.70424
# Shear Modulus (GPa) = 33.26855 40.03344 36.65100
#
# Velocity S-wave (km/s) = 3.75171 4.11551 3.93781
# Velocity P-wave (km/s) = 6.26916 6.95245 6.61963
#
# Compressibility (1/GPa) = 0.02060264
#
# Stress axis : x y z
#
# Youngs Moduli (GPa) = 109.64959 87.25628 96.52212
#
# Poissons Ratio (x) = 0.08885 0.21604
# Poissons Ratio (y) = 0.11165 0.18461
# Poissons Ratio (z) = 0.24542 0.16689
#
# Static dielectric constant tensor:
#      x y z
#    x 3.952700 0.000000 -0.153720 
#    y 0.000000 3.949650 -0.000010 
#    z -0.153720 -0.000010 4.079860 
# 
# 
# High freq. dielectric constant tensor:
#      x y z
#    x 1.927270 0.000000 -0.016100 
#    y 0.000000 1.936060 0.000000 
#    z -0.016100 0.000000 1.933360 
# 
# From -- ./inp_files/19099.got.cif
#   From: 2010.03.12/outbox.cif.g09.slc.cpg/sg8_10_cif.got.tgz:19099.got - 2010.03.31 10:45:26.
