data_PCOD8053639
_publ_section_title
;
Structure prediction by ZEFSAII (Michael W. Deem and Ramdas Pophale) SiO2 
 PCOD8053639
Probable space group: C M
;
_chemical_formula_sum "Si O2"
_cell_formula_units_Z 20
_cell_length_a 10.846394
_cell_length_b 9.830484
_cell_length_c 8.916924
_cell_angle_alpha 90.000000
_cell_angle_beta 107.274041
_cell_angle_gamma 90.000000
_cell_volume 907.885664
_symmetry_space_group_name_H-M "C M"
_symmetry_group_IT_number 8
_symmetry_cell_setting 'monoclinic'
loop_
_space_group_symop_operation_xyz
x,y,z
x,-y,z
1/2+x,1/2+y,z
1/2+x,1/2-y,z
loop_
_atom_site_type_symbol
_atom_site_label
_atom_site_fract_x
_atom_site_fract_y
_atom_site_fract_z
Si Si1 0.551770 0.289662 0.688730
Si Si2 0.728285 0.500000 0.619863
Si Si3 0.395782 0.500000 0.800712
Si Si4 0.714068 0.500000 0.284090
Si Si5 0.845078 0.216036 0.347858
Si Si6 0.194912 0.500000 0.464275
Si Si7 0.028290 0.500000 0.658316
Si Si8 0.429874 0.500000 0.142405
O O1 0.684324 0.365486 0.692795
O O2 0.481792 0.366699 0.797859
O O3 0.458438 0.278253 0.510745
O O4 0.588606 0.136711 0.753312
O O5 0.659408 0.500000 0.434179
O O6 0.878077 0.500000 0.641296
O O7 0.272932 0.500000 0.649310
O O8 0.351676 0.500000 0.957508
O O9 0.798534 0.365279 0.280884
O O10 0.580423 0.500000 0.143796
O O11 0.724203 0.134427 0.378032
O O12 0.894598 0.136251 0.220197
O O13 0.049914 0.500000 0.482091
#
# Coordination Sequence:
#
# PCOD8053639 Si02
#       8
#     4   2   2   2   4   2   2   2
#     4  10  20  38  61  92 119 151 199 253 292 354
#     4  11  20  35  59  94 126 147 192 248 307 348
#     4   9  22  44  61  82 126 167 197 238 307 354
#     4  12  20  35  64  94 119 153 203 245 297 357
#     4  10  20  38  64  90 117 155 199 248 300 346
#     4   9  21  38  63  93 120 151 201 254 299 353
#     4  12  22  33  65  95 118 152 197 261 301 340
#     4  11  23  43  60  82 129 170 190 242 299 362
#
# _framework density 22.029208000000001
#
# number of rings (size 3 to 8) (size 9 to 14) (size 15 to 20)
#    0.000    1.600    4.000    2.400    2.800    0.000 
#    3.600    1.000    0.000    0.000   10.400    0.000 
#    0.000    0.000    0.000    0.000    0.000    0.000 
#
# Total GULP energy -123939.139072 kJ/mol
# GULP energy per Si atom -12393.913907 kJ/mol
# Density = 2.197907 g / cm^3
# Si number density = 22.029208 Si / 1000 Ang^3
#
#
#
# Elastic Constant Matrix: (Units=GPa)
#
#
# Indices 1 2 3 4 5 6 
#
# 1 116.0197 59.3424 15.3308 0.0000 -17.2287 0.0000
# 2 59.3424 222.1465 35.3751 0.0000 -15.7679 0.0000
# 3 15.3308 35.3751 88.3808 0.0000 -14.8007 0.0000
# 4 0.0000 0.0000 0.0000 3.5940 0.0000 -2.7530
# 5 -17.2287 -15.7679 -14.8007 0.0000 20.7374 0.0000
# 6 0.0000 0.0000 0.0000 -2.7530 0.0000 23.1980
#
#
#
# Elastic Compliance Matrix: (Units=1/GPa)
#
#
# Indices 1 2 3 4 5 6 
#
# 1 0.010933 -0.002444 0.000331 0.000000 0.007462 0.000000
# 2 -0.002444 0.005480 -0.001603 0.000000 0.000992 0.000000
# 3 0.000331 -0.001603 0.013335 0.000000 0.008573 0.000000
# 4 0.000000 0.000000 0.000000 0.306065 0.000000 0.036323
# 5 0.007462 0.000992 0.008573 0.000000 0.061295 0.000000
# 6 0.000000 0.000000 0.000000 0.036323 0.000000 0.047418
#
#
# Mechanical properties :
#
#
# Convention : Reuss Voigt Hill
#
# Bulk Modulus (GPa) = 44.81034 71.84930 58.32982
# Shear Modulus (GPa) = 10.88384 30.60580 20.74482
#
# Velocity S-wave (km/s) = 2.22517 3.73141 3.07204
# Velocity P-wave (km/s) = 5.19493 7.15897 6.25453
#
# Compressibility (1/GPa) = 0.02231628
#
# Stress axis : x y z
#
# Youngs Moduli (GPa) = 91.46219 182.47848 74.99230
#
# Poissons Ratio (x) = 0.44594 -0.02484
# Poissons Ratio (y) = 0.22351 0.12024
# Poissons Ratio (z) = -0.03029 0.29258
#
# Static dielectric constant tensor:
#      x y z
#    x 4.033270 0.000000 -0.199050 
#    y 0.000000 4.603820 0.000000 
#    z -0.199050 0.000000 3.431470 
# 
# 
# High freq. dielectric constant tensor:
#      x y z
#    x 1.875660 0.000000 -0.021090 
#    y 0.000000 1.891030 0.000000 
#    z -0.021090 0.000000 1.803850 
# 
# From -- ./inp_files/9915.got.cif
#   From: 2010.03.12/outbox.cif.g09.slc.cpg/sg8_5_cif.got.tgz:9915.got - 2010.03.31 10:45:26.
