data_PCOD8053682
_publ_section_title
;
Structure prediction by ZEFSAII (Michael W. Deem and Ramdas Pophale) SiO2 
 PCOD8053682
Probable space group: C M
;
_chemical_formula_sum "Si O2"
_cell_formula_units_Z 32
_cell_length_a 18.507585
_cell_length_b 13.665525
_cell_length_c 11.993297
_cell_angle_alpha 90.000000
_cell_angle_beta 29.494510
_cell_angle_gamma 90.000000
_cell_volume 1493.412995
_symmetry_space_group_name_H-M "C M"
_symmetry_group_IT_number 8
_symmetry_cell_setting 'monoclinic'
loop_
_space_group_symop_operation_xyz
x,y,z
x,-y,z
1/2+x,1/2+y,z
1/2+x,1/2-y,z
loop_
_atom_site_type_symbol
_atom_site_label
_atom_site_fract_x
_atom_site_fract_y
_atom_site_fract_z
Si Si1 0.253730 0.889694 0.953360
Si Si2 0.698566 0.112468 0.468886
Si Si3 0.731382 0.115539 0.762151
Si Si4 0.451840 0.615106 0.281854
Si Si5 0.382653 0.691410 0.771213
Si Si6 0.695099 0.389824 0.288738
Si Si7 0.858929 0.112400 0.041455
Si Si8 0.500754 0.794347 0.913519
O O1 0.382637 0.810401 0.766061
O O2 0.310359 0.000000 0.846872
O O3 0.188871 0.890050 0.164313
O O4 0.120780 0.849801 0.053022
O O5 0.856632 0.150610 0.304061
O O6 0.566479 0.169371 0.705966
O O7 0.673440 0.000000 0.537713
O O8 0.712590 0.123832 0.316307
O O9 0.869981 0.150545 0.503543
O O10 0.767436 0.145196 0.839361
O O11 0.589510 0.171362 0.902817
O O12 0.700736 0.000000 0.794995
O O13 0.461658 0.500000 0.272316
O O14 0.549022 0.659186 0.532866
O O15 0.317730 0.653936 0.975935
O O16 0.701691 0.500000 0.325986
O O17 0.834561 0.332360 0.148760
O O18 0.992942 0.176411 0.913366
O O19 0.911330 0.000000 0.967085
#
# Coordination Sequence:
#
# PCOD8053682 Si02
#       8
#     4   4   4   4   4   4   4   4
#     4  10  21  38  63  95 127 169 223 268 314 381
#     4   9  20  40  65  93 128 165 213 271 324 385
#     4  10  20  39  68  99 128 166 218 278 324 377
#     4   8  15  34  64  92 120 162 216 267 313 367
#     4  12  24  41  66  98 135 174 214 261 332 403
#     4  11  22  41  67  94 128 172 223 272 317 382
#     4  11  25  41  60  94 138 178 207 259 342 405
#     4  11  23  40  68  99 124 166 229 278 315 372
#
# _framework density 21.427427000000002
#
# number of rings (size 3 to 8) (size 9 to 14) (size 15 to 20)
#    0.000    1.750    2.500    3.000    3.500    0.000 
#    0.000    0.625    0.000    0.000    0.000    0.000 
#    0.000    0.000    0.000    0.000    0.000    0.000 
#
# Total GULP energy -198302.048034 kJ/mol
# GULP energy per Si atom -12393.878002 kJ/mol
# Density = 2.137866 g / cm^3
# Si number density = 21.427427 Si / 1000 Ang^3
#
#
#
# Elastic Constant Matrix: (Units=GPa)
#
#
# Indices 1 2 3 4 5 6 
#
# 1 117.6137 39.5490 51.1622 0.0000 -4.6787 0.0000
# 2 39.5490 147.0251 47.8723 0.0000 -11.6114 0.0000
# 3 51.1622 47.8723 80.6743 0.0000 -9.0599 0.0000
# 4 0.0000 0.0000 0.0000 28.1251 0.0000 -6.3667
# 5 -4.6787 -11.6114 -9.0599 0.0000 33.5864 0.0000
# 6 0.0000 0.0000 0.0000 -6.3667 0.0000 27.0290
#
#
#
# Elastic Compliance Matrix: (Units=1/GPa)
#
#
# Indices 1 2 3 4 5 6 
#
# 1 0.011851 -0.000948 -0.007017 0.000000 -0.000570 0.000000
# 2 -0.000948 0.008592 -0.004309 0.000000 0.001676 0.000000
# 3 -0.007017 -0.004309 0.019723 0.000000 0.002853 0.000000
# 4 0.000000 0.000000 0.000000 0.037558 0.000000 0.008847
# 5 -0.000570 0.001676 0.002853 0.000000 0.031044 0.000000
# 6 0.000000 0.000000 0.000000 0.008847 0.000000 0.039081
#
#
# Mechanical properties :
#
#
# Convention : Reuss Voigt Hill
#
# Bulk Modulus (GPa) = 64.03020 69.16447 66.59734
# Shear Modulus (GPa) = 28.15264 31.53008 29.84136
#
# Velocity S-wave (km/s) = 3.62865 3.84015 3.73590
# Velocity P-wave (km/s) = 6.89227 7.21186 7.05387
#
# Compressibility (1/GPa) = 0.01561763
#
# Stress axis : x y z
#
# Youngs Moduli (GPa) = 84.38117 116.38739 50.70208
#
# Poissons Ratio (x) = 0.11034 0.35578
# Poissons Ratio (y) = 0.08000 0.21848
# Poissons Ratio (z) = 0.59211 0.50152
#
# Static dielectric constant tensor:
#      x y z
#    x 4.100690 0.000000 -0.121550 
#    y 0.000000 4.028990 0.000000 
#    z -0.121550 0.000000 3.787360 
# 
# 
# High freq. dielectric constant tensor:
#      x y z
#    x 1.842330 0.000000 -0.001320 
#    y 0.000000 1.844600 0.000000 
#    z -0.001320 0.000000 1.822470 
# 
# From -- ./inp_files/23322.got.cif
#   From: 2010.03.12/outbox.cif.g09.slc.cpg/sg8_12_cif.got.tgz:23322.got - 2010.03.31 10:45:26.
