data_PCOD8053264
_publ_section_title
;
Structure prediction by ZEFSAII (Michael W. Deem and Ramdas Pophale) SiO2 
 PCOD8053264
Probable space group: C M
;
_chemical_formula_sum "Si O2"
_cell_formula_units_Z 28
_cell_length_a 8.123405
_cell_length_b 17.453737
_cell_length_c 14.354726
_cell_angle_alpha 90.000000
_cell_angle_beta 137.046396
_cell_angle_gamma 90.000000
_cell_volume 1386.843128
_symmetry_space_group_name_H-M "C M"
_symmetry_group_IT_number 8
_symmetry_cell_setting 'monoclinic'
loop_
_space_group_symop_operation_xyz
x,y,z
x,-y,z
1/2+x,1/2+y,z
1/2+x,1/2-y,z
loop_
_atom_site_type_symbol
_atom_site_label
_atom_site_fract_x
_atom_site_fract_y
_atom_site_fract_z
Si Si1 0.712750 0.910310 0.839080
Si Si2 0.108913 0.146111 0.275481
Si Si3 0.948224 0.413711 0.271680
Si Si4 0.618745 0.091753 0.009540
Si Si5 0.723031 0.411051 0.985300
Si Si6 0.825233 0.791037 0.441368
Si Si7 0.295513 0.846333 0.543597
O O1 0.496439 0.894381 0.678925
O O2 0.960446 0.872586 0.899424
O O3 0.750698 0.000000 0.865282
O O4 0.639436 0.878965 0.911213
O O5 0.199356 0.098012 0.224327
O O6 0.197367 0.235780 0.310026
O O7 0.215187 0.109640 0.415495
O O8 0.820152 0.136817 0.153414
O O9 0.042033 0.500000 0.323355
O O10 0.139733 0.356343 0.396299
O O11 0.904622 0.395141 0.145657
O O12 0.652296 0.000000 0.033074
O O13 0.358982 0.117267 0.947052
O O14 0.669986 0.500000 0.952312
O O15 0.891872 0.739317 0.558860
O O16 0.058452 0.836605 0.506702
#
# Coordination Sequence:
#
# PCOD8053264 Si02
#       7
#     4   4   4   4   4   4   4
#     4  10  21  39  61  89 126 165 207 258 312 374
#     4  10  19  37  63  91 123 165 200 263 313 373
#     4  11  20  36  66  98 125 161 212 264 316 373
#     4  10  19  36  63  94 124 161 209 259 313 376
#     4   9  19  35  59  91 126 157 200 262 313 365
#     4  10  21  41  59  86 126 163 207 263 316 364
#     4  10  22  40  62  81 127 168 207 257 317 375
#
# _framework density 20.189738999999999
#
# number of rings (size 3 to 8) (size 9 to 14) (size 15 to 20)
#    0.857    1.143    2.857    1.286    0.000    1.714 
#    5.143    1.429    0.000    0.000    0.000    0.000 
#    0.000    0.000    0.000    0.000    0.000    0.000 
#
# Total GULP energy -173461.237042 kJ/mol
# GULP energy per Si atom -12390.088360 kJ/mol
# Density = 2.014379 g / cm^3
# Si number density = 20.189739 Si / 1000 Ang^3
#
#
#
# Elastic Constant Matrix: (Units=GPa)
#
#
# Indices 1 2 3 4 5 6 
#
# 1 162.2153 12.2007 51.9719 -0.0006 8.3165 -0.0002
# 2 12.2007 35.4806 12.9469 -0.0004 2.3447 -0.0002
# 3 51.9719 12.9469 83.4365 -0.0021 -1.7704 -0.0009
# 4 -0.0006 -0.0004 -0.0021 24.2238 -0.0008 1.1661
# 5 8.3165 2.3447 -1.7704 -0.0008 24.7130 -0.0003
# 6 -0.0002 -0.0002 -0.0009 1.1661 -0.0003 21.1105
#
#
#
# Elastic Compliance Matrix: (Units=1/GPa)
#
#
# Indices 1 2 3 4 5 6 
#
# 1 0.007940 -0.000750 -0.004892 0.000000 -0.002951 0.000000
# 2 -0.000750 0.030197 -0.004280 0.000000 -0.002919 0.000000
# 3 -0.004892 -0.004280 0.015764 0.000001 0.003182 0.000001
# 4 0.000000 0.000000 0.000001 0.041392 0.000001 -0.002286
# 5 -0.002951 -0.002919 0.003182 0.000001 0.041963 0.000001
# 6 0.000000 0.000000 0.000001 -0.002286 0.000001 0.047496
#
#
# Mechanical properties :
#
#
# Convention : Reuss Voigt Hill
#
# Bulk Modulus (GPa) = 29.36327 48.37458 38.86892
# Shear Modulus (GPa) = 23.15374 27.61031 25.38203
#
# Velocity S-wave (km/s) = 3.39013 3.70204 3.54951
# Velocity P-wave (km/s) = 5.46802 6.50273 6.00769
#
# Compressibility (1/GPa) = 0.03405616
#
# Stress axis : x y z
#
# Youngs Moduli (GPa) = 125.95045 33.11563 63.43612
#
# Poissons Ratio (x) = 0.02484 0.31031
# Poissons Ratio (y) = 0.09449 0.27153
# Poissons Ratio (z) = 0.61612 0.14175
#
# Static dielectric constant tensor:
#      x y z
#    x 3.955000 0.000000 -0.001410 
#    y 0.000000 3.265240 0.000000 
#    z -0.001410 0.000000 3.307880 
# 
# 
# High freq. dielectric constant tensor:
#      x y z
#    x 1.809330 0.000000 0.004800 
#    y 0.000000 1.756160 0.000000 
#    z 0.004800 0.000000 1.761860 
# 
# From -- ./inp_files/25515.got.cif
#   From: 2010.03.12/outbox.cif.g09.slc.cpg/sg8_13_cif.got.tgz:25515.got - 2010.03.31 10:45:26.
