data_PCOD8053884
_publ_section_title
;
Structure prediction by ZEFSAII (Michael W. Deem and Ramdas Pophale) SiO2 
 PCOD8053884
Probable space group: C M
;
_chemical_formula_sum "Si O2"
_cell_formula_units_Z 32
_cell_length_a 10.448210
_cell_length_b 19.651230
_cell_length_c 9.698562
_cell_angle_alpha 90.000000
_cell_angle_beta 43.174049
_cell_angle_gamma 90.000000
_cell_volume 1362.488207
_symmetry_space_group_name_H-M "C M"
_symmetry_group_IT_number 8
_symmetry_cell_setting 'monoclinic'
loop_
_space_group_symop_operation_xyz
x,y,z
x,-y,z
1/2+x,1/2+y,z
1/2+x,1/2-y,z
loop_
_atom_site_type_symbol
_atom_site_label
_atom_site_fract_x
_atom_site_fract_y
_atom_site_fract_z
Si Si1 0.470680 0.122731 0.896170
Si Si2 0.649598 0.744529 0.789990
Si Si3 0.808147 0.576118 0.750404
Si Si4 0.046784 0.350424 0.347492
Si Si5 0.967662 0.184494 0.675167
Si Si6 0.161454 0.423607 0.999498
Si Si7 0.446627 0.646651 0.132869
Si Si8 0.097834 0.189977 0.284216
O O1 0.638562 0.176675 0.753196
O O2 0.438557 0.081226 0.782402
O O3 0.529812 0.070248 0.968282
O O4 0.299803 0.172385 0.067694
O O5 0.847781 0.747499 0.720528
O O6 0.626987 0.703514 0.663148
O O7 0.493023 0.718703 0.021211
O O8 0.822690 0.500000 0.679993
O O9 0.594841 0.591818 0.958711
O O10 0.872161 0.629966 0.583629
O O11 0.054347 0.270164 0.317866
O O12 0.026768 0.390661 0.220453
O O13 0.238910 0.378020 0.263528
O O14 0.842465 0.124634 0.839307
O O15 0.075173 0.158070 0.454416
O O16 0.227176 0.500000 0.986791
O O17 0.452607 0.654978 0.292890
#
# Coordination Sequence:
#
# PCOD8053884 Si02
#       8
#     4   4   4   4   4   4   4   4
#     4  10  21  41  68  91 129 167 216 280 330 391
#     4  11  20  41  63  98 135 166 220 279 348 384
#     4  11  26  46  65  95 135 181 226 265 322 405
#     4  12  24  42  72  98 131 174 216 277 340 392
#     4  11  24  38  68  98 138 174 214 280 335 404
#     4  11  24  44  64  92 133 180 221 261 326 409
#     4  11  24  42  66 101 132 172 218 280 336 396
#     4  11  23  40  68 103 131 160 219 284 351 395
#
# _framework density 23.486443000000001
#
# number of rings (size 3 to 8) (size 9 to 14) (size 15 to 20)
#    0.000    1.000    2.500    5.250    5.250    2.000 
#    0.000    3.125    0.000    0.000    0.000    0.000 
#    0.000    0.000    0.000    0.000    0.000    0.000 
#
# Total GULP energy -198320.076383 kJ/mol
# GULP energy per Si atom -12395.004774 kJ/mol
# Density = 2.343299 g / cm^3
# Si number density = 23.486443 Si / 1000 Ang^3
#
#
#
# Elastic Constant Matrix: (Units=GPa)
#
#
# Indices 1 2 3 4 5 6 
#
# 1 80.3956 3.8339 6.8418 0.0000 15.1535 0.0000
# 2 3.8339 111.6664 22.2035 0.0000 3.4190 0.0000
# 3 6.8418 22.2035 108.0940 0.0000 24.9465 0.0000
# 4 0.0000 0.0000 0.0000 24.3418 0.0000 2.7633
# 5 15.1535 3.4190 24.9465 0.0000 28.2054 0.0000
# 6 0.0000 0.0000 0.0000 2.7633 0.0000 23.5213
#
#
#
# Elastic Compliance Matrix: (Units=1/GPa)
#
#
# Indices 1 2 3 4 5 6 
#
# 1 0.013958 -0.000451 0.001165 0.000000 -0.008475 0.000000
# 2 -0.000451 0.009362 -0.002122 0.000000 0.000984 0.000000
# 3 0.001165 -0.002122 0.012186 0.000000 -0.011147 0.000000
# 4 0.000000 0.000000 0.000000 0.041637 0.000000 -0.004891
# 5 -0.008475 0.000984 -0.011147 0.000000 0.049747 0.000000
# 6 0.000000 0.000000 0.000000 -0.004891 0.000000 0.043089
#
#
# Mechanical properties :
#
#
# Convention : Reuss Voigt Hill
#
# Bulk Modulus (GPa) = 30.58990 40.65714 35.62352
# Shear Modulus (GPa) = 27.21941 33.03215 30.12578
#
# Velocity S-wave (km/s) = 3.40802 3.75431 3.58535
# Velocity P-wave (km/s) = 5.34218 6.01179 5.68685
#
# Compressibility (1/GPa) = 0.03269052
#
# Stress axis : x y z
#
# Youngs Moduli (GPa) = 71.64211 106.80930 82.06310
#
# Poissons Ratio (x) = 0.04822 -0.09561
# Poissons Ratio (y) = 0.03234 0.17411
# Poissons Ratio (z) = -0.08347 0.22662
#
# Static dielectric constant tensor:
#      x y z
#    x 4.518460 0.000000 0.208710 
#    y 0.000000 3.834750 0.000000 
#    z 0.208710 0.000000 4.321950 
# 
# 
# High freq. dielectric constant tensor:
#      x y z
#    x 1.946000 0.000000 0.012790 
#    y 0.000000 1.902860 0.000000 
#    z 0.012790 0.000000 1.928850 
# 
# From -- ./inp_files/11431.got.cif
#   From: 2010.03.12/outbox.cif.g09.slc.cpg/sg8_6_cif.got.tgz:11431.got - 2010.03.31 10:45:26.
