data_PCOD8053277
_publ_section_title
;
Structure prediction by ZEFSAII (Michael W. Deem and Ramdas Pophale) SiO2 
 PCOD8053277
Probable space group: C M
;
_chemical_formula_sum "Si O2"
_cell_formula_units_Z 32
_cell_length_a 18.573558
_cell_length_b 13.621276
_cell_length_c 16.857546
_cell_angle_alpha 90.000000
_cell_angle_beta 156.730635
_cell_angle_gamma 90.000000
_cell_volume 1684.861174
_symmetry_space_group_name_H-M "C M"
_symmetry_group_IT_number 8
_symmetry_cell_setting 'monoclinic'
loop_
_space_group_symop_operation_xyz
x,y,z
x,-y,z
1/2+x,1/2+y,z
1/2+x,1/2-y,z
loop_
_atom_site_type_symbol
_atom_site_label
_atom_site_fract_x
_atom_site_fract_y
_atom_site_fract_z
Si Si1 0.019790 0.253223 0.204310
Si Si2 0.496251 0.888037 0.859217
Si Si3 0.663855 0.278062 0.923649
Si Si4 0.272618 0.609778 0.708404
Si Si5 0.070395 0.749897 0.073582
Si Si6 0.396266 0.211698 0.300329
Si Si7 0.577163 0.612035 0.395278
Si Si8 0.315186 0.609947 0.570308
O O1 0.086847 0.268334 0.183345
O O2 0.066684 0.148834 0.293044
O O3 0.125977 0.335777 0.362285
O O4 0.801089 0.265550 0.988528
O O5 0.599348 0.825695 0.895985
O O6 0.282580 0.877845 0.631126
O O7 0.563088 0.000000 0.920333
O O8 0.533659 0.848512 0.985859
O O9 0.493079 0.336884 0.714315
O O10 0.777379 0.335545 0.107761
O O11 0.270251 0.500000 0.740809
O O12 0.066883 0.647890 0.499016
O O13 0.353686 0.611975 0.702620
O O14 0.405668 0.673643 0.896984
O O15 0.268012 0.788795 0.247632
O O16 0.453698 0.321078 0.328468
O O17 0.507984 0.500000 0.330141
O O18 0.301886 0.500000 0.522927
#
# Coordination Sequence:
#
# PCOD8053277 Si02
#       8
#     4   4   4   4   4   4   4   4
#     4  11  23  38  59  86 123 152 187 240 299 346
#     4  10  19  38  64  85 111 150 200 243 283 341
#     4  10  19  37  61  88 110 153 199 235 290 340
#     4  11  21  38  60  85 116 149 196 240 279 340
#     4  11  23  38  59  86 123 152 187 240 299 346
#     4  10  19  37  61  88 110 153 199 235 290 340
#     4  10  19  38  64  85 111 150 200 243 283 341
#     4  11  21  38  60  85 116 149 196 240 279 340
#
# _framework density 18.992663
#
# number of rings (size 3 to 8) (size 9 to 14) (size 15 to 20)
#    0.000    1.500    7.500    0.000    0.000    8.000 
#    0.000    0.000    0.000    0.000    0.000    0.000 
#    0.000    0.000    0.000    0.000    0.000    0.000 
#
# Total GULP energy -198326.618822 kJ/mol
# GULP energy per Si atom -12395.413676 kJ/mol
# Density = 1.894943 g / cm^3
# Si number density = 18.992663 Si / 1000 Ang^3
#
#
#
# Elastic Constant Matrix: (Units=GPa)
#
#
# Indices 1 2 3 4 5 6 
#
# 1 89.5440 9.0875 12.8289 0.0259 8.2849 0.0103
# 2 9.0875 97.7520 35.7056 0.0445 8.4466 0.0204
# 3 12.8289 35.7056 73.4739 0.0419 21.6260 0.0207
# 4 0.0259 0.0445 0.0419 11.2355 0.0189 -0.0392
# 5 8.2849 8.4466 21.6260 0.0189 29.2368 0.0071
# 6 0.0103 0.0204 0.0207 -0.0392 0.0071 12.3598
#
#
#
# Elastic Compliance Matrix: (Units=1/GPa)
#
#
# Indices 1 2 3 4 5 6 
#
# 1 0.011590 -0.000471 -0.001110 -0.000017 -0.002327 -0.000006
# 2 -0.000471 0.012486 -0.006344 -0.000027 0.001219 -0.000010
# 3 -0.001110 -0.006344 0.020779 -0.000028 -0.013223 -0.000016
# 4 -0.000017 -0.000027 -0.000028 0.089005 -0.000025 0.000283
# 5 -0.002327 0.001219 -0.013223 -0.000025 0.044291 -0.000003
# 6 -0.000006 -0.000010 -0.000016 0.000283 -0.000003 0.080908
#
#
# Mechanical properties :
#
#
# Convention : Reuss Voigt Hill
#
# Bulk Modulus (GPa) = 34.47708 41.77932 38.12820
# Shear Modulus (GPa) = 17.56991 24.10960 20.83976
#
# Velocity S-wave (km/s) = 3.04483 3.56675 3.31607
# Velocity P-wave (km/s) = 5.52753 6.24561 5.89751
#
# Compressibility (1/GPa) = 0.02900477
#
# Stress axis : x y z
#
# Youngs Moduli (GPa) = 86.28264 80.09127 48.12555
#
# Poissons Ratio (x) = 0.03772 0.05341
# Poissons Ratio (y) = 0.04064 0.30532
# Poissons Ratio (z) = 0.09575 0.50811
#
# Static dielectric constant tensor:
#      x y z
#    x 3.298120 0.000000 0.247010 
#    y 0.000000 3.577340 0.000000 
#    z 0.247010 0.000000 3.628490 
# 
# 
# High freq. dielectric constant tensor:
#      x y z
#    x 1.714740 0.000000 0.026830 
#    y 0.000000 1.727920 0.000000 
#    z 0.026830 0.000000 1.752690 
# 
# From -- ./inp_files/29961.got.cif
#   From: 2010.03.12/outbox.cif.g09.slc.cpg/sg8_15_cif.got.tgz:29961.got - 2010.03.31 10:45:26.
