data_PCOD8053010
_publ_section_title
;
Structure prediction by ZEFSAII (Michael W. Deem and Ramdas Pophale) SiO2 
 PCOD8053010
Probable space group: C M
;
_chemical_formula_sum "Si O2"
_cell_formula_units_Z 32
_cell_length_a 24.818223
_cell_length_b 9.183252
_cell_length_c 12.404758
_cell_angle_alpha 90.000000
_cell_angle_beta 142.430001
_cell_angle_gamma 90.000000
_cell_volume 1723.825118
_symmetry_space_group_name_H-M "C M"
_symmetry_group_IT_number 8
_symmetry_cell_setting 'monoclinic'
loop_
_space_group_symop_operation_xyz
x,y,z
x,-y,z
1/2+x,1/2+y,z
1/2+x,1/2-y,z
loop_
_atom_site_type_symbol
_atom_site_label
_atom_site_fract_x
_atom_site_fract_y
_atom_site_fract_z
Si Si1 0.949250 0.336499 0.152920
Si Si2 0.253710 0.830993 0.531460
Si Si3 0.759695 0.662565 0.782022
Si Si4 0.022442 0.833915 0.691423
Si Si5 0.638302 0.172471 0.726749
Si Si6 0.561512 0.670174 0.166947
Si Si7 0.935040 0.827494 0.771488
Si Si8 0.483030 0.666033 0.399050
O O1 0.978883 0.500000 0.228563
O O2 0.920094 0.251957 0.216809
O O3 0.029023 0.255197 0.220494
O O4 0.865557 0.335662 0.941760
O O5 0.227205 0.789946 0.612068
O O6 0.166812 0.797392 0.320061
O O7 0.337906 0.739156 0.627497
O O8 0.280259 0.000000 0.565881
O O9 0.725662 0.500000 0.757930
O O10 0.733730 0.774776 0.836662
O O11 0.109396 0.737263 0.798404
O O12 0.974683 0.771312 0.720736
O O13 0.954219 0.826280 0.480172
O O14 0.053868 0.000000 0.760342
O O15 0.576069 0.246676 0.536630
O O16 0.631906 0.000000 0.720311
O O17 0.546043 0.500000 0.162913
O O18 0.505297 0.722654 0.973839
O O19 0.923543 0.000000 0.753584
O O20 0.493726 0.500000 0.377876
#
# Coordination Sequence:
#
# PCOD8053010 Si02
#       8
#     4   4   4   4   4   4   4   4
#     4  11  21  33  53  83 116 148 193 240 283 343
#     4  10  21  37  56  83 116 153 188 230 294 349
#     4  10  20  34  51  77 119 157 186 231 294 349
#     4   8  18  36  57  77 108 153 189 230 289 340
#     4  10  19  32  54  82 105 138 192 237 278 335
#     4  10  21  36  58  85 116 153 192 234 291 349
#     4  10  20  38  61  86 114 150 200 240 278 344
#     4   9  18  34  54  75 106 146 182 224 285 339
#
# _framework density 18.563367
#
# number of rings (size 3 to 8) (size 9 to 14) (size 15 to 20)
#    0.750    1.500    1.250    2.250    0.000    3.500 
#    0.000    1.250    0.000    4.500    0.000    0.000 
#    0.000    0.000    0.000    0.000    0.000    0.000 
#
# Total GULP energy -198222.097904 kJ/mol
# GULP energy per Si atom -12388.881119 kJ/mol
# Density = 1.852112 g / cm^3
# Si number density = 18.563367 Si / 1000 Ang^3
#
#
#
# Elastic Constant Matrix: (Units=GPa)
#
#
# Indices 1 2 3 4 5 6 
#
# 1 122.8869 56.2798 42.3903 0.0000 1.9717 0.0000
# 2 56.2798 102.5113 32.9802 0.0000 2.8475 0.0000
# 3 42.3903 32.9802 87.8990 0.0000 1.1794 0.0000
# 4 0.0000 0.0000 0.0000 26.4127 0.0000 4.5092
# 5 1.9717 2.8475 1.1794 0.0000 25.3626 0.0000
# 6 0.0000 0.0000 0.0000 4.5092 0.0000 27.6959
#
#
#
# Elastic Compliance Matrix: (Units=1/GPa)
#
#
# Indices 1 2 3 4 5 6 
#
# 1 0.011855 -0.005306 -0.003724 0.000000 -0.000153 0.000000
# 2 -0.005306 0.013497 -0.002492 0.000000 -0.000987 0.000000
# 3 -0.003724 -0.002492 0.014109 0.000000 -0.000087 0.000000
# 4 0.000000 0.000000 0.000000 0.038943 0.000000 -0.006340
# 5 -0.000153 -0.000987 -0.000087 0.000000 0.039555 0.000000
# 6 0.000000 0.000000 0.000000 -0.006340 0.000000 0.037139
#
#
# Mechanical properties :
#
#
# Convention : Reuss Voigt Hill
#
# Bulk Modulus (GPa) = 60.91497 64.06641 62.49069
# Shear Modulus (GPa) = 27.23101 28.00403 27.61752
#
# Velocity S-wave (km/s) = 3.83420 3.88824 3.86131
# Velocity P-wave (km/s) = 7.24481 7.39899 7.32231
#
# Compressibility (1/GPa) = 0.01641633
#
# Stress axis : x y z
#
# Youngs Moduli (GPa) = 84.35456 74.08918 70.87693
#
# Poissons Ratio (x) = 0.39312 0.26396
# Poissons Ratio (y) = 0.44758 0.17664
# Poissons Ratio (z) = 0.31415 0.18464
#
# Static dielectric constant tensor:
#      x y z
#    x 3.244270 0.000000 -0.109960 
#    y 0.000000 3.346290 0.000000 
#    z -0.109960 0.000000 3.337700 
# 
# 
# High freq. dielectric constant tensor:
#      x y z
#    x 1.705740 0.000000 -0.006030 
#    y 0.000000 1.719480 0.000000 
#    z -0.006030 0.000000 1.704590 
# 
# From -- ./inp_files/28333.got.cif
#   From: 2010.03.12/outbox.cif.g09.slc.cpg/sg8_15_cif.got.tgz:28333.got - 2010.03.31 10:45:26.
