data_PCOD8053479
_publ_section_title
;
Structure prediction by ZEFSAII (Michael W. Deem and Ramdas Pophale) SiO2 
 PCOD8053479
Probable space group: C M
;
_chemical_formula_sum "Si O2"
_cell_formula_units_Z 32
_cell_length_a 18.317419
_cell_length_b 14.643473
_cell_length_c 11.858132
_cell_angle_alpha 90.000000
_cell_angle_beta 150.974460
_cell_angle_gamma 90.000000
_cell_volume 1543.280760
_symmetry_space_group_name_H-M "C M"
_symmetry_group_IT_number 8
_symmetry_cell_setting 'monoclinic'
loop_
_space_group_symop_operation_xyz
x,y,z
x,-y,z
1/2+x,1/2+y,z
1/2+x,1/2-y,z
loop_
_atom_site_type_symbol
_atom_site_label
_atom_site_fract_x
_atom_site_fract_y
_atom_site_fract_z
Si Si1 0.234290 0.348135 0.175190
Si Si2 0.559842 0.898992 0.719406
Si Si3 0.241781 0.104879 0.722188
Si Si4 0.061406 0.197226 0.657537
Si Si5 0.710205 0.598310 0.295354
Si Si6 0.088463 0.400317 0.206973
Si Si7 0.717102 0.262620 0.494468
Si Si8 0.539684 0.683187 0.887643
O O1 0.412383 0.338260 0.391195
O O2 0.198978 0.393767 0.248393
O O3 0.148682 0.400176 0.958471
O O4 0.181176 0.245149 0.109991
O O5 0.601396 0.806794 0.704690
O O6 0.382770 0.888523 0.494467
O O7 0.594556 0.000000 0.710151
O O8 0.199173 0.141035 0.789134
O O9 0.168110 0.177868 0.536377
O O10 0.186051 0.000000 0.629410
O O11 0.418158 0.111071 0.937059
O O12 0.036115 0.163121 0.750782
O O13 0.695195 0.500000 0.335675
O O14 0.666136 0.678195 0.319488
O O15 0.588210 0.595602 0.027246
O O16 0.113024 0.500000 0.293917
O O17 0.123630 0.330809 0.356348
O O18 0.891721 0.235338 0.729943
#
# Coordination Sequence:
#
# PCOD8053479 Si02
#       8
#     4   4   4   4   4   4   4   4
#     4  11  18  38  64  93 124 164 212 266 304 374
#     4  10  20  35  60  91 122 164 210 256 314 377
#     4  11  26  44  64  92 128 174 215 260 321 384
#     4  11  23  40  64  94 132 165 215 265 323 370
#     4  11  20  34  60  95 125 159 208 264 319 370
#     4  11  22  39  63  92 124 167 213 256 318 383
#     4  12  20  41  65  91 126 169 217 262 309 378
#     4  11  19  37  64  92 129 164 206 265 318 372
#
# _framework density 20.735049
#
# number of rings (size 3 to 8) (size 9 to 14) (size 15 to 20)
#    0.000    1.000    7.500    0.750    0.000    6.000 
#    0.000    0.625    0.000    0.750    0.000    0.000 
#    0.000    0.000    0.000    0.000    0.000    0.000 
#
# Total GULP energy -198216.387878 kJ/mol
# GULP energy per Si atom -12388.524242 kJ/mol
# Density = 2.068786 g / cm^3
# Si number density = 20.735049 Si / 1000 Ang^3
#
#
#
# Elastic Constant Matrix: (Units=GPa)
#
#
# Indices 1 2 3 4 5 6 
#
# 1 59.5139 38.6041 17.0690 0.0000 -2.2212 0.0000
# 2 38.6041 151.2226 43.5601 0.0000 -7.5212 0.0000
# 3 17.0690 43.5601 78.2708 0.0000 -13.4987 0.0000
# 4 0.0000 0.0000 0.0000 10.9197 0.0000 2.7325
# 5 -2.2212 -7.5212 -13.4987 0.0000 19.1930 0.0000
# 6 0.0000 0.0000 0.0000 2.7325 0.0000 18.8744
#
#
#
# Elastic Compliance Matrix: (Units=1/GPa)
#
#
# Indices 1 2 3 4 5 6 
#
# 1 0.020371 -0.004669 -0.001995 0.000000 -0.000875 0.000000
# 2 -0.004669 0.008945 -0.003925 0.000000 0.000205 0.000000
# 3 -0.001995 -0.003925 0.017173 0.000000 0.010309 0.000000
# 4 0.000000 0.000000 0.000000 0.095020 0.000000 -0.013756
# 5 -0.000875 0.000205 0.010309 0.000000 0.059332 0.000000
# 6 0.000000 0.000000 0.000000 -0.013756 0.000000 0.054973
#
#
# Mechanical properties :
#
#
# Convention : Reuss Voigt Hill
#
# Bulk Modulus (GPa) = 39.50675 54.16373 46.83524
# Shear Modulus (GPa) = 17.51739 22.44901 19.98320
#
# Velocity S-wave (km/s) = 2.90973 3.29395 3.10778
# Velocity P-wave (km/s) = 5.51210 6.37537 5.95939
#
# Compressibility (1/GPa) = 0.02531213
#
# Stress axis : x y z
#
# Youngs Moduli (GPa) = 49.08941 111.78839 58.22929
#
# Poissons Ratio (x) = 0.52196 0.11616
# Poissons Ratio (y) = 0.22921 0.22854
# Poissons Ratio (z) = 0.09792 0.43876
#
# Static dielectric constant tensor:
#      x y z
#    x 3.383000 0.000000 -0.087460 
#    y 0.000000 4.152960 0.000000 
#    z -0.087460 0.000000 3.730290 
# 
# 
# High freq. dielectric constant tensor:
#      x y z
#    x 1.766770 0.000000 -0.003920 
#    y 0.000000 1.829060 0.000000 
#    z -0.003920 0.000000 1.814160 
# 
# From -- ./inp_files/23334.got.cif
#   From: 2010.03.12/outbox.cif.g09.slc.cpg/sg8_12_cif.got.tgz:23334.got - 2010.03.31 10:45:26.
