data_PCOD8053075
_publ_section_title
;
Structure prediction by ZEFSAII (Michael W. Deem and Ramdas Pophale) SiO2 
 PCOD8053075
Probable space group: C M
;
_chemical_formula_sum "Si O2"
_cell_formula_units_Z 32
_cell_length_a 20.576019
_cell_length_b 8.779083
_cell_length_c 14.228449
_cell_angle_alpha 90.000000
_cell_angle_beta 140.710666
_cell_angle_gamma 90.000000
_cell_volume 1627.549547
_symmetry_space_group_name_H-M "C M"
_symmetry_group_IT_number 8
_symmetry_cell_setting 'monoclinic'
loop_
_space_group_symop_operation_xyz
x,y,z
x,-y,z
1/2+x,1/2+y,z
1/2+x,1/2-y,z
loop_
_atom_site_type_symbol
_atom_site_label
_atom_site_fract_x
_atom_site_fract_y
_atom_site_fract_z
Si Si1 0.647630 0.822110 0.460030
Si Si2 0.772928 0.822343 0.426756
Si Si3 0.720578 0.823110 0.806545
Si Si4 0.953446 0.675975 0.744339
Si Si5 0.533041 0.679741 0.485453
Si Si6 0.186313 0.676653 0.981491
Si Si7 0.818263 0.678118 0.288156
Si Si8 0.830232 0.676127 0.779154
O O1 0.670848 0.788942 0.375947
O O2 0.548135 0.739900 0.394251
O O3 0.743823 0.757512 0.622524
O O4 0.636062 0.000000 0.465723
O O5 0.876925 0.776275 0.596834
O O6 0.758587 0.728183 0.315425
O O7 0.780598 0.000000 0.411470
O O8 0.622203 0.737357 0.654217
O O9 0.730882 0.792935 0.928271
O O10 0.826017 0.758221 0.876513
O O11 0.707117 0.000000 0.769174
O O12 0.935848 0.500000 0.696181
O O13 0.934791 0.697476 0.836378
O O14 0.068226 0.728975 0.851386
O O15 0.532321 0.500000 0.482644
O O16 0.426136 0.736682 0.406425
O O17 0.196686 0.500000 0.022445
O O18 0.249726 0.780809 0.122405
O O19 0.839053 0.500000 0.313106
O O20 0.803143 0.500000 0.762917
#
# Coordination Sequence:
#
# PCOD8053075 Si02
#       8
#     4   4   4   4   4   4   4   4
#     4   9  17  31  53  82 112 140 174 219 268 316
#     4  10  20  35  58  85 112 142 178 221 267 319
#     4  10  19  33  56  83 110 140 175 219 268 318
#     4   9  18  34  57  82 108 140 178 220 265 314
#     4  11  21  35  58  84 111 142 179 223 268 320
#     4  10  22  39  55  74 104 142 182 224 269 315
#     4  12  25  39  55  76 107 145 185 228 271 320
#     4   9  16  28  50  80 110 139 173 216 264 314
#
# _framework density 19.661460999999999
#
# number of rings (size 3 to 8) (size 9 to 14) (size 15 to 20)
#    0.000    2.000    0.000    6.000    0.000    4.500 
#    0.000    1.250    0.000    4.500    0.000    0.000 
#    0.000    0.000    0.000    0.000    0.000    0.000 
#
# Total GULP energy -198330.176303 kJ/mol
# GULP energy per Si atom -12395.636019 kJ/mol
# Density = 1.961671 g / cm^3
# Si number density = 19.661461 Si / 1000 Ang^3
#
#
#
# Elastic Constant Matrix: (Units=GPa)
#
#
# Indices 1 2 3 4 5 6 
#
# 1 121.3567 51.6141 20.8193 0.0000 -28.3766 0.0000
# 2 51.6141 130.9914 26.4795 0.0000 -15.5541 0.0000
# 3 20.8193 26.4795 43.9234 0.0000 -19.0592 0.0000
# 4 0.0000 0.0000 0.0000 23.3537 0.0000 7.5993
# 5 -28.3766 -15.5541 -19.0592 0.0000 18.8043 0.0000
# 6 0.0000 0.0000 0.0000 7.5993 0.0000 7.6387
#
#
#
# Elastic Compliance Matrix: (Units=1/GPa)
#
#
# Indices 1 2 3 4 5 6 
#
# 1 0.014887 -0.004146 0.006611 0.000000 0.025736 0.000000
# 2 -0.004146 0.009969 -0.005679 0.000000 -0.003768 0.000000
# 3 0.006611 -0.005679 0.045247 0.000000 0.051138 0.000000
# 4 0.000000 0.000000 0.000000 0.063317 0.000000 -0.062990
# 5 0.025736 -0.003768 0.051138 0.000000 0.140731 0.000000
# 6 0.000000 0.000000 0.000000 -0.062990 0.000000 0.193578
#
#
# Mechanical properties :
#
#
# Convention : Reuss Voigt Hill
#
# Bulk Modulus (GPa) = 15.70518 54.89970 35.30244
# Shear Modulus (GPa) = 10.09320 23.11659 16.60489
#
# Velocity S-wave (km/s) = 2.26818 3.43261 2.90925
# Velocity P-wave (km/s) = 3.85547 6.61011 5.41102
#
# Compressibility (1/GPa) = 0.06367326
#
# Stress axis : x y z
#
# Youngs Moduli (GPa) = 67.17074 100.31593 22.10091
#
# Poissons Ratio (x) = 0.41595 -0.14610
# Poissons Ratio (y) = 0.27852 0.12551
# Poissons Ratio (z) = -0.44404 0.56970
#
# Static dielectric constant tensor:
#      x y z
#    x 4.668900 0.000000 -0.085020 
#    y 0.000000 3.836780 0.000000 
#    z -0.085020 0.000000 3.087320 
# 
# 
# High freq. dielectric constant tensor:
#      x y z
#    x 1.796520 0.000000 -0.008990 
#    y 0.000000 1.776710 0.000000 
#    z -0.008990 0.000000 1.714390 
# 
# From -- ./inp_files/27772.got.cif
#   From: 2010.03.12/outbox.cif.g09.slc.cpg/sg8_14_cif.got.tgz:27772.got - 2010.03.31 10:45:26.
