data_PCOD8053757
_publ_section_title
;
Structure prediction by ZEFSAII (Michael W. Deem and Ramdas Pophale) SiO2 
 PCOD8053757
Probable space group: C M
;
_chemical_formula_sum "Si O2"
_cell_formula_units_Z 32
_cell_length_a 18.171151
_cell_length_b 8.964334
_cell_length_c 13.263558
_cell_angle_alpha 90.000000
_cell_angle_beta 129.226767
_cell_angle_gamma 90.000000
_cell_volume 1673.653497
_symmetry_space_group_name_H-M "C M"
_symmetry_group_IT_number 8
_symmetry_cell_setting 'monoclinic'
loop_
_space_group_symop_operation_xyz
x,y,z
x,-y,z
1/2+x,1/2+y,z
1/2+x,1/2-y,z
loop_
_atom_site_type_symbol
_atom_site_label
_atom_site_fract_x
_atom_site_fract_y
_atom_site_fract_z
Si Si1 0.838330 0.322933 0.084570
Si Si2 0.912641 0.825006 0.602611
Si Si3 0.203120 0.332101 0.821397
Si Si4 0.205742 0.326150 0.128647
Si Si5 0.706342 0.825668 0.363772
Si Si6 0.529383 0.324406 0.309131
Si Si7 0.543563 0.835165 0.853035
Si Si8 0.061275 0.824272 0.566640
O O1 0.836307 0.500000 0.077053
O O2 0.783182 0.269913 0.136507
O O3 0.945726 0.265826 0.183156
O O4 0.792988 0.258491 0.942335
O O5 0.804466 0.771816 0.499548
O O6 0.955639 0.769378 0.746355
O O7 0.975070 0.765628 0.562515
O O8 0.916877 0.000000 0.605723
O O9 0.234993 0.500000 0.821572
O O10 0.122903 0.331906 0.836220
O O11 0.160236 0.253987 0.684503
O O12 0.224301 0.500000 0.118278
O O13 0.216665 0.293466 0.254830
O O14 0.097859 0.281819 0.001640
O O15 0.626336 0.720964 0.339487
O O16 0.684533 0.000000 0.365247
O O17 0.511554 0.500000 0.281498
O O18 0.535295 0.278051 0.431091
O O19 0.501133 0.000000 0.830544
O O20 0.076293 0.000000 0.590878
#
# Coordination Sequence:
#
# PCOD8053757 Si02
#       8
#     4   4   4   4   4   4   4   4
#     4  11  21  34  56  83 109 139 179 223 266 319
#     4   9  17  31  53  77 101 131 167 210 260 312
#     4   9  17  31  53  81 110 136 168 217 271 319
#     4   9  18  35  57  79 105 138 176 220 268 314
#     4  10  21  37  54  74 104 142 182 222 265 313
#     4  11  23  38  54  75 108 146 183 224 269 317
#     4   8  15  28  49  77 104 129 161 206 259 311
#     4   9  18  34  56  80 105 137 176 218 266 319
#
# _framework density 19.119847
#
# number of rings (size 3 to 8) (size 9 to 14) (size 15 to 20)
#    0.000    2.500    0.000    3.375    0.000    7.000 
#    0.000    3.750    0.000    4.500    0.000    0.000 
#    0.000    0.000    0.000    0.000    0.000    0.000 
#
# Total GULP energy -198382.156196 kJ/mol
# GULP energy per Si atom -12398.884762 kJ/mol
# Density = 1.907633 g / cm^3
# Si number density = 19.119847 Si / 1000 Ang^3
#
#
#
# Elastic Constant Matrix: (Units=GPa)
#
#
# Indices 1 2 3 4 5 6 
#
# 1 45.5030 28.3503 30.3683 0.0000 22.3728 0.0000
# 2 28.3503 79.3236 50.8203 0.0000 13.0356 0.0000
# 3 30.3683 50.8203 138.1149 0.0000 33.1885 0.0000
# 4 0.0000 0.0000 0.0000 35.4011 0.0000 2.6880
# 5 22.3728 13.0356 33.1885 0.0000 17.8621 0.0000
# 6 0.0000 0.0000 0.0000 2.6880 0.0000 24.9378
#
#
#
# Elastic Compliance Matrix: (Units=1/GPa)
#
#
# Indices 1 2 3 4 5 6 
#
# 1 0.085809 -0.022560 0.020422 0.000000 -0.128960 0.000000
# 2 -0.022560 0.022445 -0.011115 0.000000 0.032528 0.000000
# 3 0.020422 -0.011115 0.019940 0.000000 -0.054517 0.000000
# 4 0.000000 0.000000 0.000000 0.028481 0.000000 -0.003070
# 5 -0.128960 0.032528 -0.054517 0.000000 0.295068 0.000000
# 6 0.000000 0.000000 0.000000 -0.003070 0.000000 0.040431
#
#
# Mechanical properties :
#
#
# Convention : Reuss Voigt Hill
#
# Bulk Modulus (GPa) = 9.83384 53.55768 31.69576
# Shear Modulus (GPa) = 9.04855 25.86704 17.45780
#
# Velocity S-wave (km/s) = 2.17780 3.68215 3.02499
# Velocity P-wave (km/s) = 3.38795 6.79338 5.36788
#
# Compressibility (1/GPa) = 0.10168966
#
# Stress axis : x y z
#
# Youngs Moduli (GPa) = 11.65373 44.55378 50.15028
#
# Poissons Ratio (x) = 1.00511 -1.02417
# Poissons Ratio (y) = 0.26290 0.55741
# Poissons Ratio (z) = -0.23799 0.49521
#
# Static dielectric constant tensor:
#      x y z
#    x 3.161500 0.000000 0.057190 
#    y 0.000000 3.492900 0.000000 
#    z 0.057190 0.000000 3.944990 
# 
# 
# High freq. dielectric constant tensor:
#      x y z
#    x 1.703840 0.000000 0.005630 
#    y 0.000000 1.738190 0.000000 
#    z 0.005630 0.000000 1.765750 
# 
# From -- ./inp_files/27760.got.cif
#   From: 2010.03.12/outbox.cif.g09.slc.cpg/sg8_14_cif.got.tgz:27760.got - 2010.03.31 10:45:26.
