data_PCOD8053128
_publ_section_title
;
Structure prediction by ZEFSAII (Michael W. Deem and Ramdas Pophale) SiO2 
 PCOD8053128
Probable space group: C M
;
_chemical_formula_sum "Si O2"
_cell_formula_units_Z 32
_cell_length_a 20.273716
_cell_length_b 8.994522
_cell_length_c 9.009611
_cell_angle_alpha 90.000000
_cell_angle_beta 94.652580
_cell_angle_gamma 90.000000
_cell_volume 1637.510386
_symmetry_space_group_name_H-M "C M"
_symmetry_group_IT_number 8
_symmetry_cell_setting 'monoclinic'
loop_
_space_group_symop_operation_xyz
x,y,z
x,-y,z
1/2+x,1/2+y,z
1/2+x,1/2-y,z
loop_
_atom_site_type_symbol
_atom_site_label
_atom_site_fract_x
_atom_site_fract_y
_atom_site_fract_z
Si Si1 0.590600 0.171241 0.474930
Si Si2 0.356726 0.827508 0.855945
Si Si3 0.719137 0.830428 0.323057
Si Si4 0.983524 0.164915 0.828855
Si Si5 0.625564 0.324501 0.783864
Si Si6 0.961420 0.166416 0.475202
Si Si7 0.332806 0.827082 0.509525
Si Si8 0.740185 0.174815 0.988085
O O1 0.642256 0.189178 0.350111
O O2 0.622014 0.248325 0.623821
O O3 0.521918 0.245990 0.409102
O O4 0.576485 0.000000 0.511122
O O5 0.433429 0.781307 0.894982
O O6 0.334924 0.790672 0.684387
O O7 0.313320 0.729001 0.958815
O O8 0.348586 0.000000 0.893269
O O9 0.762694 0.726507 0.436217
O O10 0.742273 0.000000 0.351866
O O11 0.727686 0.781677 0.155358
O O12 0.974688 0.165051 0.651481
O O13 0.059936 0.210969 0.870683
O O14 0.968850 0.000000 0.889262
O O15 0.633190 0.500000 0.759655
O O16 0.688711 0.263041 0.878964
O O17 0.891541 0.245463 0.430546
O O18 0.958589 0.000000 0.409281
O O19 0.341699 0.000000 0.481665
O O20 0.732811 0.000000 0.957930
#
# Coordination Sequence:
#
# PCOD8053128 Si02
#       8
#     4   4   4   4   4   4   4   4
#     4  10  19  34  57  82 108 139 176 218 264 312
#     4  10  20  34  55  83 109 135 173 218 262 313
#     4  10  23  39  53  74 106 143 181 220 262 311
#     4   8  16  31  52  78 107 137 169 211 260 309
#     4  10  20  35  56  83 110 136 173 218 264 316
#     4   9  17  31  53  81 111 139 171 214 262 312
#     4  10  20  34  56  83 108 137 175 218 264 315
#     4  11  23  38  54  74 105 144 182 219 262 312
#
# _framework density 19.541861000000001
#
# number of rings (size 3 to 8) (size 9 to 14) (size 15 to 20)
#    0.000    2.250    0.000    3.750    0.000    9.000 
#    0.000    1.250    0.000    3.000    0.000    0.000 
#    0.000    0.000    0.000    0.000    0.000    0.000 
#
# Total GULP energy -198425.928065 kJ/mol
# GULP energy per Si atom -12401.620504 kJ/mol
# Density = 1.949738 g / cm^3
# Si number density = 19.541861 Si / 1000 Ang^3
#
#
#
# Elastic Constant Matrix: (Units=GPa)
#
#
# Indices 1 2 3 4 5 6 
#
# 1 100.0395 42.5879 21.1442 0.0000 -27.9428 0.0000
# 2 42.5879 108.1959 32.3849 0.0000 -18.8576 0.0000
# 3 21.1442 32.3849 48.1037 0.0000 -22.0746 0.0000
# 4 0.0000 0.0000 0.0000 18.3729 0.0000 -1.6308
# 5 -27.9428 -18.8576 -22.0746 0.0000 19.3560 0.0000
# 6 0.0000 0.0000 0.0000 -1.6308 0.0000 42.5619
#
#
#
# Elastic Compliance Matrix: (Units=1/GPa)
#
#
# Indices 1 2 3 4 5 6 
#
# 1 0.020103 -0.004856 0.011706 0.000000 0.037639 0.000000
# 2 -0.004856 0.012985 -0.008432 0.000000 -0.003976 0.000000
# 3 0.011706 -0.008432 0.053089 0.000000 0.069229 0.000000
# 4 0.000000 0.000000 0.000000 0.054614 0.000000 0.002093
# 5 0.037639 -0.003976 0.069229 0.000000 0.181079 0.000000
# 6 0.000000 0.000000 0.000000 0.002093 0.000000 0.023575
#
#
# Mechanical properties :
#
#
# Convention : Reuss Voigt Hill
#
# Bulk Modulus (GPa) = 12.04658 49.84144 30.94401
# Shear Modulus (GPa) = 13.28801 26.73965 20.01383
#
# Velocity S-wave (km/s) = 2.61046 3.70310 3.20371
# Velocity P-wave (km/s) = 3.90691 6.62150 5.43637
#
# Compressibility (1/GPa) = 0.08301113
#
# Stress axis : x y z
#
# Youngs Moduli (GPa) = 49.74478 77.01327 18.83638
#
# Poissons Ratio (x) = 0.37400 -0.22049
# Poissons Ratio (y) = 0.24158 0.15883
# Poissons Ratio (z) = -0.58230 0.64937
#
# Static dielectric constant tensor:
#      x y z
#    x 3.817460 0.000000 -0.134180 
#    y 0.000000 3.675840 0.000000 
#    z -0.134180 0.000000 3.165800 
# 
# 
# High freq. dielectric constant tensor:
#      x y z
#    x 1.778210 0.000000 -0.011390 
#    y 0.000000 1.772380 0.000000 
#    z -0.011390 0.000000 1.718340 
# 
# From -- ./inp_files/15844.got.cif
#   From: 2010.03.12/outbox.cif.g09.slc.cpg/sg8_8_cif.got.tgz:15844.got - 2010.03.31 10:45:26.
