data_PCOD8053088
_publ_section_title
;
Structure prediction by ZEFSAII (Michael W. Deem and Ramdas Pophale) SiO2 
 PCOD8053088
Probable space group: C M
;
_chemical_formula_sum "Si O2"
_cell_formula_units_Z 32
_cell_length_a 32.896245
_cell_length_b 9.098183
_cell_length_c 12.497559
_cell_angle_alpha 90.000000
_cell_angle_beta 25.795196
_cell_angle_gamma 90.000000
_cell_volume 1627.686562
_symmetry_space_group_name_H-M "C M"
_symmetry_group_IT_number 8
_symmetry_cell_setting 'monoclinic'
loop_
_space_group_symop_operation_xyz
x,y,z
x,-y,z
1/2+x,1/2+y,z
1/2+x,1/2-y,z
loop_
_atom_site_type_symbol
_atom_site_label
_atom_site_fract_x
_atom_site_fract_y
_atom_site_fract_z
Si Si1 0.509240 0.167253 0.353530
Si Si2 0.496119 0.332503 0.596613
Si Si3 0.206967 0.674029 0.795258
Si Si4 0.704342 0.332576 0.178922
Si Si5 0.155065 0.327078 0.501390
Si Si6 0.820670 0.667315 0.699934
Si Si7 0.252135 0.827716 0.467941
Si Si8 0.451520 0.830844 0.906891
O O1 0.471817 0.259564 0.541846
O O2 0.432799 0.179608 0.440181
O O3 0.520795 0.000000 0.365089
O O4 0.607041 0.226937 0.076931
O O5 0.464754 0.500000 0.665888
O O6 0.605356 0.311646 0.357276
O O7 0.437820 0.258825 0.830135
O O8 0.211465 0.500000 0.767821
O O9 0.286540 0.723171 0.689361
O O10 0.221840 0.753247 0.648701
O O11 0.718957 0.500000 0.183475
O O12 0.713367 0.226394 0.259697
O O13 0.780588 0.286253 0.910696
O O14 0.169890 0.500000 0.481330
O O15 0.191398 0.242719 0.518238
O O16 0.045690 0.284890 0.746499
O O17 0.789505 0.500000 0.746534
O O18 0.230373 0.000000 0.523608
O O19 0.362512 0.797958 0.191894
O O20 0.457647 0.000000 0.858887
#
# Coordination Sequence:
#
# PCOD8053088 Si02
#       8
#     4   4   4   4   4   4   4   4
#     4  10  22  38  59  86 118 158 196 236 292 356
#     4  10  19  33  58  90 122 152 190 244 293 340
#     4  11  24  42  61  86 120 154 198 252 296 340
#     4   9  18  34  57  86 121 156 191 235 289 350
#     4  10  21  38  60  88 120 152 193 245 295 344
#     4  10  21  39  61  85 116 158 200 237 288 357
#     4  11  24  42  64  85 114 160 204 240 290 358
#     4   9  21  40  60  84 117 158 196 235 291 357
#
# _framework density 19.659804000000001
#
# number of rings (size 3 to 8) (size 9 to 14) (size 15 to 20)
#    0.000    2.000    1.250    1.500    1.750    4.500 
#    0.000    5.000    0.000    0.000    0.000    0.000 
#    0.000    0.000    0.000    0.000    0.000    0.000 
#
# Total GULP energy -198461.522557 kJ/mol
# GULP energy per Si atom -12403.845160 kJ/mol
# Density = 1.961506 g / cm^3
# Si number density = 19.659804 Si / 1000 Ang^3
#
#
#
# Elastic Constant Matrix: (Units=GPa)
#
#
# Indices 1 2 3 4 5 6 
#
# 1 126.8661 62.9364 46.8984 0.0000 10.5818 0.0000
# 2 62.9364 95.5140 30.5863 0.0000 10.0976 0.0000
# 3 46.8984 30.5863 30.3019 0.0000 7.4057 0.0000
# 4 0.0000 0.0000 0.0000 29.5248 0.0000 3.9757
# 5 10.5818 10.0976 7.4057 0.0000 26.0808 0.0000
# 6 0.0000 0.0000 0.0000 3.9757 0.0000 41.5280
#
#
#
# Elastic Compliance Matrix: (Units=1/GPa)
#
#
# Indices 1 2 3 4 5 6 
#
# 1 0.019832 -0.004836 -0.026117 0.000000 0.001242 0.000000
# 2 -0.004836 0.016717 -0.008905 0.000000 -0.001982 0.000000
# 3 -0.026117 -0.008905 0.084869 0.000000 -0.010054 0.000000
# 4 0.000000 0.000000 0.000000 0.034312 0.000000 -0.003285
# 5 0.001242 -0.001982 -0.010054 0.000000 0.041461 0.000000
# 6 0.000000 0.000000 0.000000 -0.003285 0.000000 0.024395
#
#
# Mechanical properties :
#
#
# Convention : Reuss Voigt Hill
#
# Bulk Modulus (GPa) = 23.97962 59.28048 41.63005
# Shear Modulus (GPa) = 15.86279 26.91077 21.38678
#
# Velocity S-wave (km/s) = 2.84362 3.70377 3.30182
# Velocity P-wave (km/s) = 4.79638 6.96485 5.97974
#
# Compressibility (1/GPa) = 0.04170208
#
# Stress axis : x y z
#
# Youngs Moduli (GPa) = 50.42265 59.81773 11.78292
#
# Poissons Ratio (x) = 0.28927 0.30773
# Poissons Ratio (y) = 0.24384 0.10493
# Poissons Ratio (z) = 1.31688 0.53271
#
# Static dielectric constant tensor:
#      x y z
#    x 3.599860 0.000000 -0.092520 
#    y 0.000000 3.612050 0.000000 
#    z -0.092520 0.000000 3.668640 
# 
# 
# High freq. dielectric constant tensor:
#      x y z
#    x 1.764160 0.000000 -0.005920 
#    y 0.000000 1.768550 0.000000 
#    z -0.005920 0.000000 1.768000 
# 
# From -- ./inp_files/21512.got.cif
#   From: 2010.03.12/outbox.cif.g09.slc.cpg/sg8_11_cif.got.tgz:21512.got - 2010.03.31 10:45:26.
