data_PCOD8053169
_publ_section_title
;
Structure prediction by ZEFSAII (Michael W. Deem and Ramdas Pophale) SiO2 
 PCOD8053169
Probable space group: C M
;
_chemical_formula_sum "Si O2"
_cell_formula_units_Z 28
_cell_length_a 14.194426
_cell_length_b 19.068997
_cell_length_c 11.728916
_cell_angle_alpha 90.000000
_cell_angle_beta 148.782966
_cell_angle_gamma 90.000000
_cell_volume 1645.390892
_symmetry_space_group_name_H-M "C M"
_symmetry_group_IT_number 8
_symmetry_cell_setting 'monoclinic'
loop_
_space_group_symop_operation_xyz
x,y,z
x,-y,z
1/2+x,1/2+y,z
1/2+x,1/2-y,z
loop_
_atom_site_type_symbol
_atom_site_label
_atom_site_fract_x
_atom_site_fract_y
_atom_site_fract_z
Si Si1 0.685690 0.294426 0.358500
Si Si2 0.974851 0.798516 0.350104
Si Si3 0.373842 0.782711 0.769467
Si Si4 0.741354 0.417431 0.966357
Si Si5 0.566276 0.857055 0.162669
Si Si6 0.920756 0.920705 0.463124
Si Si7 0.184962 0.180697 0.110713
O O1 0.503771 0.313732 0.243856
O O2 0.862125 0.305063 0.623201
O O3 0.669103 0.213418 0.305440
O O4 0.714954 0.340473 0.274773
O O5 0.166876 0.769396 0.599473
O O6 0.924343 0.871470 0.356573
O O7 0.819790 0.741820 0.209431
O O8 0.465345 0.844893 0.937158
O O9 0.480377 0.709846 0.890333
O O10 0.768717 0.500000 0.004263
O O11 0.572490 0.397371 0.711319
O O12 0.924075 0.381942 0.109556
O O13 0.705565 0.388108 0.055910
O O14 0.720536 0.916255 0.311173
O O15 0.957764 0.000000 0.461373
#
# Coordination Sequence:
#
# PCOD8053169 Si02
#       7
#     4   4   4   4   4   4   4
#     4   9  19  33  51  83 103 131 185 226 258 314
#     4  10  19  35  53  79 108 138 183 222 270 313
#     4   9  19  31  54  79 106 134 182 224 266 311
#     4  11  22  35  55  82 114 148 176 216 278 332
#     4  11  18  35  55  82 110 139 178 226 273 316
#     4  11  22  35  56  84 112 140 181 229 271 321
#     4  11  20  34  56  77 112 144 175 227 269 317
#
# _framework density 17.017233000000001
#
# number of rings (size 3 to 8) (size 9 to 14) (size 15 to 20)
#    0.857    0.857    5.714    1.286    0.000    0.000 
#    0.000    0.714    0.000    0.000    0.000    0.000 
#    0.000    0.000    0.000    0.000    0.000    0.000 
#
# Total GULP energy -173489.451678 kJ/mol
# GULP energy per Si atom -12392.103691 kJ/mol
# Density = 1.697850 g / cm^3
# Si number density = 17.017233 Si / 1000 Ang^3
#
#
#
# Elastic Constant Matrix: (Units=GPa)
#
#
# Indices 1 2 3 4 5 6 
#
# 1 93.7927 22.8271 17.6984 0.0000 -14.6429 0.0000
# 2 22.8271 58.9555 15.1663 0.0000 -7.1321 0.0000
# 3 17.6984 15.1663 49.1859 0.0000 -0.7152 0.0000
# 4 0.0000 0.0000 0.0000 19.1320 0.0000 -4.6256
# 5 -14.6429 -7.1321 -0.7152 0.0000 38.4178 0.0000
# 6 0.0000 0.0000 0.0000 -4.6256 0.0000 26.1956
#
#
#
# Elastic Compliance Matrix: (Units=1/GPa)
#
#
# Indices 1 2 3 4 5 6 
#
# 1 0.012834 -0.003577 -0.003455 0.000000 0.004163 0.000000
# 2 -0.003577 0.019852 -0.004802 0.000000 0.002233 0.000000
# 3 -0.003455 -0.004802 0.023029 0.000000 -0.001779 0.000000
# 4 0.000000 0.000000 0.000000 0.054599 0.000000 0.009641
# 5 0.004163 0.002233 -0.001779 0.000000 0.027998 0.000000
# 6 0.000000 0.000000 0.000000 0.009641 0.000000 0.039877
#
#
# Mechanical properties :
#
#
# Convention : Reuss Voigt Hill
#
# Bulk Modulus (GPa) = 31.20266 34.81308 33.00787
# Shear Modulus (GPa) = 23.52509 26.49858 25.01183
#
# Velocity S-wave (km/s) = 3.72213 3.95037 3.83795
# Velocity P-wave (km/s) = 6.07026 6.42722 6.25129
#
# Compressibility (1/GPa) = 0.03204855
#
# Stress axis : x y z
#
# Youngs Moduli (GPa) = 77.91669 50.37205 43.42377
#
# Poissons Ratio (x) = 0.18018 0.15001
# Poissons Ratio (y) = 0.27870 0.20851
# Poissons Ratio (z) = 0.26917 0.24188
#
# Static dielectric constant tensor:
#      x y z
#    x 3.357100 0.000000 -0.029670 
#    y 0.000000 2.891140 0.000000 
#    z -0.029670 0.000000 3.304100 
# 
# 
# High freq. dielectric constant tensor:
#      x y z
#    x 1.662850 0.000000 0.005690 
#    y 0.000000 1.622300 0.000000 
#    z 0.005690 0.000000 1.660640 
# 
# From -- ./inp_files/22332.got.cif
#   From: 2010.03.12/outbox.cif.g09.slc.cpg/sg8_12_cif.got.tgz:22332.got - 2010.03.31 10:45:26.
