data_PCOD8053856
_publ_section_title
;
Structure prediction by ZEFSAII (Michael W. Deem and Ramdas Pophale) SiO2 
 PCOD8053856
Probable space group: C M
;
_chemical_formula_sum "Si O2"
_cell_formula_units_Z 20
_cell_length_a 5.375193
_cell_length_b 14.091235
_cell_length_c 9.785588
_cell_angle_alpha 90.000000
_cell_angle_beta 108.741457
_cell_angle_gamma 90.000000
_cell_volume 701.891460
_symmetry_space_group_name_H-M "C M"
_symmetry_group_IT_number 8
_symmetry_cell_setting 'monoclinic'
loop_
_space_group_symop_operation_xyz
x,y,z
x,-y,z
1/2+x,1/2+y,z
1/2+x,1/2-y,z
loop_
_atom_site_type_symbol
_atom_site_label
_atom_site_fract_x
_atom_site_fract_y
_atom_site_fract_z
Si Si1 0.000000 0.337664 0.532360
Si Si2 0.629914 0.500000 0.463446
Si Si3 0.617315 0.000000 0.209492
Si Si4 0.186731 0.500000 0.922610
Si Si5 0.463324 0.797004 0.232994
Si Si6 0.498341 0.797708 0.826449
Si Si7 0.889691 0.000000 0.685727
O O1 0.767978 0.405706 0.432620
O O2 0.077297 0.278523 0.408955
O O3 0.901012 0.279364 0.650019
O O4 0.234740 0.403505 0.627418
O O5 0.325515 0.500000 0.369001
O O6 0.646444 0.500000 0.634479
O O7 0.435162 0.907638 0.190678
O O8 0.780625 0.000000 0.095936
O O9 0.003323 0.408374 0.864218
O O10 0.434332 0.500000 0.859028
O O11 0.176247 0.749278 0.166850
O O12 0.287873 0.749662 0.891853
#
# Coordination Sequence:
#
# PCOD8053856 Si02
#       7
#     4   2   2   2   4   4   2
#     4  10  21  39  69 112 150 188 245 323 379 440
#     4  11  20  40  78 108 156 198 259 305 383 460
#     4  12  26  50  74 109 156 209 251 317 379 449
#     4  10  27  49  75 109 155 206 255 313 383 447
#     4  12  26  44  73 109 146 193 249 307 373 450
#     4  11  26  47  77 112 149 195 253 313 378 455
#     4   9  19  39  71 106 139 193 255 307 369 456
#
# _framework density 28.494433999999998
#
# number of rings (size 3 to 8) (size 9 to 14) (size 15 to 20)
#    0.000    1.200    2.000    3.600    5.600    3.200 
#    0.000    6.000    0.000    0.000    0.000    0.000 
#    0.000    0.000    0.000    0.000    0.000    0.000 
#
# Total GULP energy -124009.864883 kJ/mol
# GULP energy per Si atom -12400.986488 kJ/mol
# Density = 2.842958 g / cm^3
# Si number density = 28.494434 Si / 1000 Ang^3
#
#
#
# Elastic Constant Matrix: (Units=GPa)
#
#
# Indices 1 2 3 4 5 6 
#
# 1 161.0244 67.8392 21.7037 0.0000 -28.6133 0.0000
# 2 67.8392 184.1805 5.0035 0.0000 -6.2470 0.0000
# 3 21.7037 5.0035 67.5956 0.0000 -34.3338 0.0000
# 4 0.0000 0.0000 0.0000 18.5430 0.0000 -13.9208
# 5 -28.6133 -6.2470 -34.3338 0.0000 42.6795 0.0000
# 6 0.0000 0.0000 0.0000 -13.9208 0.0000 28.4522
#
#
#
# Elastic Compliance Matrix: (Units=1/GPa)
#
#
# Indices 1 2 3 4 5 6 
#
# 1 0.008355 -0.002902 0.000273 0.000000 0.005396 0.000000
# 2 -0.002902 0.006464 -0.000092 0.000000 -0.001073 0.000000
# 3 0.000273 -0.000092 0.025024 0.000000 0.020301 0.000000
# 4 0.000000 0.000000 0.000000 0.085237 0.000000 0.041704
# 5 0.005396 -0.001073 0.020301 0.000000 0.043222 0.000000
# 6 0.000000 0.000000 0.000000 0.041704 0.000000 0.055551
#
#
# Mechanical properties :
#
#
# Convention : Reuss Voigt Hill
#
# Bulk Modulus (GPa) = 29.06774 66.87705 47.97239
# Shear Modulus (GPa) = 20.76745 39.15188 29.95966
#
# Velocity S-wave (km/s) = 2.70260 3.71080 3.24608
# Velocity P-wave (km/s) = 4.46790 6.47157 5.56072
#
# Compressibility (1/GPa) = 0.03440240
#
# Stress axis : x y z
#
# Youngs Moduli (GPa) = 119.69165 154.69472 39.96135
#
# Poissons Ratio (x) = 0.44888 -0.01091
# Poissons Ratio (y) = 0.34731 0.00367
# Poissons Ratio (z) = -0.03269 0.01421
#
# Static dielectric constant tensor:
#      x y z
#    x 4.887460 0.000000 -0.632570 
#    y 0.000000 5.324870 0.000000 
#    z -0.632570 0.000000 5.164670 
# 
# 
# High freq. dielectric constant tensor:
#      x y z
#    x 2.141750 0.000000 -0.032940 
#    y 0.000000 2.166880 0.000000 
#    z -0.032940 0.000000 2.147930 
# 
# From -- ./inp_files/17963.got.cif
#   From: 2010.03.12/outbox.cif.g09.slc.cpg/sg8_9_cif.got.tgz:17963.got - 2010.03.31 10:45:26.
