data_PCOD8053370
_publ_section_title
;
Structure prediction by ZEFSAII (Michael W. Deem and Ramdas Pophale) SiO2 
 PCOD8053370
Probable space group: C M
;
_chemical_formula_sum "Si O2"
_cell_formula_units_Z 32
_cell_length_a 20.550751
_cell_length_b 8.866964
_cell_length_c 12.159313
_cell_angle_alpha 90.000000
_cell_angle_beta 128.281935
_cell_angle_gamma 90.000000
_cell_volume 1739.264788
_symmetry_space_group_name_H-M "C M"
_symmetry_group_IT_number 8
_symmetry_cell_setting 'monoclinic'
loop_
_space_group_symop_operation_xyz
x,y,z
x,-y,z
1/2+x,1/2+y,z
1/2+x,1/2-y,z
loop_
_atom_site_type_symbol
_atom_site_label
_atom_site_fract_x
_atom_site_fract_y
_atom_site_fract_z
Si Si1 0.097600 0.325126 0.609280
Si Si2 0.266159 0.174966 0.736094
Si Si3 0.567224 0.675953 0.000318
Si Si4 0.505666 0.822849 0.731364
Si Si5 0.436878 0.828171 0.012995
Si Si6 0.688121 0.675740 0.316766
Si Si7 0.328502 0.322160 0.580676
Si Si8 0.055735 0.327781 0.324210
O O1 0.121522 0.500000 0.645677
O O2 0.181714 0.230259 0.702787
O O3 0.046319 0.293048 0.443588
O O4 0.038944 0.273207 0.647243
O O5 0.284048 0.266754 0.644552
O O6 0.259126 0.000000 0.697325
O O7 0.338973 0.203582 0.901761
O O8 0.563661 0.500000 0.969558
O O9 0.572074 0.769037 0.892191
O O10 0.484093 0.718421 0.979133
O O11 0.647927 0.717587 0.157083
O O12 0.419754 0.742282 0.665761
O O13 0.491834 0.000000 0.725066
O O14 0.467831 0.799278 0.170693
O O15 0.456858 0.000000 0.998109
O O16 0.707588 0.500000 0.345860
O O17 0.773746 0.766533 0.419674
O O18 0.625167 0.718475 0.348216
O O19 0.333432 0.500000 0.586776
O O20 0.085540 0.500000 0.336946
#
# Coordination Sequence:
#
# PCOD8053370 Si02
#       8
#     4   4   4   4   4   4   4   4
#     4  10  22  38  57  81 113 152 189 231 281 337
#     4  11  21  34  56  85 115 146 185 234 281 331
#     4  10  20  34  55  83 113 146 186 234 284 334
#     4  11  23  39  57  80 115 156 194 232 282 336
#     4   9  18  32  54  82 111 144 182 228 278 331
#     4  10  20  34  55  85 114 142 183 236 287 332
#     4  12  23  36  57  84 113 148 192 237 282 332
#     4   9  17  33  55  80 110 146 185 224 277 335
#
# _framework density 18.398577
#
# number of rings (size 3 to 8) (size 9 to 14) (size 15 to 20)
#    0.000    1.750    2.500    2.625    0.000    3.000 
#    0.000    1.250    0.000    3.000    0.000    0.000 
#    0.000    0.000    0.000    0.000    0.000    0.000 
#
# Total GULP energy -198421.851923 kJ/mol
# GULP energy per Si atom -12401.365745 kJ/mol
# Density = 1.835670 g / cm^3
# Si number density = 18.398577 Si / 1000 Ang^3
#
#
#
# Elastic Constant Matrix: (Units=GPa)
#
#
# Indices 1 2 3 4 5 6 
#
# 1 62.9394 36.9139 44.0911 0.0000 -7.8342 0.0000
# 2 36.9139 93.1122 48.8907 0.0000 -0.4919 0.0000
# 3 44.0911 48.8907 135.6419 0.0000 -3.2744 0.0000
# 4 0.0000 0.0000 0.0000 30.4594 0.0000 3.3782
# 5 -7.8342 -0.4919 -3.2744 0.0000 28.5278 0.0000
# 6 0.0000 0.0000 0.0000 3.3782 0.0000 25.7892
#
#
#
# Elastic Compliance Matrix: (Units=1/GPa)
#
#
# Indices 1 2 3 4 5 6 
#
# 1 0.024361 -0.006838 -0.005310 0.000000 0.005963 0.000000
# 2 -0.006838 0.015169 -0.003293 0.000000 -0.001994 0.000000
# 3 -0.005310 -0.003293 0.010277 0.000000 -0.000335 0.000000
# 4 0.000000 0.000000 0.000000 0.033315 0.000000 -0.004364
# 5 0.005963 -0.001994 -0.000335 0.000000 0.036618 0.000000
# 6 0.000000 0.000000 0.000000 -0.004364 0.000000 0.039348
#
#
# Mechanical properties :
#
#
# Convention : Reuss Voigt Hill
#
# Bulk Modulus (GPa) = 52.83974 61.27609 57.05791
# Shear Modulus (GPa) = 25.47410 27.74180 26.60795
#
# Velocity S-wave (km/s) = 3.72502 3.88728 3.80701
# Velocity P-wave (km/s) = 6.87625 7.31608 7.09957
#
# Compressibility (1/GPa) = 0.01892515
#
# Stress axis : x y z
#
# Youngs Moduli (GPa) = 41.04958 65.92319 97.30295
#
# Poissons Ratio (x) = 0.45079 0.51667
# Poissons Ratio (y) = 0.28070 0.32041
# Poissons Ratio (z) = 0.21797 0.21708
#
# Static dielectric constant tensor:
#      x y z
#    x 3.071840 0.000000 0.029460 
#    y 0.000000 3.449700 0.000000 
#    z 0.029460 0.000000 3.858120 
# 
# 
# High freq. dielectric constant tensor:
#      x y z
#    x 1.672700 0.000000 0.006000 
#    y 0.000000 1.721660 0.000000 
#    z 0.006000 0.000000 1.735250 
# 
# From -- ./inp_files/23860.got.cif
#   From: 2010.03.12/outbox.cif.g09.slc.cpg/sg8_12_cif.got.tgz:23860.got - 2010.03.31 10:45:26.
