data_PCOD8053870
_publ_section_title
;
Structure prediction by ZEFSAII (Michael W. Deem and Ramdas Pophale) SiO2 
 PCOD8053870
Probable space group: C M
;
_chemical_formula_sum "Si O2"
_cell_formula_units_Z 32
_cell_length_a 11.454754
_cell_length_b 17.639698
_cell_length_c 13.650975
_cell_angle_alpha 90.000000
_cell_angle_beta 145.599378
_cell_angle_gamma 90.000000
_cell_volume 1558.369907
_symmetry_space_group_name_H-M "C M"
_symmetry_group_IT_number 8
_symmetry_cell_setting 'monoclinic'
loop_
_space_group_symop_operation_xyz
x,y,z
x,-y,z
1/2+x,1/2+y,z
1/2+x,1/2-y,z
loop_
_atom_site_type_symbol
_atom_site_label
_atom_site_fract_x
_atom_site_fract_y
_atom_site_fract_z
Si Si1 0.893420 0.351108 0.142100
Si Si2 0.775769 0.087767 0.496230
Si Si3 0.479239 0.803705 0.985603
Si Si4 0.940854 0.191861 0.275798
Si Si5 0.612951 0.864476 0.589739
Si Si6 0.093249 0.189881 0.594986
Si Si7 0.496244 0.372263 0.975101
Si Si8 0.660307 0.580926 0.286142
O O1 0.944421 0.279831 0.248668
O O2 0.068574 0.412795 0.286935
O O3 0.889240 0.333876 0.024718
O O4 0.666981 0.383546 0.008291
O O5 0.730908 0.128349 0.568369
O O6 0.945854 0.138905 0.559786
O O7 0.848482 0.000000 0.558633
O O8 0.328817 0.826848 0.791667
O O9 0.495301 0.714278 0.009032
O O10 0.705356 0.838006 0.120450
O O11 0.061461 0.171713 0.458960
O O12 0.061958 0.148789 0.276255
O O13 0.547541 0.779172 0.574211
O O14 0.406152 0.912808 0.444652
O O15 0.771570 0.896954 0.780547
O O16 0.557546 0.423621 0.108472
O O17 0.615668 0.500000 0.306616
#
# Coordination Sequence:
#
# PCOD8053870 Si02
#       8
#     4   4   4   4   4   4   4   4
#     4  11  19  40  67  91 125 161 207 265 315 375
#     4  12  24  40  66  99 131 168 211 268 329 378
#     4  10  21  40  66  97 119 157 214 266 311 371
#     4  11  22  40  63  92 124 166 216 256 306 380
#     4  11  23  42  67  95 124 167 215 261 316 383
#     4  11  23  41  70  94 125 167 214 263 316 378
#     4  10  22  38  65  95 122 157 213 263 311 374
#     4  12  25  41  60  89 129 171 208 256 317 377
#
# _framework density 20.534276999999999
#
# number of rings (size 3 to 8) (size 9 to 14) (size 15 to 20)
#    0.000    1.000    5.000    2.625    0.000    2.500 
#    0.000    2.500    0.000    0.000    0.000    0.000 
#    0.000    0.000    0.000    0.000    0.000    0.000 
#
# Total GULP energy -198376.038749 kJ/mol
# GULP energy per Si atom -12398.502422 kJ/mol
# Density = 2.048754 g / cm^3
# Si number density = 20.534277 Si / 1000 Ang^3
#
#
#
# Elastic Constant Matrix: (Units=GPa)
#
#
# Indices 1 2 3 4 5 6 
#
# 1 96.8375 23.8631 43.8545 -0.0003 -3.4247 0.0000
# 2 23.8631 77.6283 24.2456 -0.0002 6.6684 0.0000
# 3 43.8545 24.2456 157.4598 -0.0011 -13.6922 0.0009
# 4 -0.0003 -0.0002 -0.0011 -3.5347 -0.0004 -4.5353
# 5 -3.4247 6.6684 -13.6922 -0.0004 23.9482 0.0005
# 6 0.0000 0.0000 0.0009 -4.5353 0.0005 5.8658
#
#
#
# Elastic Compliance Matrix: (Units=1/GPa)
#
#
# Indices 1 2 3 4 5 6 
#
# 1 0.012417 -0.002987 -0.002917 0.000000 0.000940 0.000000
# 2 -0.002987 0.014901 -0.001958 0.000000 -0.005696 0.000001
# 3 -0.002917 -0.001958 0.007867 0.000000 0.004626 -0.000002
# 4 0.000000 0.000000 0.000000 -0.142019 0.000000 -0.109807
# 5 0.000940 -0.005696 0.004626 0.000000 0.046122 -0.000005
# 6 0.000000 0.000001 -0.000002 -0.109807 -0.000005 0.085580
#
#
# Mechanical properties :
#
#
# Convention : Reuss Voigt Hill
#
# Bulk Modulus (GPa) = 51.38218 57.31689 54.34953
# Shear Modulus (GPa) = 106.20970 21.25334 63.73152
#
# Velocity S-wave (km/s) = 7.19968 3.22066 5.57710
# Velocity P-wave (km/s) = 9.70520 6.46557 8.24604
#
# Compressibility (1/GPa) = 0.01946200
#
# Stress axis : x y z
#
# Youngs Moduli (GPa) = 80.53713 67.11060 127.11552
#
# Poissons Ratio (x) = 0.20044 0.37074
# Poissons Ratio (y) = 0.24054 0.24887
# Poissons Ratio (z) = 0.23489 0.13139
#
# Static dielectric constant tensor:
#      x y z
#    x 3.614230 0.000000 0.035930 
#    y 0.000000 3.474130 0.000000 
#    z 0.035930 0.000000 4.043490 
# 
# 
# High freq. dielectric constant tensor:
#      x y z
#    x 1.799090 0.000000 -0.001090 
#    y 0.000000 1.780090 0.000000 
#    z -0.001090 0.000000 1.821250 
# 
# From -- ./inp_files/26253.got.cif
#   From: 2010.03.12/outbox.cif.g09.slc.cpg/sg8_14_cif.got.tgz:26253.got - 2010.03.31 10:45:26.
