data_PCOD8053957
_publ_section_title
;
Structure prediction by ZEFSAII (Michael W. Deem and Ramdas Pophale) SiO2 
 PCOD8053957
Probable space group: C M
;
_chemical_formula_sum "Si O2"
_cell_formula_units_Z 20
_cell_length_a 5.049063
_cell_length_b 30.715135
_cell_length_c 5.017325
_cell_angle_alpha 90.000000
_cell_angle_beta 87.736747
_cell_angle_gamma 90.000000
_cell_volume 777.493092
_symmetry_space_group_name_H-M "C M"
_symmetry_group_IT_number 8
_symmetry_cell_setting 'monoclinic'
loop_
_space_group_symop_operation_xyz
x,y,z
x,-y,z
1/2+x,1/2+y,z
1/2+x,1/2-y,z
loop_
_atom_site_type_symbol
_atom_site_label
_atom_site_fract_x
_atom_site_fract_y
_atom_site_fract_z
Si Si1 0.439970 0.837820 0.407890
Si Si2 0.703492 0.092884 0.079762
Si Si3 0.403931 0.778810 0.902997
Si Si4 0.211339 0.907982 0.714345
Si Si5 0.099044 0.000000 0.733247
Si Si6 0.588320 0.000000 0.072254
O O1 0.503387 0.812496 0.677121
O O2 0.194776 0.870934 0.484834
O O3 0.677476 0.869456 0.302835
O O4 0.382730 0.802154 0.187870
O O5 0.493314 0.097571 0.848554
O O6 0.992961 0.098705 0.948268
O O7 0.661003 0.045138 0.223282
O O8 0.607815 0.738940 0.877780
O O9 0.177458 0.955581 0.573943
O O10 0.281176 0.000000 0.995639
O O11 0.786922 0.000000 0.807431
#
# Coordination Sequence:
#
# PCOD8053957 Si02
#       6
#     4   4   4   4   2   2
#     4  12  26  49  78 106 140 184 234 293 352 422
#     4  10  22  40  68 104 144 186 233 281 335 410
#     4  12  30  52  76 103 140 179 230 296 370 430
#     4  10  22  40  68 104 144 186 233 281 335 410
#     4   8  16  35  60  96 143 187 225 274 332 392
#     4   8  16  35  60  96 143 187 225 274 332 392
#
# _framework density 25.723701999999999
#
# number of rings (size 3 to 8) (size 9 to 14) (size 15 to 20)
#    0.000    1.600    2.000    1.200    2.800    5.600 
#    0.000    0.000    0.000   14.400    0.000    0.000 
#    0.000    0.000    0.000    0.000    0.000    0.000 
#
# Total GULP energy -123898.275175 kJ/mol
# GULP energy per Si atom -12389.827517 kJ/mol
# Density = 2.566515 g / cm^3
# Si number density = 25.723702 Si / 1000 Ang^3
#
#
#
# Elastic Constant Matrix: (Units=GPa)
#
#
# Indices 1 2 3 4 5 6 
#
# 1 81.0695 23.6697 22.6554 0.0000 -6.9536 0.0000
# 2 23.6697 161.2494 33.4856 0.0000 -24.6153 0.0000
# 3 22.6554 33.4856 80.4959 0.0000 -18.8733 0.0000
# 4 0.0000 0.0000 0.0000 -9.7244 0.0000 -41.0530
# 5 -6.9536 -24.6153 -18.8733 0.0000 20.9924 0.0000
# 6 0.0000 0.0000 0.0000 -41.0530 0.0000 12.0296
#
#
#
# Elastic Compliance Matrix: (Units=1/GPa)
#
#
# Indices 1 2 3 4 5 6 
#
# 1 0.013640 -0.001317 -0.003287 0.000000 0.000019 0.000000
# 2 -0.001317 0.007798 -0.001054 0.000000 0.007761 0.000000
# 3 -0.003287 -0.001054 0.016778 0.000000 0.012760 0.000000
# 4 0.000000 0.000000 0.000000 -0.006674 0.000000 -0.022778
# 5 0.000019 0.007761 0.012760 0.000000 0.068214 0.000000
# 6 0.000000 0.000000 0.000000 -0.022778 0.000000 0.005395
#
#
# Mechanical properties :
#
#
# Convention : Reuss Voigt Hill
#
# Bulk Modulus (GPa) = 37.17228 53.60401 45.38814
# Shear Modulus (GPa) = 39.86183 20.85980 30.36082
#
# Velocity S-wave (km/s) = 3.94079 2.85075 3.43923
# Velocity P-wave (km/s) = 5.93198 5.63199 5.78393
#
# Compressibility (1/GPa) = 0.02690177
#
# Stress axis : x y z
#
# Youngs Moduli (GPa) = 73.31568 128.23160 59.60124
#
# Poissons Ratio (x) = 0.16884 0.19589
# Poissons Ratio (y) = 0.09654 0.06281
# Poissons Ratio (z) = 0.24096 0.13514
#
# Static dielectric constant tensor:
#      x y z
#    x 4.436810 0.000000 -0.250630 
#    y 0.000000 5.386810 0.000000 
#    z -0.250630 0.000000 4.307250 
# 
# 
# High freq. dielectric constant tensor:
#      x y z
#    x 2.020070 0.000000 -0.022590 
#    y 0.000000 2.056850 0.000000 
#    z -0.022590 0.000000 2.009210 
# 
# From -- ./inp_files/603.got.cif
#   From: 2010.03.12/outbox.cif.g09.slc.cpg/sg8_1_cif.got.tgz:603.got - 2010.03.31 10:45:26.
