data_PCOD8053710
_publ_section_title
;
Structure prediction by ZEFSAII (Michael W. Deem and Ramdas Pophale) SiO2 
 PCOD8053710
Probable space group: C M
;
_chemical_formula_sum "Si O2"
_cell_formula_units_Z 22
_cell_length_a 13.111535
_cell_length_b 12.098467
_cell_length_c 15.601837
_cell_angle_alpha 90.000000
_cell_angle_beta 153.999176
_cell_angle_gamma 90.000000
_cell_volume 1084.961647
_symmetry_space_group_name_H-M "C M"
_symmetry_group_IT_number 8
_symmetry_cell_setting 'monoclinic'
loop_
_space_group_symop_operation_xyz
x,y,z
x,-y,z
1/2+x,1/2+y,z
1/2+x,1/2-y,z
loop_
_atom_site_type_symbol
_atom_site_label
_atom_site_fract_x
_atom_site_fract_y
_atom_site_fract_z
Si Si1 0.605770 0.500000 0.638840
Si Si2 0.099941 0.500000 0.941286
Si Si3 0.896049 0.191138 0.093982
Si Si4 0.571469 0.724498 0.712330
Si Si5 0.080275 0.240857 0.406243
Si Si6 0.437217 0.500000 0.340395
Si Si7 0.906854 0.626613 0.437198
O O1 0.599106 0.606415 0.691110
O O2 0.392331 0.500000 0.409221
O O3 0.823192 0.500000 0.737164
O O4 0.189348 0.606477 0.958342
O O5 0.187774 0.500000 0.106028
O O6 0.949592 0.268209 0.217353
O O7 0.132179 0.128476 0.247171
O O8 0.804487 0.261334 0.944413
O O9 0.549342 0.818828 0.623102
O O10 0.347219 0.721256 0.604168
O O11 0.954051 0.306338 0.386202
O O12 0.077976 0.108725 0.417378
O O13 0.989362 0.500000 0.489857
#
# Coordination Sequence:
#
# PCOD8053710 Si02
#       7
#     2   2   4   4   4   2   4
#     4  12  24  40  63  96 125 163 212 261 316 369
#     4  10  22  38  67  88 119 163 216 261 300 369
#     4  10  23  42  63  94 121 165 216 256 312 372
#     4  11  26  40  65  94 128 165 211 260 316 374
#     4  10  23  42  66  89 129 167 212 257 318 368
#     4  10  20  42  68  84 116 172 214 260 304 362
#     4  11  24  43  65  93 126 168 210 260 317 374
#
# _framework density 20.277215999999999
#
# number of rings (size 3 to 8) (size 9 to 14) (size 15 to 20)
#    0.000    1.455    2.727    1.091   11.455    0.000 
#    1.636    0.000    0.000    0.000    0.000    0.000 
#    0.000    0.000    0.000    0.000    0.000    0.000 
#
# Total GULP energy -136411.183601 kJ/mol
# GULP energy per Si atom -12401.016691 kJ/mol
# Density = 2.023106 g / cm^3
# Si number density = 20.277216 Si / 1000 Ang^3
#
#
#
# Elastic Constant Matrix: (Units=GPa)
#
#
# Indices 1 2 3 4 5 6 
#
# 1 108.5807 53.1707 36.4496 -0.0029 -15.3621 -0.0064
# 2 53.1707 125.9138 38.9823 -0.0031 -11.3887 0.0154
# 3 36.4496 38.9823 88.2398 -0.0050 -31.2640 0.0053
# 4 -0.0029 -0.0031 -0.0050 -6.1960 -0.0024 -4.3283
# 5 -15.3621 -11.3887 -31.2640 -0.0024 44.7697 0.0022
# 6 -0.0064 0.0154 0.0053 -4.3283 0.0022 29.0493
#
#
#
# Elastic Compliance Matrix: (Units=1/GPa)
#
#
# Indices 1 2 3 4 5 6 
#
# 1 0.012412 -0.004260 -0.002817 -0.000005 0.001208 0.000005
# 2 -0.004260 0.010677 -0.003339 0.000004 -0.001077 -0.000005
# 3 -0.002817 -0.003339 0.017710 -0.000012 0.010551 -0.000005
# 4 -0.000005 0.000004 -0.000012 -0.146179 -0.000016 -0.021781
# 5 0.001208 -0.001077 0.010551 -0.000016 0.029845 -0.000006
# 6 0.000005 -0.000005 -0.000005 -0.021781 -0.000006 0.031179
#
#
# Mechanical properties :
#
#
# Convention : Reuss Voigt Hill
#
# Bulk Modulus (GPa) = 50.08223 64.43772 57.25997
# Shear Modulus (GPa) = -296.43244 26.46670 -134.98287
#
# Velocity S-wave (km/s) = -12.10402 3.61673 -8.16782
# Velocity P-wave (km/s) = 13.06104 7.02057 7.78788
#
# Compressibility (1/GPa) = 0.01996716
#
# Stress axis : x y z
#
# Youngs Moduli (GPa) = 80.56408 93.65808 56.46554
#
# Poissons Ratio (x) = 0.39899 0.15908
# Poissons Ratio (y) = 0.34321 0.18853
# Poissons Ratio (z) = 0.22697 0.31272
#
# Static dielectric constant tensor:
#      x y z
#    x 3.772960 -0.000020 -0.229670 
#    y -0.000020 3.600010 -0.000060 
#    z -0.229670 -0.000060 3.741300 
# 
# 
# High freq. dielectric constant tensor:
#      x y z
#    x 1.798520 0.000000 -0.015250 
#    y 0.000000 1.783790 0.000000 
#    z -0.015250 0.000000 1.795730 
# 
# From -- ./inp_files/25985.got.cif
#   From: 2010.03.12/outbox.cif.g09.slc.cpg/sg8_13_cif.got.tgz:25985.got - 2010.03.31 10:45:26.
