data_PCOD8053629
_publ_section_title
;
Structure prediction by ZEFSAII (Michael W. Deem and Ramdas Pophale) SiO2 
 PCOD8053629
Probable space group: C M
;
_chemical_formula_sum "Si O2"
_cell_formula_units_Z 32
_cell_length_a 17.292343
_cell_length_b 21.522627
_cell_length_c 9.218348
_cell_angle_alpha 90.000000
_cell_angle_beta 28.307305
_cell_angle_gamma 90.000000
_cell_volume 1626.912489
_symmetry_space_group_name_H-M "C M"
_symmetry_group_IT_number 8
_symmetry_cell_setting 'monoclinic'
loop_
_space_group_symop_operation_xyz
x,y,z
x,-y,z
1/2+x,1/2+y,z
1/2+x,1/2-y,z
loop_
_atom_site_type_symbol
_atom_site_label
_atom_site_fract_x
_atom_site_fract_y
_atom_site_fract_z
Si Si1 0.719400 0.073107 0.559110
Si Si2 0.143107 0.927824 0.490223
Si Si3 0.078517 0.928570 0.917369
Si Si4 0.211269 0.762565 0.979487
Si Si5 0.361199 0.878432 0.631084
Si Si6 0.647298 0.860405 0.959512
Si Si7 0.947494 0.569938 0.791965
Si Si8 0.456101 0.665311 0.599393
O O1 0.624700 0.114063 0.835299
O O2 0.626821 0.084008 0.559324
O O3 0.712514 0.000000 0.613990
O O4 0.901617 0.101179 0.242628
O O5 0.150730 0.905277 0.644633
O O6 0.017959 0.881809 0.618023
O O7 0.085931 0.000000 0.568928
O O8 0.321631 0.918635 0.130255
O O9 0.205363 0.918098 0.837809
O O10 0.039739 0.000000 0.966427
O O11 0.309591 0.806443 0.705622
O O12 0.112867 0.713980 0.037852
O O13 0.344539 0.721354 0.851242
O O14 0.101684 0.804044 0.266380
O O15 0.405435 0.887465 0.725981
O O16 0.516397 0.895788 0.277035
O O17 0.834729 0.875226 0.697025
O O18 0.936212 0.500000 0.752377
#
# Coordination Sequence:
#
# PCOD8053629 Si02
#       8
#     4   4   4   4   4   4   4   4
#     4  10  22  40  59  89 129 162 201 258 314 370
#     4  10  21  39  63  92 126 162 205 258 315 371
#     4  10  23  40  61  90 127 163 203 259 318 373
#     4  10  20  38  59  89 122 159 203 255 299 364
#     4  12  21  38  64  87 121 163 208 252 306 371
#     4  10  22  37  61  87 118 163 206 253 306 358
#     4  10  22  37  60  91 124 161 203 255 309 372
#     4  10  20  39  63  91 124 165 203 260 305 369
#
# _framework density 19.669156999999998
#
# number of rings (size 3 to 8) (size 9 to 14) (size 15 to 20)
#    0.750    1.000    2.500    1.875    1.750    2.500 
#    0.000    1.250    0.000    0.000    0.000    0.000 
#    0.000    0.000    0.000    0.000    0.000    0.000 
#
# Total GULP energy -198251.053190 kJ/mol
# GULP energy per Si atom -12390.690824 kJ/mol
# Density = 1.962439 g / cm^3
# Si number density = 19.669157 Si / 1000 Ang^3
#
#
#
# Elastic Constant Matrix: (Units=GPa)
#
#
# Indices 1 2 3 4 5 6 
#
# 1 105.6571 28.8133 53.6838 0.0504 -0.1239 -0.0102
# 2 28.8133 51.7067 35.2725 0.0636 4.3492 -0.0554
# 3 53.6838 35.2725 121.0417 0.0365 -2.5128 -0.0555
# 4 0.0504 0.0636 0.0365 27.2060 -0.0350 -3.4137
# 5 -0.1239 4.3492 -2.5128 -0.0350 34.0232 0.0171
# 6 -0.0102 -0.0554 -0.0555 -3.4137 0.0171 22.0966
#
#
#
# Elastic Compliance Matrix: (Units=1/GPa)
#
#
# Indices 1 2 3 4 5 6 
#
# 1 0.012878 -0.004123 -0.004505 -0.000010 0.000241 -0.000017
# 2 -0.004123 0.025910 -0.005799 -0.000044 -0.003755 0.000044
# 3 -0.004505 -0.005799 0.011983 0.000010 0.001610 0.000014
# 4 -0.000010 -0.000044 0.000010 0.037483 0.000042 0.005791
# 5 0.000241 -0.003755 0.001610 0.000042 0.029992 -0.000022
# 6 -0.000017 0.000044 0.000014 0.005791 -0.000022 0.046151
#
#
# Mechanical properties :
#
#
# Convention : Reuss Voigt Hill
#
# Bulk Modulus (GPa) = 45.63033 57.10497 51.36765
# Shear Modulus (GPa) = 24.93042 27.37420 26.15231
#
# Velocity S-wave (km/s) = 3.56404 3.73464 3.65034
# Velocity P-wave (km/s) = 6.33923 6.90598 6.62866
#
# Compressibility (1/GPa) = 0.02191525
#
# Stress axis : x y z
#
# Youngs Moduli (GPa) = 77.64941 38.59540 83.45060
#
# Poissons Ratio (x) = 0.15915 0.37596
# Poissons Ratio (y) = 0.32019 0.48397
# Poissons Ratio (z) = 0.34982 0.22383
#
# Static dielectric constant tensor:
#      x y z
#    x 3.350480 -0.000010 -0.097690 
#    y -0.000010 3.498310 0.000020 
#    z -0.097690 0.000020 3.686050 
# 
# 
# High freq. dielectric constant tensor:
#      x y z
#    x 1.747660 0.000000 -0.011340 
#    y 0.000000 1.752380 0.000000 
#    z -0.011340 0.000000 1.780270 
# 
# From -- ./inp_files/15355.got.cif
#   From: 2010.03.12/outbox.cif.g09.slc.cpg/sg8_8_cif.got.tgz:15355.got - 2010.03.31 10:45:26.
