data_PCOD8053709
_publ_section_title
;
Structure prediction by ZEFSAII (Michael W. Deem and Ramdas Pophale) SiO2 
 PCOD8053709
Probable space group: C M
;
_chemical_formula_sum "Si O2"
_cell_formula_units_Z 22
_cell_length_a 15.076376
_cell_length_b 12.285220
_cell_length_c 12.893963
_cell_angle_alpha 90.000000
_cell_angle_beta 29.596871
_cell_angle_gamma 90.000000
_cell_volume 1179.506677
_symmetry_space_group_name_H-M "C M"
_symmetry_group_IT_number 8
_symmetry_cell_setting 'monoclinic'
loop_
_space_group_symop_operation_xyz
x,y,z
x,-y,z
1/2+x,1/2+y,z
1/2+x,1/2-y,z
loop_
_atom_site_type_symbol
_atom_site_label
_atom_site_fract_x
_atom_site_fract_y
_atom_site_fract_z
Si Si1 0.819710 0.500000 0.114931
Si Si2 0.323046 0.306387 0.798183
Si Si3 0.487082 0.718812 0.207762
Si Si4 0.690518 0.872438 0.137003
Si Si5 0.707636 0.727939 0.319363
Si Si6 0.717291 0.000000 0.766525
Si Si7 0.502596 0.500000 0.303389
O O1 0.753394 0.605363 0.243505
O O2 0.717763 0.500000 0.107431
O O3 0.035104 0.500000 0.882233
O O4 0.501599 0.263179 0.564040
O O5 0.217561 0.395031 0.838024
O O6 0.176997 0.208097 0.952726
O O7 0.349811 0.355167 0.888657
O O8 0.511140 0.814266 0.271104
O O9 0.322489 0.742842 0.301665
O O10 0.439914 0.604958 0.306307
O O11 0.745021 0.811970 0.187951
O O12 0.655951 0.000000 0.194036
O O13 0.898097 0.000000 0.517420
#
# Coordination Sequence:
#
# PCOD8053709 Si02
#       7
#     2   4   4   4   4   2   2
#     4  12  20  38  68  93 117 171 219 256 308 385
#     4  10  20  42  63  92 123 162 217 254 309 380
#     4  10  24  41  63  93 128 163 210 263 312 378
#     4  10  22  43  61  91 129 157 208 264 303 377
#     4  12  23  40  69  90 127 170 209 262 324 363
#     4  12  20  38  73  92 121 171 219 270 303 374
#     4  12  24  42  63  97 132 160 220 270 313 375
#
# _framework density 18.651864
#
# number of rings (size 3 to 8) (size 9 to 14) (size 15 to 20)
#    1.091    0.000    6.364    0.000    2.545    2.909 
#    4.909    0.000    0.000    0.000    0.000    0.000 
#    0.000    0.000    0.000    0.000    0.000    0.000 
#
# Total GULP energy -136297.243998 kJ/mol
# GULP energy per Si atom -12390.658545 kJ/mol
# Density = 1.860941 g / cm^3
# Si number density = 18.651864 Si / 1000 Ang^3
#
#
#
# Elastic Constant Matrix: (Units=GPa)
#
#
# Indices 1 2 3 4 5 6 
#
# 1 96.0774 41.0813 2.2754 -0.0001 -4.4436 -0.0004
# 2 41.0813 123.6807 20.2283 -0.0001 16.7635 -0.0005
# 3 2.2754 20.2283 66.4862 -0.0002 -4.6907 0.0000
# 4 -0.0001 -0.0001 -0.0002 20.4744 0.0000 -0.3021
# 5 -4.4436 16.7635 -4.6907 0.0000 29.3113 0.0005
# 6 -0.0004 -0.0005 0.0000 -0.3021 0.0005 10.2876
#
#
#
# Elastic Compliance Matrix: (Units=1/GPa)
#
#
# Indices 1 2 3 4 5 6 
#
# 1 0.012841 -0.005213 0.001511 0.000000 0.005170 0.000000
# 2 -0.005213 0.011541 -0.003898 0.000000 -0.008014 0.000001
# 3 0.001511 -0.003898 0.016535 0.000000 0.005105 0.000000
# 4 0.000000 0.000000 0.000000 0.048863 0.000000 0.001435
# 5 0.005170 -0.008014 0.005105 0.000000 0.040301 -0.000002
# 6 0.000000 0.000001 0.000000 0.001435 -0.000002 0.097247
#
#
# Mechanical properties :
#
#
# Convention : Reuss Voigt Hill
#
# Bulk Modulus (GPa) = 38.88534 45.93494 42.41014
# Shear Modulus (GPa) = 19.91250 26.85860 23.38555
#
# Velocity S-wave (km/s) = 3.27094 3.79884 3.54473
# Velocity P-wave (km/s) = 5.92947 6.62741 6.28813
#
# Compressibility (1/GPa) = 0.02571663
#
# Stress axis : x y z
#
# Youngs Moduli (GPa) = 77.87808 86.64995 60.47714
#
# Poissons Ratio (x) = 0.45170 -0.09140
# Poissons Ratio (y) = 0.40598 0.23576
# Poissons Ratio (z) = -0.11770 0.33778
#
# Static dielectric constant tensor:
#      x y z
#    x 3.464500 0.000000 0.057180 
#    y 0.000000 3.372700 0.000000 
#    z 0.057180 0.000000 3.272880 
# 
# 
# High freq. dielectric constant tensor:
#      x y z
#    x 1.727010 0.000000 0.004380 
#    y 0.000000 1.724470 0.000000 
#    z 0.004380 0.000000 1.708610 
# 
# From -- ./inp_files/21965.got.cif
#   From: 2010.03.12/outbox.cif.g09.slc.cpg/sg8_11_cif.got.tgz:21965.got - 2010.03.31 10:45:26.
