data_PCOD8053724
_publ_section_title
;
Structure prediction by ZEFSAII (Michael W. Deem and Ramdas Pophale) SiO2 
 PCOD8053724
Probable space group: C M
;
_chemical_formula_sum "Si O2"
_cell_formula_units_Z 32
_cell_length_a 20.759405
_cell_length_b 8.970878
_cell_length_c 12.227102
_cell_angle_alpha 90.000000
_cell_angle_beta 128.097206
_cell_angle_gamma 90.000000
_cell_volume 1791.962290
_symmetry_space_group_name_H-M "C M"
_symmetry_group_IT_number 8
_symmetry_cell_setting 'monoclinic'
loop_
_space_group_symop_operation_xyz
x,y,z
x,-y,z
1/2+x,1/2+y,z
1/2+x,1/2-y,z
loop_
_atom_site_type_symbol
_atom_site_label
_atom_site_fract_x
_atom_site_fract_y
_atom_site_fract_z
Si Si1 0.693030 0.823537 0.449100
Si Si2 0.095962 0.323084 0.999538
Si Si3 0.017568 0.176343 0.290661
Si Si4 0.338603 0.172731 0.705738
Si Si5 0.959244 0.325652 0.021585
Si Si6 0.754545 0.177052 0.278014
Si Si7 0.935193 0.823860 0.429456
Si Si8 0.483709 0.824961 0.694575
O O1 0.605727 0.751027 0.377654
O O2 0.756803 0.770768 0.608725
O O3 0.727918 0.766772 0.369605
O O4 0.682906 0.000000 0.442751
O O5 0.089905 0.500000 0.994913
O O6 0.037442 0.266496 0.035596
O O7 0.062724 0.268713 0.847019
O O8 0.188035 0.265754 0.118914
O O9 0.975989 0.227458 0.359923
O O10 0.027061 0.000000 0.293297
O O11 0.957475 0.233102 0.131851
O O12 0.377435 0.205638 0.865514
O O13 0.402588 0.217213 0.677808
O O14 0.315080 0.000000 0.670806
O O15 0.967607 0.500000 0.057803
O O16 0.842920 0.242411 0.338490
O O17 0.756841 0.000000 0.279759
O O18 0.987635 0.759602 0.584281
O O19 0.933527 0.000000 0.439233
O O20 0.487409 0.000000 0.676111
#
# Coordination Sequence:
#
# PCOD8053724 Si02
#       8
#     4   4   4   4   4   4   4   4
#     4  11  20  33  57  81 103 138 185 225 262 316
#     4   8  14  28  52  79 102 127 167 217 262 303
#     4  11  23  36  51  75 112 148 179 220 267 315
#     4   9  18  32  53  82 113 138 168 219 274 315
#     4   9  17  33  55  78 106 142 177 211 264 325
#     4   9  16  30  54  78  99 129 174 218 256 306
#     4  10  21  36  52  74 108 145 172 209 268 318
#     4   9  17  30  52  79 105 135 172 213 257 314
#
# _framework density 17.857519
#
# number of rings (size 3 to 8) (size 9 to 14) (size 15 to 20)
#    0.000    2.500    2.500    2.250    0.000    1.500 
#    0.000    3.125    0.000    1.500    0.000    0.000 
#    0.000    0.000    0.000    0.000    0.000    0.000 
#
# Total GULP energy -198360.534711 kJ/mol
# GULP energy per Si atom -12397.533419 kJ/mol
# Density = 1.781687 g / cm^3
# Si number density = 17.857519 Si / 1000 Ang^3
#
#
#
# Elastic Constant Matrix: (Units=GPa)
#
#
# Indices 1 2 3 4 5 6 
#
# 1 110.6772 37.8748 73.9004 0.0000 -5.6880 0.0000
# 2 37.8748 41.2333 39.7194 0.0000 -5.1820 0.0000
# 3 73.9004 39.7194 160.6043 0.0000 -5.2007 0.0000
# 4 0.0000 0.0000 0.0000 30.6193 0.0000 -0.7817
# 5 -5.6880 -5.1820 -5.2007 0.0000 29.4881 0.0000
# 6 0.0000 0.0000 0.0000 -0.7817 0.0000 21.1766
#
#
#
# Elastic Compliance Matrix: (Units=1/GPa)
#
#
# Indices 1 2 3 4 5 6 
#
# 1 0.015524 -0.009628 -0.004747 0.000000 0.000465 0.000000
# 2 -0.009628 0.038342 -0.004922 0.000000 0.004013 0.000000
# 3 -0.004747 -0.004922 0.009625 0.000000 -0.000083 0.000000
# 4 0.000000 0.000000 0.000000 0.032690 0.000000 0.001207
# 5 0.000465 0.004013 -0.000083 0.000000 0.034692 0.000000
# 6 0.000000 0.000000 0.000000 0.001207 0.000000 0.047266
#
#
# Mechanical properties :
#
#
# Convention : Reuss Voigt Hill
#
# Bulk Modulus (GPa) = 40.16624 68.38933 54.27779
# Shear Modulus (GPa) = 22.21901 26.99148 24.60525
#
# Velocity S-wave (km/s) = 3.53120 3.89201 3.71599
# Velocity P-wave (km/s) = 6.25838 7.65358 6.99087
#
# Compressibility (1/GPa) = 0.02489653
#
# Stress axis : x y z
#
# Youngs Moduli (GPa) = 64.41835 26.08106 103.89305
#
# Poissons Ratio (x) = 0.25111 0.49316
# Poissons Ratio (y) = 0.62023 0.51138
# Poissons Ratio (z) = 0.30578 0.12838
#
# Static dielectric constant tensor:
#      x y z
#    x 3.200210 0.000000 0.105240 
#    y 0.000000 3.003310 0.000000 
#    z 0.105240 0.000000 3.604950 
# 
# 
# High freq. dielectric constant tensor:
#      x y z
#    x 1.664340 0.000000 0.006660 
#    y 0.000000 1.665530 0.000000 
#    z 0.006660 0.000000 1.709830 
# 
# From -- ./inp_files/23701.got.cif
#   From: 2010.03.12/outbox.cif.g09.slc.cpg/sg8_12_cif.got.tgz:23701.got - 2010.03.31 10:45:26.
