data_PCOD8053723
_publ_section_title
;
Structure prediction by ZEFSAII (Michael W. Deem and Ramdas Pophale) SiO2 
 PCOD8053723
Probable space group: C M
;
_chemical_formula_sum "Si O2"
_cell_formula_units_Z 32
_cell_length_a 14.979280
_cell_length_b 9.386300
_cell_length_c 14.247061
_cell_angle_alpha 90.000000
_cell_angle_beta 59.025195
_cell_angle_gamma 90.000000
_cell_volume 1717.477043
_symmetry_space_group_name_H-M "C M"
_symmetry_group_IT_number 8
_symmetry_cell_setting 'monoclinic'
loop_
_space_group_symop_operation_xyz
x,y,z
x,-y,z
1/2+x,1/2+y,z
1/2+x,1/2-y,z
loop_
_atom_site_type_symbol
_atom_site_label
_atom_site_fract_x
_atom_site_fract_y
_atom_site_fract_z
Si Si1 0.850700 0.330652 0.779920
Si Si2 0.449469 0.168443 0.533474
Si Si3 0.941771 0.334588 0.923344
Si Si4 0.682486 0.833901 0.368242
Si Si5 0.306266 0.836215 0.165367
Si Si6 0.978075 0.840211 0.167316
Si Si7 0.370692 0.338976 0.405234
Si Si8 0.120169 0.163647 0.929749
O O1 0.845126 0.500000 0.785872
O O2 0.903616 0.274398 0.656337
O O3 0.919358 0.278348 0.830686
O O4 0.733703 0.268765 0.851773
O O5 0.569520 0.217178 0.464281
O O6 0.381502 0.235413 0.487136
O O7 0.438005 0.000000 0.531585
O O8 0.974433 0.500000 0.907786
O O9 0.037289 0.245260 0.911289
O O10 0.834027 0.313189 0.040609
O O11 0.708050 0.754162 0.256153
O O12 0.767717 0.795853 0.401707
O O13 0.682394 0.000000 0.345764
O O14 0.408233 0.785106 0.164756
O O15 0.283851 0.000000 0.200844
O O16 0.974152 0.824488 0.282650
O O17 0.933132 0.000000 0.167689
O O18 0.091320 0.824522 0.057255
O O19 0.359600 0.500000 0.448774
O O20 0.117981 0.000000 0.898487
#
# Coordination Sequence:
#
# PCOD8053723 Si02
#       8
#     4   4   4   4   4   4   4   4
#     4   9  19  35  52  71  98 133 170 203 241 293
#     4  10  21  36  52  71  97 132 173 208 239 285
#     4   9  18  33  53  76 101 129 161 200 247 295
#     4   9  19  35  52  71 100 136 165 194 244 302
#     4   9  16  27  49  79 103 123 157 204 246 288
#     4   8  15  29  50  74 101 131 159 191 243 306
#     4   9  18  33  52  74  99 127 162 204 248 293
#     4   9  17  32  54  76  99 129 163 200 244 294
#
# _framework density 18.631981
#
# number of rings (size 3 to 8) (size 9 to 14) (size 15 to 20)
#    0.000    3.000    0.000    1.125    0.000    5.000 
#    0.000    5.625    0.000    0.000    0.000    0.000 
#    0.000    0.000    0.000    0.000    0.000    0.000 
#
# Total GULP energy -198268.506241 kJ/mol
# GULP energy per Si atom -12391.781640 kJ/mol
# Density = 1.858957 g / cm^3
# Si number density = 18.631981 Si / 1000 Ang^3
#
#
#
# Elastic Constant Matrix: (Units=GPa)
#
#
# Indices 1 2 3 4 5 6 
#
# 1 56.2397 15.4763 23.5360 0.0000 -1.9539 0.0000
# 2 15.4763 38.1603 21.0125 0.0000 3.0979 0.0000
# 3 23.5360 21.0125 100.7487 0.0000 -1.4475 0.0000
# 4 0.0000 0.0000 0.0000 23.7176 0.0000 4.2254
# 5 -1.9539 3.0979 -1.4475 0.0000 34.6362 0.0000
# 6 0.0000 0.0000 0.0000 4.2254 0.0000 21.5815
#
#
#
# Elastic Compliance Matrix: (Units=1/GPa)
#
#
# Indices 1 2 3 4 5 6 
#
# 1 0.021175 -0.006791 -0.003506 0.000000 0.001655 0.000000
# 2 -0.006791 0.032079 -0.005154 0.000000 -0.003468 0.000000
# 3 -0.003506 -0.005154 0.011831 0.000000 0.000758 0.000000
# 4 0.000000 0.000000 0.000000 0.043687 0.000000 -0.008553
# 5 0.001655 -0.003468 0.000758 0.000000 0.029307 0.000000
# 6 0.000000 0.000000 0.000000 -0.008553 0.000000 0.048011
#
#
# Mechanical properties :
#
#
# Convention : Reuss Voigt Hill
#
# Bulk Modulus (GPa) = 29.25575 35.02201 32.13888
# Shear Modulus (GPa) = 21.89284 24.99531 23.44408
#
# Velocity S-wave (km/s) = 3.43157 3.66666 3.55106
# Velocity P-wave (km/s) = 5.60686 6.06328 5.83953
#
# Compressibility (1/GPa) = 0.03418131
#
# Stress axis : x y z
#
# Youngs Moduli (GPa) = 47.22589 31.17313 84.52645
#
# Poissons Ratio (x) = 0.21170 0.29639
# Poissons Ratio (y) = 0.32072 0.43563
# Poissons Ratio (z) = 0.16560 0.16066
#
# Static dielectric constant tensor:
#      x y z
#    x 3.161000 0.000000 -0.106980 
#    y 0.000000 3.246010 0.000000 
#    z -0.106980 0.000000 3.811810 
# 
# 
# High freq. dielectric constant tensor:
#      x y z
#    x 1.699810 0.000000 -0.005870 
#    y 0.000000 1.704860 0.000000 
#    z -0.005870 0.000000 1.733030 
# 
# From -- ./inp_files/26524.got.cif
#   From: 2010.03.12/outbox.cif.g09.slc.cpg/sg8_14_cif.got.tgz:26524.got - 2010.03.31 10:45:26.
