data_PCOD8053056
_publ_section_title
;
Structure prediction by ZEFSAII (Michael W. Deem and Ramdas Pophale) SiO2 
 PCOD8053056
Probable space group: C M
;
_chemical_formula_sum "Si O2"
_cell_formula_units_Z 32
_cell_length_a 26.635230
_cell_length_b 8.967005
_cell_length_c 20.275461
_cell_angle_alpha 90.000000
_cell_angle_beta 20.246490
_cell_angle_gamma 90.000000
_cell_volume 1675.812708
_symmetry_space_group_name_H-M "C M"
_symmetry_group_IT_number 8
_symmetry_cell_setting 'monoclinic'
loop_
_space_group_symop_operation_xyz
x,y,z
x,-y,z
1/2+x,1/2+y,z
1/2+x,1/2-y,z
loop_
_atom_site_type_symbol
_atom_site_label
_atom_site_fract_x
_atom_site_fract_y
_atom_site_fract_z
Si Si1 0.455690 0.825044 0.821850
Si Si2 0.804857 0.323451 0.876956
Si Si3 0.083546 0.169308 0.858342
Si Si4 0.221313 0.833300 0.544765
Si Si5 0.509404 0.822764 0.505406
Si Si6 0.315629 0.176303 0.133269
Si Si7 0.851540 0.173087 0.579876
Si Si8 0.481965 0.328243 0.275295
O O1 0.373472 0.758914 0.859678
O O2 0.614779 0.752803 0.626890
O O3 0.480227 0.000000 0.786526
O O4 0.362609 0.783574 0.000953
O O5 0.796230 0.500000 0.894509
O O6 0.899216 0.273838 0.698479
O O7 0.642548 0.259731 0.069023
O O8 0.155698 0.171207 0.698239
O O9 0.192314 0.251363 0.775002
O O10 0.056378 0.000000 0.916024
O O11 0.932029 0.258458 0.041864
O O12 0.378533 0.757032 0.351645
O O13 0.239545 0.000000 0.495838
O O14 0.663956 0.755209 0.334302
O O15 0.453080 0.754153 0.507116
O O16 0.522065 0.000000 0.483020
O O17 0.302565 0.000000 0.159939
O O18 0.932040 0.193978 0.411619
O O19 0.833776 0.000000 0.620128
O O20 0.476985 0.500000 0.260969
#
# Coordination Sequence:
#
# PCOD8053056 Si02
#       8
#     4   4   4   4   4   4   4   4
#     4   9  17  33  56  77  98 130 171 209 246 296
#     4   9  19  35  53  73  98 133 176 212 244 293
#     4   9  17  31  52  79 108 133 163 207 256 305
#     4   9  17  29  48  79 110 129 155 203 258 303
#     4  11  22  35  51  73 104 139 174 212 254 301
#     4  10  19  33  55  80 104 132 169 212 256 302
#     4  10  19  33  55  80 104 132 169 212 256 302
#     4   9  17  33  56  77  98 130 171 209 246 296
#
# _framework density 19.095212
#
# number of rings (size 3 to 8) (size 9 to 14) (size 15 to 20)
#    0.000    2.500    0.000    2.625    0.000    6.000 
#    0.000    4.375    0.000    3.000    0.000    0.000 
#    0.000    0.000    0.000    0.000    0.000    0.000 
#
# Total GULP energy -198415.752965 kJ/mol
# GULP energy per Si atom -12400.984560 kJ/mol
# Density = 1.905175 g / cm^3
# Si number density = 19.095212 Si / 1000 Ang^3
#
#
#
# Elastic Constant Matrix: (Units=GPa)
#
#
# Indices 1 2 3 4 5 6 
#
# 1 35.8983 27.0823 55.0986 0.0006 -23.4196 0.0001
# 2 27.0823 92.5735 60.0520 -0.0009 -12.9336 -0.0001
# 3 55.0986 60.0520 138.1231 -0.0009 -40.3098 -0.0001
# 4 0.0006 -0.0009 -0.0009 25.8523 -0.0001 -10.1878
# 5 -23.4196 -12.9336 -40.3098 -0.0001 33.0068 0.0000
# 6 0.0001 -0.0001 -0.0001 -10.1878 0.0000 24.4572
#
#
#
# Elastic Compliance Matrix: (Units=1/GPa)
#
#
# Indices 1 2 3 4 5 6 
#
# 1 0.090549 -0.006519 -0.023745 -0.000004 0.032695 -0.000002
# 2 -0.006519 0.015743 -0.005895 0.000001 -0.005655 0.000000
# 3 -0.023745 -0.005895 0.021262 0.000001 0.006808 0.000001
# 4 -0.000004 0.000001 0.000001 0.046278 -0.000001 0.019277
# 5 0.032695 -0.005655 0.006808 -0.000001 0.059594 -0.000001
# 6 -0.000002 0.000000 0.000001 0.019277 -0.000001 0.048918
#
#
# Mechanical properties :
#
#
# Convention : Reuss Voigt Hill
#
# Bulk Modulus (GPa) = 18.10387 61.22897 39.66642
# Shear Modulus (GPa) = 13.40220 24.95408 19.17814
#
# Velocity S-wave (km/s) = 2.65214 3.61892 3.17258
# Velocity P-wave (km/s) = 4.34510 7.04250 5.85136
#
# Compressibility (1/GPa) = 0.05523681
#
# Stress axis : x y z
#
# Youngs Moduli (GPa) = 11.04372 63.52014 47.03279
#
# Poissons Ratio (x) = 0.41409 1.11679
# Poissons Ratio (y) = 0.07199 0.27724
# Poissons Ratio (z) = 0.26223 0.37443
#
# Static dielectric constant tensor:
#      x y z
#    x 3.413530 0.000000 -0.308980 
#    y 0.000000 3.479520 0.000000 
#    z -0.308980 0.000000 3.540220 
# 
# 
# High freq. dielectric constant tensor:
#      x y z
#    x 1.729590 0.000000 -0.029320 
#    y 0.000000 1.737610 0.000000 
#    z -0.029320 0.000000 1.738800 
# 
# From -- ./inp_files/17325.got.cif
#   From: 2010.03.12/outbox.cif.g09.slc.cpg/sg8_9_cif.got.tgz:17325.got - 2010.03.31 10:45:26.
