data_PCOD8053119
_publ_section_title
;
Structure prediction by ZEFSAII (Michael W. Deem and Ramdas Pophale) SiO2 
 PCOD8053119
Probable space group: C M
;
_chemical_formula_sum "Si O2"
_cell_formula_units_Z 32
_cell_length_a 33.367154
_cell_length_b 8.788417
_cell_length_c 12.537125
_cell_angle_alpha 90.000000
_cell_angle_beta 26.275995
_cell_angle_gamma 90.000000
_cell_volume 1627.544748
_symmetry_space_group_name_H-M "C M"
_symmetry_group_IT_number 8
_symmetry_cell_setting 'monoclinic'
loop_
_space_group_symop_operation_xyz
x,y,z
x,-y,z
1/2+x,1/2+y,z
1/2+x,1/2-y,z
loop_
_atom_site_type_symbol
_atom_site_label
_atom_site_fract_x
_atom_site_fract_y
_atom_site_fract_z
Si Si1 0.274240 0.680428 0.126490
Si Si2 0.275289 0.324581 0.494239
Si Si3 0.335598 0.681424 0.749359
Si Si4 0.577029 0.179398 0.662836
Si Si5 0.601203 0.322546 0.821907
Si Si6 0.906991 0.176507 0.992635
Si Si7 0.722842 0.319575 0.830941
Si Si8 0.529208 0.676920 0.218822
O O1 0.274291 0.500000 0.128604
O O2 0.172768 0.739656 0.389584
O O3 0.340559 0.742599 0.060235
O O4 0.308117 0.740769 0.931601
O O5 0.262454 0.500000 0.556033
O O6 0.192529 0.272521 0.618017
O O7 0.364847 0.300035 0.210548
O O8 0.282133 0.228119 0.586507
O O9 0.334431 0.500000 0.743601
O O10 0.262311 0.745504 0.842411
O O11 0.435927 0.749026 0.485416
O O12 0.553216 0.264808 0.829769
O O13 0.577353 0.000000 0.680516
O O14 0.499613 0.227852 0.764019
O O15 0.625744 0.500000 0.756552
O O16 0.533672 0.291424 0.081649
O O17 0.928078 0.000000 0.920587
O O18 0.725647 0.500000 0.833860
O O19 0.619604 0.257994 0.060754
O O20 0.526720 0.500000 0.249737
#
# Coordination Sequence:
#
# PCOD8053119 Si02
#       8
#     4   4   4   4   4   4   4   4
#     4   9  20  40  60  80 114 152 194 239 286 343
#     4  10  19  35  59  84 117 155 191 234 289 346
#     4  10  20  38  63  83 106 155 201 233 279 342
#     4  11  22  37  56  85 117 152 192 239 292 343
#     4  10  19  34  56  84 119 153 188 237 290 342
#     4  10  21  38  58  83 113 152 195 238 288 349
#     4  10  21  37  55  85 121 149 184 239 291 339
#     4   8  18  35  55  80 111 146 185 227 279 338
#
# _framework density 19.661518000000001
#
# number of rings (size 3 to 8) (size 9 to 14) (size 15 to 20)
#    0.000    2.250    1.250    2.250    1.750    2.000 
#    0.000    6.250    0.000    0.000    0.000    0.000 
#    0.000    0.000    0.000    0.000    0.000    0.000 
#
# Total GULP energy -198400.540985 kJ/mol
# GULP energy per Si atom -12400.033812 kJ/mol
# Density = 1.961677 g / cm^3
# Si number density = 19.661518 Si / 1000 Ang^3
#
#
#
# Elastic Constant Matrix: (Units=GPa)
#
#
# Indices 1 2 3 4 5 6 
#
# 1 134.6330 25.8746 82.5384 0.0000 -0.6577 0.0000
# 2 25.8746 35.2890 36.2098 0.0000 2.8458 0.0000
# 3 82.5384 36.2098 141.4751 0.0000 -6.1767 0.0000
# 4 0.0000 0.0000 0.0000 21.0654 0.0000 -6.4595
# 5 -0.6577 2.8458 -6.1767 0.0000 29.0161 0.0000
# 6 0.0000 0.0000 0.0000 -6.4595 0.0000 31.6662
#
#
#
# Elastic Compliance Matrix: (Units=1/GPa)
#
#
# Indices 1 2 3 4 5 6 
#
# 1 0.011703 -0.001984 -0.006359 0.000000 -0.000894 0.000000
# 2 -0.001984 0.039800 -0.009288 0.000000 -0.005926 0.000000
# 3 -0.006359 -0.009288 0.013313 0.000000 0.003601 0.000000
# 4 0.000000 0.000000 0.000000 0.050639 0.000000 0.010330
# 5 -0.000894 -0.005926 0.003601 0.000000 0.035791 0.000000
# 6 0.000000 0.000000 0.000000 0.010330 0.000000 0.033687
#
#
# Mechanical properties :
#
#
# Convention : Reuss Voigt Hill
#
# Bulk Modulus (GPa) = 33.83601 66.73807 50.28704
# Shear Modulus (GPa) = 21.73491 27.46783 24.60137
#
# Velocity S-wave (km/s) = 3.32844 3.74175 3.54113
# Velocity P-wave (km/s) = 5.65845 7.25843 6.50779
#
# Compressibility (1/GPa) = 0.02955431
#
# Stress axis : x y z
#
# Youngs Moduli (GPa) = 85.44894 25.12551 75.11677
#
# Poissons Ratio (x) = 0.04985 0.47766
# Poissons Ratio (y) = 0.16953 0.69768
# Poissons Ratio (z) = 0.54336 0.23336
#
# Static dielectric constant tensor:
#      x y z
#    x 3.616820 0.000000 -0.030840 
#    y 0.000000 3.301560 0.000000 
#    z -0.030840 0.000000 3.781080 
# 
# 
# High freq. dielectric constant tensor:
#      x y z
#    x 1.768760 0.000000 -0.005610 
#    y 0.000000 1.741580 0.000000 
#    z -0.005610 0.000000 1.767730 
# 
# From -- ./inp_files/24780.got.cif
#   From: 2010.03.12/outbox.cif.g09.slc.cpg/sg8_13_cif.got.tgz:24780.got - 2010.03.31 10:45:26.
