data_PCOD8053863
_publ_section_title
;
Structure prediction by ZEFSAII (Michael W. Deem and Ramdas Pophale) SiO2 
 PCOD8053863
Probable space group: C M
;
_chemical_formula_sum "Si O2"
_cell_formula_units_Z 20
_cell_length_a 18.883775
_cell_length_b 9.736548
_cell_length_c 12.968632
_cell_angle_alpha 90.000000
_cell_angle_beta 20.715469
_cell_angle_gamma 90.000000
_cell_volume 843.444827
_symmetry_space_group_name_H-M "C M"
_symmetry_group_IT_number 8
_symmetry_cell_setting 'monoclinic'
loop_
_space_group_symop_operation_xyz
x,y,z
x,-y,z
1/2+x,1/2+y,z
1/2+x,1/2-y,z
loop_
_atom_site_type_symbol
_atom_site_label
_atom_site_fract_x
_atom_site_fract_y
_atom_site_fract_z
Si Si1 0.371200 0.226210 0.695380
Si Si2 0.150000 0.500000 0.228097
Si Si3 0.106290 0.000000 0.412358
Si Si4 0.830940 0.000000 0.182605
Si Si5 0.642733 0.281906 0.805205
Si Si6 0.488068 0.000000 0.012059
Si Si7 0.362116 0.000000 0.860635
Si Si8 0.945036 0.500000 0.308802
O O1 0.538806 0.137995 0.411191
O O2 0.464951 0.367692 0.607329
O O3 0.193622 0.248224 0.855685
O O4 0.284357 0.138588 0.909817
O O5 0.348395 0.500000 0.030734
O O6 0.148629 0.500000 0.104318
O O7 0.249258 0.000000 0.317526
O O8 0.265096 0.000000 0.103715
O O9 0.603574 0.000000 0.532651
O O10 0.936175 0.134596 0.083822
O O11 0.815246 0.363923 0.510173
O O12 0.598947 0.133587 0.813149
O O13 0.517623 0.000000 0.094518
#
# Coordination Sequence:
#
# PCOD8053863 Si02
#       8
#     4   2   2   2   4   2   2   2
#     4   9  20  41  63  89 125 163 210 254 304 376
#     4   8  16  37  63  84 118 160 199 244 301 366
#     4  12  25  40  62  94 126 165 216 257 303 371
#     4   9  17  38  69  94 123 164 207 253 312 377
#     4  10  21  40  63  91 126 162 205 258 309 369
#     4  12  24  37  59  93 122 158 214 255 303 370
#     4  10  22  42  65  89 124 168 203 257 317 360
#     4   9  22  42  60  84 125 167 199 252 312 360
#
# _framework density 23.712281000000001
#
# number of rings (size 3 to 8) (size 9 to 14) (size 15 to 20)
#    0.000    2.400    0.000    4.800    0.000    6.400 
#    0.000    9.000    0.000    0.000    0.000    0.000 
#    0.000    0.000    0.000    0.000    0.000    0.000 
#
# Total GULP energy -123908.626113 kJ/mol
# GULP energy per Si atom -12390.862611 kJ/mol
# Density = 2.365831 g / cm^3
# Si number density = 23.712281 Si / 1000 Ang^3
#
#
#
# Elastic Constant Matrix: (Units=GPa)
#
#
# Indices 1 2 3 4 5 6 
#
# 1 121.2028 37.1506 22.6513 0.0000 -29.6404 0.0000
# 2 37.1506 210.5774 41.8800 0.0000 -22.9364 0.0000
# 3 22.6513 41.8800 58.6169 -0.0001 -9.3487 0.0000
# 4 0.0000 0.0000 -0.0001 18.6930 0.0001 -19.5722
# 5 -29.6404 -22.9364 -9.3487 0.0001 45.9893 0.0000
# 6 0.0000 0.0000 0.0000 -19.5722 0.0000 32.1469
#
#
#
# Elastic Compliance Matrix: (Units=1/GPa)
#
#
# Indices 1 2 3 4 5 6 
#
# 1 0.010365 -0.000680 -0.002592 0.000000 0.005815 0.000000
# 2 -0.000680 0.005768 -0.003586 0.000000 0.001710 0.000000
# 3 -0.002592 -0.003586 0.020745 0.000000 0.000758 0.000000
# 4 0.000000 0.000000 0.000000 0.147563 0.000000 0.089842
# 5 0.005815 0.001710 0.000758 0.000000 0.026498 0.000000
# 6 0.000000 0.000000 0.000000 0.089842 0.000000 0.085806
#
#
# Mechanical properties :
#
#
# Convention : Reuss Voigt Hill
#
# Bulk Modulus (GPa) = 43.17413 65.97344 54.57379
# Shear Modulus (GPa) = 15.71424 38.61353 27.16389
#
# Velocity S-wave (km/s) = 2.57710 4.03975 3.38829
# Velocity P-wave (km/s) = 5.20598 7.04573 6.19454
#
# Compressibility (1/GPa) = 0.02316202
#
# Stress axis : x y z
#
# Youngs Moduli (GPa) = 96.47425 173.36568 48.20543
#
# Poissons Ratio (x) = 0.11785 0.12497
# Poissons Ratio (y) = 0.06558 0.17286
# Poissons Ratio (z) = 0.25011 0.62166
#
# Static dielectric constant tensor:
#      x y z
#    x 4.767950 0.000000 -0.406110 
#    y 0.000000 4.574640 0.000000 
#    z -0.406110 0.000000 3.811220 
# 
# 
# High freq. dielectric constant tensor:
#      x y z
#    x 1.947700 0.000000 -0.024850 
#    y 0.000000 1.963020 0.000000 
#    z -0.024850 0.000000 1.909390 
# 
# From -- ./inp_files/9661.got.cif
#   From: 2010.03.12/outbox.cif.g09.slc.cpg/sg8_5_cif.got.tgz:9661.got - 2010.03.31 10:45:26.
