data_PCOD8053980
_publ_section_title
;
Structure prediction by ZEFSAII (Michael W. Deem and Ramdas Pophale) SiO2 
 PCOD8053980
Probable space group: C M
;
_chemical_formula_sum "Si O2"
_cell_formula_units_Z 28
_cell_length_a 12.050693
_cell_length_b 18.823782
_cell_length_c 5.217221
_cell_angle_alpha 90.000000
_cell_angle_beta 86.012000
_cell_angle_gamma 90.000000
_cell_volume 1180.606804
_symmetry_space_group_name_H-M "C M"
_symmetry_group_IT_number 8
_symmetry_cell_setting 'monoclinic'
loop_
_space_group_symop_operation_xyz
x,y,z
x,-y,z
1/2+x,1/2+y,z
1/2+x,1/2-y,z
loop_
_atom_site_type_symbol
_atom_site_label
_atom_site_fract_x
_atom_site_fract_y
_atom_site_fract_z
Si Si1 0.262760 0.579843 0.326540
Si Si2 0.481359 0.579346 0.983898
Si Si3 0.897983 0.186037 0.611531
Si Si4 0.094719 0.811801 0.264127
Si Si5 0.889267 0.584037 0.789374
Si Si6 0.018168 0.583892 0.264246
Si Si7 0.727338 0.299117 0.760354
O O1 0.247968 0.500000 0.443314
O O2 0.352573 0.578448 0.086594
O O3 0.301839 0.632070 0.542255
O O4 0.145692 0.610619 0.243171
O O5 0.516247 0.500000 0.887299
O O6 0.564816 0.605148 0.198197
O O7 0.488180 0.639853 0.762303
O O8 0.835729 0.248803 0.768699
O O9 0.973826 0.219844 0.369906
O O10 0.181602 0.799357 0.478613
O O11 0.141130 0.774797 0.997034
O O12 0.869855 0.500000 0.797507
O O13 0.768299 0.620907 0.816283
O O14 0.954924 0.610359 0.527469
O O15 0.958302 0.612850 0.021029
O O16 0.017285 0.500000 0.255135
#
# Coordination Sequence:
#
# PCOD8053980 Si02
#       7
#     4   4   4   4   4   4   4
#     4   9  20  38  67 102 137 179 225 287 360 415
#     4  10  22  45  74 105 143 182 239 302 350 419
#     4  11  25  46  69 106 144 178 238 295 351 426
#     4  11  26  49  69 102 139 186 235 286 355 423
#     4  10  22  42  64  95 134 178 233 284 333 406
#     4   9  19  38  63  96 132 168 219 275 339 405
#     4  12  27  46  72 100 141 187 237 287 356 422
#
# _framework density 23.716618
#
# number of rings (size 3 to 8) (size 9 to 14) (size 15 to 20)
#    0.000    1.714    1.429    1.286    6.000    2.857 
#    2.571    0.000    0.000    0.000    0.000    0.000 
#    0.000    0.000    0.000    0.000    0.000    0.000 
#
# Total GULP energy -173516.260230 kJ/mol
# GULP energy per Si atom -12394.018588 kJ/mol
# Density = 2.366264 g / cm^3
# Si number density = 23.716618 Si / 1000 Ang^3
#
#
#
# Elastic Constant Matrix: (Units=GPa)
#
#
# Indices 1 2 3 4 5 6 
#
# 1 73.3742 27.0008 42.6122 0.0000 -5.1534 0.0000
# 2 27.0008 71.4937 34.1177 0.0000 -6.8230 0.0000
# 3 42.6122 34.1177 153.2732 0.0000 1.7537 0.0000
# 4 0.0000 0.0000 0.0000 25.2204 0.0000 1.7697
# 5 -5.1534 -6.8230 1.7537 0.0000 51.2458 0.0000
# 6 0.0000 0.0000 0.0000 1.7697 0.0000 28.5477
#
#
#
# Elastic Compliance Matrix: (Units=1/GPa)
#
#
# Indices 1 2 3 4 5 6 
#
# 1 0.017712 -0.004710 -0.003890 0.000000 0.001287 0.000000
# 2 -0.004710 0.017155 -0.002531 0.000000 0.001897 0.000000
# 3 -0.003890 -0.002531 0.008181 0.000000 -0.001008 0.000000
# 4 0.000000 0.000000 0.000000 0.039824 0.000000 -0.002469
# 5 0.001287 0.001897 -0.001008 0.000000 0.019930 0.000000
# 6 0.000000 0.000000 0.000000 -0.002469 0.000000 0.035182
#
#
# Mechanical properties :
#
#
# Convention : Reuss Voigt Hill
#
# Bulk Modulus (GPa) = 48.11134 56.17805 52.14470
# Shear Modulus (GPa) = 29.90899 33.96349 31.93624
#
# Velocity S-wave (km/s) = 3.55505 3.78835 3.67355
# Velocity P-wave (km/s) = 6.09763 6.54784 6.32674
#
# Compressibility (1/GPa) = 0.02078512
#
# Stress axis : x y z
#
# Youngs Moduli (GPa) = 56.45985 58.29289 122.23737
#
# Poissons Ratio (x) = 0.27454 0.47556
# Poissons Ratio (y) = 0.26591 0.30937
# Poissons Ratio (z) = 0.21966 0.14753
#
# Static dielectric constant tensor:
#      x y z
#    x 4.347360 0.000000 -0.004280 
#    y 0.000000 4.094270 0.000000 
#    z -0.004280 0.000000 4.366190 
# 
# 
# High freq. dielectric constant tensor:
#      x y z
#    x 1.946670 0.000000 -0.003330 
#    y 0.000000 1.923430 0.000000 
#    z -0.003330 0.000000 1.937430 
# 
# From -- ./inp_files/2833.got.cif
#   From: 2010.03.12/outbox.cif.g09.slc.cpg/sg8_2_cif.got.tgz:2833.got - 2010.03.31 10:45:26.
