data_PCOD8053121
_publ_section_title
;
Structure prediction by ZEFSAII (Michael W. Deem and Ramdas Pophale) SiO2 
 PCOD8053121
Probable space group: C M
;
_chemical_formula_sum "Si O2"
_cell_formula_units_Z 32
_cell_length_a 14.898335
_cell_length_b 8.564545
_cell_length_c 25.516804
_cell_angle_alpha 90.000000
_cell_angle_beta 28.689050
_cell_angle_gamma 90.000000
_cell_volume 1563.003962
_symmetry_space_group_name_H-M "C M"
_symmetry_group_IT_number 8
_symmetry_cell_setting 'monoclinic'
loop_
_space_group_symop_operation_xyz
x,y,z
x,-y,z
1/2+x,1/2+y,z
1/2+x,1/2-y,z
loop_
_atom_site_type_symbol
_atom_site_label
_atom_site_fract_x
_atom_site_fract_y
_atom_site_fract_z
Si Si1 0.448550 0.327606 0.439620
Si Si2 0.200232 0.670692 0.464180
Si Si3 0.251792 0.317586 0.217940
Si Si4 0.138344 0.183434 0.067136
Si Si5 0.117355 0.817317 0.665560
Si Si6 0.875997 0.313191 0.697636
Si Si7 0.539129 0.313552 0.231184
Si Si8 0.029977 0.315373 0.822457
O O1 0.497438 0.500000 0.436594
O O2 0.327523 0.345421 0.449929
O O3 0.638111 0.236439 0.327822
O O4 0.329954 0.234367 0.543898
O O5 0.144800 0.500000 0.471312
O O6 0.331309 0.756054 0.353480
O O7 0.009020 0.753063 0.581699
O O8 0.219064 0.500000 0.227413
O O9 0.193295 0.231770 0.194915
O O10 0.468559 0.274607 0.115543
O O11 0.329490 0.248071 0.944790
O O12 0.156413 0.000000 0.065835
O O13 0.100475 0.257095 0.144030
O O14 0.078769 0.776786 0.745169
O O15 0.963719 0.729975 0.708700
O O16 0.097471 0.000000 0.665955
O O17 0.857346 0.500000 0.704291
O O18 0.677306 0.229578 0.792427
O O19 0.522158 0.500000 0.239349
O O20 0.029197 0.500000 0.812550
#
# Coordination Sequence:
#
# PCOD8053121 Si02
#       8
#     4   4   4   4   4   4   4   4
#     4   9  17  33  56  85 116 147 180 225 284 346
#     4   7  13  27  52  80 107 135 170 215 273 338
#     4  10  19  34  56  85 114 144 183 232 282 334
#     4   9  21  38  56  78 110 150 194 236 280 331
#     4  11  22  38  60  87 115 150 192 238 289 345
#     4  10  20  37  59  86 116 148 184 233 293 350
#     4   9  17  35  58  79 105 144 183 222 278 343
#     4  11  23  40  57  80 115 156 200 245 285 335
#
# _framework density 20.473396999999999
#
# number of rings (size 3 to 8) (size 9 to 14) (size 15 to 20)
#    0.000    2.500    0.000    4.125    0.000    2.000 
#    0.000   10.625    0.000    0.000    0.000    0.000 
#    0.000    0.000    0.000    0.000    0.000    0.000 
#
# Total GULP energy -198298.817525 kJ/mol
# GULP energy per Si atom -12393.676095 kJ/mol
# Density = 2.042680 g / cm^3
# Si number density = 20.473397 Si / 1000 Ang^3
#
#
#
# Elastic Constant Matrix: (Units=GPa)
#
#
# Indices 1 2 3 4 5 6 
#
# 1 26.6452 -0.2890 -3.2876 0.0016 2.2556 -0.0012
# 2 -0.2890 55.8189 14.6547 0.0012 -1.1953 -0.0006
# 3 -3.2876 14.6547 80.6209 0.0005 -3.4555 -0.0017
# 4 0.0016 0.0012 0.0005 23.4881 -0.0006 -2.2968
# 5 2.2556 -1.1953 -3.4555 -0.0006 36.5284 0.0005
# 6 -0.0012 -0.0006 -0.0017 -2.2968 0.0005 27.3392
#
#
#
# Elastic Compliance Matrix: (Units=1/GPa)
#
#
# Indices 1 2 3 4 5 6 
#
# 1 0.037899 -0.000244 0.001495 -0.000002 -0.002207 0.000002
# 2 -0.000244 0.018818 -0.003417 -0.000001 0.000308 0.000000
# 3 0.001495 -0.003417 0.013130 0.000000 0.001038 0.000001
# 4 -0.000002 -0.000001 0.000000 0.042927 0.000001 0.003606
# 5 -0.002207 0.000308 0.001038 0.000001 0.027620 -0.000001
# 6 0.000002 0.000000 0.000001 0.003606 -0.000001 0.036880
#
#
# Mechanical properties :
#
#
# Convention : Reuss Voigt Hill
#
# Bulk Modulus (GPa) = 15.26360 20.58236 17.92298
# Shear Modulus (GPa) = 24.57666 27.60493 26.09079
#
# Velocity S-wave (km/s) = 3.46847 3.67595 3.57371
# Velocity P-wave (km/s) = 4.84890 5.30017 5.07955
#
# Compressibility (1/GPa) = 0.06551536
#
# Stress axis : x y z
#
# Youngs Moduli (GPa) = 26.38602 53.14179 76.15934
#
# Poissons Ratio (x) = 0.01294 -0.11387
# Poissons Ratio (y) = 0.00643 0.26026
# Poissons Ratio (z) = -0.03945 0.18160
#
# Static dielectric constant tensor:
#      x y z
#    x 3.497630 0.000000 -0.032250 
#    y 0.000000 3.478030 0.000000 
#    z -0.032250 0.000000 4.220090 
# 
# 
# High freq. dielectric constant tensor:
#      x y z
#    x 1.790470 0.000000 -0.002280 
#    y 0.000000 1.778240 0.000000 
#    z -0.002280 0.000000 1.807590 
# 
# From -- ./inp_files/28334.got.cif
#   From: 2010.03.12/outbox.cif.g09.slc.cpg/sg8_15_cif.got.tgz:28334.got - 2010.03.31 10:45:26.
