data_PCOD8053876
_publ_section_title
;
Structure prediction by ZEFSAII (Michael W. Deem and Ramdas Pophale) SiO2 
 PCOD8053876
Probable space group: C M
;
_chemical_formula_sum "Si O2"
_cell_formula_units_Z 32
_cell_length_a 15.652440
_cell_length_b 17.270181
_cell_length_c 11.867850
_cell_angle_alpha 90.000000
_cell_angle_beta 27.173750
_cell_angle_gamma 90.000000
_cell_volume 1465.118871
_symmetry_space_group_name_H-M "C M"
_symmetry_group_IT_number 8
_symmetry_cell_setting 'monoclinic'
loop_
_space_group_symop_operation_xyz
x,y,z
x,-y,z
1/2+x,1/2+y,z
1/2+x,1/2-y,z
loop_
_atom_site_type_symbol
_atom_site_label
_atom_site_fract_x
_atom_site_fract_y
_atom_site_fract_z
Si Si1 0.109460 0.586838 0.398220
Si Si2 0.103879 0.150873 0.698905
Si Si3 0.565348 0.677466 0.190344
Si Si4 0.494092 0.412278 0.051965
Si Si5 0.703042 0.153702 0.065769
Si Si6 0.896450 0.586817 0.861248
Si Si7 0.973151 0.590365 0.147600
Si Si8 0.642466 0.176378 0.734979
O O1 0.144926 0.500000 0.311126
O O2 0.282744 0.612709 0.272205
O O3 0.086687 0.642728 0.318210
O O4 0.925769 0.590464 0.691249
O O5 0.285257 0.132937 0.411564
O O6 0.091024 0.235547 0.769067
O O7 0.109263 0.093250 0.799560
O O8 0.922900 0.140386 0.830740
O O9 0.567337 0.644951 0.061604
O O10 0.648677 0.762902 0.081748
O O11 0.365413 0.670300 0.484490
O O12 0.701858 0.629852 0.113606
O O13 0.507609 0.500000 0.081934
O O14 0.633406 0.091951 0.055147
O O15 0.880550 0.500000 0.925057
O O16 0.073962 0.625617 0.710888
O O17 0.936968 0.500000 0.157415
O O18 0.040773 0.641972 0.963573
#
# Coordination Sequence:
#
# PCOD8053876 Si02
#       8
#     4   4   4   4   4   4   4   4
#     4   9  20  40  68  98 134 172 223 292 347 401
#     4  11  25  47  73 101 140 191 242 293 357 424
#     4  12  24  42  68 107 138 187 235 294 358 426
#     4  10  21  40  70 101 135 174 230 293 347 410
#     4  11  24  44  70 105 141 184 238 293 353 430
#     4  11  24  42  69 103 139 183 236 297 357 416
#     4  12  28  47  74 108 150 193 237 296 364 436
#     4  12  26  48  70 101 147 190 239 290 357 435
#
# _framework density 21.841232000000002
#
# number of rings (size 3 to 8) (size 9 to 14) (size 15 to 20)
#    0.000    1.000    3.750    2.250    1.750    5.000 
#    0.000    0.000    0.000    0.000    0.000    0.000 
#    0.000    0.000    0.000    0.000    0.000    0.000 
#
# Total GULP energy -198394.548879 kJ/mol
# GULP energy per Si atom -12399.659305 kJ/mol
# Density = 2.179152 g / cm^3
# Si number density = 21.841232 Si / 1000 Ang^3
#
#
#
# Elastic Constant Matrix: (Units=GPa)
#
#
# Indices 1 2 3 4 5 6 
#
# 1 93.6477 38.6734 34.4859 -0.0119 5.1851 0.0068
# 2 38.6734 97.7753 18.0015 0.0034 -1.4984 0.0053
# 3 34.4859 18.0015 112.5875 -0.0112 4.6362 0.0147
# 4 -0.0119 0.0034 -0.0112 26.1821 0.0164 6.4634
# 5 5.1851 -1.4984 4.6362 0.0164 32.0801 -0.0105
# 6 0.0068 0.0053 0.0147 6.4634 -0.0105 40.1484
#
#
#
# Elastic Compliance Matrix: (Units=1/GPa)
#
#
# Indices 1 2 3 4 5 6 
#
# 1 0.014115 -0.004980 -0.003444 0.000007 -0.002016 -0.000002
# 2 -0.004980 0.012312 -0.000503 -0.000005 0.001453 0.000001
# 3 -0.003444 -0.000503 0.010055 0.000004 -0.000920 -0.000004
# 4 0.000007 -0.000005 0.000004 0.039775 -0.000025 -0.006403
# 5 -0.002016 0.001453 -0.000920 -0.000025 0.031699 0.000013
# 6 -0.000002 0.000001 -0.000004 -0.006403 0.000013 0.025938
#
#
# Mechanical properties :
#
#
# Convention : Reuss Voigt Hill
#
# Bulk Modulus (GPa) = 53.68200 54.03688 53.85944
# Shear Modulus (GPa) = 31.65418 33.87211 32.76314
#
# Velocity S-wave (km/s) = 3.81108 3.94233 3.87726
# Velocity P-wave (km/s) = 6.63305 6.74664 6.69009
#
# Compressibility (1/GPa) = 0.01862822
#
# Stress axis : x y z
#
# Youngs Moduli (GPa) = 70.84814 81.22139 99.45040
#
# Poissons Ratio (x) = 0.40445 0.34252
# Poissons Ratio (y) = 0.35280 0.05003
# Poissons Ratio (z) = 0.24401 0.04086
#
# Static dielectric constant tensor:
#      x y z
#    x 3.956280 -0.000020 -0.124290 
#    y -0.000020 3.990760 0.000050 
#    z -0.124290 0.000050 3.907030 
# 
# 
# High freq. dielectric constant tensor:
#      x y z
#    x 1.862880 0.000000 -0.010430 
#    y 0.000000 1.865690 0.000000 
#    z -0.010430 0.000000 1.857250 
# 
# From -- ./inp_files/22382.got.cif
#   From: 2010.03.12/outbox.cif.g09.slc.cpg/sg8_12_cif.got.tgz:22382.got - 2010.03.31 10:45:26.
