data_PCOD8053548
_publ_section_title
;
Structure prediction by ZEFSAII (Michael W. Deem and Ramdas Pophale) SiO2 
 PCOD8053548
Probable space group: C M
;
_chemical_formula_sum "Si O2"
_cell_formula_units_Z 28
_cell_length_a 18.508845
_cell_length_b 16.445067
_cell_length_c 4.886371
_cell_angle_alpha 90.000000
_cell_angle_beta 60.404502
_cell_angle_gamma 90.000000
_cell_volume 1293.265943
_symmetry_space_group_name_H-M "C M"
_symmetry_group_IT_number 8
_symmetry_cell_setting 'monoclinic'
loop_
_space_group_symop_operation_xyz
x,y,z
x,-y,z
1/2+x,1/2+y,z
1/2+x,1/2-y,z
loop_
_atom_site_type_symbol
_atom_site_label
_atom_site_fract_x
_atom_site_fract_y
_atom_site_fract_z
Si Si1 0.456730 0.500000 0.994990
Si Si2 0.472473 0.908488 0.479618
Si Si3 0.345479 0.500000 0.696086
Si Si4 0.746671 0.739164 0.345493
Si Si5 0.063317 0.252871 0.464469
Si Si6 0.859075 0.408367 0.199119
Si Si7 0.490513 0.672597 0.102365
Si Si8 0.811677 0.174803 0.715107
O O1 0.428326 0.500000 0.731263
O O2 0.372514 0.500000 0.329155
O O3 0.509200 0.580291 0.970815
O O4 0.546847 0.847029 0.417396
O O5 0.433463 0.881297 0.263039
O O6 0.510119 0.000000 0.397634
O O7 0.395315 0.904680 0.828665
O O8 0.292266 0.581692 0.842010
O O9 0.654286 0.737206 0.407401
O O10 0.779230 0.650140 0.372118
O O11 0.744316 0.795904 0.619623
O O12 0.808640 0.773338 0.997701
O O13 0.057628 0.197391 0.204210
O O14 0.996422 0.227832 0.820428
O O15 0.829598 0.500000 0.328302
O O16 0.401063 0.684817 0.407366
#
# Coordination Sequence:
#
# PCOD8053548 Si02
#       8
#     2   4   2   4   4   4   4   4
#     4  10  20  36  60  92 118 148 207 252 293 358
#     4  10  21  39  63  88 115 157 212 258 295 359
#     4  10  20  36  60  92 118 148 207 252 293 358
#     4  12  24  39  60  93 129 160 203 255 326 373
#     4  12  24  39  60  93 129 160 203 255 326 373
#     4  10  21  39  63  88 115 157 212 258 295 359
#     4  11  22  40  64  89 120 165 209 252 295 366
#     4  11  22  40  64  89 120 165 209 252 295 366
#
# _framework density 21.650613
#
# number of rings (size 3 to 8) (size 9 to 14) (size 15 to 20)
#    0.000    1.143    0.000    9.429    0.000    0.000 
#    5.143    0.000    0.000    0.000    0.000    0.000 
#    0.000    0.000    0.000    0.000    0.000    0.000 
#
# Total GULP energy -173625.303904 kJ/mol
# GULP energy per Si atom -12401.807422 kJ/mol
# Density = 2.160134 g / cm^3
# Si number density = 21.650613 Si / 1000 Ang^3
#
#
#
# Elastic Constant Matrix: (Units=GPa)
#
#
# Indices 1 2 3 4 5 6 
#
# 1 99.2281 61.1550 1.9114 0.0000 14.5370 0.0000
# 2 61.1550 145.1958 27.3991 0.0000 8.5718 0.0000
# 3 1.9114 27.3991 56.6605 0.0000 19.2166 0.0000
# 4 0.0000 0.0000 0.0000 23.2097 0.0000 11.5626
# 5 14.5370 8.5718 19.2166 0.0000 37.3285 0.0000
# 6 0.0000 0.0000 0.0000 11.5626 0.0000 32.9340
#
#
#
# Elastic Compliance Matrix: (Units=1/GPa)
#
#
# Indices 1 2 3 4 5 6 
#
# 1 0.015359 -0.007050 0.005295 0.000000 -0.007088 0.000000
# 2 -0.007050 0.010816 -0.006156 0.000000 0.003431 0.000000
# 3 0.005295 -0.006156 0.025039 0.000000 -0.013538 0.000000
# 4 0.000000 0.000000 0.000000 0.052219 0.000000 -0.018333
# 5 -0.007088 0.003431 -0.013538 0.000000 0.035731 0.000000
# 6 0.000000 0.000000 0.000000 -0.018333 0.000000 0.036800
#
#
# Mechanical properties :
#
#
# Convention : Reuss Voigt Hill
#
# Bulk Modulus (GPa) = 28.25495 53.55727 40.90611
# Shear Modulus (GPa) = 24.56010 32.73569 28.64790
#
# Velocity S-wave (km/s) = 3.37171 3.89266 3.64152
# Velocity P-wave (km/s) = 5.31382 6.70780 6.05108
#
# Compressibility (1/GPa) = 0.03539202
#
# Stress axis : x y z
#
# Youngs Moduli (GPa) = 65.10794 92.45852 39.93821
#
# Poissons Ratio (x) = 0.65182 -0.21147
# Poissons Ratio (y) = 0.45900 0.24585
# Poissons Ratio (z) = -0.34474 0.56916
#
# Static dielectric constant tensor:
#      x y z
#    x 3.671700 0.000000 0.477270 
#    y 0.000000 4.367930 0.000000 
#    z 0.477270 0.000000 3.905600 
# 
# 
# High freq. dielectric constant tensor:
#      x y z
#    x 1.833310 0.000000 0.040570 
#    y 0.000000 1.867820 0.000000 
#    z 0.040570 0.000000 1.843650 
# 
# From -- ./inp_files/4945.got.cif
#   From: 2010.03.12/outbox.cif.g09.slc.cpg/sg8_3_cif.got.tgz:4945.got - 2010.03.31 10:45:26.
