data_PCOD8053572
_publ_section_title
;
Structure prediction by ZEFSAII (Michael W. Deem and Ramdas Pophale) SiO2 
 PCOD8053572
Probable space group: C M
;
_chemical_formula_sum "Si O2"
_cell_formula_units_Z 24
_cell_length_a 18.474187
_cell_length_b 9.023182
_cell_length_c 20.141430
_cell_angle_alpha 90.000000
_cell_angle_beta 22.715015
_cell_angle_gamma 90.000000
_cell_volume 1296.489214
_symmetry_space_group_name_H-M "C M"
_symmetry_group_IT_number 8
_symmetry_cell_setting 'monoclinic'
loop_
_space_group_symop_operation_xyz
x,y,z
x,-y,z
1/2+x,1/2+y,z
1/2+x,1/2-y,z
loop_
_atom_site_type_symbol
_atom_site_label
_atom_site_fract_x
_atom_site_fract_y
_atom_site_fract_z
Si Si1 0.525140 0.672389 0.446950
Si Si2 0.473920 0.324495 0.747492
Si Si3 0.331412 0.336350 0.250862
Si Si4 0.456502 0.164736 0.630050
Si Si5 0.366970 0.673109 0.437250
Si Si6 0.140052 0.825560 0.088421
O O1 0.516674 0.500000 0.469395
O O2 0.743567 0.726712 0.269476
O O3 0.396703 0.756348 0.611039
O O4 0.451508 0.712704 0.437185
O O5 0.472009 0.500000 0.747177
O O6 0.394127 0.261130 0.745563
O O7 0.681983 0.269387 0.585497
O O8 0.334674 0.264558 0.922682
O O9 0.357104 0.500000 0.197417
O O10 0.524234 0.279791 0.119941
O O11 0.183886 0.347050 0.437506
O O12 0.366211 0.000000 0.710838
O O13 0.315558 0.500000 0.474521
O O14 0.524562 0.720977 0.251194
O O15 0.183283 0.000000 0.052553
#
# Coordination Sequence:
#
# PCOD8053572 Si02
#       6
#     4   4   4   4   4   4
#     4   9  17  30  56  86 110 142 182 227 276 324
#     4  12  24  35  55  86 114 144 186 235 278 321
#     4   8  16  32  56  79 103 142 184 219 268 326
#     4   9  17  34  56  78 106 142 182 220 270 328
#     4  10  20  38  60  81 112 152 185 221 276 335
#     4  10  20  37  59  80 107 148 191 226 272 334
#
# _framework density 18.51153
#
# number of rings (size 3 to 8) (size 9 to 14) (size 15 to 20)
#    1.000    1.333    1.667    2.000    0.000    2.667 
#    0.000    1.667    0.000    6.000    0.000    0.000 
#    0.000    0.000    0.000    0.000    0.000    0.000 
#
# Total GULP energy -148695.750172 kJ/mol
# GULP energy per Si atom -12391.312514 kJ/mol
# Density = 1.846940 g / cm^3
# Si number density = 18.511530 Si / 1000 Ang^3
#
#
#
# Elastic Constant Matrix: (Units=GPa)
#
#
# Indices 1 2 3 4 5 6 
#
# 1 105.8893 69.9415 50.0002 -0.0081 15.1114 0.0011
# 2 69.9415 127.2226 60.9709 0.0152 7.0285 -0.0026
# 3 50.0002 60.9709 107.3748 0.0177 5.2319 -0.0033
# 4 -0.0081 0.0152 0.0177 19.2736 0.0014 -1.4071
# 5 15.1114 7.0285 5.2319 0.0014 12.2900 -0.0015
# 6 0.0011 -0.0026 -0.0033 -1.4071 -0.0015 29.4669
#
#
#
# Elastic Compliance Matrix: (Units=1/GPa)
#
#
# Indices 1 2 3 4 5 6 
#
# 1 0.018509 -0.007563 -0.003499 0.000018 -0.016944 -0.000002
# 2 -0.007563 0.014051 -0.004614 -0.000010 0.003228 0.000001
# 3 -0.003499 -0.004614 0.013505 -0.000010 0.001192 0.000001
# 4 0.000018 -0.000010 -0.000010 0.052066 -0.000018 0.002486
# 5 -0.016944 0.003228 0.001192 -0.000018 0.099847 0.000005
# 6 -0.000002 0.000001 0.000001 0.002486 0.000005 0.034055
#
#
# Mechanical properties :
#
#
# Convention : Reuss Voigt Hill
#
# Bulk Modulus (GPa) = 67.96770 78.03466 73.00118
# Shear Modulus (GPa) = 18.63659 22.84439 20.74049
#
# Velocity S-wave (km/s) = 3.17638 3.51673 3.35088
# Velocity P-wave (km/s) = 7.08863 7.66394 7.38189
#
# Compressibility (1/GPa) = 0.01471287
#
# Stress axis : x y z
#
# Youngs Moduli (GPa) = 54.02653 71.16989 74.04889
#
# Poissons Ratio (x) = 0.53823 0.25911
# Poissons Ratio (y) = 0.40858 0.34168
# Poissons Ratio (z) = 0.18905 0.32839
#
# Static dielectric constant tensor:
#      x y z
#    x 3.268570 0.000000 0.058740 
#    y 0.000000 3.298100 0.000010 
#    z 0.058740 0.000010 3.209440 
# 
# 
# High freq. dielectric constant tensor:
#      x y z
#    x 1.704330 0.000000 0.004320 
#    y 0.000000 1.716280 0.000000 
#    z 0.004320 0.000000 1.698460 
# 
# From -- ./inp_files/15499.got.cif
#   From: 2010.03.12/outbox.cif.g09.slc.cpg/sg8_8_cif.got.tgz:15499.got - 2010.03.31 10:45:26.
