data_PCOD8053731
_publ_section_title
;
Structure prediction by ZEFSAII (Michael W. Deem and Ramdas Pophale) SiO2 
 PCOD8053731
Probable space group: C M
;
_chemical_formula_sum "Si O2"
_cell_formula_units_Z 32
_cell_length_a 22.063628
_cell_length_b 8.965796
_cell_length_c 11.087104
_cell_angle_alpha 90.000000
_cell_angle_beta 130.487695
_cell_angle_gamma 90.000000
_cell_volume 1668.049980
_symmetry_space_group_name_H-M "C M"
_symmetry_group_IT_number 8
_symmetry_cell_setting 'monoclinic'
loop_
_space_group_symop_operation_xyz
x,y,z
x,-y,z
1/2+x,1/2+y,z
1/2+x,1/2-y,z
loop_
_atom_site_type_symbol
_atom_site_label
_atom_site_fract_x
_atom_site_fract_y
_atom_site_fract_z
Si Si1 0.940860 0.174338 0.727160
Si Si2 0.023590 0.172133 0.176583
Si Si3 0.734650 0.326084 0.102572
Si Si4 0.089261 0.323645 0.034466
Si Si5 0.545936 0.673793 0.481385
Si Si6 0.355922 0.670764 0.862965
Si Si7 0.904648 0.326751 0.435790
Si Si8 0.213195 0.824498 0.803044
O O1 0.879535 0.206495 0.755882
O O2 0.901511 0.237773 0.556322
O O3 0.958270 0.000000 0.734515
O O4 0.025260 0.252483 0.860761
O O5 0.074724 0.273897 0.153150
O O6 0.053538 0.203855 0.349185
O O7 0.035753 0.000000 0.153501
O O8 0.930097 0.212612 0.045257
O O9 0.711736 0.500000 0.082092
O O10 0.676611 0.230711 0.111175
O O11 0.823700 0.295062 0.260520
O O12 0.727671 0.266164 0.956874
O O13 0.083549 0.500000 0.017792
O O14 0.529148 0.500000 0.486422
O O15 0.475476 0.771510 0.443130
O O16 0.627062 0.730418 0.647434
O O17 0.331724 0.500000 0.848241
O O18 0.280054 0.767177 0.798663
O O19 0.916456 0.500000 0.479653
O O20 0.218150 0.000000 0.804614
#
# Coordination Sequence:
#
# PCOD8053731 Si02
#       8
#     4   4   4   4   4   4   4   4
#     4  10  21  39  60  82 114 152 186 228 287 345
#     4   9  19  37  58  81 112 150 188 227 279 337
#     4  10  22  39  56  79 116 154 186 229 286 340
#     4  11  22  36  59  88 113 145 191 236 279 332
#     4  10  21  37  58  82 110 149 192 232 282 341
#     4   9  19  35  56  80 107 142 180 223 276 331
#     4  11  23  37  57  85 113 147 193 241 284 329
#     4  10  21  36  56  81 109 145 184 226 281 337
#
# _framework density 19.184078
#
# number of rings (size 3 to 8) (size 9 to 14) (size 15 to 20)
#    0.000    2.000    0.000    4.125    0.000    7.000 
#    0.000    3.750    0.000    0.000    0.000    0.000 
#    0.000    0.000    0.000    0.000    0.000    0.000 
#
# Total GULP energy -198479.150712 kJ/mol
# GULP energy per Si atom -12404.946919 kJ/mol
# Density = 1.914041 g / cm^3
# Si number density = 19.184078 Si / 1000 Ang^3
#
#
#
# Elastic Constant Matrix: (Units=GPa)
#
#
# Indices 1 2 3 4 5 6 
#
# 1 122.2587 60.5158 66.9337 0.0000 14.9117 0.0000
# 2 60.5158 89.5442 57.8649 0.0000 6.3451 0.0000
# 3 66.9337 57.8649 141.5795 0.0000 -4.4841 0.0000
# 4 0.0000 0.0000 0.0000 27.8716 0.0000 1.3598
# 5 14.9117 6.3451 -4.4841 0.0000 29.8528 0.0000
# 6 0.0000 0.0000 0.0000 1.3598 0.0000 37.3200
#
#
#
# Elastic Compliance Matrix: (Units=1/GPa)
#
#
# Indices 1 2 3 4 5 6 
#
# 1 0.014681 -0.006568 -0.004466 0.000000 -0.006608 0.000000
# 2 -0.006568 0.018651 -0.004561 0.000000 -0.001369 0.000000
# 3 -0.004466 -0.004561 0.011193 0.000000 0.004881 0.000000
# 4 0.000000 0.000000 0.000000 0.035943 0.000000 -0.001310
# 5 -0.006608 -0.001369 0.004881 0.000000 0.037823 0.000000
# 6 0.000000 0.000000 0.000000 -0.001310 0.000000 0.026843
#
#
# Mechanical properties :
#
#
# Convention : Reuss Voigt Hill
#
# Bulk Modulus (GPa) = 74.98533 80.44570 77.71552
# Shear Modulus (GPa) = 27.65980 30.21342 28.93661
#
# Velocity S-wave (km/s) = 3.80124 3.97283 3.88798
# Velocity P-wave (km/s) = 7.64448 7.94161 7.79446
#
# Compressibility (1/GPa) = 0.01333594
#
# Stress axis : x y z
#
# Youngs Moduli (GPa) = 68.11454 53.61725 89.34031
#
# Poissons Ratio (x) = 0.35214 0.39897
# Poissons Ratio (y) = 0.44736 0.40749
# Poissons Ratio (z) = 0.30418 0.24455
#
# Static dielectric constant tensor:
#      x y z
#    x 3.455060 0.000000 -0.102270 
#    y 0.000000 3.463680 0.000000 
#    z -0.102270 0.000000 3.695740 
# 
# 
# High freq. dielectric constant tensor:
#      x y z
#    x 1.752690 0.000000 -0.004200 
#    y 0.000000 1.742610 0.000000 
#    z -0.004200 0.000000 1.753540 
# 
# From -- ./inp_files/23907.got.cif
#   From: 2010.03.12/outbox.cif.g09.slc.cpg/sg8_12_cif.got.tgz:23907.got - 2010.03.31 10:45:26.
