data_PCOD8053414
_publ_section_title
;
Structure prediction by ZEFSAII (Michael W. Deem and Ramdas Pophale) SiO2 
 PCOD8053414
Probable space group: C M
;
_chemical_formula_sum "Si O2"
_cell_formula_units_Z 32
_cell_length_a 33.248365
_cell_length_b 9.369125
_cell_length_c 12.563388
_cell_angle_alpha 90.000000
_cell_angle_beta 26.129504
_cell_angle_gamma 90.000000
_cell_volume 1723.554147
_symmetry_space_group_name_H-M "C M"
_symmetry_group_IT_number 8
_symmetry_cell_setting 'monoclinic'
loop_
_space_group_symop_operation_xyz
x,y,z
x,-y,z
1/2+x,1/2+y,z
1/2+x,1/2-y,z
loop_
_atom_site_type_symbol
_atom_site_label
_atom_site_fract_x
_atom_site_fract_y
_atom_site_fract_z
Si Si1 0.496230 0.667579 0.330000
Si Si2 0.803208 0.664356 0.507491
Si Si3 0.302388 0.331979 0.713505
Si Si4 0.049095 0.331447 0.611229
Si Si5 0.245941 0.668428 0.075217
Si Si6 0.501310 0.832331 0.964017
Si Si7 0.118592 0.835739 0.850287
Si Si8 0.442194 0.329911 0.685156
O O1 0.487725 0.500000 0.361698
O O2 0.405968 0.721352 0.484116
O O3 0.499140 0.723528 0.445127
O O4 0.581297 0.715146 0.055146
O O5 0.810676 0.500000 0.523564
O O6 0.765767 0.751154 0.697283
O O7 0.728082 0.683512 0.592433
O O8 0.900238 0.722411 0.235091
O O9 0.294791 0.500000 0.711045
O O10 0.245245 0.283472 0.953146
O O11 0.042004 0.500000 0.606185
O O12 0.153164 0.275294 0.349863
O O13 0.018229 0.290185 0.802402
O O14 0.981766 0.250108 0.692475
O O15 0.250187 0.500000 0.068193
O O16 0.336721 0.721575 0.921137
O O17 0.577989 0.757506 0.852564
O O18 0.511208 0.000000 0.958445
O O19 0.090407 0.000000 0.897660
O O20 0.449195 0.500000 0.685695
#
# Coordination Sequence:
#
# PCOD8053414 Si02
#       8
#     4   4   4   4   4   4   4   4
#     4   8  15  30  52  76 104 134 163 209 262 305
#     4  10  21  34  51  78 108 137 169 214 268 308
#     4   9  16  31  55  78 103 135 173 213 255 310
#     4  10  21  37  55  75 106 144 176 212 262 310
#     4   8  17  34  54  76 104 139 173 210 259 311
#     4  10  22  39  53  73 109 144 175 216 260 305
#     4  10  20  35  55  77 103 139 178 214 259 312
#     4   9  18  34  55  79 105 134 175 218 257 307
#
# _framework density 18.566285000000001
#
# number of rings (size 3 to 8) (size 9 to 14) (size 15 to 20)
#    0.000    2.750    1.250    1.500    1.750    2.000 
#    0.000    3.750    0.000    0.000    0.000    0.000 
#    0.000    0.000    0.000    0.000    0.000    0.000 
#
# Total GULP energy -198321.045488 kJ/mol
# GULP energy per Si atom -12395.065343 kJ/mol
# Density = 1.852403 g / cm^3
# Si number density = 18.566285 Si / 1000 Ang^3
#
#
#
# Elastic Constant Matrix: (Units=GPa)
#
#
# Indices 1 2 3 4 5 6 
#
# 1 146.5691 50.7534 67.0359 0.0000 4.3989 0.0000
# 2 50.7534 38.2491 30.5259 0.0000 3.2587 0.0000
# 3 67.0359 30.5259 98.0017 0.0000 2.7319 0.0000
# 4 0.0000 0.0000 0.0000 18.4547 0.0000 -1.0791
# 5 4.3989 3.2587 2.7319 0.0000 26.3105 0.0000
# 6 0.0000 0.0000 0.0000 -1.0791 0.0000 35.3805
#
#
#
# Elastic Compliance Matrix: (Units=1/GPa)
#
#
# Indices 1 2 3 4 5 6 
#
# 1 0.014354 -0.014918 -0.005172 0.000000 -0.000015 0.000000
# 2 -0.014918 0.050568 -0.005457 0.000000 -0.003202 0.000000
# 3 -0.005172 -0.005457 0.015443 0.000000 -0.000063 0.000000
# 4 0.000000 0.000000 0.000000 0.054283 0.000000 0.001656
# 5 -0.000015 -0.003202 -0.000063 0.000000 0.038413 0.000000
# 6 0.000000 0.000000 0.000000 0.001656 0.000000 0.028315
#
#
# Mechanical properties :
#
#
# Convention : Reuss Voigt Hill
#
# Bulk Modulus (GPa) = 34.16349 64.38335 49.27342
# Shear Modulus (GPa) = 19.06737 24.99612 22.03175
#
# Velocity S-wave (km/s) = 3.20814 3.67320 3.44852
# Velocity P-wave (km/s) = 5.67130 7.26242 6.51561
#
# Compressibility (1/GPa) = 0.02927102
#
# Stress axis : x y z
#
# Youngs Moduli (GPa) = 69.66521 19.77536 64.75451
#
# Poissons Ratio (x) = 0.29502 0.33488
# Poissons Ratio (y) = 1.03930 0.35338
# Poissons Ratio (z) = 0.36028 0.10792
#
# Static dielectric constant tensor:
#      x y z
#    x 3.315820 0.000000 0.035420 
#    y 0.000000 3.046670 0.000000 
#    z 0.035420 0.000000 3.849840 
# 
# 
# High freq. dielectric constant tensor:
#      x y z
#    x 1.719360 0.000000 -0.002430 
#    y 0.000000 1.686320 0.000000 
#    z -0.002430 0.000000 1.727040 
# 
# From -- ./inp_files/24790.got.cif
#   From: 2010.03.12/outbox.cif.g09.slc.cpg/sg8_13_cif.got.tgz:24790.got - 2010.03.31 10:45:26.
