data_PCOD8053510
_publ_section_title
;
Structure prediction by ZEFSAII (Michael W. Deem and Ramdas Pophale) SiO2 
 PCOD8053510
Probable space group: C M
;
_chemical_formula_sum "Si O2"
_cell_formula_units_Z 32
_cell_length_a 19.870955
_cell_length_b 8.468495
_cell_length_c 12.137665
_cell_angle_alpha 90.000000
_cell_angle_beta 54.109838
_cell_angle_gamma 90.000000
_cell_volume 1654.708268
_symmetry_space_group_name_H-M "C M"
_symmetry_group_IT_number 8
_symmetry_cell_setting 'monoclinic'
loop_
_space_group_symop_operation_xyz
x,y,z
x,-y,z
1/2+x,1/2+y,z
1/2+x,1/2-y,z
loop_
_atom_site_type_symbol
_atom_site_label
_atom_site_fract_x
_atom_site_fract_y
_atom_site_fract_z
Si Si1 0.517510 0.313823 0.791660
Si Si2 0.758386 0.817777 0.297871
Si Si3 0.607476 0.685291 0.324507
Si Si4 0.932856 0.681859 0.084778
Si Si5 0.487453 0.183223 0.272543
Si Si6 0.853332 0.182822 0.557199
Si Si7 0.469119 0.815667 0.615469
Si Si8 0.706832 0.683046 0.576752
O O1 0.506297 0.500000 0.812087
O O2 0.460688 0.247452 0.747595
O O3 0.611866 0.263221 0.676652
O O4 0.490856 0.232166 0.929452
O O5 0.694020 0.773030 0.263431
O O6 0.850096 0.786138 0.164361
O O7 0.740429 0.713768 0.422345
O O8 0.749007 0.000000 0.339148
O O9 0.623624 0.500000 0.304101
O O10 0.572186 0.745983 0.241462
O O11 0.542630 0.722140 0.483923
O O12 0.906462 0.500000 0.099540
O O13 0.987351 0.710210 0.142155
O O14 0.408335 0.273248 0.398239
O O15 0.480397 0.000000 0.312200
O O16 0.882626 0.281689 0.635789
O O17 0.758253 0.221372 0.619422
O O18 0.863990 0.000000 0.574688
O O19 0.489749 0.000000 0.594626
O O20 0.717898 0.500000 0.592433
#
# Coordination Sequence:
#
# PCOD8053510 Si02
#       8
#     4   4   4   4   4   4   4   4
#     4  11  24  41  62  87 122 160 200 246 299 360
#     4  12  23  37  61  90 120 155 202 249 297 351
#     4  11  21  35  58  88 121 153 196 249 301 350
#     4  11  24  41  62  87 123 161 198 244 300 360
#     4  10  20  36  58  85 119 156 196 243 298 355
#     4  11  21  34  58  89 120 153 197 248 299 350
#     4  11  21  36  59  86 120 157 199 245 300 355
#     4  11  22  38  60  88 121 155 198 250 300 349
#
# _framework density 19.338757000000001
#
# number of rings (size 3 to 8) (size 9 to 14) (size 15 to 20)
#    0.000    1.000    2.500    7.500    0.000    3.000 
#    0.000    1.250    0.000    3.000    0.000    0.000 
#    0.000    0.000    0.000    0.000    0.000    0.000 
#
# Total GULP energy -198502.718988 kJ/mol
# GULP energy per Si atom -12406.419937 kJ/mol
# Density = 1.929474 g / cm^3
# Si number density = 19.338757 Si / 1000 Ang^3
#
#
#
# Elastic Constant Matrix: (Units=GPa)
#
#
# Indices 1 2 3 4 5 6 
#
# 1 123.2559 27.9761 39.9171 0.0000 13.5169 0.0000
# 2 27.9761 88.6386 18.0592 0.0000 6.1298 0.0000
# 3 39.9171 18.0592 78.7167 0.0000 16.3056 0.0000
# 4 0.0000 0.0000 0.0000 28.8011 0.0000 2.2114
# 5 13.5169 6.1298 16.3056 0.0000 28.1293 0.0000
# 6 0.0000 0.0000 0.0000 2.2114 0.0000 34.9918
#
#
#
# Elastic Compliance Matrix: (Units=1/GPa)
#
#
# Indices 1 2 3 4 5 6 
#
# 1 0.010212 -0.002219 -0.004265 0.000000 -0.001951 0.000000
# 2 -0.002219 0.012350 -0.001558 0.000000 -0.000721 0.000000
# 3 -0.004265 -0.001558 0.016739 0.000000 -0.007314 0.000000
# 4 0.000000 0.000000 0.000000 0.034890 0.000000 -0.002205
# 5 -0.001951 -0.000721 -0.007314 0.000000 0.040885 0.000000
# 6 0.000000 0.000000 0.000000 -0.002205 0.000000 0.028717
#
#
# Mechanical properties :
#
#
# Convention : Reuss Voigt Hill
#
# Bulk Modulus (GPa) = 43.07526 51.39065 47.23296
# Shear Modulus (GPa) = 29.82977 32.02835 30.92906
#
# Velocity S-wave (km/s) = 3.93171 4.07403 4.00350
# Velocity P-wave (km/s) = 6.55237 6.98297 6.77109
#
# Compressibility (1/GPa) = 0.02321518
#
# Stress axis : x y z
#
# Youngs Moduli (GPa) = 97.92181 80.97427 59.73973
#
# Poissons Ratio (x) = 0.17970 0.25481
# Poissons Ratio (y) = 0.21731 0.09310
# Poissons Ratio (z) = 0.41767 0.12619
#
# Static dielectric constant tensor:
#      x y z
#    x 3.862160 0.000000 0.085500 
#    y 0.000000 3.614630 0.000000 
#    z 0.085500 0.000000 3.205580 
# 
# 
# High freq. dielectric constant tensor:
#      x y z
#    x 1.770800 0.000000 0.009790 
#    y 0.000000 1.771080 0.000000 
#    z 0.009790 0.000000 1.714740 
# 
# From -- ./inp_files/23826.got.cif
#   From: 2010.03.12/outbox.cif.g09.slc.cpg/sg8_12_cif.got.tgz:23826.got - 2010.03.31 10:45:26.
