data_PCOD8053804
_publ_section_title
;
Structure prediction by ZEFSAII (Michael W. Deem and Ramdas Pophale) SiO2 
 PCOD8053804
Probable space group: C M
;
_chemical_formula_sum "Si O2"
_cell_formula_units_Z 22
_cell_length_a 25.165239
_cell_length_b 9.899156
_cell_length_c 12.719675
_cell_angle_alpha 90.000000
_cell_angle_beta 22.425011
_cell_angle_gamma 90.000000
_cell_volume 1208.760062
_symmetry_space_group_name_H-M "C M"
_symmetry_group_IT_number 8
_symmetry_cell_setting 'monoclinic'
loop_
_space_group_symop_operation_xyz
x,y,z
x,-y,z
1/2+x,1/2+y,z
1/2+x,1/2-y,z
loop_
_atom_site_type_symbol
_atom_site_label
_atom_site_fract_x
_atom_site_fract_y
_atom_site_fract_z
Si Si1 0.849898 0.000000 0.031028
Si Si2 0.034191 0.758033 0.339352
Si Si3 0.123382 0.343658 0.785112
Si Si4 0.377639 0.351558 0.180587
Si Si5 0.460072 0.500000 0.612201
Si Si6 0.744099 0.161799 0.788889
Si Si7 0.145899 0.500000 0.228447
O O1 0.865277 0.133818 0.075954
O O2 0.696267 0.000000 0.257916
O O3 0.970830 0.000000 0.719910
O O4 0.899818 0.781430 0.512832
O O5 0.043038 0.623197 0.392339
O O6 0.041153 0.874279 0.414129
O O7 0.161429 0.750368 0.025666
O O8 0.080457 0.500000 0.864359
O O9 0.228810 0.308291 0.498619
O O10 0.190926 0.298803 0.771225
O O11 0.985623 0.259781 0.017045
O O12 0.418414 0.500000 0.153800
O O13 0.292093 0.500000 0.891170
O O14 0.730942 0.000000 0.829283
#
# Coordination Sequence:
#
# PCOD8053804 Si02
#       7
#     2   4   4   4   2   4   2
#     4   8  20  44  59  81 125 155 185 259 309 317
#     4  12  19  41  61  83 125 158 194 241 293 348
#     4  10  21  38  62  88 121 155 199 235 296 355
#     4   9  20  40  61  84 120 155 190 252 290 349
#     4  10  22  41  58  86 120 152 197 250 286 345
#     4  11  22  38  57  90 128 158 185 246 295 345
#     4  10  22  41  57  87 117 153 198 249 287 348
#
# _framework density 18.200468999999998
#
# number of rings (size 3 to 8) (size 9 to 14) (size 15 to 20)
#    1.091    0.727    3.636    1.091    0.000    2.909 
#    3.273    0.000    2.000    0.000    0.000    0.000 
#    0.000    0.000    0.000    0.000    0.000    0.000 
#
# Total GULP energy -136268.538003 kJ/mol
# GULP energy per Si atom -12388.048909 kJ/mol
# Density = 1.815904 g / cm^3
# Si number density = 18.200469 Si / 1000 Ang^3
#
#
#
# Elastic Constant Matrix: (Units=GPa)
#
#
# Indices 1 2 3 4 5 6 
#
# 1 84.0908 20.0455 -7.9775 0.0000 6.8036 0.0000
# 2 20.0455 94.9100 31.4537 0.0000 -0.3010 0.0000
# 3 -7.9775 31.4537 47.2767 0.0000 6.1388 0.0000
# 4 0.0000 0.0000 0.0000 36.8982 0.0000 -1.3312
# 5 6.8036 -0.3010 6.1388 0.0000 30.8047 0.0000
# 6 0.0000 0.0000 0.0000 -1.3312 0.0000 24.0512
#
#
#
# Elastic Compliance Matrix: (Units=1/GPa)
#
#
# Indices 1 2 3 4 5 6 
#
# 1 0.014060 -0.005080 0.006326 0.000000 -0.004416 0.000000
# 2 -0.005080 0.015470 -0.011615 0.000000 0.003588 0.000000
# 3 0.006326 -0.011615 0.030944 0.000000 -0.007677 0.000000
# 4 0.000000 0.000000 0.000000 0.027156 0.000000 0.001503
# 5 -0.004416 0.003588 -0.007677 0.000000 0.035003 0.000000
# 6 0.000000 0.000000 0.000000 0.001503 0.000000 0.041661
#
#
# Mechanical properties :
#
#
# Convention : Reuss Voigt Hill
#
# Bulk Modulus (GPa) = 25.16680 34.81344 29.99012
# Shear Modulus (GPa) = 25.21707 30.53456 27.87581
#
# Velocity S-wave (km/s) = 3.72629 4.10039 3.91781
# Velocity P-wave (km/s) = 5.68957 6.44879 6.08104
#
# Compressibility (1/GPa) = 0.03973489
#
# Stress axis : x y z
#
# Youngs Moduli (GPa) = 71.12276 64.64132 32.31630
#
# Poissons Ratio (x) = 0.32837 -0.20442
# Poissons Ratio (y) = 0.36130 0.37537
# Poissons Ratio (z) = -0.44989 0.75083
#
# Static dielectric constant tensor:
#      x y z
#    x 3.493410 0.000000 0.129170 
#    y 0.000000 3.307570 0.000000 
#    z 0.129170 0.000000 3.135840 
# 
# 
# High freq. dielectric constant tensor:
#      x y z
#    x 1.715740 0.000000 0.009640 
#    y 0.000000 1.694740 0.000000 
#    z 0.009640 0.000000 1.692590 
# 
# From -- ./inp_files/28300.got.cif
#   From: 2010.03.12/outbox.cif.g09.slc.cpg/sg8_15_cif.got.tgz:28300.got - 2010.03.31 10:45:26.
