data_PCOD8053373
_publ_section_title
;
Structure prediction by ZEFSAII (Michael W. Deem and Ramdas Pophale) SiO2 
 PCOD8053373
Probable space group: C M
;
_chemical_formula_sum "Si O2"
_cell_formula_units_Z 32
_cell_length_a 20.722338
_cell_length_b 8.755025
_cell_length_c 25.407050
_cell_angle_alpha 90.000000
_cell_angle_beta 22.099241
_cell_angle_gamma 90.000000
_cell_volume 1734.135455
_symmetry_space_group_name_H-M "C M"
_symmetry_group_IT_number 8
_symmetry_cell_setting 'monoclinic'
loop_
_space_group_symop_operation_xyz
x,y,z
x,-y,z
1/2+x,1/2+y,z
1/2+x,1/2-y,z
loop_
_atom_site_type_symbol
_atom_site_label
_atom_site_fract_x
_atom_site_fract_y
_atom_site_fract_z
Si Si1 0.344580 0.820151 0.328040
Si Si2 0.371283 0.819259 0.036859
Si Si3 0.554693 0.681591 0.467214
Si Si4 0.783924 0.320296 0.491216
Si Si5 0.197469 0.175901 0.060277
Si Si6 0.117150 0.320075 0.306569
Si Si7 0.056584 0.678012 0.745421
Si Si8 0.197088 0.819108 0.743574
O O1 0.203330 0.760427 0.394013
O O2 0.303275 0.756171 0.417481
O O3 0.531833 0.768687 0.167026
O O4 0.344697 0.000000 0.330397
O O5 0.557697 0.744173 0.889811
O O6 0.393846 0.000000 0.023167
O O7 0.255621 0.770985 0.074395
O O8 0.286603 0.754069 0.153447
O O9 0.545767 0.500000 0.470534
O O10 0.592988 0.749257 0.381566
O O11 0.377861 0.746932 0.623686
O O12 0.747250 0.500000 0.520250
O O13 0.622741 0.233093 0.638810
O O14 0.954946 0.276913 0.393489
O O15 0.146087 0.000000 0.099598
O O16 0.352632 0.208711 0.902456
O O17 0.142555 0.500000 0.291910
O O18 0.095873 0.500000 0.725455
O O19 0.155625 0.772601 0.715114
O O20 0.207322 0.000000 0.739378
#
# Coordination Sequence:
#
# PCOD8053373 Si02
#       8
#     4   4   4   4   4   4   4   4
#     4  10  22  39  58  81 112 151 189 228 277 338
#     4  10  20  35  57  86 116 147 186 233 283 334
#     4  11  23  39  58  81 114 154 193 231 280 340
#     4  10  20  35  56  85 114 143 188 235 280 329
#     4   9  19  34  54  82 113 145 182 228 279 331
#     4  11  21  35  58  87 116 145 187 239 283 329
#     4  10  20  34  55  85 115 145 186 233 283 334
#     4  11  21  35  56  83 114 150 189 233 285 333
#
# _framework density 18.452999999999999
#
# number of rings (size 3 to 8) (size 9 to 14) (size 15 to 20)
#    0.000    1.750    2.500    3.375    0.000    4.500 
#    0.000    1.250    0.000    4.500    0.000    0.000 
#    0.000    0.000    0.000    0.000    0.000    0.000 
#
# Total GULP energy -198459.232510 kJ/mol
# GULP energy per Si atom -12403.702032 kJ/mol
# Density = 1.841100 g / cm^3
# Si number density = 18.453000 Si / 1000 Ang^3
#
#
#
# Elastic Constant Matrix: (Units=GPa)
#
#
# Indices 1 2 3 4 5 6 
#
# 1 98.1559 44.5850 63.6026 -0.0067 -6.7099 -0.0040
# 2 44.5850 84.9729 58.4307 0.0025 -2.9619 0.0028
# 3 63.6026 58.4307 157.2884 -0.0261 -1.6545 -0.0058
# 4 -0.0067 0.0025 -0.0261 38.4342 -0.0022 3.4300
# 5 -6.7099 -2.9619 -1.6545 -0.0022 30.2424 0.0003
# 6 -0.0040 0.0028 -0.0058 3.4300 0.0003 24.3695
#
#
#
# Elastic Compliance Matrix: (Units=1/GPa)
#
#
# Indices 1 2 3 4 5 6 
#
# 1 0.015486 -0.005029 -0.004365 0.000000 0.002704 0.000002
# 2 -0.005029 0.017485 -0.004458 -0.000005 0.000353 -0.000003
# 3 -0.004365 -0.004458 0.009770 0.000006 -0.000871 0.000001
# 4 0.000000 -0.000005 0.000006 0.026349 0.000002 -0.003709
# 5 0.002704 0.000353 -0.000871 0.000002 0.033653 0.000000
# 6 0.000002 -0.000003 0.000001 -0.003709 0.000000 0.041557
#
#
# Mechanical properties :
#
#
# Convention : Reuss Voigt Hill
#
# Bulk Modulus (GPa) = 66.50917 74.85043 70.67980
# Shear Modulus (GPa) = 28.24579 30.19580 29.22080
#
# Velocity S-wave (km/s) = 3.91665 4.04959 3.98367
# Velocity P-wave (km/s) = 7.52158 7.90673 7.71656
#
# Compressibility (1/GPa) = 0.01503552
#
# Stress axis : x y z
#
# Youngs Moduli (GPa) = 64.57556 57.19115 102.35563
#
# Poissons Ratio (x) = 0.28764 0.44680
# Poissons Ratio (y) = 0.32478 0.45631
# Poissons Ratio (z) = 0.28188 0.25496
#
# Static dielectric constant tensor:
#      x y z
#    x 3.294840 -0.000010 0.052260 
#    y -0.000010 3.365600 0.000020 
#    z 0.052260 0.000020 3.597960 
# 
# 
# High freq. dielectric constant tensor:
#      x y z
#    x 1.687300 0.000000 0.010040 
#    y 0.000000 1.722220 0.000000 
#    z 0.010040 0.000000 1.731120 
# 
# From -- ./inp_files/32626.got.cif
#   From: 2010.03.12/outbox.cif.g09.slc.cpg/sg8_17_cif.got.tgz:32626.got - 2010.03.31 10:45:26.
