data_PCOD8053371
_publ_section_title
;
Structure prediction by ZEFSAII (Michael W. Deem and Ramdas Pophale) SiO2 
 PCOD8053371
Probable space group: C M
;
_chemical_formula_sum "Si O2"
_cell_formula_units_Z 32
_cell_length_a 20.456716
_cell_length_b 8.935852
_cell_length_c 25.180352
_cell_angle_alpha 90.000000
_cell_angle_beta 22.101654
_cell_angle_gamma 90.000000
_cell_volume 1731.854307
_symmetry_space_group_name_H-M "C M"
_symmetry_group_IT_number 8
_symmetry_cell_setting 'monoclinic'
loop_
_space_group_symop_operation_xyz
x,y,z
x,-y,z
1/2+x,1/2+y,z
1/2+x,1/2-y,z
loop_
_atom_site_type_symbol
_atom_site_label
_atom_site_fract_x
_atom_site_fract_y
_atom_site_fract_z
Si Si1 0.173070 0.673204 0.429430
Si Si2 0.216252 0.675165 0.120700
Si Si3 0.974389 0.326871 0.004576
Si Si4 0.873530 0.172451 0.706095
Si Si5 0.946434 0.175216 0.136627
Si Si6 0.753587 0.824316 0.970372
Si Si7 0.009101 0.673816 0.707841
Si Si8 0.367507 0.327740 0.389524
O O1 0.120980 0.500000 0.474227
O O2 0.268873 0.708369 0.302222
O O3 0.300791 0.718618 0.381397
O O4 0.997080 0.770576 0.565241
O O5 0.242366 0.500000 0.110416
O O6 0.029100 0.724504 0.284153
O O7 0.367562 0.764070 0.035769
O O8 0.224694 0.720618 0.052782
O O9 0.930285 0.500000 0.047130
O O10 0.175261 0.303845 0.838211
O O11 0.919326 0.237718 0.098430
O O12 0.907421 0.268944 0.732820
O O13 0.914452 0.000000 0.687834
O O14 0.986186 0.000000 0.104783
O O15 0.106579 0.254034 0.044331
O O16 0.940602 0.761170 0.811126
O O17 0.749094 0.000000 0.964955
O O18 0.966670 0.500000 0.746036
O O19 0.215134 0.701445 0.546959
O O20 0.427314 0.500000 0.344896
#
# Coordination Sequence:
#
# PCOD8053371 Si02
#       8
#     4   4   4   4   4   4   4   4
#     4   9  19  34  56  86 115 147 187 231 283 340
#     4  11  24  39  58  84 115 154 194 234 286 344
#     4  11  24  40  58  83 117 154 192 237 288 344
#     4  10  20  34  55  84 115 149 188 234 287 338
#     4  11  21  36  60  87 115 150 193 237 284 341
#     4  11  22  36  56  87 118 147 192 242 287 336
#     4  10  20  34  57  86 114 149 189 236 286 338
#     4   9  18  35  56  83 115 148 189 231 283 339
#
# _framework density 18.477302999999999
#
# number of rings (size 3 to 8) (size 9 to 14) (size 15 to 20)
#    0.000    1.750    2.500    3.000    0.000    6.500 
#    0.000    1.250    0.000    3.000    0.000    0.000 
#    0.000    0.000    0.000    0.000    0.000    0.000 
#
# Total GULP energy -198458.508720 kJ/mol
# GULP energy per Si atom -12403.656795 kJ/mol
# Density = 1.843525 g / cm^3
# Si number density = 18.477303 Si / 1000 Ang^3
#
#
#
# Elastic Constant Matrix: (Units=GPa)
#
#
# Indices 1 2 3 4 5 6 
#
# 1 57.7506 35.0630 41.5034 0.0037 0.5088 0.0010
# 2 35.0630 84.5099 56.6272 0.0040 4.7453 -0.0004
# 3 41.5034 56.6272 120.2971 0.0146 3.8776 0.0021
# 4 0.0037 0.0040 0.0146 36.5441 -0.0077 -0.3884
# 5 0.5088 4.7453 3.8776 -0.0077 24.5019 0.0010
# 6 0.0010 -0.0004 0.0021 -0.3884 0.0010 28.6484
#
#
#
# Elastic Compliance Matrix: (Units=1/GPa)
#
#
# Indices 1 2 3 4 5 6 
#
# 1 0.025538 -0.006939 -0.005599 0.000001 0.001700 -0.000001
# 2 -0.006939 0.019276 -0.006597 0.000001 -0.002545 0.000001
# 3 -0.005599 -0.006597 0.013373 -0.000004 -0.000722 -0.000001
# 4 0.000001 0.000001 -0.000004 0.027368 0.000009 0.000371
# 5 0.001700 -0.002545 -0.000722 0.000009 0.041385 -0.000001
# 6 -0.000001 0.000001 -0.000001 0.000371 -0.000001 0.034911
#
#
# Mechanical properties :
#
#
# Convention : Reuss Voigt Hill
#
# Bulk Modulus (GPa) = 50.21268 58.77163 54.49215
# Shear Modulus (GPa) = 24.18252 26.56317 25.37284
#
# Velocity S-wave (km/s) = 3.62162 3.79570 3.70968
# Velocity P-wave (km/s) = 6.68748 7.14747 6.92130
#
# Compressibility (1/GPa) = 0.01991529
#
# Stress axis : x y z
#
# Youngs Moduli (GPa) = 39.15756 51.87883 74.77574
#
# Poissons Ratio (x) = 0.36001 0.41867
# Poissons Ratio (y) = 0.27173 0.49333
# Poissons Ratio (z) = 0.21924 0.34227
#
# Static dielectric constant tensor:
#      x y z
#    x 3.141590 0.000000 0.192650 
#    y 0.000000 3.494120 0.000010 
#    z 0.192650 0.000010 3.706680 
# 
# 
# High freq. dielectric constant tensor:
#      x y z
#    x 1.685190 0.000000 0.010120 
#    y 0.000000 1.729860 0.000000 
#    z 0.010120 0.000000 1.730980 
# 
# From -- ./inp_files/33478.got.cif
#   From: 2010.03.12/outbox.cif.g09.slc.cpg/sg8_17_cif.got.tgz:33478.got - 2010.03.31 10:45:26.
