data_PCOD8053925
_publ_section_title
;
Structure prediction by ZEFSAII (Michael W. Deem and Ramdas Pophale) SiO2 
 PCOD8053925
Probable space group: C M
;
_chemical_formula_sum "Si O2"
_cell_formula_units_Z 32
_cell_length_a 19.273607
_cell_length_b 8.876065
_cell_length_c 12.056437
_cell_angle_alpha 90.000000
_cell_angle_beta 51.586750
_cell_angle_gamma 90.000000
_cell_volume 1616.103065
_symmetry_space_group_name_H-M "C M"
_symmetry_group_IT_number 8
_symmetry_cell_setting 'monoclinic'
loop_
_space_group_symop_operation_xyz
x,y,z
x,-y,z
1/2+x,1/2+y,z
1/2+x,1/2-y,z
loop_
_atom_site_type_symbol
_atom_site_label
_atom_site_fract_x
_atom_site_fract_y
_atom_site_fract_z
Si Si1 0.938310 0.173462 0.474650
Si Si2 0.257210 0.679483 0.153406
Si Si3 0.490200 0.168317 0.635571
Si Si4 0.234602 0.675142 0.637636
Si Si5 0.089837 0.321128 0.180081
Si Si6 0.952202 0.175937 0.898782
Si Si7 0.599551 0.323672 0.930996
Si Si8 0.191191 0.331320 0.443914
O O1 0.839216 0.199126 0.531965
O O2 0.938009 0.225715 0.602754
O O3 0.004304 0.269656 0.333852
O O4 0.966906 0.000000 0.439252
O O5 0.251182 0.500000 0.167302
O O6 0.180225 0.738700 0.148011
O O7 0.245454 0.747071 0.289849
O O8 0.352432 0.733326 0.017190
O O9 0.488537 0.231145 0.760463
O O10 0.591701 0.165532 0.497582
O O11 0.449954 0.000000 0.672285
O O12 0.208348 0.500000 0.677323
O O13 0.188212 0.764149 0.783502
O O14 0.201129 0.747993 0.553904
O O15 0.088896 0.500000 0.174686
O O16 0.085607 0.256243 0.061450
O O17 0.012860 0.212983 0.944149
O O18 0.954436 0.000000 0.867691
O O19 0.610464 0.500000 0.940592
O O20 0.227983 0.500000 0.426488
#
# Coordination Sequence:
#
# PCOD8053925 Si02
#       8
#     4   4   4   4   4   4   4   4
#     4  11  24  40  62  91 122 157 203 252 303 358
#     4   9  19  37  62  87 113 154 201 241 290 356
#     4  11  21  38  64  88 118 156 200 252 302 355
#     4  10  22  40  64  88 117 162 206 245 298 366
#     4  11  23  41  63  87 121 162 204 246 299 365
#     4  10  22  39  62  89 120 157 201 249 298 355
#     4  11  24  40  60  89 126 160 198 254 306 350
#     4   9  17  35  63  87 109 148 203 249 288 347
#
# _framework density 19.800715
#
# number of rings (size 3 to 8) (size 9 to 14) (size 15 to 20)
#    0.000    1.750    2.500    1.500    3.500    1.500 
#    0.000    0.625    0.000    0.000    0.000    0.000 
#    0.000    0.000    0.000    0.000    0.000    0.000 
#
# Total GULP energy -198402.937174 kJ/mol
# GULP energy per Si atom -12400.183573 kJ/mol
# Density = 1.975565 g / cm^3
# Si number density = 19.800715 Si / 1000 Ang^3
#
#
#
# Elastic Constant Matrix: (Units=GPa)
#
#
# Indices 1 2 3 4 5 6 
#
# 1 100.0505 41.3926 46.6255 0.0000 5.6277 0.0000
# 2 41.3926 71.0925 42.6901 0.0000 3.1778 0.0000
# 3 46.6255 42.6901 112.4675 0.0000 6.9423 0.0000
# 4 0.0000 0.0000 0.0000 30.8311 0.0000 2.8296
# 5 5.6277 3.1778 6.9423 0.0000 38.9192 0.0000
# 6 0.0000 0.0000 0.0000 2.8296 0.0000 27.5067
#
#
#
# Elastic Compliance Matrix: (Units=1/GPa)
#
#
# Indices 1 2 3 4 5 6 
#
# 1 0.014219 -0.006129 -0.003511 0.000000 -0.000929 0.000000
# 2 -0.006129 0.020863 -0.005387 0.000000 0.000144 0.000000
# 3 -0.003511 -0.005387 0.012471 0.000000 -0.001277 0.000000
# 4 0.000000 0.000000 0.000000 0.032744 0.000000 -0.003368
# 5 -0.000929 0.000144 -0.001277 0.000000 0.026045 0.000000
# 6 0.000000 0.000000 0.000000 -0.003368 0.000000 0.036701
#
#
# Mechanical properties :
#
#
# Convention : Reuss Voigt Hill
#
# Bulk Modulus (GPa) = 57.14735 60.55856 58.85296
# Shear Modulus (GPa) = 27.94387 29.64489 28.79438
#
# Velocity S-wave (km/s) = 3.76074 3.87352 3.81755
# Velocity P-wave (km/s) = 6.91242 7.11730 7.01560
#
# Compressibility (1/GPa) = 0.01749862
#
# Stress axis : x y z
#
# Youngs Moduli (GPa) = 70.32794 47.93119 80.18813
#
# Poissons Ratio (x) = 0.29377 0.28154
# Poissons Ratio (y) = 0.43104 0.43199
# Poissons Ratio (z) = 0.24692 0.25821
#
# Static dielectric constant tensor:
#      x y z
#    x 3.702650 0.000000 0.054260 
#    y 0.000000 3.427260 0.000000 
#    z 0.054260 0.000000 3.660390 
# 
# 
# High freq. dielectric constant tensor:
#      x y z
#    x 1.781810 0.000000 0.006320 
#    y 0.000000 1.748290 0.000000 
#    z 0.006320 0.000000 1.785100 
# 
# From -- ./inp_files/23835.got.cif
#   From: 2010.03.12/outbox.cif.g09.slc.cpg/sg8_12_cif.got.tgz:23835.got - 2010.03.31 10:45:26.
