data_PCOD8053984
_publ_section_title
;
Structure prediction by ZEFSAII (Michael W. Deem and Ramdas Pophale) SiO2 
 PCOD8053984
Probable space group: C M
;
_chemical_formula_sum "Si O2"
_cell_formula_units_Z 20
_cell_length_a 9.537423
_cell_length_b 21.773433
_cell_length_c 5.097549
_cell_angle_alpha 90.000000
_cell_angle_beta 120.628793
_cell_angle_gamma 90.000000
_cell_volume 910.884321
_symmetry_space_group_name_H-M "C M"
_symmetry_group_IT_number 8
_symmetry_cell_setting 'monoclinic'
loop_
_space_group_symop_operation_xyz
x,y,z
x,-y,z
1/2+x,1/2+y,z
1/2+x,1/2-y,z
loop_
_atom_site_type_symbol
_atom_site_label
_atom_site_fract_x
_atom_site_fract_y
_atom_site_fract_z
Si Si1 0.646850 0.172044 0.707760
Si Si2 0.952406 0.569303 0.282122
Si Si3 0.930930 0.764513 0.763975
Si Si4 0.240861 0.931705 0.596471
Si Si5 0.967674 0.164073 0.283111
O O1 0.597587 0.118577 0.457393
O O2 0.735362 0.229322 0.634965
O O3 0.488911 0.197298 0.719958
O O4 0.780951 0.144242 0.036523
O O5 0.017181 0.500000 0.276969
O O6 0.859245 0.567546 0.464797
O O7 0.837969 0.594852 0.940322
O O8 0.979935 0.812709 0.588923
O O9 0.023635 0.784045 0.121825
O O10 0.081793 0.894325 0.369354
O O11 0.181022 0.000000 0.610201
#
# Coordination Sequence:
#
# PCOD8053984 Si02
#       5
#     4   4   4   4   4
#     4  10  26  43  68  94 138 173 222 272 322 400
#     4  10  23  41  69  99 130 174 218 272 331 390
#     4  10  25  39  65  97 130 175 219 268 334 373
#     4  10  22  42  67  96 132 173 219 273 332 390
#     4  10  24  41  63  98 124 181 214 275 317 399
#
# _framework density 21.956686000000001
#
# number of rings (size 3 to 8) (size 9 to 14) (size 15 to 20)
#    1.200    0.800    0.000    1.200    8.400    2.400 
#    0.000    1.000    0.000    0.000    0.000    0.000 
#    0.000    0.000    0.000    0.000    0.000    0.000 
#
# Total GULP energy -123894.095994 kJ/mol
# GULP energy per Si atom -12389.409599 kJ/mol
# Density = 2.190671 g / cm^3
# Si number density = 21.956686 Si / 1000 Ang^3
#
#
#
# Elastic Constant Matrix: (Units=GPa)
#
#
# Indices 1 2 3 4 5 6 
#
# 1 130.5277 -81.4779 28.9328 0.0000 -28.8019 0.0000
# 2 -81.4779 296.6625 47.0560 0.0000 76.3634 0.0000
# 3 28.9328 47.0560 108.9394 0.0000 3.6894 0.0000
# 4 0.0000 0.0000 0.0000 49.8466 0.0000 20.8510
# 5 -28.8019 76.3634 3.6894 0.0000 53.8154 0.0000
# 6 0.0000 0.0000 0.0000 20.8510 0.0000 61.3585
#
#
#
# Elastic Compliance Matrix: (Units=1/GPa)
#
#
# Indices 1 2 3 4 5 6 
#
# 1 0.011072 0.003375 -0.004447 0.000000 0.001441 0.000000
# 2 0.003375 0.006836 -0.003590 0.000000 -0.007647 0.000000
# 3 -0.004447 -0.003590 0.011847 0.000000 0.001902 0.000000
# 4 0.000000 0.000000 0.000000 0.023386 0.000000 -0.007947
# 5 0.001441 -0.007647 0.001902 0.000000 0.030074 0.000000
# 6 0.000000 0.000000 0.000000 -0.007947 0.000000 0.018998
#
#
# Mechanical properties :
#
#
# Convention : Reuss Voigt Hill
#
# Bulk Modulus (GPa) = 48.94649 58.35015 53.64832
# Shear Modulus (GPa) = 42.24848 69.11201 55.68025
#
# Velocity S-wave (km/s) = 4.39130 5.61648 5.04125
# Velocity P-wave (km/s) = 6.93196 8.28810 7.64018
#
# Compressibility (1/GPa) = 0.02043047
#
# Stress axis : x y z
#
# Youngs Moduli (GPa) = 90.31820 146.28777 84.41002
#
# Poissons Ratio (x) = -0.49378 0.37540
# Poissons Ratio (y) = -0.30486 0.30305
# Poissons Ratio (z) = 0.40168 0.52520
#
# Static dielectric constant tensor:
#      x y z
#    x 3.793410 0.000000 -0.256470 
#    y 0.000000 3.841030 0.000000 
#    z -0.256470 0.000000 3.715010 
# 
# 
# High freq. dielectric constant tensor:
#      x y z
#    x 1.853020 0.000000 -0.015370 
#    y 0.000000 1.847300 0.000000 
#    z -0.015370 0.000000 1.876470 
# 
# From -- ./inp_files/3147.got.cif
#   From: 2010.03.12/outbox.cif.g09.slc.cpg/sg8_2_cif.got.tgz:3147.got - 2010.03.31 10:45:26.
