data_PCOD8053782
_publ_section_title
;
Structure prediction by ZEFSAII (Michael W. Deem and Ramdas Pophale) SiO2 
 PCOD8053782
Probable space group: C M
;
_chemical_formula_sum "Si O2"
_cell_formula_units_Z 22
_cell_length_a 15.285221
_cell_length_b 10.784513
_cell_length_c 9.012989
_cell_angle_alpha 90.000000
_cell_angle_beta 46.574849
_cell_angle_gamma 90.000000
_cell_volume 1079.048576
_symmetry_space_group_name_H-M "C M"
_symmetry_group_IT_number 8
_symmetry_cell_setting 'monoclinic'
loop_
_space_group_symop_operation_xyz
x,y,z
x,-y,z
1/2+x,1/2+y,z
1/2+x,1/2-y,z
loop_
_atom_site_type_symbol
_atom_site_label
_atom_site_fract_x
_atom_site_fract_y
_atom_site_fract_z
Si Si1 0.825650 0.000000 0.310920
Si Si2 0.244044 0.135550 0.431606
Si Si3 0.010435 0.766520 0.597024
Si Si4 0.543982 0.000000 0.656402
Si Si5 0.900924 0.000000 0.892863
Si Si6 0.704305 0.000000 0.898883
Si Si7 0.336362 0.309303 0.545869
Si Si8 0.958048 0.500000 0.080778
O O1 0.682892 0.000000 0.447748
O O2 0.866096 0.118791 0.359045
O O3 0.898656 0.000000 0.072755
O O4 0.156273 0.221664 0.434578
O O5 0.268698 0.185651 0.569321
O O6 0.182907 0.000000 0.523538
O O7 0.372553 0.121399 0.196127
O O8 0.976457 0.624908 0.679602
O O9 0.961314 0.786726 0.487890
O O10 0.961549 0.872076 0.765604
O O11 0.535886 0.000000 0.842346
O O12 0.764031 0.000000 0.991050
O O13 0.744692 0.879183 0.760238
O O14 0.560141 0.000000 0.090654
#
# Coordination Sequence:
#
# PCOD8053782 Si02
#       8
#     2   4   4   2   2   2   4   2
#     4  11  22  39  69  90 122 169 220 256 322 382
#     4  10  22  37  65  89 129 168 208 265 316 376
#     4  11  23  43  67  93 132 168 214 266 323 379
#     4  12  24  39  67  88 134 171 215 262 322 376
#     4  10  23  38  69  99 126 169 218 266 315 381
#     4   9  18  41  63  92 127 169 208 262 321 385
#     4  10  21  41  64  90 127 166 214 261 321 374
#     4  10  21  37  62  93 131 164 211 264 322 368
#
# _framework density 20.388331999999998
#
# number of rings (size 3 to 8) (size 9 to 14) (size 15 to 20)
#    0.545    1.091    4.545    0.545    3.818    1.455 
#    0.000    0.000    4.000    0.000    0.000    0.000 
#    0.000    0.000    0.000    0.000    0.000    0.000 
#
# Total GULP energy -136304.925672 kJ/mol
# GULP energy per Si atom -12391.356879 kJ/mol
# Density = 2.034193 g / cm^3
# Si number density = 20.388332 Si / 1000 Ang^3
#
#
#
# Elastic Constant Matrix: (Units=GPa)
#
#
# Indices 1 2 3 4 5 6 
#
# 1 162.7001 42.4083 43.1603 0.0000 -1.8072 0.0000
# 2 42.4083 131.3570 26.7551 0.0000 6.0025 0.0000
# 3 43.1603 26.7551 58.9749 0.0000 4.7070 0.0000
# 4 0.0000 0.0000 0.0000 14.0243 0.0000 5.4301
# 5 -1.8072 6.0025 4.7070 0.0000 36.1634 0.0000
# 6 0.0000 0.0000 0.0000 5.4301 0.0000 31.2772
#
#
#
# Elastic Compliance Matrix: (Units=1/GPa)
#
#
# Indices 1 2 3 4 5 6 
#
# 1 0.007953 -0.001566 -0.005217 0.000000 0.001336 0.000000
# 2 -0.001566 0.008726 -0.002719 0.000000 -0.001173 0.000000
# 3 -0.005217 -0.002719 0.022223 0.000000 -0.002702 0.000000
# 4 0.000000 0.000000 0.000000 0.076443 0.000000 -0.013272
# 5 0.001336 -0.001173 -0.002702 0.000000 0.028265 0.000000
# 6 0.000000 0.000000 0.000000 -0.013272 0.000000 0.034276
#
#
# Mechanical properties :
#
#
# Convention : Reuss Voigt Hill
#
# Bulk Modulus (GPa) = 50.25393 64.18661 57.22027
# Shear Modulus (GPa) = 24.56721 32.34023 28.45372
#
# Velocity S-wave (km/s) = 3.47502 3.98705 3.73981
# Velocity P-wave (km/s) = 6.38772 7.26263 6.83918
#
# Compressibility (1/GPa) = 0.01989894
#
# Stress axis : x y z
#
# Youngs Moduli (GPa) = 125.73572 114.60193 44.99805
#
# Poissons Ratio (x) = 0.17949 0.23474
# Poissons Ratio (y) = 0.19693 0.12234
# Poissons Ratio (z) = 0.65591 0.31158
#
# Static dielectric constant tensor:
#      x y z
#    x 3.891790 0.000000 -0.027890 
#    y 0.000000 3.961900 0.000000 
#    z -0.027890 0.000000 3.166730 
# 
# 
# High freq. dielectric constant tensor:
#      x y z
#    x 1.810080 0.000000 -0.002240 
#    y 0.000000 1.808850 0.000000 
#    z -0.002240 0.000000 1.752770 
# 
# From -- ./inp_files/12400.got.cif
#   From: 2010.03.12/outbox.cif.g09.slc.cpg/sg8_7_cif.got.tgz:12400.got - 2010.03.31 10:45:26.
