data_PCOD8053606
_publ_section_title
;
Structure prediction by ZEFSAII (Michael W. Deem and Ramdas Pophale) SiO2 
 PCOD8053606
Probable space group: C M
;
_chemical_formula_sum "Si O2"
_cell_formula_units_Z 32
_cell_length_a 16.485930
_cell_length_b 16.149279
_cell_length_c 12.360132
_cell_angle_alpha 90.000000
_cell_angle_beta 153.099625
_cell_angle_gamma 90.000000
_cell_volume 1488.850928
_symmetry_space_group_name_H-M "C M"
_symmetry_group_IT_number 8
_symmetry_cell_setting 'monoclinic'
loop_
_space_group_symop_operation_xyz
x,y,z
x,-y,z
1/2+x,1/2+y,z
1/2+x,1/2-y,z
loop_
_atom_site_type_symbol
_atom_site_label
_atom_site_fract_x
_atom_site_fract_y
_atom_site_fract_z
Si Si1 0.134220 0.901416 0.907150
Si Si2 0.899627 0.097780 0.135636
Si Si3 0.521554 0.904897 0.273523
Si Si4 0.149929 0.594468 0.022096
Si Si5 0.770997 0.594117 0.518981
Si Si6 0.260809 0.340408 0.371615
Si Si7 0.128736 0.405087 0.634649
Si Si8 0.273892 0.159131 0.294885
O O1 0.962577 0.856884 0.651055
O O2 0.105291 0.000000 0.875836
O O3 0.314958 0.879385 0.054035
O O4 0.147838 0.867216 0.045381
O O5 0.787976 0.137984 0.102078
O O6 0.099100 0.137527 0.371991
O O7 0.916186 0.000000 0.172019
O O8 0.811614 0.116816 0.914075
O O9 0.610154 0.850099 0.285031
O O10 0.647497 0.891878 0.528557
O O11 0.526867 0.000000 0.241919
O O12 0.127824 0.500000 0.957282
O O13 0.220975 0.595549 0.228023
O O14 0.955088 0.638855 0.776446
O O15 0.777057 0.500000 0.565212
O O16 0.744172 0.596368 0.358277
O O17 0.232942 0.250794 0.287389
O O18 0.067820 0.500000 0.584675
O O19 0.979466 0.344150 0.503433
#
# Coordination Sequence:
#
# PCOD8053606 Si02
#       8
#     4   4   4   4   4   4   4   4
#     4  10  23  45  72  96 124 176 233 272 314 385
#     4   9  18  33  61  94 115 151 210 265 313 364
#     4   9  20  41  66  93 125 168 224 273 317 382
#     4  10  21  39  61  86 126 166 204 256 315 388
#     4  10  20  37  62  91 119 159 211 261 312 377
#     4  12  26  41  62  97 135 172 210 262 337 396
#     4   9  17  37  66  94 126 167 219 275 319 373
#     4  11  23  39  62  95 133 165 209 270 330 379
#
# _framework density 21.493085000000001
#
# number of rings (size 3 to 8) (size 9 to 14) (size 15 to 20)
#    0.000    2.000    1.250    3.000    3.500    1.000 
#    6.750    2.500    0.000    0.000    0.000    0.000 
#    0.000    0.000    0.000    0.000    0.000    0.000 
#
# Total GULP energy -198322.091323 kJ/mol
# GULP energy per Si atom -12395.130708 kJ/mol
# Density = 2.144417 g / cm^3
# Si number density = 21.493085 Si / 1000 Ang^3
#
#
#
# Elastic Constant Matrix: (Units=GPa)
#
#
# Indices 1 2 3 4 5 6 
#
# 1 133.7282 17.5456 77.4588 0.0000 -1.4380 0.0000
# 2 17.5456 47.5826 6.8354 0.0000 0.7246 0.0000
# 3 77.4588 6.8354 157.7435 0.0000 3.5405 0.0000
# 4 0.0000 0.0000 0.0000 17.0104 0.0000 -4.0383
# 5 -1.4380 0.7246 3.5405 0.0000 31.7470 0.0000
# 6 0.0000 0.0000 0.0000 -4.0383 0.0000 29.6336
#
#
#
# Elastic Compliance Matrix: (Units=1/GPa)
#
#
# Indices 1 2 3 4 5 6 
#
# 1 0.010979 -0.003309 -0.005274 0.000000 0.001161 0.000000
# 2 -0.003309 0.022149 0.000681 0.000000 -0.000731 0.000000
# 3 -0.005274 0.000681 0.008928 0.000000 -0.001250 0.000000
# 4 0.000000 0.000000 0.000000 0.060753 0.000000 0.008279
# 5 0.001161 -0.000731 -0.001250 0.000000 0.031708 0.000000
# 6 0.000000 0.000000 0.000000 0.008279 0.000000 0.034874
#
#
# Mechanical properties :
#
#
# Convention : Reuss Voigt Hill
#
# Bulk Modulus (GPa) = 38.08973 60.30375 49.19674
# Shear Modulus (GPa) = 25.78054 31.49250 28.63652
#
# Velocity S-wave (km/s) = 3.46711 3.83200 3.65411
# Velocity P-wave (km/s) = 5.81276 6.90631 6.38299
#
# Compressibility (1/GPa) = 0.02625380
#
# Stress axis : x y z
#
# Youngs Moduli (GPa) = 91.08097 45.14808 112.01111
#
# Poissons Ratio (x) = 0.14937 0.59074
# Poissons Ratio (y) = 0.30134 -0.07631
# Poissons Ratio (z) = 0.48036 -0.03076
#
# Static dielectric constant tensor:
#      x y z
#    x 4.037290 0.000000 0.167800 
#    y 0.000000 3.459560 0.000000 
#    z 0.167800 0.000000 4.120680 
# 
# 
# High freq. dielectric constant tensor:
#      x y z
#    x 1.848910 0.000000 0.004040 
#    y 0.000000 1.809290 0.000000 
#    z 0.004040 0.000000 1.850720 
# 
# From -- ./inp_files/22421.got.cif
#   From: 2010.03.12/outbox.cif.g09.slc.cpg/sg8_12_cif.got.tgz:22421.got - 2010.03.31 10:45:26.
