data_PCOD8053424
_publ_section_title
;
Structure prediction by ZEFSAII (Michael W. Deem and Ramdas Pophale) SiO2 
 PCOD8053424
Probable space group: C M
;
_chemical_formula_sum "Si O2"
_cell_formula_units_Z 32
_cell_length_a 26.584006
_cell_length_b 8.846416
_cell_length_c 20.378821
_cell_angle_alpha 90.000000
_cell_angle_beta 159.665998
_cell_angle_gamma 90.000000
_cell_volume 1665.374351
_symmetry_space_group_name_H-M "C M"
_symmetry_group_IT_number 8
_symmetry_cell_setting 'monoclinic'
loop_
_space_group_symop_operation_xyz
x,y,z
x,-y,z
1/2+x,1/2+y,z
1/2+x,1/2-y,z
loop_
_atom_site_type_symbol
_atom_site_label
_atom_site_fract_x
_atom_site_fract_y
_atom_site_fract_z
Si Si1 0.657460 0.828500 0.820040
Si Si2 0.215829 0.677378 0.522642
Si Si3 0.103441 0.321839 0.245875
Si Si4 0.581695 0.821412 0.491022
Si Si5 0.008275 0.825121 0.825560
Si Si6 0.372047 0.825273 0.536158
Si Si7 0.278363 0.674512 0.112194
Si Si8 0.771826 0.324221 0.834165
O O1 0.481916 0.808576 0.608924
O O2 0.723994 0.713626 0.849556
O O3 0.695304 0.000000 0.845813
O O4 0.727159 0.790115 0.975766
O O5 0.188758 0.500000 0.490471
O O6 0.138265 0.740169 0.362047
O O7 0.144372 0.750462 0.500065
O O8 0.388961 0.712345 0.735786
O O9 0.132617 0.500000 0.275770
O O10 0.207535 0.231878 0.321260
O O11 0.938984 0.280829 0.027870
O O12 0.419218 0.767756 0.302832
O O13 0.678387 0.771211 0.669766
O O14 0.584287 0.000000 0.491278
O O15 0.928429 0.788004 0.660351
O O16 0.053411 0.000000 0.881596
O O17 0.152649 0.724925 0.009400
O O18 0.374073 0.000000 0.562415
O O19 0.311476 0.500000 0.163678
O O20 0.744844 0.500000 0.788971
#
# Coordination Sequence:
#
# PCOD8053424 Si02
#       8
#     4   4   4   4   4   4   4   4
#     4   9  19  35  55  80 108 138 174 216 261 313
#     4   8  16  32  55  80 102 131 174 216 255 310
#     4   9  18  34  55  78 104 135 174 216 260 315
#     4  11  22  37  55  75 105 144 181 217 264 315
#     4   9  16  30  53  80 107 135 171 214 262 313
#     4   9  17  30  51  81 110 133 166 215 265 312
#     4  10  20  35  55  82 111 137 174 219 261 311
#     4  11  23  37  53  76 107 141 180 223 264 311
#
# _framework density 19.214898999999999
#
# number of rings (size 3 to 8) (size 9 to 14) (size 15 to 20)
#    0.000    2.500    0.000    4.125    0.000    5.000 
#    0.000    8.750    0.000    4.500    0.000    0.000 
#    0.000    0.000    0.000    0.000    0.000    0.000 
#
# Total GULP energy -198328.697294 kJ/mol
# GULP energy per Si atom -12395.543581 kJ/mol
# Density = 1.917117 g / cm^3
# Si number density = 19.214899 Si / 1000 Ang^3
#
#
#
# Elastic Constant Matrix: (Units=GPa)
#
#
# Indices 1 2 3 4 5 6 
#
# 1 25.1204 23.1823 42.7813 0.0000 12.9666 0.0000
# 2 23.1823 59.7838 42.2506 0.0000 9.1143 0.0000
# 3 42.7813 42.2506 127.4246 0.0000 23.0839 0.0000
# 4 0.0000 0.0000 0.0000 30.0703 0.0000 4.4799
# 5 12.9666 9.1143 23.0839 0.0000 27.8522 0.0000
# 6 0.0000 0.0000 0.0000 4.4799 0.0000 24.3192
#
#
#
# Elastic Compliance Matrix: (Units=1/GPa)
#
#
# Indices 1 2 3 4 5 6 
#
# 1 0.125627 -0.023856 -0.029519 0.000000 -0.026214 0.000000
# 2 -0.023856 0.026420 -0.001408 0.000000 0.003628 0.000000
# 3 -0.029519 -0.001408 0.018417 0.000000 -0.001061 0.000000
# 4 0.000000 0.000000 0.000000 0.034194 0.000000 -0.006299
# 5 -0.026214 0.003628 -0.001061 0.000000 0.047800 0.000000
# 6 0.000000 0.000000 0.000000 -0.006299 0.000000 0.042280
#
#
# Mechanical properties :
#
#
# Convention : Reuss Voigt Hill
#
# Bulk Modulus (GPa) = 16.42078 47.63969 32.03023
# Shear Modulus (GPa) = 11.77568 23.38930 17.58249
#
# Velocity S-wave (km/s) = 2.47825 3.49269 3.02825
# Velocity P-wave (km/s) = 4.09309 6.41187 5.37892
#
# Compressibility (1/GPa) = 0.06089845
#
# Stress axis : x y z
#
# Youngs Moduli (GPa) = 7.96004 37.85083 54.29656
#
# Poissons Ratio (x) = 0.90298 1.60278
# Poissons Ratio (y) = 0.18990 0.07643
# Poissons Ratio (z) = 0.23497 0.05328
#
# Static dielectric constant tensor:
#      x y z
#    x 3.560250 0.000000 0.427820 
#    y 0.000000 3.394570 0.000000 
#    z 0.427820 0.000000 3.628170 
# 
# 
# High freq. dielectric constant tensor:
#      x y z
#    x 1.726860 0.000000 0.034240 
#    y 0.000000 1.742610 0.000000 
#    z 0.034240 0.000000 1.745630 
# 
# From -- ./inp_files/31637.got.cif
#   From: 2010.03.12/outbox.cif.g09.slc.cpg/sg8_16_cif.got.tgz:31637.got - 2010.03.31 10:45:26.
