data_PCOD8053507
_publ_section_title
;
Structure prediction by ZEFSAII (Michael W. Deem and Ramdas Pophale) SiO2 
 PCOD8053507
Probable space group: C M
;
_chemical_formula_sum "Si O2"
_cell_formula_units_Z 32
_cell_length_a 22.373099
_cell_length_b 8.549997
_cell_length_c 27.436649
_cell_angle_alpha 90.000000
_cell_angle_beta 162.166808
_cell_angle_gamma 90.000000
_cell_volume 1607.291981
_symmetry_space_group_name_H-M "C M"
_symmetry_group_IT_number 8
_symmetry_cell_setting 'monoclinic'
loop_
_space_group_symop_operation_xyz
x,y,z
x,-y,z
1/2+x,1/2+y,z
1/2+x,1/2-y,z
loop_
_atom_site_type_symbol
_atom_site_label
_atom_site_fract_x
_atom_site_fract_y
_atom_site_fract_z
Si Si1 0.416150 0.180816 0.618710
Si Si2 0.179410 0.183555 0.008176
Si Si3 0.600580 0.183169 0.304063
Si Si4 0.853793 0.182720 0.938400
Si Si5 0.110531 0.317914 0.057976
Si Si6 0.864641 0.819354 0.682302
Si Si7 0.174435 0.316051 0.254092
Si Si8 0.930297 0.681725 0.372130
O O1 0.258672 0.281201 0.467626
O O2 0.629009 0.233531 0.765809
O O3 0.395474 0.210921 0.659778
O O4 0.377945 0.000000 0.577962
O O5 0.032581 0.221815 0.850699
O O6 0.185961 0.000000 0.025532
O O7 0.391063 0.251174 0.157534
O O8 0.105124 0.275998 0.997340
O O9 0.665823 0.251736 0.302344
O O10 0.574759 0.000000 0.277773
O O11 0.879524 0.000000 0.969538
O O12 0.937879 0.222676 0.950460
O O13 0.969430 0.280188 0.068903
O O14 0.070963 0.500000 0.034725
O O15 0.319781 0.275188 0.243689
O O16 0.658321 0.779301 0.546957
O O17 0.873808 0.000000 0.673183
O O18 0.213885 0.500000 0.283494
O O19 0.352215 0.230958 0.364608
O O20 0.887494 0.500000 0.330347
#
# Coordination Sequence:
#
# PCOD8053507 Si02
#       8
#     4   4   4   4   4   4   4   4
#     4  11  24  38  57  84 113 144 184 232 278 324
#     4  10  21  39  59  81 111 148 186 227 274 330
#     4  10  22  38  58  82 112 149 186 224 275 332
#     4  10  21  38  58  82 112 148 184 224 276 333
#     4  11  22  36  57  85 113 146 185 229 274 322
#     4  10  22  39  60  82 110 148 187 226 275 331
#     4  10  20  36  59  86 112 144 185 230 273 322
#     4  10  20  36  58  84 113 149 185 222 273 332
#
# _framework density 19.909262999999999
#
# number of rings (size 3 to 8) (size 9 to 14) (size 15 to 20)
#    0.000    1.750    0.000    5.625    0.000   10.000 
#    0.000    3.750    0.000    0.000    0.000    0.000 
#    0.000    0.000    0.000    0.000    0.000    0.000 
#
# Total GULP energy -198477.848692 kJ/mol
# GULP energy per Si atom -12404.865543 kJ/mol
# Density = 1.986395 g / cm^3
# Si number density = 19.909263 Si / 1000 Ang^3
#
#
#
# Elastic Constant Matrix: (Units=GPa)
#
#
# Indices 1 2 3 4 5 6 
#
# 1 130.6038 15.0867 55.3508 0.0021 0.3210 0.0074
# 2 15.0867 36.8118 13.3093 0.0544 4.1814 -0.0072
# 3 55.3508 13.3093 135.5730 0.2381 16.1830 -0.0355
# 4 0.0021 0.0544 0.2381 25.3067 -0.0122 -1.5038
# 5 0.3210 4.1814 16.1830 -0.0122 29.5425 0.0081
# 6 0.0074 -0.0072 -0.0355 -1.5038 0.0081 30.8176
#
#
#
# Elastic Compliance Matrix: (Units=1/GPa)
#
#
# Indices 1 2 3 4 5 6 
#
# 1 0.009653 -0.002804 -0.003959 0.000043 0.002461 -0.000006
# 2 -0.002804 0.029174 -0.001316 -0.000051 -0.003378 0.000004
# 3 -0.003959 -0.001316 0.009731 -0.000090 -0.005101 0.000009
# 4 0.000043 -0.000051 -0.000090 0.039631 0.000072 0.001934
# 5 0.002461 -0.003378 -0.005101 0.000072 0.037095 -0.000013
# 6 -0.000006 0.000004 0.000009 0.001934 -0.000013 0.032543
#
#
# Mechanical properties :
#
#
# Convention : Reuss Voigt Hill
#
# Bulk Modulus (GPa) = 30.86547 52.27579 41.57063
# Shear Modulus (GPa) = 27.05836 31.74947 29.40391
#
# Velocity S-wave (km/s) = 3.69057 3.99771 3.84721
# Velocity P-wave (km/s) = 5.80493 6.90094 6.37652
#
# Compressibility (1/GPa) = 0.03239867
#
# Stress axis : x y z
#
# Youngs Moduli (GPa) = 103.59848 34.27719 102.76532
#
# Poissons Ratio (x) = 0.09611 0.40690
# Poissons Ratio (y) = 0.29049 0.13523
# Poissons Ratio (z) = 0.41020 0.04511
#
# Static dielectric constant tensor:
#      x y z
#    x 3.775380 0.000030 0.178760 
#    y 0.000030 3.569960 -0.000120 
#    z 0.178760 -0.000120 3.627610 
# 
# 
# High freq. dielectric constant tensor:
#      x y z
#    x 1.787550 0.000000 0.008640 
#    y 0.000000 1.773290 -0.000010 
#    z 0.008640 -0.000010 1.778610 
# 
# From -- ./inp_files/33066.got.cif
#   From: 2010.03.12/outbox.cif.g09.slc.cpg/sg8_17_cif.got.tgz:33066.got - 2010.03.31 10:45:26.
