data_PCOD8053293
_publ_section_title
;
Structure prediction by ZEFSAII (Michael W. Deem and Ramdas Pophale) SiO2 
 PCOD8053293
Probable space group: C M
;
_chemical_formula_sum "Si O2"
_cell_formula_units_Z 24
_cell_length_a 14.898028
_cell_length_b 8.833454
_cell_length_c 14.549042
_cell_angle_alpha 90.000000
_cell_angle_beta 40.194817
_cell_angle_gamma 90.000000
_cell_volume 1235.705614
_symmetry_space_group_name_H-M "C M"
_symmetry_group_IT_number 8
_symmetry_cell_setting 'monoclinic'
loop_
_space_group_symop_operation_xyz
x,y,z
x,-y,z
1/2+x,1/2+y,z
1/2+x,1/2-y,z
loop_
_atom_site_type_symbol
_atom_site_label
_atom_site_fract_x
_atom_site_fract_y
_atom_site_fract_z
Si Si1 0.549680 0.174269 0.968460
Si Si2 0.298789 0.820445 0.442578
Si Si3 0.787879 0.178495 0.259497
Si Si4 0.789733 0.175292 0.916455
Si Si5 0.067528 0.677635 0.743161
Si Si6 0.609760 0.820570 0.227715
O O1 0.702400 0.197971 0.891643
O O2 0.553131 0.225808 0.860472
O O3 0.502747 0.000000 0.015784
O O4 0.442356 0.276564 0.108179
O O5 0.244909 0.757678 0.387664
O O6 0.201141 0.762511 0.599876
O O7 0.453567 0.757084 0.341697
O O8 0.295760 0.000000 0.441869
O O9 0.677536 0.235275 0.269738
O O10 0.780963 0.000000 0.278421
O O11 0.930427 0.270577 0.795767
O O12 0.828523 0.000000 0.901807
O O13 0.701802 0.240703 0.071141
O O14 0.089102 0.500000 0.714296
O O15 0.606213 0.000000 0.224761
#
# Coordination Sequence:
#
# PCOD8053293 Si02
#       6
#     4   4   4   4   4   4
#     4  10  21  38  61  87 120 157 198 240 289 352
#     4  11  23  42  62  84 119 163 198 238 297 355
#     4  11  21  36  61  92 120 150 196 249 293 343
#     4  10  19  38  63  87 117 158 199 236 289 357
#     4  11  24  40  58  90 125 153 194 250 297 342
#     4   9  19  36  61  88 117 153 197 239 287 353
#
# _framework density 19.422101999999999
#
# number of rings (size 3 to 8) (size 9 to 14) (size 15 to 20)
#    0.000    1.667    3.333    1.500    0.000    2.667 
#    0.000    6.667    0.000    0.000    0.000    0.000 
#    0.000    0.000    0.000    0.000    0.000    0.000 
#
# Total GULP energy -148859.011409 kJ/mol
# GULP energy per Si atom -12404.917617 kJ/mol
# Density = 1.937790 g / cm^3
# Si number density = 19.422102 Si / 1000 Ang^3
#
#
#
# Elastic Constant Matrix: (Units=GPa)
#
#
# Indices 1 2 3 4 5 6 
#
# 1 101.7748 25.5065 22.2273 0.0000 -4.0090 0.0000
# 2 25.5065 58.2762 23.7770 0.0000 2.0283 0.0000
# 3 22.2273 23.7770 84.8821 0.0000 -7.7633 0.0000
# 4 0.0000 0.0000 0.0000 34.5098 0.0000 1.7663
# 5 -4.0090 2.0283 -7.7633 0.0000 32.9316 0.0000
# 6 0.0000 0.0000 0.0000 1.7663 0.0000 26.5982
#
#
#
# Elastic Compliance Matrix: (Units=1/GPa)
#
#
# Indices 1 2 3 4 5 6 
#
# 1 0.011318 -0.004330 -0.001636 0.000000 0.001259 0.000000
# 2 -0.004330 0.021238 -0.005093 0.000000 -0.003036 0.000000
# 3 -0.001636 -0.005093 0.013947 0.000000 0.003403 0.000000
# 4 0.000000 0.000000 0.000000 0.029076 0.000000 -0.001931
# 5 0.001259 -0.003036 0.003403 0.000000 0.031508 0.000000
# 6 0.000000 0.000000 0.000000 -0.001931 0.000000 0.037725
#
#
# Mechanical properties :
#
#
# Convention : Reuss Voigt Hill
#
# Bulk Modulus (GPa) = 41.00725 43.10608 42.05666
# Shear Modulus (GPa) = 28.56189 30.36942 29.46565
#
# Velocity S-wave (km/s) = 3.83898 3.95859 3.89925
# Velocity P-wave (km/s) = 6.38827 6.56784 6.47867
#
# Compressibility (1/GPa) = 0.02438593
#
# Stress axis : x y z
#
# Youngs Moduli (GPa) = 88.35820 47.08434 71.69898
#
# Poissons Ratio (x) = 0.20387 0.11727
# Poissons Ratio (y) = 0.38259 0.36517
# Poissons Ratio (z) = 0.14452 0.23981
#
# Static dielectric constant tensor:
#      x y z
#    x 3.762480 0.000000 0.001480 
#    y 0.000000 3.369160 0.000000 
#    z 0.001480 0.000000 3.484020 
# 
# 
# High freq. dielectric constant tensor:
#      x y z
#    x 1.770250 0.000000 0.000180 
#    y 0.000000 1.742630 0.000000 
#    z 0.000180 0.000000 1.752130 
# 
# From -- ./inp_files/12070.got.cif
#   From: 2010.03.12/outbox.cif.g09.slc.cpg/sg8_7_cif.got.tgz:12070.got - 2010.03.31 10:45:26.
