data_PCOD8053871
_publ_section_title
;
Structure prediction by ZEFSAII (Michael W. Deem and Ramdas Pophale) SiO2 
 PCOD8053871
Probable space group: C M
;
_chemical_formula_sum "Si O2"
_cell_formula_units_Z 32
_cell_length_a 23.674926
_cell_length_b 8.889717
_cell_length_c 19.192158
_cell_angle_alpha 90.000000
_cell_angle_beta 23.247261
_cell_angle_gamma 90.000000
_cell_volume 1594.290394
_symmetry_space_group_name_H-M "C M"
_symmetry_group_IT_number 8
_symmetry_cell_setting 'monoclinic'
loop_
_space_group_symop_operation_xyz
x,y,z
x,-y,z
1/2+x,1/2+y,z
1/2+x,1/2-y,z
loop_
_atom_site_type_symbol
_atom_site_label
_atom_site_fract_x
_atom_site_fract_y
_atom_site_fract_z
Si Si1 0.449050 0.823295 0.911980
Si Si2 0.408010 0.329008 0.551497
Si Si3 0.152348 0.830152 0.059603
Si Si4 0.111089 0.176120 0.600690
Si Si5 0.664337 0.175725 0.189850
Si Si6 0.400580 0.670420 0.716413
Si Si7 0.578641 0.176271 0.914541
Si Si8 0.406036 0.327589 0.233806
O O1 0.549018 0.757952 0.738391
O O2 0.518127 0.781550 0.907528
O O3 0.439316 0.000000 0.912019
O O4 0.289107 0.757497 0.091474
O O5 0.422525 0.500000 0.507590
O O6 0.507612 0.223207 0.392625
O O7 0.464012 0.315808 0.567122
O O8 0.244446 0.274793 0.729577
O O9 0.175248 0.715618 0.096558
O O10 0.997945 0.815198 0.200034
O O11 0.179603 0.000000 0.054737
O O12 0.267884 0.784098 0.870662
O O13 0.269565 0.227248 0.403684
O O14 0.019482 0.219139 0.636848
O O15 0.109064 0.000000 0.618257
O O16 0.686368 0.000000 0.174621
O O17 0.347361 0.500000 0.790127
O O18 0.562836 0.000000 0.949173
O O19 0.490390 0.267576 0.071500
O O20 0.362465 0.500000 0.268924
#
# Coordination Sequence:
#
# PCOD8053871 Si02
#       8
#     4   4   4   4   4   4   4   4
#     4  11  24  43  65  93 128 167 210 258 312 372
#     4  10  22  42  66  93 125 163 206 259 317 374
#     4  11  23  41  66  92 123 163 209 262 315 370
#     4  11  24  41  64  96 127 164 212 258 312 373
#     4  12  26  42  63  94 127 166 212 258 313 374
#     4  10  21  40  67  93 121 157 207 264 315 370
#     4  10  23  43  67  92 125 167 209 256 315 375
#     4  11  25  42  64  95 128 165 211 259 313 372
#
# _framework density 20.071625999999998
#
# number of rings (size 3 to 8) (size 9 to 14) (size 15 to 20)
#    0.000    1.250    2.500    2.625    3.500    4.000 
#    0.000    0.000    0.000    0.000    0.000    0.000 
#    0.000    0.000    0.000    0.000    0.000    0.000 
#
# Total GULP energy -198476.728568 kJ/mol
# GULP energy per Si atom -12404.795536 kJ/mol
# Density = 2.002594 g / cm^3
# Si number density = 20.071626 Si / 1000 Ang^3
#
#
#
# Elastic Constant Matrix: (Units=GPa)
#
#
# Indices 1 2 3 4 5 6 
#
# 1 97.3616 37.7901 20.5696 0.0013 -8.4970 -0.0015
# 2 37.7901 91.9349 38.3576 -0.0015 -3.9153 0.0003
# 3 20.5696 38.3576 98.9043 -0.0001 -10.8878 -0.0005
# 4 0.0013 -0.0015 -0.0001 41.3900 0.0016 0.1367
# 5 -8.4970 -3.9153 -10.8878 0.0016 24.2515 -0.0013
# 6 -0.0015 0.0003 -0.0005 0.1367 -0.0013 18.6247
#
#
#
# Elastic Compliance Matrix: (Units=1/GPa)
#
#
# Indices 1 2 3 4 5 6 
#
# 1 0.012531 -0.004862 -0.000341 -0.000001 0.003453 0.000001
# 2 -0.004862 0.014864 -0.004920 0.000001 -0.001513 -0.000001
# 3 -0.000341 -0.004920 0.012612 0.000000 0.004749 0.000001
# 4 -0.000001 0.000001 0.000000 0.024161 -0.000002 -0.000177
# 5 0.003453 -0.001513 0.004749 -0.000002 0.044332 0.000003
# 6 0.000001 -0.000001 0.000001 -0.000177 0.000003 0.053693
#
#
# Mechanical properties :
#
#
# Convention : Reuss Voigt Hill
#
# Bulk Modulus (GPa) = 50.59964 53.51505 52.05734
# Shear Modulus (GPa) = 26.45124 29.61881 28.03502
#
# Velocity S-wave (km/s) = 3.63415 3.84559 3.74137
# Velocity P-wave (km/s) = 6.54780 6.81455 6.68250
#
# Compressibility (1/GPa) = 0.01976299
#
# Stress axis : x y z
#
# Youngs Moduli (GPa) = 79.79967 67.27614 79.28648
#
# Poissons Ratio (x) = 0.32709 0.02700
# Poissons Ratio (y) = 0.38798 0.39009
# Poissons Ratio (z) = 0.02718 0.33100
#
# Static dielectric constant tensor:
#      x y z
#    x 3.785540 0.000000 -0.060480 
#    y 0.000000 3.670100 0.000000 
#    z -0.060480 0.000000 3.617300 
# 
# 
# High freq. dielectric constant tensor:
#      x y z
#    x 1.795830 0.000000 -0.001910 
#    y 0.000000 1.787190 0.000000 
#    z -0.001910 0.000000 1.789080 
# 
# From -- ./inp_files/31640.got.cif
#   From: 2010.03.12/outbox.cif.g09.slc.cpg/sg8_16_cif.got.tgz:31640.got - 2010.03.31 10:45:26.
