data_PCOD8053447
_publ_section_title
;
Structure prediction by ZEFSAII (Michael W. Deem and Ramdas Pophale) SiO2 
 PCOD8053447
Probable space group: C M
;
_chemical_formula_sum "Si O2"
_cell_formula_units_Z 32
_cell_length_a 20.602853
_cell_length_b 8.861667
_cell_length_c 12.151203
_cell_angle_alpha 90.000000
_cell_angle_beta 128.464853
_cell_angle_gamma 90.000000
_cell_volume 1737.073580
_symmetry_space_group_name_H-M "C M"
_symmetry_group_IT_number 8
_symmetry_cell_setting 'monoclinic'
loop_
_space_group_symop_operation_xyz
x,y,z
x,-y,z
1/2+x,1/2+y,z
1/2+x,1/2-y,z
loop_
_atom_site_type_symbol
_atom_site_label
_atom_site_fract_x
_atom_site_fract_y
_atom_site_fract_z
Si Si1 0.564600 0.322982 0.711230
Si Si2 0.261311 0.175839 0.447490
Si Si3 0.669723 0.821888 0.000317
Si Si4 0.507723 0.823771 0.437541
Si Si5 0.912874 0.826379 0.704869
Si Si6 0.818626 0.676183 0.263347
Si Si7 0.039186 0.175670 0.021736
Si Si8 0.585423 0.823139 0.286674
O O1 0.580962 0.500000 0.734604
O O2 0.640648 0.241109 0.851982
O O3 0.561354 0.267791 0.582786
O O4 0.479353 0.279019 0.682452
O O5 0.332178 0.222532 0.609140
O O6 0.292895 0.218310 0.359839
O O7 0.179513 0.268422 0.388203
O O8 0.242064 0.000000 0.439679
O O9 0.662846 0.000000 0.992652
O O10 0.763917 0.770520 0.119648
O O11 0.614724 0.757210 0.041183
O O12 0.412629 0.772381 0.343310
O O13 0.542923 0.780586 0.356274
O O14 0.516766 0.000000 0.473669
O O15 0.886712 0.000000 0.662678
O O16 0.952775 0.797608 0.867056
O O17 0.806486 0.500000 0.226554
O O18 0.031534 0.240612 0.136076
O O19 0.062329 0.000000 0.049649
O O20 0.583358 0.000000 0.261530
#
# Coordination Sequence:
#
# PCOD8053447 Si02
#       8
#     4   4   4   4   4   4   4   4
#     4  10  20  35  57  84 115 149 185 230 283 333
#     4  11  21  34  58  85 113 147 187 235 280 330
#     4  11  21  33  56  86 115 147 187 233 280 331
#     4  10  22  40  59  82 114 151 189 231 280 335
#     4   9  19  34  55  83 113 143 183 234 282 328
#     4  10  20  36  57  83 114 146 189 237 279 327
#     4  10  20  36  56  82 115 149 186 232 283 332
#     4  11  23  38  58  83 115 152 188 230 281 338
#
# _framework density 18.421787999999999
#
# number of rings (size 3 to 8) (size 9 to 14) (size 15 to 20)
#    0.000    1.750    2.500    3.375    0.000    4.500 
#    0.000    1.250    0.000    3.000    0.000    0.000 
#    0.000    0.000    0.000    0.000    0.000    0.000 
#
# Total GULP energy -198477.112571 kJ/mol
# GULP energy per Si atom -12404.819536 kJ/mol
# Density = 1.837986 g / cm^3
# Si number density = 18.421788 Si / 1000 Ang^3
#
#
#
# Elastic Constant Matrix: (Units=GPa)
#
#
# Indices 1 2 3 4 5 6 
#
# 1 92.1052 41.9571 57.2923 0.0000 -4.4337 0.0000
# 2 41.9571 93.1239 65.8554 0.0000 -6.4468 0.0000
# 3 57.2923 65.8554 151.4380 0.0000 -4.8991 0.0000
# 4 0.0000 0.0000 0.0000 39.0926 0.0000 0.0467
# 5 -4.4337 -6.4468 -4.8991 0.0000 23.0839 0.0000
# 6 0.0000 0.0000 0.0000 0.0467 0.0000 23.6186
#
#
#
# Elastic Compliance Matrix: (Units=1/GPa)
#
#
# Indices 1 2 3 4 5 6 
#
# 1 0.015190 -0.003950 -0.003998 0.000000 0.000966 0.000000
# 2 -0.003950 0.016732 -0.005695 0.000000 0.002706 0.000000
# 3 -0.003998 -0.005695 0.010589 0.000000 -0.000111 0.000000
# 4 0.000000 0.000000 0.000000 0.025580 0.000000 -0.000051
# 5 0.000966 0.002706 -0.000111 0.000000 0.044238 0.000000
# 6 0.000000 0.000000 0.000000 -0.000051 0.000000 0.042340
#
#
# Mechanical properties :
#
#
# Convention : Reuss Voigt Hill
#
# Bulk Modulus (GPa) = 65.67481 74.09741 69.88611
# Shear Modulus (GPa) = 26.73402 28.59652 27.66527
#
# Velocity S-wave (km/s) = 3.81362 3.94422 3.87947
# Velocity P-wave (km/s) = 7.42426 7.81361 7.62142
#
# Compressibility (1/GPa) = 0.01522654
#
# Stress axis : x y z
#
# Youngs Moduli (GPa) = 65.83465 59.76457 94.44163
#
# Poissons Ratio (x) = 0.23605 0.37755
# Poissons Ratio (y) = 0.26003 0.53780
# Poissons Ratio (z) = 0.26319 0.34033
#
# Static dielectric constant tensor:
#      x y z
#    x 3.176980 0.000000 0.015100 
#    y 0.000000 3.387030 0.000000 
#    z 0.015100 0.000000 3.552420 
# 
# 
# High freq. dielectric constant tensor:
#      x y z
#    x 1.683930 0.000000 0.004940 
#    y 0.000000 1.722010 0.000000 
#    z 0.004940 0.000000 1.730110 
# 
# From -- ./inp_files/23734.got.cif
#   From: 2010.03.12/outbox.cif.g09.slc.cpg/sg8_12_cif.got.tgz:23734.got - 2010.03.31 10:45:26.
