data_PCOD8053428
_publ_section_title
;
Structure prediction by ZEFSAII (Michael W. Deem and Ramdas Pophale) SiO2 
 PCOD8053428
Probable space group: C M
;
_chemical_formula_sum "Si O2"
_cell_formula_units_Z 32
_cell_length_a 22.467420
_cell_length_b 8.852474
_cell_length_c 27.585951
_cell_angle_alpha 90.000000
_cell_angle_beta 162.238609
_cell_angle_gamma 90.000000
_cell_volume 1673.717029
_symmetry_space_group_name_H-M "C M"
_symmetry_group_IT_number 8
_symmetry_cell_setting 'monoclinic'
loop_
_space_group_symop_operation_xyz
x,y,z
x,-y,z
1/2+x,1/2+y,z
1/2+x,1/2-y,z
loop_
_atom_site_type_symbol
_atom_site_label
_atom_site_fract_x
_atom_site_fract_y
_atom_site_fract_z
Si Si1 0.787640 0.321089 0.394360
Si Si2 0.606917 0.177079 0.461707
Si Si3 0.858935 0.821883 0.088528
Si Si4 0.547153 0.326150 0.778976
Si Si5 0.089291 0.822064 0.699491
Si Si6 0.018177 0.322484 0.011953
Si Si7 0.349788 0.320509 0.340322
Si Si8 0.317878 0.321367 0.165262
O O1 0.792767 0.500000 0.392936
O O2 0.571253 0.259826 0.238292
O O3 0.862870 0.246777 0.403611
O O4 0.926274 0.270682 0.545176
O O5 0.535439 0.261913 0.454378
O O6 0.499863 0.238455 0.330936
O O7 0.833953 0.214082 0.632861
O O8 0.566018 0.000000 0.434703
O O9 0.801190 0.762732 0.097310
O O10 0.863946 0.000000 0.093293
O O11 0.702062 0.770657 0.928204
O O12 0.599006 0.500000 0.827640
O O13 0.562821 0.284101 0.735056
O O14 0.065977 0.000000 0.670675
O O15 0.300170 0.756907 0.846163
O O16 0.002572 0.500000 0.005731
O O17 0.153075 0.262627 0.160771
O O18 0.117477 0.277913 0.037772
O O19 0.359575 0.500000 0.350516
O O20 0.356413 0.500000 0.198722
#
# Coordination Sequence:
#
# PCOD8053428 Si02
#       8
#     4   4   4   4   4   4   4   4
#     4  11  23  37  53  80 113 143 180 231 278 320
#     4  10  20  35  55  83 114 143 178 227 277 321
#     4  10  22  37  55  79 111 148 186 227 272 320
#     4  10  22  37  55  80 112 146 184 228 273 321
#     4  10  20  36  56  79 107 144 185 224 269 327
#     4   8  16  32  56  81 104 133 180 229 262 306
#     4  10  20  37  60  82 106 144 184 222 271 331
#     4   9  18  35  56  80 109 145 185 222 264 324
#
# _framework density 19.119122000000001
#
# number of rings (size 3 to 8) (size 9 to 14) (size 15 to 20)
#    0.000    2.250    0.000    3.375    0.000    5.000 
#    0.000    4.375    0.000    0.000    0.000    0.000 
#    0.000    0.000    0.000    0.000    0.000    0.000 
#
# Total GULP energy -198427.256820 kJ/mol
# GULP energy per Si atom -12401.703551 kJ/mol
# Density = 1.907561 g / cm^3
# Si number density = 19.119122 Si / 1000 Ang^3
#
#
#
# Elastic Constant Matrix: (Units=GPa)
#
#
# Indices 1 2 3 4 5 6 
#
# 1 136.3315 33.4241 59.4418 -0.0467 3.0317 0.0060
# 2 33.4241 47.9765 31.1238 -0.0387 3.5044 0.0319
# 3 59.4418 31.1238 117.4161 -0.0815 5.3109 -0.0026
# 4 -0.0467 -0.0387 -0.0815 29.6879 0.0351 -7.2411
# 5 3.0317 3.5044 5.3109 0.0351 20.4382 0.0106
# 6 0.0060 0.0319 -0.0026 -7.2411 0.0106 23.4134
#
#
#
# Elastic Compliance Matrix: (Units=1/GPa)
#
#
# Indices 1 2 3 4 5 6 
#
# 1 0.010166 -0.004537 -0.003958 0.000000 0.000298 0.000003
# 2 -0.004537 0.027336 -0.004824 0.000011 -0.002760 -0.000032
# 3 -0.003958 -0.004824 0.011875 0.000026 -0.001671 0.000018
# 4 0.000000 0.000011 0.000026 0.036432 -0.000077 0.011268
# 5 0.000298 -0.002760 -0.001671 -0.000077 0.049791 -0.000043
# 6 0.000003 -0.000032 0.000018 0.011268 -0.000043 0.046195
#
#
# Mechanical properties :
#
#
# Convention : Reuss Voigt Hill
#
# Bulk Modulus (GPa) = 43.97724 61.07815 52.52770
# Shear Modulus (GPa) = 23.14678 26.55687 24.85183
#
# Velocity S-wave (km/s) = 3.48323 3.73100 3.60924
# Velocity P-wave (km/s) = 6.26329 7.11168 6.70092
#
# Compressibility (1/GPa) = 0.02273903
#
# Stress axis : x y z
#
# Youngs Moduli (GPa) = 98.36452 36.58225 84.21343
#
# Poissons Ratio (x) = 0.16597 0.33328
# Poissons Ratio (y) = 0.44628 0.40626
# Poissons Ratio (z) = 0.38928 0.17648
#
# Static dielectric constant tensor:
#      x y z
#    x 3.709580 -0.000050 0.171660 
#    y -0.000050 3.322010 -0.000110 
#    z 0.171660 -0.000110 3.601640 
# 
# 
# High freq. dielectric constant tensor:
#      x y z
#    x 1.758300 0.000000 0.007130 
#    y 0.000000 1.728670 -0.000010 
#    z 0.007130 -0.000010 1.747090 
# 
# From -- ./inp_files/33055.got.cif
#   From: 2010.03.12/outbox.cif.g09.slc.cpg/sg8_17_cif.got.tgz:33055.got - 2010.03.31 10:45:26.
