data_PCOD8053566
_publ_section_title
;
Structure prediction by ZEFSAII (Michael W. Deem and Ramdas Pophale) SiO2 
 PCOD8053566
Probable space group: C M
;
_chemical_formula_sum "Si O2"
_cell_formula_units_Z 28
_cell_length_a 9.112514
_cell_length_b 9.955294
_cell_length_c 23.617841
_cell_angle_alpha 90.000000
_cell_angle_beta 141.310753
_cell_angle_gamma 90.000000
_cell_volume 1339.304527
_symmetry_space_group_name_H-M "C M"
_symmetry_group_IT_number 8
_symmetry_cell_setting 'monoclinic'
loop_
_space_group_symop_operation_xyz
x,y,z
x,-y,z
1/2+x,1/2+y,z
1/2+x,1/2-y,z
loop_
_atom_site_type_symbol
_atom_site_label
_atom_site_fract_x
_atom_site_fract_y
_atom_site_fract_z
Si Si1 0.595570 0.147449 0.332120
Si Si2 0.875393 0.649427 0.840842
Si Si3 0.593410 0.272653 0.451489
Si Si4 0.098731 0.352640 0.570410
Si Si5 0.455296 0.848254 0.733346
Si Si6 0.333884 0.153419 0.144855
Si Si7 0.842775 0.848618 0.046605
O O1 0.528586 0.216278 0.370595
O O2 0.460678 0.215831 0.238782
O O3 0.875706 0.136079 0.405853
O O4 0.489201 0.000000 0.305179
O O5 0.793171 0.500000 0.836884
O O6 0.688656 0.765419 0.792787
O O7 0.925110 0.639740 0.790229
O O8 0.107705 0.695726 0.943639
O O9 0.612125 0.159466 0.506153
O O10 0.836575 0.352520 0.517520
O O11 0.205765 0.500000 0.617305
O O12 0.238272 0.229791 0.640064
O O13 0.471327 0.000000 0.712217
O O14 0.408320 0.246474 0.115687
O O15 0.053172 0.158496 0.065138
O O16 0.418866 0.000000 0.159268
O O17 0.818052 0.000000 0.063432
#
# Coordination Sequence:
#
# PCOD8053566 Si02
#       7
#     4   4   4   4   4   4   4
#     4  10  20  37  58  82 115 152 190 234 283 333
#     4  10  22  40  60  84 116 152 191 235 283 338
#     4  10  22  37  58  84 113 151 194 235 281 336
#     4  11  23  39  59  85 116 150 191 237 286 340
#     4  11  24  40  61  87 115 149 190 236 286 342
#     4  10  21  37  59  87 118 152 191 236 284 336
#     4  10  21  38  59  85 117 152 191 235 283 337
#
# _framework density 20.906374
#
# number of rings (size 3 to 8) (size 9 to 14) (size 15 to 20)
#    0.000    1.714    0.000    3.857    0.000    9.143 
#    0.000    3.571    0.000    0.000    0.000    0.000 
#    0.000    0.000    0.000    0.000    0.000    0.000 
#
# Total GULP energy -173536.722148 kJ/mol
# GULP energy per Si atom -12395.480153 kJ/mol
# Density = 2.085879 g / cm^3
# Si number density = 20.906374 Si / 1000 Ang^3
#
#
#
# Elastic Constant Matrix: (Units=GPa)
#
#
# Indices 1 2 3 4 5 6 
#
# 1 74.7963 25.3759 9.5940 0.0000 -4.3626 0.0000
# 2 25.3759 116.2033 29.7335 0.0000 -4.1361 0.0000
# 3 9.5940 29.7335 94.3517 0.0000 -2.5494 0.0000
# 4 0.0000 0.0000 0.0000 24.2349 0.0000 -25.5272
# 5 -4.3626 -4.1361 -2.5494 0.0000 37.4638 0.0000
# 6 0.0000 0.0000 0.0000 -25.5272 0.0000 -74.2407
#
#
#
# Elastic Compliance Matrix: (Units=1/GPa)
#
#
# Indices 1 2 3 4 5 6 
#
# 1 0.014528 -0.002998 -0.000497 0.000000 0.001327 0.000000
# 2 -0.002998 0.010005 -0.002833 0.000000 0.000563 0.000000
# 3 -0.000497 -0.002833 0.011553 0.000000 0.000416 0.000000
# 4 0.000000 0.000000 0.000000 0.030292 0.000000 -0.010416
# 5 0.001327 0.000563 0.000416 0.000000 0.026937 0.000000
# 6 0.000000 0.000000 0.000000 -0.010416 0.000000 -0.009888
#
#
# Mechanical properties :
#
#
# Convention : Reuss Voigt Hill
#
# Bulk Modulus (GPa) = 42.67874 46.08423 44.38148
# Shear Modulus (GPa) = 48.12654 12.20147 30.16401
#
# Velocity S-wave (km/s) = 4.80312 2.41845 3.80256
# Velocity P-wave (km/s) = 7.15671 5.46713 6.36821
#
# Compressibility (1/GPa) = 0.02343087
#
# Stress axis : x y z
#
# Youngs Moduli (GPa) = 68.83289 99.94750 86.55675
#
# Poissons Ratio (x) = 0.29967 0.04298
# Poissons Ratio (y) = 0.20638 0.24521
# Poissons Ratio (z) = 0.03418 0.28314
#
# Static dielectric constant tensor:
#      x y z
#    x 3.698610 0.000000 -0.035610 
#    y 0.000000 4.088460 0.000000 
#    z -0.035610 0.000000 3.906370 
# 
# 
# High freq. dielectric constant tensor:
#      x y z
#    x 1.816630 0.000000 -0.000880 
#    y 0.000000 1.815210 0.000000 
#    z -0.000880 0.000000 1.830920 
# 
# From -- ./inp_files/25212.got.cif
#   From: 2010.03.12/outbox.cif.g09.slc.cpg/sg8_13_cif.got.tgz:25212.got - 2010.03.31 10:45:26.
