data_PCOD8053448
_publ_section_title
;
Structure prediction by ZEFSAII (Michael W. Deem and Ramdas Pophale) SiO2 
 PCOD8053448
Probable space group: C M
;
_chemical_formula_sum "Si O2"
_cell_formula_units_Z 32
_cell_length_a 27.235424
_cell_length_b 8.660819
_cell_length_c 20.534545
_cell_angle_alpha 90.000000
_cell_angle_beta 19.067802
_cell_angle_gamma 90.000000
_cell_volume 1582.376428
_symmetry_space_group_name_H-M "C M"
_symmetry_group_IT_number 8
_symmetry_cell_setting 'monoclinic'
loop_
_space_group_symop_operation_xyz
x,y,z
x,-y,z
1/2+x,1/2+y,z
1/2+x,1/2-y,z
loop_
_atom_site_type_symbol
_atom_site_label
_atom_site_fract_x
_atom_site_fract_y
_atom_site_fract_z
Si Si1 0.551440 0.682419 0.729000
Si Si2 0.899540 0.178701 0.785810
Si Si3 0.065878 0.316223 0.960032
Si Si4 0.389172 0.817112 0.305779
Si Si5 0.569923 0.179798 0.455892
Si Si6 0.392182 0.182053 0.051966
Si Si7 0.907295 0.180778 0.538411
Si Si8 0.549359 0.179125 0.236411
O O1 0.546218 0.500000 0.743371
O O2 0.489377 0.733316 0.736770
O O3 0.720257 0.748474 0.523831
O O4 0.445694 0.751753 0.916537
O O5 0.950014 0.280626 0.661752
O O6 0.930943 0.000000 0.730076
O O7 0.725608 0.209012 0.016356
O O8 0.061025 0.500000 0.966558
O O9 0.968774 0.248350 0.141699
O O10 0.996659 0.252804 0.979303
O O11 0.236300 0.258353 0.754030
O O12 0.484664 0.766139 0.248368
O O13 0.382761 0.000000 0.307504
O O14 0.721993 0.271292 0.279730
O O15 0.503583 0.225263 0.469493
O O16 0.606666 0.000000 0.409401
O O17 0.402734 0.000000 0.035661
O O18 0.973869 0.212232 0.384158
O O19 0.916363 0.000000 0.543485
O O20 0.511207 0.000000 0.298108
#
# Coordination Sequence:
#
# PCOD8053448 Si02
#       8
#     4   4   4   4   4   4   4   4
#     4  10  20  35  57  84 115 151 191 234 282 339
#     4  10  21  38  59  81 109 149 193 236 285 340
#     4   9  19  36  59  87 116 151 194 237 284 340
#     4   9  17  32  55  81 112 151 192 233 280 336
#     4  12  25  40  59  85 117 151 193 242 289 342
#     4  11  22  38  61  87 118 154 193 237 286 342
#     4  11  22  38  61  87 118 154 193 237 286 342
#     4  10  20  35  57  84 115 151 191 234 282 339
#
# _framework density 20.222746999999998
#
# number of rings (size 3 to 8) (size 9 to 14) (size 15 to 20)
#    0.000    1.750    0.000    4.875    0.000    6.000 
#    0.000    1.875    0.000    3.000    0.000    0.000 
#    0.000    0.000    0.000    0.000    0.000    0.000 
#
# Total GULP energy -198481.452183 kJ/mol
# GULP energy per Si atom -12405.090761 kJ/mol
# Density = 2.017672 g / cm^3
# Si number density = 20.222747 Si / 1000 Ang^3
#
#
#
# Elastic Constant Matrix: (Units=GPa)
#
#
# Indices 1 2 3 4 5 6 
#
# 1 105.7973 33.7597 36.3864 0.0001 -3.6719 0.0000
# 2 33.7597 17.6136 11.9682 0.0005 5.2109 0.0002
# 3 36.3864 11.9682 103.1055 0.0001 -2.1654 -0.0001
# 4 0.0001 0.0005 0.0001 15.6664 -0.0001 11.3105
# 5 -3.6719 5.2109 -2.1654 -0.0001 46.3625 0.0000
# 6 0.0000 0.0002 -0.0001 11.3105 0.0000 23.2088
#
#
#
# Elastic Compliance Matrix: (Units=1/GPa)
#
#
# Indices 1 2 3 4 5 6 
#
# 1 0.028190 -0.054062 -0.003502 0.000002 0.008145 -0.000001
# 2 -0.054062 0.167861 -0.000893 -0.000007 -0.023190 0.000002
# 3 -0.003502 -0.000893 0.011045 0.000000 0.000339 0.000000
# 4 0.000002 -0.000007 0.000000 0.098479 0.000001 -0.047993
# 5 0.008145 -0.023190 0.000339 0.000001 0.024836 0.000000
# 6 -0.000001 0.000002 0.000000 -0.047993 0.000000 0.066476
#
#
# Mechanical properties :
#
#
# Convention : Reuss Voigt Hill
#
# Bulk Modulus (GPa) = 11.08861 43.41610 27.25235
# Shear Modulus (GPa) = 9.19349 26.67437 17.93393
#
# Velocity S-wave (km/s) = 2.13447 3.63578 2.98118
# Velocity P-wave (km/s) = 3.40144 6.25626 5.03540
#
# Compressibility (1/GPa) = 0.09018266
#
# Stress axis : x y z
#
# Youngs Moduli (GPa) = 35.47341 5.95731 90.53471
#
# Poissons Ratio (x) = 0.32206 0.31705
# Poissons Ratio (y) = 1.91775 0.08088
# Poissons Ratio (z) = 0.12423 0.00532
#
# Static dielectric constant tensor:
#      x y z
#    x 3.875290 0.000000 -0.101270 
#    y 0.000000 3.349300 0.000000 
#    z -0.101270 0.000000 3.831670 
# 
# 
# High freq. dielectric constant tensor:
#      x y z
#    x 1.808550 0.000000 -0.002490 
#    y 0.000000 1.757700 0.000000 
#    z -0.002490 0.000000 1.807270 
# 
# From -- ./inp_files/31070.got.cif
#   From: 2010.03.12/outbox.cif.g09.slc.cpg/sg8_16_cif.got.tgz:31070.got - 2010.03.31 10:45:26.
