data_PCOD8053397
_publ_section_title
;
Structure prediction by ZEFSAII (Michael W. Deem and Ramdas Pophale) SiO2 
 PCOD8053397
Probable space group: C M
;
_chemical_formula_sum "Si O2"
_cell_formula_units_Z 28
_cell_length_a 8.842041
_cell_length_b 13.135758
_cell_length_c 12.523210
_cell_angle_alpha 90.000000
_cell_angle_beta 64.400946
_cell_angle_gamma 90.000000
_cell_volume 1311.754785
_symmetry_space_group_name_H-M "C M"
_symmetry_group_IT_number 8
_symmetry_cell_setting 'monoclinic'
loop_
_space_group_symop_operation_xyz
x,y,z
x,-y,z
1/2+x,1/2+y,z
1/2+x,1/2-y,z
loop_
_atom_site_type_symbol
_atom_site_label
_atom_site_fract_x
_atom_site_fract_y
_atom_site_fract_z
Si Si1 0.343270 0.696906 0.327170
Si Si2 0.562934 0.380517 0.078983
Si Si3 0.252740 0.384487 0.567892
Si Si4 0.381788 0.114216 0.642617
Si Si5 0.895624 0.251589 0.950932
Si Si6 0.744977 0.801170 0.787207
Si Si7 0.478937 0.116925 0.377287
O O1 0.480355 0.633646 0.219914
O O2 0.368171 0.671315 0.445719
O O3 0.384348 0.818812 0.312596
O O4 0.159701 0.668493 0.341809
O O5 0.582708 0.500000 0.046626
O O6 0.743003 0.326011 0.026330
O O7 0.438427 0.326170 0.032858
O O8 0.250310 0.500000 0.531622
O O9 0.318654 0.371252 0.669155
O O10 0.063440 0.342419 0.621648
O O11 0.246965 0.184229 0.743667
O O12 0.367047 0.119403 0.518882
O O13 0.352643 0.000000 0.693234
O O14 0.854591 0.183168 0.859459
O O15 0.052523 0.325042 0.876039
O O16 0.502441 0.000000 0.331647
#
# Coordination Sequence:
#
# PCOD8053397 Si02
#       7
#     4   4   4   4   4   4   4
#     4  11  21  40  69  93 129 163 211 265 313 378
#     4  11  24  46  67  89 125 172 218 265 313 369
#     4  10  20  34  59  94 123 160 203 256 327 385
#     4   9  18  34  59  87 123 169 200 241 321 389
#     4  10  25  40  62  91 121 169 222 259 307 369
#     4  11  19  38  61  88 128 155 204 267 317 372
#     4  10  21  38  63  96 133 168 200 249 320 384
#
# _framework density 21.345451000000001
#
# number of rings (size 3 to 8) (size 9 to 14) (size 15 to 20)
#    0.000    1.714    2.857    3.000    0.000    3.429 
#    0.000    6.429    0.000    0.000    0.000    0.000 
#    0.000    0.000    0.000    0.000    0.000    0.000 
#
# Total GULP energy -173543.032072 kJ/mol
# GULP energy per Si atom -12395.930862 kJ/mol
# Density = 2.129687 g / cm^3
# Si number density = 21.345451 Si / 1000 Ang^3
#
#
#
# Elastic Constant Matrix: (Units=GPa)
#
#
# Indices 1 2 3 4 5 6 
#
# 1 83.5786 51.6462 33.1408 0.0000 -3.4847 0.0000
# 2 51.6462 131.9085 35.0981 0.0000 -3.0605 0.0000
# 3 33.1408 35.0981 100.1766 0.0000 -2.5955 0.0000
# 4 0.0000 0.0000 0.0000 25.0768 0.0000 1.3706
# 5 -3.4847 -3.0605 -2.5955 0.0000 24.6856 0.0000
# 6 0.0000 0.0000 0.0000 1.3706 0.0000 30.5019
#
#
#
# Elastic Compliance Matrix: (Units=1/GPa)
#
#
# Indices 1 2 3 4 5 6 
#
# 1 0.016930 -0.005643 -0.003590 0.000000 0.001313 0.000000
# 2 -0.005643 0.010254 -0.001718 0.000000 0.000294 0.000000
# 3 -0.003590 -0.001718 0.011785 0.000000 0.000519 0.000000
# 4 0.000000 0.000000 0.000000 0.039976 0.000000 -0.001796
# 5 0.001313 0.000294 0.000519 0.000000 0.040786 0.000000
# 6 0.000000 0.000000 0.000000 -0.001796 0.000000 0.032866
#
#
# Mechanical properties :
#
#
# Convention : Reuss Voigt Hill
#
# Bulk Modulus (GPa) = 58.58998 61.71487 60.15242
# Shear Modulus (GPa) = 27.74877 29.10476 28.42676
#
# Velocity S-wave (km/s) = 3.60944 3.69658 3.65327
# Velocity P-wave (km/s) = 6.69916 6.86985 6.78504
#
# Compressibility (1/GPa) = 0.01706777
#
# Stress axis : x y z
#
# Youngs Moduli (GPa) = 59.06706 97.51875 84.85056
#
# Poissons Ratio (x) = 0.55029 0.30459
# Poissons Ratio (y) = 0.33331 0.14580
# Poissons Ratio (z) = 0.21203 0.16757
#
# Static dielectric constant tensor:
#      x y z
#    x 3.738380 0.000000 0.032460 
#    y 0.000000 3.760230 0.000000 
#    z 0.032460 0.000000 4.011380 
# 
# 
# High freq. dielectric constant tensor:
#      x y z
#    x 1.821690 0.000000 -0.002410 
#    y 0.000000 1.825690 0.000000 
#    z -0.002410 0.000000 1.845290 
# 
# From -- ./inp_files/18769.got.cif
#   From: 2010.03.12/outbox.cif.g09.slc.cpg/sg8_10_cif.got.tgz:18769.got - 2010.03.31 10:45:26.
