data_PCOD8053915
_publ_section_title
;
Structure prediction by ZEFSAII (Michael W. Deem and Ramdas Pophale) SiO2 
 PCOD8053915
Probable space group: C M
;
_chemical_formula_sum "Si O2"
_cell_formula_units_Z 32
_cell_length_a 24.137958
_cell_length_b 9.276014
_cell_length_c 25.262594
_cell_angle_alpha 90.000000
_cell_angle_beta 17.107581
_cell_angle_gamma 90.000000
_cell_volume 1663.924062
_symmetry_space_group_name_H-M "C M"
_symmetry_group_IT_number 8
_symmetry_cell_setting 'monoclinic'
loop_
_space_group_symop_operation_xyz
x,y,z
x,-y,z
1/2+x,1/2+y,z
1/2+x,1/2-y,z
loop_
_atom_site_type_symbol
_atom_site_label
_atom_site_fract_x
_atom_site_fract_y
_atom_site_fract_z
Si Si1 0.047000 0.158878 0.085130
Si Si2 0.591681 0.168961 0.664605
Si Si3 0.952557 0.327702 0.373626
Si Si4 0.974592 0.341089 0.658372
Si Si5 0.863303 0.832378 0.665565
Si Si6 0.455227 0.167306 0.073015
Si Si7 0.671712 0.668988 0.083757
Si Si8 0.570015 0.331733 0.370342
O O1 0.047956 0.212075 0.145124
O O2 0.925933 0.260181 0.157243
O O3 0.957425 0.000000 0.163799
O O4 0.259976 0.154385 0.871730
O O5 0.744455 0.266869 0.553869
O O6 0.593432 0.212031 0.600737
O O7 0.641150 0.000000 0.625912
O O8 0.391193 0.202681 0.874324
O O9 0.950526 0.500000 0.373682
O O10 0.101133 0.266955 0.195872
O O11 0.017729 0.273985 0.371165
O O12 0.043002 0.500000 0.579331
O O13 0.000129 0.239521 0.584270
O O14 0.930696 0.792382 0.545577
O O15 0.882787 0.000000 0.658428
O O16 0.647113 0.779965 0.869222
O O17 0.283579 0.205295 0.191434
O O18 0.462454 0.000000 0.078857
O O19 0.643308 0.500000 0.122797
O O20 0.549813 0.500000 0.372576
#
# Coordination Sequence:
#
# PCOD8053915 Si02
#       8
#     4   4   4   4   4   4   4   4
#     4   8  15  30  54  83 110 136 170 213 264 323
#     4   9  19  38  62  84 110 148 188 223 267 329
#     4  12  26  39  54  81 113 144 186 238 285 326
#     4   8  15  30  54  83 110 136 170 213 264 323
#     4   9  18  33  54  79 106 137 172 215 269 322
#     4   9  18  33  54  79 106 137 172 215 269 322
#     4   9  19  38  62  84 110 148 188 223 267 329
#     4  10  22  39  54  71 101 142 190 230 261 318
#
# _framework density 19.231645
#
# number of rings (size 3 to 8) (size 9 to 14) (size 15 to 20)
#    0.000    2.750    0.000    2.625    0.000    4.500 
#    0.000    7.500    0.000    0.000    0.000    0.000 
#    0.000    0.000    0.000    0.000    0.000    0.000 
#
# Total GULP energy -198345.602649 kJ/mol
# GULP energy per Si atom -12396.600166 kJ/mol
# Density = 1.918787 g / cm^3
# Si number density = 19.231645 Si / 1000 Ang^3
#
#
#
# Elastic Constant Matrix: (Units=GPa)
#
#
# Indices 1 2 3 4 5 6 
#
# 1 166.4134 89.8761 64.8779 0.0097 -2.1666 0.0051
# 2 89.8761 100.8648 53.8742 0.0166 0.4176 -0.0145
# 3 64.8779 53.8742 96.1431 0.0043 0.1362 -0.0156
# 4 0.0097 0.0166 0.0043 19.5473 -0.0053 1.9761
# 5 -2.1666 0.4176 0.1362 -0.0053 36.8081 -0.0025
# 6 0.0051 -0.0145 -0.0156 1.9761 -0.0025 39.5730
#
#
#
# Elastic Compliance Matrix: (Units=1/GPa)
#
#
# Indices 1 2 3 4 5 6 
#
# 1 0.012205 -0.009247 -0.003056 0.000003 0.000835 -0.000006
# 2 -0.009247 0.021155 -0.005613 -0.000013 -0.000764 0.000007
# 3 -0.003056 -0.005613 0.015609 0.000002 -0.000174 0.000004
# 4 0.000003 -0.000013 0.000002 0.051418 0.000008 -0.002568
# 5 0.000835 -0.000764 -0.000174 0.000008 0.027226 0.000001
# 6 -0.000006 0.000007 0.000004 -0.002568 0.000001 0.025398
#
#
# Mechanical properties :
#
#
# Convention : Reuss Voigt Hill
#
# Bulk Modulus (GPa) = 76.12017 86.74198 81.43107
# Shear Modulus (GPa) = 25.87679 29.50523 27.69101
#
# Velocity S-wave (km/s) = 3.67213 3.92114 3.79867
# Velocity P-wave (km/s) = 7.59250 8.10568 7.85328
#
# Compressibility (1/GPa) = 0.01313712
#
# Stress axis : x y z
#
# Youngs Moduli (GPa) = 81.93073 47.26963 64.06528
#
# Poissons Ratio (x) = 0.43710 0.19578
# Poissons Ratio (y) = 0.75761 0.35963
# Poissons Ratio (z) = 0.25037 0.26535
#
# Static dielectric constant tensor:
#      x y z
#    x 3.605140 -0.000030 -0.000230 
#    y -0.000030 3.519330 -0.000020 
#    z -0.000230 -0.000020 3.614290 
# 
# 
# High freq. dielectric constant tensor:
#      x y z
#    x 1.749200 0.000000 -0.000180 
#    y 0.000000 1.731410 0.000000 
#    z -0.000180 0.000000 1.751000 
# 
# From -- ./inp_files/32401.got.cif
#   From: 2010.03.12/outbox.cif.g09.slc.cpg/sg8_17_cif.got.tgz:32401.got - 2010.03.31 10:45:26.
