data_PCOD8053546
_publ_section_title
;
Structure prediction by ZEFSAII (Michael W. Deem and Ramdas Pophale) SiO2 
 PCOD8053546
Probable space group: C M
;
_chemical_formula_sum "Si O2"
_cell_formula_units_Z 32
_cell_length_a 24.851176
_cell_length_b 8.958024
_cell_length_c 23.646759
_cell_angle_alpha 90.000000
_cell_angle_beta 162.184724
_cell_angle_gamma 90.000000
_cell_volume 1610.571610
_symmetry_space_group_name_H-M "C M"
_symmetry_group_IT_number 8
_symmetry_cell_setting 'monoclinic'
loop_
_space_group_symop_operation_xyz
x,y,z
x,-y,z
1/2+x,1/2+y,z
1/2+x,1/2-y,z
loop_
_atom_site_type_symbol
_atom_site_label
_atom_site_fract_x
_atom_site_fract_y
_atom_site_fract_z
Si Si1 0.234940 0.324047 0.449290
Si Si2 0.124423 0.830508 0.962202
Si Si3 0.098965 0.674696 0.820096
Si Si4 0.932369 0.828206 0.079112
Si Si5 0.214803 0.331877 0.556561
Si Si6 0.927833 0.173632 0.943161
Si Si7 0.623214 0.330516 0.572878
Si Si8 0.729426 0.170755 0.176952
O O1 0.267057 0.500000 0.477974
O O2 0.418376 0.246040 0.616926
O O3 0.176528 0.278415 0.454302
O O4 0.085865 0.274974 0.256863
O O5 0.162669 0.744390 0.942671
O O6 0.921304 0.824818 0.776002
O O7 0.189265 0.000000 0.019125
O O8 0.232415 0.754889 0.120253
O O9 0.069158 0.500000 0.798861
O O10 0.247167 0.710841 0.922315
O O11 0.984192 0.000000 0.141556
O O12 0.911641 0.791276 0.992788
O O13 0.144549 0.500000 0.495639
O O14 0.119070 0.219812 0.503229
O O15 0.748521 0.225632 0.734594
O O16 0.952331 0.000000 0.954673
O O17 0.097440 0.257581 0.089449
O O18 0.692126 0.500000 0.645060
O O19 0.425367 0.317889 0.398944
O O20 0.674001 0.000000 0.111041
#
# Coordination Sequence:
#
# PCOD8053546 Si02
#       8
#     4   4   4   4   4   4   4   4
#     4  10  22  39  61  92 125 160 203 252 304 361
#     4  10  20  36  60  91 126 161 199 248 304 363
#     4  10  21  39  62  90 125 162 201 251 304 361
#     4  10  24  43  64  89 120 163 211 253 303 362
#     4   9  19  36  58  88 124 159 197 243 301 360
#     4  11  24  44  65  87 120 163 209 257 304 360
#     4  11  24  39  60  90 122 159 202 250 307 366
#     4  11  24  40  60  91 124 159 202 250 309 367
#
# _framework density 19.868722999999999
#
# number of rings (size 3 to 8) (size 9 to 14) (size 15 to 20)
#    0.000    1.750    1.250    3.000    1.750    7.500 
#    0.000    3.750    0.000    0.000    0.000    0.000 
#    0.000    0.000    0.000    0.000    0.000    0.000 
#
# Total GULP energy -198475.023048 kJ/mol
# GULP energy per Si atom -12404.688940 kJ/mol
# Density = 1.982350 g / cm^3
# Si number density = 19.868723 Si / 1000 Ang^3
#
#
#
# Elastic Constant Matrix: (Units=GPa)
#
#
# Indices 1 2 3 4 5 6 
#
# 1 115.2618 59.0571 59.8456 -0.0067 6.1755 -0.0011
# 2 59.0571 115.4314 54.5449 -0.0670 9.1650 -0.0261
# 3 59.8456 54.5449 101.7110 -0.0555 7.9195 -0.0270
# 4 -0.0067 -0.0670 -0.0555 10.9871 -0.0029 -14.1892
# 5 6.1755 9.1650 7.9195 -0.0029 19.3091 -0.0023
# 6 -0.0011 -0.0261 -0.0270 -14.1892 -0.0023 25.4925
#
#
#
# Elastic Compliance Matrix: (Units=1/GPa)
#
#
# Indices 1 2 3 4 5 6 
#
# 1 0.013964 -0.004370 -0.005874 -0.000216 0.000017 -0.000131
# 2 -0.004370 0.013148 -0.004238 0.000236 -0.003105 0.000140
# 3 -0.005874 -0.004238 0.015761 0.000230 -0.002574 0.000140
# 4 -0.000216 0.000236 0.000230 0.323705 -0.000067 0.180176
# 5 0.000017 -0.003105 -0.002574 -0.000067 0.054313 -0.000038
# 6 -0.000131 0.000140 0.000140 0.180176 -0.000038 0.139514
#
#
# Mechanical properties :
#
#
# Convention : Reuss Voigt Hill
#
# Bulk Modulus (GPa) = 71.89422 75.47773 73.68598
# Shear Modulus (GPa) = 8.41741 21.75485 15.08613
#
# Velocity S-wave (km/s) = 2.06051 3.31256 2.75851
# Velocity P-wave (km/s) = 6.47488 7.25958 6.87843
#
# Compressibility (1/GPa) = 0.01390932
#
# Stress axis : x y z
#
# Youngs Moduli (GPa) = 71.61242 76.05626 63.44652
#
# Poissons Ratio (x) = 0.33237 0.37270
# Poissons Ratio (y) = 0.31295 0.26887
# Poissons Ratio (z) = 0.42067 0.32231
#
# Static dielectric constant tensor:
#      x y z
#    x 3.588610 0.000000 0.031240 
#    y 0.000000 3.731040 -0.000020 
#    z 0.031240 -0.000020 3.532310 
# 
# 
# High freq. dielectric constant tensor:
#      x y z
#    x 1.770550 0.000000 0.003370 
#    y 0.000000 1.786060 0.000000 
#    z 0.003370 0.000000 1.779120 
# 
# From -- ./inp_files/32428.got.cif
#   From: 2010.03.12/outbox.cif.g09.slc.cpg/sg8_17_cif.got.tgz:32428.got - 2010.03.31 10:45:26.
