data_PCOD8053717
_publ_section_title
;
Structure prediction by ZEFSAII (Michael W. Deem and Ramdas Pophale) SiO2 
 PCOD8053717
Probable space group: C M
;
_chemical_formula_sum "Si O2"
_cell_formula_units_Z 28
_cell_length_a 12.441830
_cell_length_b 12.894961
_cell_length_c 8.745743
_cell_angle_alpha 90.000000
_cell_angle_beta 83.169961
_cell_angle_gamma 90.000000
_cell_volume 1393.182335
_symmetry_space_group_name_H-M "C M"
_symmetry_group_IT_number 8
_symmetry_cell_setting 'monoclinic'
loop_
_space_group_symop_operation_xyz
x,y,z
x,-y,z
1/2+x,1/2+y,z
1/2+x,1/2-y,z
loop_
_atom_site_type_symbol
_atom_site_label
_atom_site_fract_x
_atom_site_fract_y
_atom_site_fract_z
Si Si1 0.632610 0.249726 0.369720
Si Si2 0.926572 0.616400 0.959985
Si Si3 0.753301 0.619371 0.578437
Si Si4 0.496292 0.882108 0.615552
Si Si5 0.763679 0.880520 0.103558
Si Si6 0.496708 0.693835 0.121507
Si Si7 0.705295 0.698060 0.906658
O O1 0.710053 0.338497 0.424363
O O2 0.583153 0.189468 0.520436
O O3 0.700872 0.170452 0.255563
O O4 0.539467 0.307815 0.288122
O O5 0.957981 0.500000 0.998084
O O6 0.985485 0.652959 0.793910
O O7 0.797636 0.623456 0.960010
O O8 0.966815 0.686825 0.091258
O O9 0.718121 0.500000 0.607689
O O10 0.882039 0.629684 0.550024
O O11 0.704059 0.688836 0.724047
O O12 0.536829 0.000000 0.600403
O O13 0.892348 0.878160 0.115545
O O14 0.728671 0.000000 0.087777
O O15 0.732013 0.816753 0.955293
O O16 0.591591 0.656766 0.991547
#
# Coordination Sequence:
#
# PCOD8053717 Si02
#       7
#     4   4   4   4   4   4   4
#     4  11  21  36  54  80 113 147 180 219 267 324
#     4   9  18  34  56  81 104 135 184 233 272 315
#     4  10  21  38  59  83 109 139 180 228 274 322
#     4   9  18  34  57  80 105 140 182 228 274 316
#     4  10  22  38  55  79 112 147 183 221 264 319
#     4  10  21  35  53  78 111 145 178 221 267 321
#     4   9  19  37  58  81 108 139 181 230 272 317
#
# _framework density 20.097871999999999
#
# number of rings (size 3 to 8) (size 9 to 14) (size 15 to 20)
#    0.000    2.286    0.000    3.429    0.000    4.571 
#    0.000   12.143    0.000    0.000    0.000    0.000 
#    0.000    0.000    0.000    0.000    0.000    0.000 
#
# Total GULP energy -173609.868887 kJ/mol
# GULP energy per Si atom -12400.704920 kJ/mol
# Density = 2.005213 g / cm^3
# Si number density = 20.097872 Si / 1000 Ang^3
#
#
#
# Elastic Constant Matrix: (Units=GPa)
#
#
# Indices 1 2 3 4 5 6 
#
# 1 61.9801 14.7680 22.0278 0.0000 -2.1707 0.0000
# 2 14.7680 102.0007 46.2887 0.0000 5.1755 0.0000
# 3 22.0278 46.2887 63.1763 0.0000 6.1611 0.0000
# 4 0.0000 0.0000 0.0000 26.4076 0.0000 2.1887
# 5 -2.1707 5.1755 6.1611 0.0000 43.0755 0.0000
# 6 0.0000 0.0000 0.0000 2.1887 0.0000 14.5234
#
#
#
# Elastic Compliance Matrix: (Units=1/GPa)
#
#
# Indices 1 2 3 4 5 6 
#
# 1 0.018575 0.000356 -0.006921 0.000000 0.001883 0.000000
# 2 0.000356 0.014696 -0.010873 0.000000 -0.000193 0.000000
# 3 -0.006921 -0.010873 0.026485 0.000000 -0.002830 0.000000
# 4 0.000000 0.000000 0.000000 0.038347 0.000000 -0.005779
# 5 0.001883 -0.000193 -0.002830 0.000000 0.023738 0.000000
# 6 0.000000 0.000000 0.000000 -0.005779 0.000000 0.069725
#
#
# Mechanical properties :
#
#
# Convention : Reuss Voigt Hill
#
# Bulk Modulus (GPa) = 40.19384 43.70289 41.94836
# Shear Modulus (GPa) = 21.30048 26.40614 23.85331
#
# Velocity S-wave (km/s) = 3.25905 3.62868 3.44882
# Velocity P-wave (km/s) = 5.84845 6.27285 6.06436
#
# Compressibility (1/GPa) = 0.02487943
#
# Stress axis : x y z
#
# Youngs Moduli (GPa) = 53.83546 68.04350 37.75765
#
# Poissons Ratio (x) = -0.02422 0.26132
# Poissons Ratio (y) = -0.01916 0.41055
# Poissons Ratio (z) = 0.37260 0.73986
#
# Static dielectric constant tensor:
#      x y z
#    x 3.758530 0.000000 -0.007740 
#    y 0.000000 3.442140 0.000000 
#    z -0.007740 0.000000 3.573150 
# 
# 
# High freq. dielectric constant tensor:
#      x y z
#    x 1.794020 0.000000 -0.000270 
#    y 0.000000 1.769790 0.000000 
#    z -0.000270 0.000000 1.780280 
# 
# From -- ./inp_files/10618.got.cif
#   From: 2010.03.12/outbox.cif.g09.slc.cpg/sg8_6_cif.got.tgz:10618.got - 2010.03.31 10:45:26.
