data_PCOD8053274
_publ_section_title
;
Structure prediction by ZEFSAII (Michael W. Deem and Ramdas Pophale) SiO2 
 PCOD8053274
Probable space group: C M
;
_chemical_formula_sum "Si O2"
_cell_formula_units_Z 32
_cell_length_a 8.705411
_cell_length_b 12.795795
_cell_length_c 18.849101
_cell_angle_alpha 90.000000
_cell_angle_beta 49.180710
_cell_angle_gamma 90.000000
_cell_volume 1588.963734
_symmetry_space_group_name_H-M "C M"
_symmetry_group_IT_number 8
_symmetry_cell_setting 'monoclinic'
loop_
_space_group_symop_operation_xyz
x,y,z
x,-y,z
1/2+x,1/2+y,z
1/2+x,1/2-y,z
loop_
_atom_site_type_symbol
_atom_site_label
_atom_site_fract_x
_atom_site_fract_y
_atom_site_fract_z
Si Si1 0.006350 0.771788 0.715810
Si Si2 0.995185 0.617839 0.188353
Si Si3 0.888407 0.808794 0.024820
Si Si4 0.213129 0.621151 0.392731
Si Si5 0.220254 0.112629 0.032630
Si Si6 0.916022 0.620026 0.612841
Si Si7 0.608677 0.248351 0.288318
Si Si8 0.566316 0.811148 0.849396
O O1 0.196042 0.848602 0.647697
O O2 0.034199 0.702560 0.776518
O O3 0.980331 0.692933 0.658423
O O4 0.802155 0.840190 0.789133
O O5 0.912478 0.500000 0.222199
O O6 0.821017 0.692756 0.210793
O O7 0.075756 0.660726 0.239075
O O8 0.193712 0.614734 0.076294
O O9 0.780887 0.694840 0.076026
O O10 0.032854 0.844202 0.044014
O O11 0.007342 0.794602 0.913766
O O12 0.229056 0.500000 0.365651
O O13 0.435657 0.664204 0.342523
O O14 0.079592 0.635917 0.502707
O O15 0.108220 0.687427 0.362690
O O16 0.164536 0.000000 0.082731
O O17 0.415986 0.097879 0.921636
O O18 0.907766 0.500000 0.640970
#
# Coordination Sequence:
#
# PCOD8053274 Si02
#       8
#     4   4   4   4   4   4   4   4
#     4  10  19  37  56  82 117 142 188 244 274 325
#     4  11  22  38  59  85 116 150 191 236 283 333
#     4  10  20  37  55  80 112 147 190 235 275 332
#     4  10  20  39  60  85 118 148 185 229 285 350
#     4  10  20  36  56  76 104 149 190 227 279 327
#     4  10  22  37  60  87 112 151 189 228 290 345
#     4  10  22  37  61  88 115 148 188 231 286 341
#     4   9  18  35  56  77 112 149 186 236 277 329
#
# _framework density 20.138912000000001
#
# number of rings (size 3 to 8) (size 9 to 14) (size 15 to 20)
#    0.750    1.250    1.250    2.625    0.000    1.000 
#    0.000    8.125    0.000   10.500    0.000    0.000 
#    0.000    0.000    0.000    0.000    0.000    0.000 
#
# Total GULP energy -198231.897923 kJ/mol
# GULP energy per Si atom -12389.493620 kJ/mol
# Density = 2.009308 g / cm^3
# Si number density = 20.138912 Si / 1000 Ang^3
#
#
#
# Elastic Constant Matrix: (Units=GPa)
#
#
# Indices 1 2 3 4 5 6 
#
# 1 84.0877 20.6424 18.4053 0.0000 -15.4160 0.0000
# 2 20.6424 97.2168 8.6281 0.0000 0.7188 0.0000
# 3 18.4053 8.6281 70.5724 -0.0001 -14.1527 0.0000
# 4 0.0000 0.0000 -0.0001 19.8148 0.0000 3.1776
# 5 -15.4160 0.7188 -14.1527 0.0000 30.6104 0.0000
# 6 0.0000 0.0000 0.0000 3.1776 0.0000 25.5287
#
#
#
# Elastic Compliance Matrix: (Units=1/GPa)
#
#
# Indices 1 2 3 4 5 6 
#
# 1 0.014204 -0.002876 -0.002099 0.000000 0.006250 0.000000
# 2 -0.002876 0.011005 -0.001034 0.000000 -0.002185 0.000000
# 3 -0.002099 -0.001034 0.016132 0.000000 0.006426 0.000000
# 4 0.000000 0.000000 0.000000 0.051495 0.000000 -0.006410
# 5 0.006250 -0.002185 0.006426 0.000000 0.038839 0.000000
# 6 0.000000 0.000000 0.000000 -0.006410 0.000000 0.039969
#
#
# Mechanical properties :
#
#
# Convention : Reuss Voigt Hill
#
# Bulk Modulus (GPa) = 34.10233 38.58095 36.34164
# Shear Modulus (GPa) = 25.84838 28.80419 27.32629
#
# Velocity S-wave (km/s) = 3.58649 3.78600 3.68759
# Velocity P-wave (km/s) = 5.84131 6.18957 6.01796
#
# Compressibility (1/GPa) = 0.02932351
#
# Stress axis : x y z
#
# Youngs Moduli (GPa) = 70.40429 90.86949 61.98732
#
# Poissons Ratio (x) = 0.26132 0.13013
# Poissons Ratio (y) = 0.20247 0.06406
# Poissons Ratio (z) = 0.14780 0.09391
#
# Static dielectric constant tensor:
#      x y z
#    x 3.819050 0.000000 -0.281220 
#    y 0.000000 3.500670 0.000000 
#    z -0.281220 0.000000 3.751430 
# 
# 
# High freq. dielectric constant tensor:
#      x y z
#    x 1.797900 0.000000 -0.013470 
#    y 0.000000 1.770530 0.000000 
#    z -0.013470 0.000000 1.788610 
# 
# From -- ./inp_files/30351.got.cif
#   From: 2010.03.12/outbox.cif.g09.slc.cpg/sg8_16_cif.got.tgz:30351.got - 2010.03.31 10:45:26.
