data_PCOD8053612
_publ_section_title
;
Structure prediction by ZEFSAII (Michael W. Deem and Ramdas Pophale) SiO2 
 PCOD8053612
Probable space group: C M
;
_chemical_formula_sum "Si O2"
_cell_formula_units_Z 32
_cell_length_a 11.734625
_cell_length_b 29.740576
_cell_length_c 8.501887
_cell_angle_alpha 90.000000
_cell_angle_beta 34.129354
_cell_angle_gamma 90.000000
_cell_volume 1664.737144
_symmetry_space_group_name_H-M "C M"
_symmetry_group_IT_number 8
_symmetry_cell_setting 'monoclinic'
loop_
_space_group_symop_operation_xyz
x,y,z
x,-y,z
1/2+x,1/2+y,z
1/2+x,1/2-y,z
loop_
_atom_site_type_symbol
_atom_site_label
_atom_site_fract_x
_atom_site_fract_y
_atom_site_fract_z
Si Si1 0.296060 0.366930 0.059520
Si Si2 0.284983 0.377425 0.706264
Si Si3 0.905218 0.338931 0.670708
Si Si4 0.533537 0.289257 0.964507
Si Si5 0.686166 0.205496 0.605139
Si Si6 0.542582 0.050627 0.821367
Si Si7 0.862582 0.950013 0.193197
Si Si8 0.658280 0.418587 0.102447
O O1 0.370905 0.414555 0.042967
O O2 0.059961 0.357284 0.362854
O O3 0.321455 0.368147 0.845692
O O4 0.439786 0.328851 0.967252
O O5 0.249312 0.329657 0.666124
O O6 0.098848 0.412610 0.890403
O O7 0.486612 0.399558 0.410549
O O8 0.758432 0.301614 0.765133
O O9 0.030068 0.318150 0.669152
O O10 0.770363 0.378520 0.889506
O O11 0.561840 0.245888 0.824421
O O12 0.385894 0.278293 0.280918
O O13 0.668571 0.062757 0.520754
O O14 0.593043 0.000000 0.823372
O O15 0.306761 0.052778 0.043951
O O16 0.062469 0.949062 0.074434
O O17 0.842611 0.000000 0.143900
#
# Coordination Sequence:
#
# PCOD8053612 Si02
#       8
#     4   4   4   4   4   4   4   4
#     4  11  24  41  60  93 125 163 196 246 311 354
#     4  11  24  39  61  91 129 156 198 254 302 354
#     4  11  21  42  66  83 123 159 200 247 295 360
#     4  11  25  42  63  89 124 158 204 252 295 363
#     4  11  25  41  61  93 118 161 204 247 304 356
#     4  10  20  38  64  91 118 162 207 245 299 362
#     4  10  20  37  63  91 121 157 204 251 296 361
#     4  11  18  40  65  87 116 160 204 246 295 356
#
# _framework density 19.222254
#
# number of rings (size 3 to 8) (size 9 to 14) (size 15 to 20)
#    0.000    1.250    5.000    1.875    3.500    4.000 
#    0.000    0.000    0.000    0.000    0.000    0.000 
#    0.000    0.000    0.000    0.000    0.000    0.000 
#
# Total GULP energy -198435.676643 kJ/mol
# GULP energy per Si atom -12402.229790 kJ/mol
# Density = 1.917850 g / cm^3
# Si number density = 19.222254 Si / 1000 Ang^3
#
#
#
# Elastic Constant Matrix: (Units=GPa)
#
#
# Indices 1 2 3 4 5 6 
#
# 1 104.7394 27.1408 51.6776 0.0000 5.2873 0.0000
# 2 27.1408 105.2671 33.3608 0.0000 16.5331 0.0000
# 3 51.6776 33.3608 82.2281 0.0000 -2.2882 0.0000
# 4 0.0000 0.0000 0.0000 26.1966 0.0000 -5.0509
# 5 5.2873 16.5331 -2.2882 0.0000 35.4408 0.0000
# 6 0.0000 0.0000 0.0000 -5.0509 0.0000 18.8706
#
#
#
# Elastic Compliance Matrix: (Units=1/GPa)
#
#
# Indices 1 2 3 4 5 6 
#
# 1 0.014107 -0.000485 -0.008737 0.000000 -0.002443 0.000000
# 2 -0.000485 0.012048 -0.004746 0.000000 -0.005855 0.000000
# 3 -0.008737 -0.004746 0.019711 0.000000 0.004790 0.000000
# 4 0.000000 0.000000 0.000000 0.040250 0.000000 0.010773
# 5 -0.002443 -0.005855 0.004790 0.000000 0.031621 0.000000
# 6 0.000000 0.000000 0.000000 0.010773 0.000000 0.055876
#
#
# Mechanical properties :
#
#
# Convention : Reuss Voigt Hill
#
# Bulk Modulus (GPa) = 55.77183 57.39922 56.58553
# Shear Modulus (GPa) = 24.09318 28.10530 26.09924
#
# Velocity S-wave (km/s) = 3.54418 3.82792 3.68878
# Velocity P-wave (km/s) = 6.76945 7.03299 6.90248
#
# Compressibility (1/GPa) = 0.01793020
#
# Stress axis : x y z
#
# Youngs Moduli (GPa) = 70.88523 82.99875 50.73210
#
# Poissons Ratio (x) = 0.04022 0.44326
# Poissons Ratio (y) = 0.03435 0.24080
# Poissons Ratio (z) = 0.61935 0.39395
#
# Static dielectric constant tensor:
#      x y z
#    x 3.579470 0.000000 -0.280860 
#    y 0.000000 3.619670 0.000000 
#    z -0.280860 0.000000 3.681260 
# 
# 
# High freq. dielectric constant tensor:
#      x y z
#    x 1.747770 0.000000 -0.016400 
#    y 0.000000 1.759200 0.000000 
#    z -0.016400 0.000000 1.745670 
# 
# From -- ./inp_files/11692.got.cif
#   From: 2010.03.12/outbox.cif.g09.slc.cpg/sg8_6_cif.got.tgz:11692.got - 2010.03.31 10:45:26.
