data_PCOD8053588
_publ_section_title
;
Structure prediction by ZEFSAII (Michael W. Deem and Ramdas Pophale) SiO2 
 PCOD8053588
Probable space group: C M
;
_chemical_formula_sum "Si O2"
_cell_formula_units_Z 32
_cell_length_a 24.233779
_cell_length_b 8.956911
_cell_length_c 25.372255
_cell_angle_alpha 90.000000
_cell_angle_beta 16.915103
_cell_angle_gamma 90.000000
_cell_volume 1602.372171
_symmetry_space_group_name_H-M "C M"
_symmetry_group_IT_number 8
_symmetry_cell_setting 'monoclinic'
loop_
_space_group_symop_operation_xyz
x,y,z
x,-y,z
1/2+x,1/2+y,z
1/2+x,1/2-y,z
loop_
_atom_site_type_symbol
_atom_site_label
_atom_site_fract_x
_atom_site_fract_y
_atom_site_fract_z
Si Si1 0.389660 0.825269 0.419300
Si Si2 0.591750 0.165071 0.828010
Si Si3 0.619985 0.826052 0.409015
Si Si4 0.751531 0.824059 0.788870
Si Si5 0.103909 0.825010 0.133037
Si Si6 0.526664 0.328238 0.083377
Si Si7 0.020181 0.833400 0.398780
Si Si8 0.970081 0.173402 0.841520
O O1 0.443242 0.756015 0.314280
O O2 0.529429 0.753598 0.335073
O O3 0.170307 0.789349 0.631262
O O4 0.429196 0.000000 0.382849
O O5 0.598684 0.218395 0.882592
O O6 0.806614 0.159803 0.613049
O O7 0.473172 0.279037 0.900352
O O8 0.500655 0.000000 0.906079
O O9 0.450436 0.757223 0.597959
O O10 0.809676 0.794289 0.268074
O O11 0.643542 0.751385 0.329969
O O12 0.579327 0.000000 0.437820
O O13 0.790821 0.000000 0.752447
O O14 0.667323 0.774277 0.921317
O O15 0.057617 0.785567 0.115450
O O16 0.094521 0.000000 0.152973
O O17 0.313497 0.766339 0.953820
O O18 0.577935 0.500000 0.025103
O O19 0.103161 0.000000 0.315185
O O20 0.919186 0.000000 0.885306
#
# Coordination Sequence:
#
# PCOD8053588 Si02
#       8
#     4   4   4   4   4   4   4   4
#     4  10  21  38  60  86 116 149 185 230 285 339
#     4   8  16  32  54  83 116 148 182 220 271 337
#     4  10  20  37  60  85 117 152 187 231 281 335
#     4  10  21  37  60  88 116 148 186 231 284 337
#     4  11  24  41  59  80 110 150 196 239 278 331
#     4  10  24  42  58  80 110 150 197 237 278 332
#     4   9  17  32  56  87 119 148 183 226 277 339
#     4  10  21  37  59  87 116 147 184 230 284 336
#
# _framework density 19.970393000000001
#
# number of rings (size 3 to 8) (size 9 to 14) (size 15 to 20)
#    0.000    2.250    0.000    3.000    0.000    9.000 
#    0.000    6.250    0.000    0.000    0.000    0.000 
#    0.000    0.000    0.000    0.000    0.000    0.000 
#
# Total GULP energy -198426.064963 kJ/mol
# GULP energy per Si atom -12401.629060 kJ/mol
# Density = 1.992494 g / cm^3
# Si number density = 19.970393 Si / 1000 Ang^3
#
#
#
# Elastic Constant Matrix: (Units=GPa)
#
#
# Indices 1 2 3 4 5 6 
#
# 1 -7.6965 -70.0112 -76.0908 -0.1327 -27.8331 0.0482
# 2 -70.0112 -1.5925 -65.1745 -0.1518 -24.5476 0.0373
# 3 -76.0908 -65.1745 -22.3331 -0.1284 -20.2662 0.0394
# 4 -0.1327 -0.1518 -0.1284 21.2518 -0.0400 4.1766
# 5 -27.8331 -24.5476 -20.2662 -0.0400 23.2682 0.0128
# 6 0.0482 0.0373 0.0394 4.1766 0.0128 35.4378
#
#
#
# Elastic Compliance Matrix: (Units=1/GPa)
#
#
# Indices 1 2 3 4 5 6 
#
# 1 0.008068 -0.005945 -0.007374 -0.000044 -0.003045 0.000010
# 2 -0.005945 0.010636 -0.008106 -0.000017 -0.002951 0.000009
# 3 -0.007374 -0.008106 0.011041 -0.000055 -0.007756 0.000016
# 4 -0.000044 -0.000017 -0.000055 0.048170 -0.000033 -0.005677
# 5 -0.003045 -0.002951 -0.007756 -0.000033 0.029467 0.000009
# 6 0.000010 0.000009 0.000016 -0.005677 0.000009 0.028887
#
#
# Mechanical properties :
#
#
# Convention : Reuss Voigt Hill
#
# Bulk Modulus (GPa) = -76.30427 -50.46391 -63.38409
# Shear Modulus (GPa) = 28.61226 27.96854 28.29040
#
# Velocity S-wave (km/s) = 3.78925 3.74639 3.76788
# Velocity P-wave (km/s) = 4.37573 2.57106 3.58869
#
# Compressibility (1/GPa) = -0.01310543
#
# Stress axis : x y z
#
# Youngs Moduli (GPa) = 123.95169 94.02032 90.57226
#
# Poissons Ratio (x) = 0.55897 0.66790
# Poissons Ratio (y) = 0.73692 0.73414
# Poissons Ratio (z) = 0.91405 0.76208
#
# Static dielectric constant tensor:
#      x y z
#    x 3.763870 -0.000010 0.055660 
#    y -0.000010 3.750560 0.000060 
#    z 0.055660 0.000060 3.511720 
# 
# 
# High freq. dielectric constant tensor:
#      x y z
#    x 1.778900 0.000000 0.002430 
#    y 0.000000 1.788320 0.000000 
#    z 0.002430 0.000000 1.776050 
# 
# From -- ./inp_files/32383.got.cif
#   From: 2010.03.12/outbox.cif.g09.slc.cpg/sg8_17_cif.got.tgz:32383.got - 2010.03.31 10:45:26.
