data_PCOD8053726
_publ_section_title
;
Structure prediction by ZEFSAII (Michael W. Deem and Ramdas Pophale) SiO2 
 PCOD8053726
Probable space group: C M
;
_chemical_formula_sum "Si O2"
_cell_formula_units_Z 32
_cell_length_a 25.403915
_cell_length_b 8.725427
_cell_length_c 24.243547
_cell_angle_alpha 90.000000
_cell_angle_beta 17.824028
_cell_angle_gamma 90.000000
_cell_volume 1644.898584
_symmetry_space_group_name_H-M "C M"
_symmetry_group_IT_number 8
_symmetry_cell_setting 'monoclinic'
loop_
_space_group_symop_operation_xyz
x,y,z
x,-y,z
1/2+x,1/2+y,z
1/2+x,1/2-y,z
loop_
_atom_site_type_symbol
_atom_site_label
_atom_site_fract_x
_atom_site_fract_y
_atom_site_fract_z
Si Si1 0.838400 0.818645 0.790220
Si Si2 0.044723 0.318635 0.885964
Si Si3 0.856192 0.817317 0.647501
Si Si4 0.532573 0.682644 0.163732
Si Si5 0.666483 0.682289 0.265028
Si Si6 0.666233 0.320461 0.533539
Si Si7 0.051823 0.829471 0.265095
Si Si8 0.151762 0.671873 0.662313
O O1 0.854828 0.758478 0.711402
O O2 0.010426 0.765977 0.649986
O O3 0.813120 0.000000 0.818976
O O4 0.669034 0.740737 0.983731
O O5 0.070113 0.500000 0.857953
O O6 0.188848 0.249757 0.782907
O O7 0.060145 0.257149 0.807781
O O8 0.856578 0.273275 0.096787
O O9 0.027005 0.751967 0.447100
O O10 0.855610 0.000000 0.647378
O O11 0.526659 0.500000 0.171422
O O12 0.340823 0.738209 0.339561
O O13 0.584048 0.750074 0.173285
O O14 0.642704 0.500000 0.284451
O O15 0.639951 0.753690 0.229775
O O16 0.697336 0.500000 0.497563
O O17 0.612421 0.278737 0.649483
O O18 0.851069 0.833709 0.478156
O O19 0.128614 0.000000 0.184308
O O20 0.085070 0.500000 0.715243
#
# Coordination Sequence:
#
# PCOD8053726 Si02
#       8
#     4   4   4   4   4   4   4   4
#     4  10  22  37  55  79 112 152 187 221 268 330
#     4   9  16  25  45  75 103 133 171 222 276 314
#     4   9  17  31  47  70 106 139 173 219 266 317
#     4  10  21  36  57  83 109 143 184 232 278 318
#     4   9  15  24  42  71 102 130 163 212 271 319
#     4  10  21  36  53  78 114 152 183 219 269 329
#     4   8  14  26  44  71 106 130 157 211 272 318
#     4   9  16  29  50  77 108 137 172 224 274 319
#
# _framework density 19.454087000000001
#
# number of rings (size 3 to 8) (size 9 to 14) (size 15 to 20)
#    0.000    2.750    1.250    1.500    1.750    2.000 
#    0.000    3.750    0.000    0.750    0.000    0.875 
#    0.000    0.000    0.000    0.000    0.000    0.000 
#
# Total GULP energy -198304.438289 kJ/mol
# GULP energy per Si atom -12394.027393 kJ/mol
# Density = 1.940981 g / cm^3
# Si number density = 19.454087 Si / 1000 Ang^3
#
#
#
# Elastic Constant Matrix: (Units=GPa)
#
#
# Indices 1 2 3 4 5 6 
#
# 1 150.5624 18.6247 98.7116 -0.0093 1.4379 0.0022
# 2 18.6247 25.3985 20.7945 -0.0659 -2.2555 0.0217
# 3 98.7116 20.7945 159.5359 -0.0714 2.6579 0.0260
# 4 -0.0093 -0.0659 -0.0714 18.9576 0.0232 3.4864
# 5 1.4379 -2.2555 2.6579 0.0232 29.3052 -0.0035
# 6 0.0022 0.0217 0.0260 3.4864 -0.0035 18.1361
#
#
#
# Elastic Compliance Matrix: (Units=1/GPa)
#
#
# Indices 1 2 3 4 5 6 
#
# 1 0.011361 -0.002904 -0.006648 -0.000033 -0.000178 0.000018
# 2 -0.002904 0.045273 -0.004171 0.000149 0.004005 -0.000076
# 3 -0.006648 -0.004171 0.010942 0.000028 -0.000987 -0.000015
# 4 -0.000033 0.000149 0.000028 0.054683 -0.000034 -0.010512
# 5 -0.000178 0.004005 -0.000987 -0.000034 0.034530 0.000010
# 6 0.000018 -0.000076 -0.000015 -0.010512 0.000010 0.057159
#
#
# Mechanical properties :
#
#
# Convention : Reuss Voigt Hill
#
# Bulk Modulus (GPa) = 24.91911 67.97315 46.44613
# Shear Modulus (GPa) = 19.62538 26.43753 23.03145
#
# Velocity S-wave (km/s) = 3.17961 3.69042 3.44450
# Velocity P-wave (km/s) = 5.13000 7.29212 6.30444
#
# Compressibility (1/GPa) = 0.04012984
#
# Stress axis : x y z
#
# Youngs Moduli (GPa) = 88.01660 22.08825 91.39167
#
# Poissons Ratio (x) = 0.06415 0.60761
# Poissons Ratio (y) = 0.25560 0.38118
# Poissons Ratio (z) = 0.58517 0.09213
#
# Static dielectric constant tensor:
#      x y z
#    x 3.747050 -0.000020 0.018930 
#    y -0.000020 2.961330 0.000060 
#    z 0.018930 0.000060 3.603360 
# 
# 
# High freq. dielectric constant tensor:
#      x y z
#    x 1.761860 0.000000 -0.000510 
#    y 0.000000 1.692200 0.000000 
#    z -0.000510 0.000000 1.767120 
# 
# From -- ./inp_files/32348.got.cif
#   From: 2010.03.12/outbox.cif.g09.slc.cpg/sg8_17_cif.got.tgz:32348.got - 2010.03.31 10:45:26.
