data_PCOD8053415
_publ_section_title
;
Structure prediction by ZEFSAII (Michael W. Deem and Ramdas Pophale) SiO2 
 PCOD8053415
Probable space group: C M
;
_chemical_formula_sum "Si O2"
_cell_formula_units_Z 32
_cell_length_a 28.063457
_cell_length_b 8.985146
_cell_length_c 22.190102
_cell_angle_alpha 90.000000
_cell_angle_beta 18.431783
_cell_angle_gamma 90.000000
_cell_volume 1769.104997
_symmetry_space_group_name_H-M "C M"
_symmetry_group_IT_number 8
_symmetry_cell_setting 'monoclinic'
loop_
_space_group_symop_operation_xyz
x,y,z
x,-y,z
1/2+x,1/2+y,z
1/2+x,1/2-y,z
loop_
_atom_site_type_symbol
_atom_site_label
_atom_site_fract_x
_atom_site_fract_y
_atom_site_fract_z
Si Si1 0.816590 0.672967 0.446270
Si Si2 0.272304 0.824129 0.731171
Si Si3 0.543353 0.827091 0.718052
Si Si4 0.197581 0.672904 0.409532
Si Si5 0.910872 0.824131 0.454101
Si Si6 0.973783 0.327034 0.131812
Si Si7 0.081518 0.673965 0.420375
Si Si8 0.716861 0.326030 0.149763
O O1 0.808206 0.500000 0.472787
O O2 0.648303 0.731719 0.636325
O O3 0.889597 0.762995 0.412969
O O4 0.920087 0.703391 0.264137
O O5 0.290220 0.749996 0.643998
O O6 0.412854 0.777829 0.604651
O O7 0.258887 0.000000 0.738873
O O8 0.126170 0.763013 0.939691
O O9 0.582669 0.794415 0.601593
O O10 0.566259 0.000000 0.706657
O O11 0.371909 0.774757 0.932874
O O12 0.243532 0.500000 0.352071
O O13 0.348966 0.768302 0.234897
O O14 0.112816 0.725188 0.450945
O O15 0.079454 0.777842 0.271531
O O16 0.886018 0.000000 0.484659
O O17 0.001668 0.500000 0.085791
O O18 0.102875 0.500000 0.387081
O O19 0.203515 0.750012 0.230755
O O20 0.714399 0.500000 0.164138
#
# Coordination Sequence:
#
# PCOD8053415 Si02
#       8
#     4   4   4   4   4   4   4   4
#     4  10  21  36  53  76 106 138 174 215 257 304
#     4  10  20  35  55  78 105 137 173 213 258 307
#     4   9  18  34  54  75 101 134 172 212 254 302
#     4   9  18  34  54  75 101 134 172 212 254 302
#     4  10  20  35  55  78 105 137 173 213 258 307
#     4  10  21  36  53  76 106 138 174 215 257 304
#     4   9  19  34  53  77 103 132 167 209 255 305
#     4   9  19  34  53  77 103 132 167 209 255 305
#
# _framework density 18.088242000000001
#
# number of rings (size 3 to 8) (size 9 to 14) (size 15 to 20)
#    0.000    2.500    0.000    1.500    0.000    5.500 
#    0.000    5.000    0.000    3.000    0.000    0.000 
#    0.000    0.000    0.000    0.000    0.000    0.000 
#
# Total GULP energy -198452.442331 kJ/mol
# GULP energy per Si atom -12403.277646 kJ/mol
# Density = 1.804707 g / cm^3
# Si number density = 18.088242 Si / 1000 Ang^3
#
#
#
# Elastic Constant Matrix: (Units=GPa)
#
#
# Indices 1 2 3 4 5 6 
#
# 1 123.2716 47.3413 55.6332 0.0032 0.2888 -0.0001
# 2 47.3413 71.9339 47.4262 0.0078 -0.0838 0.0005
# 3 55.6332 47.4262 123.2769 -0.0024 -2.6638 0.0013
# 4 0.0032 0.0078 -0.0024 30.3178 0.0008 3.6438
# 5 0.2888 -0.0838 -2.6638 0.0008 14.1035 -0.0006
# 6 -0.0001 0.0005 0.0013 3.6438 -0.0006 29.7862
#
#
#
# Elastic Compliance Matrix: (Units=1/GPa)
#
#
# Indices 1 2 3 4 5 6 
#
# 1 0.011688 -0.005632 -0.003127 0.000000 -0.000863 0.000000
# 2 -0.005632 0.021361 -0.005694 -0.000005 -0.000833 0.000000
# 3 -0.003127 -0.005694 0.011762 0.000003 0.002252 -0.000001
# 4 0.000000 -0.000005 0.000003 0.033476 -0.000002 -0.004095
# 5 -0.000863 -0.000833 0.002252 -0.000002 0.071342 0.000002
# 6 0.000000 0.000000 -0.000001 -0.004095 0.000002 0.034074
#
#
# Mechanical properties :
#
#
# Convention : Reuss Voigt Hill
#
# Bulk Modulus (GPa) = 62.86983 68.80930 65.83957
# Shear Modulus (GPa) = 22.94507 26.04696 24.49602
#
# Velocity S-wave (km/s) = 3.56548 3.79884 3.68401
# Velocity P-wave (km/s) = 7.19603 7.57397 7.38742
#
# Compressibility (1/GPa) = 0.01590588
#
# Stress axis : x y z
#
# Youngs Moduli (GPa) = 85.55695 46.81334 85.01753
#
# Poissons Ratio (x) = 0.26364 0.26583
# Poissons Ratio (y) = 0.48183 0.48413
# Poissons Ratio (z) = 0.26751 0.26658
#
# Static dielectric constant tensor:
#      x y z
#    x 3.414070 0.000000 -0.024320 
#    y 0.000000 3.360720 0.000000 
#    z -0.024320 0.000000 3.410350 
# 
# 
# High freq. dielectric constant tensor:
#      x y z
#    x 1.701580 0.000000 0.000450 
#    y 0.000000 1.704990 0.000000 
#    z 0.000450 0.000000 1.701640 
# 
# From -- ./inp_files/8724.got.cif
#   From: 2010.03.12/outbox.cif.g09.slc.cpg/sg8_5_cif.got.tgz:8724.got - 2010.03.31 10:45:26.
