data_PCOD8053817
_publ_section_title
;
Structure prediction by ZEFSAII (Michael W. Deem and Ramdas Pophale) SiO2 
 PCOD8053817
Probable space group: C M
;
_chemical_formula_sum "Si O2"
_cell_formula_units_Z 28
_cell_length_a 5.246642
_cell_length_b 29.574341
_cell_length_c 8.953026
_cell_angle_alpha 90.000000
_cell_angle_beta 60.282267
_cell_angle_gamma 90.000000
_cell_volume 1206.494202
_symmetry_space_group_name_H-M "C M"
_symmetry_group_IT_number 8
_symmetry_cell_setting 'monoclinic'
loop_
_space_group_symop_operation_xyz
x,y,z
x,-y,z
1/2+x,1/2+y,z
1/2+x,1/2-y,z
loop_
_atom_site_type_symbol
_atom_site_label
_atom_site_fract_x
_atom_site_fract_y
_atom_site_fract_z
Si Si1 0.022530 0.275404 0.739740
Si Si2 0.726395 0.951911 0.106913
Si Si3 0.012133 0.879408 0.220028
Si Si4 0.604578 0.450931 0.416047
Si Si5 0.357883 0.722840 0.333239
Si Si6 0.049638 0.082117 0.750463
Si Si7 0.477596 0.127558 0.855186
O O1 0.240991 0.256469 0.801707
O O2 0.184816 0.281909 0.536640
O O3 0.894161 0.322110 0.834195
O O4 0.825709 0.905209 0.150282
O O5 0.380638 0.954745 0.226821
O O6 0.854758 0.000000 0.135471
O O7 0.827108 0.950912 0.904228
O O8 0.908874 0.827865 0.260937
O O9 0.943018 0.906742 0.394242
O O10 0.346942 0.881238 0.059894
O O11 0.437433 0.500000 0.454658
O O12 0.685144 0.442150 0.565491
O O13 0.664111 0.749395 0.269155
O O14 0.831056 0.122030 0.755885
O O15 0.323991 0.096196 0.773501
#
# Coordination Sequence:
#
# PCOD8053817 Si02
#       7
#     4   4   4   4   4   4   4
#     4  10  21  39  60  90 127 168 218 279 332 393
#     4  10  23  44  65  99 139 178 226 280 334 401
#     4  11  24  42  69  96 141 173 228 280 343 394
#     4  11  24  42  69 100 133 184 227 276 339 401
#     4  10  24  40  65  96 131 172 223 278 334 398
#     4  11  24  43  66  97 134 179 224 270 332 396
#     4  11  24  42  66  96 131 178 222 277 335 401
#
# _framework density 23.207737999999999
#
# number of rings (size 3 to 8) (size 9 to 14) (size 15 to 20)
#    0.000    1.429    1.429    2.571    6.000    2.286 
#    0.000    1.429    0.000    0.000    0.000    0.000 
#    0.000    0.000    0.000    0.000    0.000    0.000 
#
# Total GULP energy -173452.878681 kJ/mol
# GULP energy per Si atom -12389.491334 kJ/mol
# Density = 2.315492 g / cm^3
# Si number density = 23.207738 Si / 1000 Ang^3
#
#
#
# Elastic Constant Matrix: (Units=GPa)
#
#
# Indices 1 2 3 4 5 6 
#
# 1 91.3707 28.7070 16.7575 0.0000 8.7221 0.0000
# 2 28.7070 177.9398 38.4406 0.0000 14.1289 0.0000
# 3 16.7575 38.4406 85.1748 0.0000 15.5811 0.0000
# 4 0.0000 0.0000 0.0000 20.8369 0.0000 4.4778
# 5 8.7221 14.1289 15.5811 0.0000 26.2040 0.0000
# 6 0.0000 0.0000 0.0000 4.4778 0.0000 26.5175
#
#
#
# Elastic Compliance Matrix: (Units=1/GPa)
#
#
# Indices 1 2 3 4 5 6 
#
# 1 0.011859 -0.001454 -0.001232 0.000000 -0.002431 0.000000
# 2 -0.001454 0.006490 -0.002347 0.000000 -0.001620 0.000000
# 3 -0.001232 -0.002347 0.014290 0.000000 -0.006821 0.000000
# 4 0.000000 0.000000 0.000000 0.049799 0.000000 -0.008409
# 5 -0.002431 -0.001620 -0.006821 0.000000 0.043901 0.000000
# 6 0.000000 0.000000 0.000000 -0.008409 0.000000 0.039131
#
#
# Mechanical properties :
#
#
# Convention : Reuss Voigt Hill
#
# Bulk Modulus (GPa) = 44.30024 58.03283 51.16653
# Shear Modulus (GPa) = 27.31341 32.75036 30.03189
#
# Velocity S-wave (km/s) = 3.43433 3.76065 3.60119
# Velocity P-wave (km/s) = 5.90391 6.62697 6.27586
#
# Compressibility (1/GPa) = 0.02257324
#
# Stress axis : x y z
#
# Youngs Moduli (GPa) = 84.32201 154.08230 69.97931
#
# Poissons Ratio (x) = 0.22404 0.08624
# Poissons Ratio (y) = 0.12261 0.16422
# Poissons Ratio (z) = 0.10392 0.36157
#
# Static dielectric constant tensor:
#      x y z
#    x 3.891030 0.000000 -0.013400 
#    y 0.000000 4.496790 0.000000 
#    z -0.013400 0.000000 4.377830 
# 
# 
# High freq. dielectric constant tensor:
#      x y z
#    x 1.897400 0.000000 0.001640 
#    y 0.000000 1.929540 0.000000 
#    z 0.001640 0.000000 1.925750 
# 
# From -- ./inp_files/7074.got.cif
#   From: 2010.03.12/outbox.cif.g09.slc.cpg/sg8_4_cif.got.tgz:7074.got - 2010.03.31 10:45:26.
