data_PCOD8053729
_publ_section_title
;
Structure prediction by ZEFSAII (Michael W. Deem and Ramdas Pophale) SiO2 
 PCOD8053729
Probable space group: C M
;
_chemical_formula_sum "Si O2"
_cell_formula_units_Z 32
_cell_length_a 33.710492
_cell_length_b 8.802531
_cell_length_c 12.407558
_cell_angle_alpha 90.000000
_cell_angle_beta 26.602563
_cell_angle_gamma 90.000000
_cell_volume 1648.702022
_symmetry_space_group_name_H-M "C M"
_symmetry_group_IT_number 8
_symmetry_cell_setting 'monoclinic'
loop_
_space_group_symop_operation_xyz
x,y,z
x,-y,z
1/2+x,1/2+y,z
1/2+x,1/2-y,z
loop_
_atom_site_type_symbol
_atom_site_label
_atom_site_fract_x
_atom_site_fract_y
_atom_site_fract_z
Si Si1 0.619670 0.325580 0.313620
Si Si2 0.334469 0.324812 0.090473
Si Si3 0.783592 0.170618 0.982525
Si Si4 0.497780 0.827944 0.755800
Si Si5 0.296594 0.818737 0.627031
Si Si6 0.846181 0.325067 0.269068
Si Si7 0.103731 0.679534 0.136456
Si Si8 0.933644 0.825047 0.461501
O O1 0.602081 0.500000 0.331377
O O2 0.724558 0.292246 0.061757
O O3 0.582177 0.276473 0.522550
O O4 0.575224 0.226756 0.326629
O O5 0.361763 0.500000 0.035504
O O6 0.272741 0.300007 0.136844
O O7 0.291229 0.267832 0.309530
O O8 0.422097 0.224179 0.854642
O O9 0.749957 0.000000 0.036835
O O10 0.884345 0.188491 0.696894
O O11 0.527184 0.000000 0.665642
O O12 0.452835 0.804572 0.983881
O O13 0.325073 0.764443 0.438299
O O14 0.369410 0.747649 0.528561
O O15 0.297182 0.000000 0.637841
O O16 0.197946 0.757602 0.884438
O O17 0.818559 0.500000 0.324175
O O18 0.112904 0.500000 0.102025
O O19 0.027833 0.738591 0.238823
O O20 0.951923 0.000000 0.386764
#
# Coordination Sequence:
#
# PCOD8053729 Si02
#       8
#     4   4   4   4   4   4   4   4
#     4  12  23  35  56  87 122 160 204 256 310 372
#     4   9  17  32  56  84 112 149 197 242 293 358
#     4  10  21  36  55  84 123 159 198 252 311 370
#     4   9  18  35  56  81 112 152 195 241 300 359
#     4  11  22  42  66  93 127 164 212 261 309 371
#     4   8  19  37  60  85 117 160 200 250 307 361
#     4  12  25  41  62  91 126 167 209 256 314 375
#     4  11  23  40  63  93 127 163 207 258 314 374
#
# _framework density 19.409208
#
# number of rings (size 3 to 8) (size 9 to 14) (size 15 to 20)
#    0.750    1.000    1.250    4.125    0.000    3.500 
#    0.000    1.250    0.000    1.500    0.000    0.000 
#    0.000    0.000    0.000    0.000    0.000    0.000 
#
# Total GULP energy -198220.037395 kJ/mol
# GULP energy per Si atom -12388.752337 kJ/mol
# Density = 1.936503 g / cm^3
# Si number density = 19.409208 Si / 1000 Ang^3
#
#
#
# Elastic Constant Matrix: (Units=GPa)
#
#
# Indices 1 2 3 4 5 6 
#
# 1 109.5576 45.1352 46.3864 0.0000 3.4194 0.0000
# 2 45.1352 99.7366 36.7195 0.0000 0.5545 0.0000
# 3 46.3864 36.7195 87.1126 0.0000 -1.5815 0.0000
# 4 0.0000 0.0000 0.0000 31.2845 0.0000 -3.2928
# 5 3.4194 0.5545 -1.5815 0.0000 34.5420 0.0000
# 6 0.0000 0.0000 0.0000 -3.2928 0.0000 30.4931
#
#
#
# Elastic Compliance Matrix: (Units=1/GPa)
#
#
# Indices 1 2 3 4 5 6 
#
# 1 0.013046 -0.003940 -0.005313 0.000000 -0.001471 0.000000
# 2 -0.003940 0.013064 -0.003408 0.000000 0.000024 0.000000
# 3 -0.005313 -0.003408 0.015769 0.000000 0.001303 0.000000
# 4 0.000000 0.000000 0.000000 0.032332 0.000000 0.003491
# 5 -0.001471 0.000024 0.001303 0.000000 0.029155 0.000000
# 6 0.000000 0.000000 0.000000 0.003491 0.000000 0.033171
#
#
# Mechanical properties :
#
#
# Convention : Reuss Voigt Hill
#
# Bulk Modulus (GPa) = 60.39817 61.43210 60.91514
# Shear Modulus (GPa) = 29.87236 30.47496 30.17366
#
# Velocity S-wave (km/s) = 3.92737 3.96678 3.94713
# Velocity P-wave (km/s) = 7.19385 7.25949 7.22675
#
# Compressibility (1/GPa) = 0.01655679
#
# Stress axis : x y z
#
# Youngs Moduli (GPa) = 76.65125 76.54604 63.41625
#
# Poissons Ratio (x) = 0.30157 0.33693
# Poissons Ratio (y) = 0.30198 0.21615
# Poissons Ratio (z) = 0.40724 0.26090
#
# Static dielectric constant tensor:
#      x y z
#    x 3.419690 0.000000 0.178020 
#    y 0.000000 3.554960 0.000000 
#    z 0.178020 0.000000 3.510330 
# 
# 
# High freq. dielectric constant tensor:
#      x y z
#    x 1.737280 0.000000 0.007830 
#    y 0.000000 1.764360 0.000000 
#    z 0.007830 0.000000 1.744830 
# 
# From -- ./inp_files/24793.got.cif
#   From: 2010.03.12/outbox.cif.g09.slc.cpg/sg8_13_cif.got.tgz:24793.got - 2010.03.31 10:45:26.
