data_PCOD8053576
_publ_section_title
;
Structure prediction by ZEFSAII (Michael W. Deem and Ramdas Pophale) SiO2 
 PCOD8053576
Probable space group: C M
;
_chemical_formula_sum "Si O2"
_cell_formula_units_Z 24
_cell_length_a 15.000375
_cell_length_b 14.131433
_cell_length_c 9.623666
_cell_angle_alpha 90.000000
_cell_angle_beta 144.464065
_cell_angle_gamma 90.000000
_cell_volume 1185.671857
_symmetry_space_group_name_H-M "C M"
_symmetry_group_IT_number 8
_symmetry_cell_setting 'monoclinic'
loop_
_space_group_symop_operation_xyz
x,y,z
x,-y,z
1/2+x,1/2+y,z
1/2+x,1/2-y,z
loop_
_atom_site_type_symbol
_atom_site_label
_atom_site_fract_x
_atom_site_fract_y
_atom_site_fract_z
Si Si1 0.472360 0.101195 0.760750
Si Si2 0.438777 0.105708 0.397828
Si Si3 0.111147 0.109863 0.852880
Si Si4 0.138645 0.223848 0.601972
Si Si5 0.968836 0.217980 0.903011
Si Si6 0.615204 0.396604 0.327549
O O1 0.484536 0.123179 0.614575
O O2 0.547102 0.183886 0.948565
O O3 0.295030 0.093169 0.571199
O O4 0.551836 0.000000 0.897429
O O5 0.534788 0.184660 0.441443
O O6 0.488943 0.000000 0.414300
O O7 0.258830 0.118104 0.140378
O O8 0.138981 0.177674 0.755437
O O9 0.968709 0.148027 0.767103
O O10 0.082841 0.000000 0.773217
O O11 0.304083 0.259687 0.759540
O O12 0.060113 0.145124 0.404353
O O13 0.076026 0.174695 0.155577
O O14 0.539134 0.500000 0.205183
#
# Coordination Sequence:
#
# PCOD8053576 Si02
#       6
#     4   4   4   4   4   4
#     4   9  18  35  59  83 110 151 193 233 286 349
#     4  10  20  37  59  83 116 155 192 235 292 353
#     4  11  22  39  63  87 117 159 203 239 289 361
#     4  11  23  38  58  92 120 151 195 253 294 341
#     4  11  21  36  62  90 113 154 199 248 289 347
#     4  10  20  37  59  83 116 154 192 236 294 353
#
# _framework density 20.241689000000001
#
# number of rings (size 3 to 8) (size 9 to 14) (size 15 to 20)
#    0.000    1.667    3.333    2.000    0.000    2.000 
#    0.000    0.833    0.000    7.000    0.000    0.000 
#    0.000    0.000    0.000    0.000    0.000    0.000 
#
# Total GULP energy -148656.799551 kJ/mol
# GULP energy per Si atom -12388.066629 kJ/mol
# Density = 2.019562 g / cm^3
# Si number density = 20.241689 Si / 1000 Ang^3
#
#
#
# Elastic Constant Matrix: (Units=GPa)
#
#
# Indices 1 2 3 4 5 6 
#
# 1 90.1133 36.1394 17.7078 0.0000 -11.3346 0.0000
# 2 36.1394 150.6556 51.7774 0.0000 -9.7155 0.0000
# 3 17.7078 51.7774 53.3384 0.0000 -21.4108 0.0000
# 4 0.0000 0.0000 0.0000 39.5973 0.0000 -10.3585
# 5 -11.3346 -9.7155 -21.4108 0.0000 21.0681 0.0000
# 6 0.0000 0.0000 0.0000 -10.3585 0.0000 39.6064
#
#
#
# Elastic Compliance Matrix: (Units=1/GPa)
#
#
# Indices 1 2 3 4 5 6 
#
# 1 0.012968 -0.003250 0.001771 0.000000 0.007278 0.000000
# 2 -0.003250 0.011856 -0.015095 0.000000 -0.011622 0.000000
# 3 0.001771 -0.015095 0.051349 0.000000 0.046177 0.000000
# 4 0.000000 0.000000 0.000000 0.027109 0.000000 0.007090
# 5 0.007278 -0.011622 0.046177 0.000000 0.092949 0.000000
# 6 0.000000 0.000000 0.000000 0.007090 0.000000 0.027103
#
#
# Mechanical properties :
#
#
# Convention : Reuss Voigt Hill
#
# Bulk Modulus (GPa) = 23.24201 56.15071 39.69636
# Shear Modulus (GPa) = 18.46227 32.61987 25.54107
#
# Velocity S-wave (km/s) = 3.02336 4.01873 3.55604
# Velocity P-wave (km/s) = 4.86773 7.02381 6.04271
#
# Compressibility (1/GPa) = 0.04302553
#
# Stress axis : x y z
#
# Youngs Moduli (GPa) = 77.11300 84.34793 19.47452
#
# Poissons Ratio (x) = 0.27415 -0.03450
# Poissons Ratio (y) = 0.25063 0.29396
# Poissons Ratio (z) = -0.13660 1.27322
#
# Static dielectric constant tensor:
#      x y z
#    x 3.717970 0.000000 -0.229540 
#    y 0.000000 4.543730 0.000000 
#    z -0.229540 0.000000 3.335050 
# 
# 
# High freq. dielectric constant tensor:
#      x y z
#    x 1.788800 0.000000 -0.023060 
#    y 0.000000 1.818620 0.000000 
#    z -0.023060 0.000000 1.754990 
# 
# From -- ./inp_files/10518.got.cif
#   From: 2010.03.12/outbox.cif.g09.slc.cpg/sg8_6_cif.got.tgz:10518.got - 2010.03.31 10:45:26.
