data_PCOD8053060
_publ_section_title
;
Structure prediction by ZEFSAII (Michael W. Deem and Ramdas Pophale) SiO2 
 PCOD8053060
Probable space group: C M
;
_chemical_formula_sum "Si O2"
_cell_formula_units_Z 32
_cell_length_a 20.620516
_cell_length_b 9.071626
_cell_length_c 25.206566
_cell_angle_alpha 90.000000
_cell_angle_beta 22.109430
_cell_angle_gamma 90.000000
_cell_volume 1774.684425
_symmetry_space_group_name_H-M "C M"
_symmetry_group_IT_number 8
_symmetry_cell_setting 'monoclinic'
loop_
_space_group_symop_operation_xyz
x,y,z
x,-y,z
1/2+x,1/2+y,z
1/2+x,1/2-y,z
loop_
_atom_site_type_symbol
_atom_site_label
_atom_site_fract_x
_atom_site_fract_y
_atom_site_fract_z
Si Si1 0.225560 0.673162 0.081490
Si Si2 0.147545 0.670919 0.259611
Si Si3 0.931072 0.828122 0.504018
Si Si4 0.217890 0.168708 0.810155
Si Si5 0.069021 0.329288 0.824636
Si Si6 0.972864 0.168130 0.086747
Si Si7 0.921676 0.326302 0.234194
Si Si8 0.078662 0.671901 0.493356
O O1 0.256218 0.500000 0.056286
O O2 0.177720 0.725225 0.176894
O O3 0.075371 0.723982 0.155906
O O4 0.401345 0.749064 0.928675
O O5 0.094659 0.500000 0.301108
O O6 0.990102 0.766989 0.402302
O O7 0.319664 0.702053 0.162199
O O8 0.727442 0.799035 0.664591
O O9 0.037976 0.739442 0.466924
O O10 0.975244 0.000000 0.476494
O O11 0.114747 0.271629 0.848292
O O12 0.152082 0.197375 0.919698
O O13 0.422245 0.201548 0.652773
O O14 0.179260 0.000000 0.822462
O O15 0.027285 0.500000 0.861377
O O16 0.962817 0.000000 0.114948
O O17 0.965411 0.277549 0.141525
O O18 0.893380 0.500000 0.256864
O O19 0.748960 0.249027 0.387122
O O20 0.114573 0.500000 0.457832
#
# Coordination Sequence:
#
# PCOD8053060 Si02
#       8
#     4   4   4   4   4   4   4   4
#     4  10  22  40  57  76 107 147 184 218 264 323
#     4  10  19  34  57  81 105 140 185 223 262 314
#     4  10  20  33  52  82 114 138 172 223 273 315
#     4   9  18  34  56  80 107 141 179 221 265 315
#     4  10  20  33  53  82 111 140 174 221 273 315
#     4  10  19  34  57  82 108 139 180 225 265 313
#     4  11  23  37  55  79 111 146 178 220 270 318
#     4  10  19  33  55  80 107 143 182 217 264 319
#
# _framework density 18.031374
#
# number of rings (size 3 to 8) (size 9 to 14) (size 15 to 20)
#    0.000    2.000    2.500    1.500    0.000    4.000 
#    0.000    1.250    0.000    6.000    0.000    0.000 
#    0.000    0.000    0.000    0.000    0.000    0.000 
#
# Total GULP energy -198441.260357 kJ/mol
# GULP energy per Si atom -12402.578772 kJ/mol
# Density = 1.799033 g / cm^3
# Si number density = 18.031374 Si / 1000 Ang^3
#
#
#
# Elastic Constant Matrix: (Units=GPa)
#
#
# Indices 1 2 3 4 5 6 
#
# 1 85.1969 38.3217 53.8147 0.0126 -9.7561 0.0032
# 2 38.3217 77.8495 58.0220 0.0101 -10.5118 0.0037
# 3 53.8147 58.0220 138.7897 0.0633 -7.4971 0.0300
# 4 0.0126 0.0101 0.0633 31.9783 0.0072 -2.3068
# 5 -9.7561 -10.5118 -7.4971 0.0072 29.0910 0.0017
# 6 0.0032 0.0037 0.0300 -2.3068 0.0017 22.9930
#
#
#
# Elastic Compliance Matrix: (Units=1/GPa)
#
#
# Indices 1 2 3 4 5 6 
#
# 1 0.016987 -0.004621 -0.004500 0.000003 0.002867 0.000004
# 2 -0.004621 0.020601 -0.006594 0.000008 0.004195 0.000006
# 3 -0.004500 -0.006594 0.011659 -0.000020 -0.000887 -0.000015
# 4 0.000003 0.000008 -0.000020 0.031499 -0.000009 0.003160
# 5 0.002867 0.004195 -0.000887 -0.000009 0.036624 -0.000003
# 6 0.000004 0.000006 -0.000015 0.003160 -0.000003 0.043809
#
#
# Mechanical properties :
#
#
# Convention : Reuss Voigt Hill
#
# Bulk Modulus (GPa) = 56.12654 66.90590 61.51622
# Shear Modulus (GPa) = 25.18305 26.92429 26.05367
#
# Velocity S-wave (km/s) = 3.74120 3.86838 3.80532
# Velocity P-wave (km/s) = 7.06094 7.55899 7.31420
#
# Compressibility (1/GPa) = 0.01781688
#
# Stress axis : x y z
#
# Youngs Moduli (GPa) = 58.86988 48.54141 85.77289
#
# Poissons Ratio (x) = 0.22430 0.38596
# Poissons Ratio (y) = 0.27203 0.56559
# Poissons Ratio (z) = 0.26490 0.32009
#
# Static dielectric constant tensor:
#      x y z
#    x 3.088140 0.000000 0.075820 
#    y 0.000000 3.342790 0.000030 
#    z 0.075820 0.000030 3.629420 
# 
# 
# High freq. dielectric constant tensor:
#      x y z
#    x 1.664480 0.000000 0.008790 
#    y 0.000000 1.702980 0.000000 
#    z 0.008790 0.000000 1.714930 
# 
# From -- ./inp_files/29757.got.cif
#   From: 2010.03.12/outbox.cif.g09.slc.cpg/sg8_15_cif.got.tgz:29757.got - 2010.03.31 10:45:26.
