data_PCOD8053987
_publ_section_title
;
Structure prediction by ZEFSAII (Michael W. Deem and Ramdas Pophale) SiO2 
 PCOD8053987
Probable space group: C M
;
_chemical_formula_sum "Si O2"
_cell_formula_units_Z 24
_cell_length_a 5.314015
_cell_length_b 18.158317
_cell_length_c 11.458419
_cell_angle_alpha 90.000000
_cell_angle_beta 62.951131
_cell_angle_gamma 90.000000
_cell_volume 984.725116
_symmetry_space_group_name_H-M "C M"
_symmetry_group_IT_number 8
_symmetry_cell_setting 'monoclinic'
loop_
_space_group_symop_operation_xyz
x,y,z
x,-y,z
1/2+x,1/2+y,z
1/2+x,1/2-y,z
loop_
_atom_site_type_symbol
_atom_site_label
_atom_site_fract_x
_atom_site_fract_y
_atom_site_fract_z
Si Si1 0.533600 0.711481 0.674130
Si Si2 0.327039 0.915660 0.890123
Si Si3 0.924138 0.585861 0.605551
Si Si4 0.419378 0.180355 0.241927
Si Si5 0.817164 0.840749 0.345843
Si Si6 0.765929 0.163970 0.954123
O O1 0.327158 0.741179 0.616619
O O2 0.630115 0.626880 0.629901
O O3 0.374283 0.720759 0.832745
O O4 0.468058 0.900159 0.733949
O O5 0.555750 0.894610 0.938958
O O6 0.029925 0.873749 0.962737
O O7 0.250454 0.000000 0.921835
O O8 0.896348 0.500000 0.578651
O O9 0.190964 0.624878 0.489885
O O10 0.625002 0.130140 0.278542
O O11 0.316635 0.251330 0.337857
O O12 0.142612 0.132298 0.267440
O O13 0.586453 0.207026 0.090708
#
# Coordination Sequence:
#
# PCOD8053987 Si02
#       6
#     4   4   4   4   4   4
#     4  11  25  39  69 105 137 169 226 282 347 408
#     4  10  22  42  69 100 137 182 223 283 355 415
#     4  10  24  47  71 101 142 182 231 285 346 413
#     4  10  23  40  66  95 136 176 230 279 340 388
#     4  10  23  41  66  92 131 187 224 276 334 400
#     4  11  22  41  66 103 138 176 226 289 347 408
#
# _framework density 24.372285000000002
#
# number of rings (size 3 to 8) (size 9 to 14) (size 15 to 20)
#    0.000    1.667    0.000    3.500    9.333    3.333 
#    0.000   11.667    0.000    0.000    0.000    0.000 
#    0.000    0.000    0.000    0.000    0.000    0.000 
#
# Total GULP energy -148729.707054 kJ/mol
# GULP energy per Si atom -12394.142254 kJ/mol
# Density = 2.431681 g / cm^3
# Si number density = 24.372285 Si / 1000 Ang^3
#
#
#
# Elastic Constant Matrix: (Units=GPa)
#
#
# Indices 1 2 3 4 5 6 
#
# 1 188.7429 26.9460 37.0394 0.0000 -22.5859 0.0000
# 2 26.9460 92.9725 48.2154 0.0000 -11.1938 0.0000
# 3 37.0394 48.2154 110.8498 0.0000 -27.8962 0.0000
# 4 0.0000 0.0000 0.0000 20.0754 0.0000 1.2094
# 5 -22.5859 -11.1938 -27.8962 0.0000 29.6174 0.0000
# 6 0.0000 0.0000 0.0000 1.2094 0.0000 25.2052
#
#
#
# Elastic Compliance Matrix: (Units=1/GPa)
#
#
# Indices 1 2 3 4 5 6 
#
# 1 0.005996 -0.000949 -0.000695 0.000000 0.003559 0.000000
# 2 -0.000949 0.014046 -0.006080 0.000000 -0.001141 0.000000
# 3 -0.000695 -0.006080 0.014662 0.000000 0.010982 0.000000
# 4 0.000000 0.000000 0.000000 0.049957 0.000000 -0.002397
# 5 0.003559 -0.001141 0.010982 0.000000 0.046390 0.000000
# 6 0.000000 0.000000 0.000000 -0.002397 0.000000 0.039789
#
#
# Mechanical properties :
#
#
# Convention : Reuss Voigt Hill
#
# Bulk Modulus (GPa) = 51.93047 68.55187 60.24117
# Shear Modulus (GPa) = 25.94621 33.67057 29.80839
#
# Velocity S-wave (km/s) = 3.26633 3.72090 3.50100
# Velocity P-wave (km/s) = 5.96478 6.82995 6.41197
#
# Compressibility (1/GPa) = 0.01925652
#
# Stress axis : x y z
#
# Youngs Moduli (GPa) = 166.77822 71.19244 68.20544
#
# Poissons Ratio (x) = 0.06755 0.04741
# Poissons Ratio (y) = 0.15824 0.41468
# Poissons Ratio (z) = 0.11593 0.43284
#
# Static dielectric constant tensor:
#      x y z
#    x 5.195290 0.000000 -0.115370 
#    y 0.000000 4.002570 0.000000 
#    z -0.115370 0.000000 4.399220 
# 
# 
# High freq. dielectric constant tensor:
#      x y z
#    x 1.997420 0.000000 -0.010940 
#    y 0.000000 1.921050 0.000000 
#    z -0.010940 0.000000 1.966090 
# 
# From -- ./inp_files/18038.got.cif
#   From: 2010.03.12/outbox.cif.g09.slc.cpg/sg8_10_cif.got.tgz:18038.got - 2010.03.31 10:45:26.
