data_PCOD8053180
_publ_section_title
;
Structure prediction by ZEFSAII (Michael W. Deem and Ramdas Pophale) SiO2 
 PCOD8053180
Probable space group: C M
;
_chemical_formula_sum "Si O2"
_cell_formula_units_Z 28
_cell_length_a 18.315515
_cell_length_b 13.572720
_cell_length_c 8.963039
_cell_angle_alpha 90.000000
_cell_angle_beta 41.193406
_cell_angle_gamma 90.000000
_cell_volume 1467.455447
_symmetry_space_group_name_H-M "C M"
_symmetry_group_IT_number 8
_symmetry_cell_setting 'monoclinic'
loop_
_space_group_symop_operation_xyz
x,y,z
x,-y,z
1/2+x,1/2+y,z
1/2+x,1/2-y,z
loop_
_atom_site_type_symbol
_atom_site_label
_atom_site_fract_x
_atom_site_fract_y
_atom_site_fract_z
Si Si1 0.517410 0.614786 0.546530
Si Si2 0.542423 0.109843 0.735294
Si Si3 0.202398 0.747674 0.126590
Si Si4 0.792019 0.112901 0.429245
Si Si5 0.342758 0.730075 0.640280
Si Si6 0.011918 0.611271 0.439074
Si Si7 0.918502 0.207652 0.979925
O O1 0.540342 0.500000 0.503206
O O2 0.622956 0.667393 0.311099
O O3 0.407047 0.641799 0.624844
O O4 0.499621 0.647134 0.745354
O O5 0.674550 0.125457 0.526959
O O6 0.492384 0.124082 0.646396
O O7 0.482341 0.191582 0.930172
O O8 0.514846 0.000000 0.837920
O O9 0.137183 0.644299 0.212411
O O10 0.244340 0.772529 0.895378
O O11 0.303715 0.737342 0.081993
O O12 0.791869 0.187180 0.567988
O O13 0.810203 0.000000 0.452362
O O14 0.892487 0.142218 0.164793
O O15 0.425925 0.820823 0.480568
O O16 0.996014 0.500000 0.409398
#
# Coordination Sequence:
#
# PCOD8053180 Si02
#       7
#     4   4   4   4   4   4   4
#     4  10  20  34  55  84 113 146 194 236 281 344
#     4  10  20  36  59  88 116 147 193 240 286 340
#     4  10  19  35  56  83 114 147 189 239 283 336
#     4  11  23  38  59  86 119 156 190 237 291 343
#     4  10  22  38  55  83 118 151 188 235 292 335
#     4  10  19  36  60  87 110 145 195 237 280 341
#     4  11  19  37  58  85 116 152 191 236 289 337
#
# _framework density 19.080646000000002
#
# number of rings (size 3 to 8) (size 9 to 14) (size 15 to 20)
#    0.000    1.714    5.714    0.857    0.000    6.286 
#    0.000    2.143    0.000    1.714    0.000    0.000 
#    0.000    0.000    0.000    0.000    0.000    0.000 
#
# Total GULP energy -173587.582097 kJ/mol
# GULP energy per Si atom -12399.113007 kJ/mol
# Density = 1.903722 g / cm^3
# Si number density = 19.080646 Si / 1000 Ang^3
#
#
#
# Elastic Constant Matrix: (Units=GPa)
#
#
# Indices 1 2 3 4 5 6 
#
# 1 48.7603 34.8166 26.3503 0.0000 3.5638 0.0000
# 2 34.8166 142.1003 50.3738 0.0000 -9.8926 0.0000
# 3 26.3503 50.3738 118.7767 0.0000 -3.5505 0.0000
# 4 0.0000 0.0000 0.0000 28.3499 0.0000 -0.7008
# 5 3.5638 -9.8926 -3.5505 0.0000 22.3185 0.0000
# 6 0.0000 0.0000 0.0000 -0.7008 0.0000 22.0096
#
#
#
# Elastic Compliance Matrix: (Units=1/GPa)
#
#
# Indices 1 2 3 4 5 6 
#
# 1 0.027304 -0.005872 -0.003793 0.000000 -0.007566 0.000000
# 2 -0.005872 0.009768 -0.002696 0.000000 0.004839 0.000000
# 3 -0.003793 -0.002696 0.010436 0.000000 0.001071 0.000000
# 4 0.000000 0.000000 0.000000 0.035301 0.000000 0.001124
# 5 -0.007566 0.004839 0.001071 0.000000 0.048329 0.000000
# 6 0.000000 0.000000 0.000000 0.001124 0.000000 0.045470
#
#
# Mechanical properties :
#
#
# Convention : Reuss Voigt Hill
#
# Bulk Modulus (GPa) = 43.88457 59.19096 51.53776
# Shear Modulus (GPa) = 23.93191 27.74206 25.83698
#
# Velocity S-wave (km/s) = 3.54538 3.81719 3.68379
# Velocity P-wave (km/s) = 6.30944 7.10751 6.72034
#
# Compressibility (1/GPa) = 0.02278705
#
# Stress axis : x y z
#
# Youngs Moduli (GPa) = 36.62456 102.37109 95.82344
#
# Poissons Ratio (x) = 0.60112 0.36348
# Poissons Ratio (y) = 0.21506 0.25829
# Poissons Ratio (z) = 0.13892 0.27594
#
# Static dielectric constant tensor:
#      x y z
#    x 3.205890 0.000000 -0.066750 
#    y 0.000000 3.555570 0.000000 
#    z -0.066750 0.000000 3.593240 
# 
# 
# High freq. dielectric constant tensor:
#      x y z
#    x 1.715380 0.000000 -0.010420 
#    y 0.000000 1.745690 0.000000 
#    z -0.010420 0.000000 1.742890 
# 
# From -- ./inp_files/10602.got.cif
#   From: 2010.03.12/outbox.cif.g09.slc.cpg/sg8_6_cif.got.tgz:10602.got - 2010.03.31 10:45:26.
