data_PCOD8053048
_publ_section_title
;
Structure prediction by ZEFSAII (Michael W. Deem and Ramdas Pophale) SiO2 
 PCOD8053048
Probable space group: C M
;
_chemical_formula_sum "Si O2"
_cell_formula_units_Z 32
_cell_length_a 25.108253
_cell_length_b 9.124898
_cell_length_c 23.848429
_cell_angle_alpha 90.000000
_cell_angle_beta 162.050942
_cell_angle_gamma 90.000000
_cell_volume 1683.823072
_symmetry_space_group_name_H-M "C M"
_symmetry_group_IT_number 8
_symmetry_cell_setting 'monoclinic'
loop_
_space_group_symop_operation_xyz
x,y,z
x,-y,z
1/2+x,1/2+y,z
1/2+x,1/2-y,z
loop_
_atom_site_type_symbol
_atom_site_label
_atom_site_fract_x
_atom_site_fract_y
_atom_site_fract_z
Si Si1 0.802100 0.825918 0.068750
Si Si2 0.415190 0.171052 0.685143
Si Si3 0.287826 0.168609 0.942370
Si Si4 0.442183 0.832122 0.587229
Si Si5 0.773915 0.330302 0.304036
Si Si6 0.088979 0.173528 0.560626
Si Si7 0.431535 0.168205 0.967768
Si Si8 0.609832 0.325900 0.454156
O O1 0.932994 0.771341 0.247748
O O2 0.804722 0.000000 0.064155
O O3 0.609112 0.768348 0.890710
O O4 0.860971 0.758402 0.068359
O O5 0.359435 0.204637 0.565051
O O6 0.274814 0.243225 0.586377
O O7 0.417093 0.000000 0.699095
O O8 0.103317 0.227577 0.736814
O O9 0.266380 0.000000 0.938050
O O10 0.419011 0.187188 0.022138
O O11 0.301509 0.805383 0.398168
O O12 0.509220 0.000000 0.654014
O O13 0.775200 0.500000 0.289195
O O14 0.589672 0.263173 0.102797
O O15 0.921408 0.251173 0.416824
O O16 0.113753 0.228073 0.521757
O O17 0.060647 0.000000 0.536290
O O18 0.256829 0.224280 0.763194
O O19 0.465371 0.000000 0.985071
O O20 0.617314 0.500000 0.458498
#
# Coordination Sequence:
#
# PCOD8053048 Si02
#       8
#     4   4   4   4   4   4   4   4
#     4   9  18  32  53  81 110 141 179 230 278 323
#     4   8  15  29  48  77 108 130 169 225 271 318
#     4  10  19  33  54  81 115 151 181 221 280 339
#     4   9  18  33  54  80 112 146 182 231 283 329
#     4  11  23  36  57  86 113 150 191 235 288 337
#     4  10  21  40  60  82 114 152 192 237 282 332
#     4  10  22  37  55  81 115 153 190 232 282 340
#     4   9  18  32  57  82 103 141 190 231 272 322
#
# _framework density 19.004370999999999
#
# number of rings (size 3 to 8) (size 9 to 14) (size 15 to 20)
#    0.000    2.500    1.250    1.500    1.750    3.000 
#    0.000    4.375    0.000    3.000    0.000    0.000 
#    0.000    0.000    0.000    0.000    0.000    0.000 
#
# Total GULP energy -198377.961402 kJ/mol
# GULP energy per Si atom -12398.622588 kJ/mol
# Density = 1.896112 g / cm^3
# Si number density = 19.004371 Si / 1000 Ang^3
#
#
#
# Elastic Constant Matrix: (Units=GPa)
#
#
# Indices 1 2 3 4 5 6 
#
# 1 129.0585 35.0562 71.5496 -0.0031 7.7343 -0.0012
# 2 35.0562 52.8782 37.9394 -0.0028 7.2554 -0.0037
# 3 71.5496 37.9394 120.3072 -0.0164 12.2356 -0.0080
# 4 -0.0031 -0.0028 -0.0164 22.3729 -0.0071 1.4669
# 5 7.7343 7.2554 12.2356 -0.0071 30.2826 -0.0025
# 6 -0.0012 -0.0037 -0.0080 1.4669 -0.0025 23.7065
#
#
#
# Elastic Compliance Matrix: (Units=1/GPa)
#
#
# Indices 1 2 3 4 5 6 
#
# 1 0.012095 -0.003713 -0.006047 -0.000003 0.000244 -0.000002
# 2 -0.003713 0.025821 -0.005633 -0.000002 -0.002962 0.000002
# 3 -0.006047 -0.005633 0.013964 0.000008 -0.002748 0.000003
# 4 -0.000003 -0.000002 0.000008 0.044879 0.000009 -0.002777
# 5 0.000244 -0.002962 -0.002748 0.000009 0.034780 0.000002
# 6 -0.000002 0.000002 0.000003 -0.002777 0.000002 0.042354
#
#
# Mechanical properties :
#
#
# Convention : Reuss Voigt Hill
#
# Bulk Modulus (GPa) = 47.40779 65.70381 56.55580
# Shear Modulus (GPa) = 23.61702 25.78566 24.70134
#
# Velocity S-wave (km/s) = 3.52904 3.68751 3.60915
# Velocity P-wave (km/s) = 6.45022 7.26487 6.86963
#
# Compressibility (1/GPa) = 0.02109358
#
# Stress axis : x y z
#
# Youngs Moduli (GPa) = 82.68003 38.72762 71.61143
#
# Poissons Ratio (x) = 0.14381 0.43303
# Poissons Ratio (y) = 0.30702 0.40341
# Poissons Ratio (z) = 0.49996 0.21816
#
# Static dielectric constant tensor:
#      x y z
#    x 3.636560 0.000000 -0.038200 
#    y 0.000000 3.192050 -0.000010 
#    z -0.038200 -0.000010 3.543310 
# 
# 
# High freq. dielectric constant tensor:
#      x y z
#    x 1.739030 0.000000 0.000160 
#    y 0.000000 1.705960 0.000000 
#    z 0.000160 0.000000 1.740080 
# 
# From -- ./inp_files/32400.got.cif
#   From: 2010.03.12/outbox.cif.g09.slc.cpg/sg8_17_cif.got.tgz:32400.got - 2010.03.31 10:45:26.
