data_PCOD8053657
_publ_section_title
;
Structure prediction by ZEFSAII (Michael W. Deem and Ramdas Pophale) SiO2 
 PCOD8053657
Probable space group: C M
;
_chemical_formula_sum "Si O2"
_cell_formula_units_Z 32
_cell_length_a 28.440866
_cell_length_b 8.526826
_cell_length_c 11.626278
_cell_angle_alpha 90.000000
_cell_angle_beta 32.190908
_cell_angle_gamma 90.000000
_cell_volume 1502.061967
_symmetry_space_group_name_H-M "C M"
_symmetry_group_IT_number 8
_symmetry_cell_setting 'monoclinic'
loop_
_space_group_symop_operation_xyz
x,y,z
x,-y,z
1/2+x,1/2+y,z
1/2+x,1/2-y,z
loop_
_atom_site_type_symbol
_atom_site_label
_atom_site_fract_x
_atom_site_fract_y
_atom_site_fract_z
Si Si1 0.642940 0.316936 0.384770
Si Si2 0.666912 0.180054 0.850525
Si Si3 0.327365 0.684909 0.040035
Si Si4 0.396540 0.317285 0.648318
Si Si5 0.508295 0.318999 0.050100
Si Si6 0.846602 0.680984 0.517077
Si Si7 0.984577 0.683188 0.851451
Si Si8 0.601209 0.679789 0.214281
O O1 0.636500 0.500000 0.428816
O O2 0.727585 0.239621 0.269907
O O3 0.555730 0.230886 0.609048
O O4 0.649901 0.290028 0.233878
O O5 0.605904 0.283551 0.894174
O O6 0.768694 0.223095 0.615977
O O7 0.650811 0.000000 0.853183
O O8 0.645705 0.209596 0.028222
O O9 0.337518 0.500000 0.037567
O O10 0.355355 0.735584 0.854233
O O11 0.387635 0.773868 0.007220
O O12 0.380504 0.500000 0.657488
O O13 0.349051 0.219636 0.647149
O O14 0.499284 0.275713 0.438476
O O15 0.486275 0.500000 0.115590
O O16 0.504212 0.279228 0.925300
O O17 0.439222 0.219150 0.266517
O O18 0.824774 0.500000 0.546994
O O19 0.989789 0.500000 0.867747
O O20 0.611661 0.500000 0.152864
#
# Coordination Sequence:
#
# PCOD8053657 Si02
#       8
#     4   4   4   4   4   4   4   4
#     4  11  23  42  66  97 132 171 214 263 318 379
#     4  12  25  42  66  98 132 170 214 262 318 382
#     4  11  23  42  66  97 132 171 214 263 318 379
#     4  10  20  38  65  96 133 172 211 259 318 380
#     4  12  26  47  70  93 126 167 213 269 323 378
#     4  12  25  42  66  98 132 170 214 262 318 382
#     4  12  26  45  68  95 126 167 217 267 319 380
#     4  10  20  38  65  96 133 172 211 259 318 380
#
# _framework density 21.304048999999999
#
# number of rings (size 3 to 8) (size 9 to 14) (size 15 to 20)
#    0.000    0.750    2.500    6.000    0.000    5.000 
#    0.000    5.000    0.000    0.000    0.000    0.000 
#    0.000    0.000    0.000    0.000    0.000    0.000 
#
# Total GULP energy -198541.423886 kJ/mol
# GULP energy per Si atom -12408.838993 kJ/mol
# Density = 2.125556 g / cm^3
# Si number density = 21.304049 Si / 1000 Ang^3
#
#
#
# Elastic Constant Matrix: (Units=GPa)
#
#
# Indices 1 2 3 4 5 6 
#
# 1 112.9859 22.7597 31.8847 0.0000 -10.0765 0.0000
# 2 22.7597 88.8218 18.3142 0.0000 -0.6050 0.0000
# 3 31.8847 18.3142 40.6401 0.0000 -17.9921 0.0000
# 4 0.0000 0.0000 0.0000 34.3561 0.0000 -1.9860
# 5 -10.0765 -0.6050 -17.9921 0.0000 37.8251 0.0000
# 6 0.0000 0.0000 0.0000 -1.9860 0.0000 33.7040
#
#
#
# Elastic Compliance Matrix: (Units=1/GPa)
#
#
# Indices 1 2 3 4 5 6 
#
# 1 0.011530 -0.001081 -0.009129 0.000000 -0.001288 0.000000
# 2 -0.001081 0.012810 -0.006285 0.000000 -0.003073 0.000000
# 3 -0.009129 -0.006285 0.042411 0.000000 0.017641 0.000000
# 4 0.000000 0.000000 0.000000 0.029206 0.000000 0.001721
# 5 -0.001288 -0.003073 0.017641 0.000000 0.034436 0.000000
# 6 0.000000 0.000000 0.000000 0.001721 0.000000 0.029771
#
#
# Mechanical properties :
#
#
# Convention : Reuss Voigt Hill
#
# Bulk Modulus (GPa) = 29.62021 43.15168 36.38594
# Shear Modulus (GPa) = 24.46074 32.47632 28.46853
#
# Velocity S-wave (km/s) = 3.39215 3.90862 3.65951
# Velocity P-wave (km/s) = 5.41073 6.37721 5.91375
#
# Compressibility (1/GPa) = 0.03376074
#
# Stress axis : x y z
#
# Youngs Moduli (GPa) = 86.73236 78.06097 23.57886
#
# Poissons Ratio (x) = 0.08437 0.21525
# Poissons Ratio (y) = 0.09374 0.14820
# Poissons Ratio (z) = 0.79178 0.49064
#
# Static dielectric constant tensor:
#      x y z
#    x 3.908210 0.000000 -0.099030 
#    y 0.000000 3.815770 0.000000 
#    z -0.099030 0.000000 3.816400 
# 
# 
# High freq. dielectric constant tensor:
#      x y z
#    x 1.843940 0.000000 -0.012400 
#    y 0.000000 1.839280 0.000000 
#    z -0.012400 0.000000 1.837450 
# 
# From -- ./inp_files/24802.got.cif
#   From: 2010.03.12/outbox.cif.g09.slc.cpg/sg8_13_cif.got.tgz:24802.got - 2010.03.31 10:45:26.
