data_PCOD8053719
_publ_section_title
;
Structure prediction by ZEFSAII (Michael W. Deem and Ramdas Pophale) SiO2 
 PCOD8053719
Probable space group: C M
;
_chemical_formula_sum "Si O2"
_cell_formula_units_Z 32
_cell_length_a 24.521687
_cell_length_b 8.672371
_cell_length_c 9.914485
_cell_angle_alpha 90.000000
_cell_angle_beta 128.448455
_cell_angle_gamma 90.000000
_cell_volume 1651.251468
_symmetry_space_group_name_H-M "C M"
_symmetry_group_IT_number 8
_symmetry_cell_setting 'monoclinic'
loop_
_space_group_symop_operation_xyz
x,y,z
x,-y,z
1/2+x,1/2+y,z
1/2+x,1/2-y,z
loop_
_atom_site_type_symbol
_atom_site_label
_atom_site_fract_x
_atom_site_fract_y
_atom_site_fract_z
Si Si1 0.974560 0.319534 0.468230
Si Si2 0.052044 0.315985 0.333135
Si Si3 0.980515 0.684068 0.952285
Si Si4 0.824837 0.683210 0.650051
Si Si5 0.717815 0.183570 0.982790
Si Si6 0.072789 0.680388 0.855647
Si Si7 0.704641 0.183178 0.653194
Si Si8 0.830402 0.683214 0.352016
O O1 0.961133 0.500000 0.434886
O O2 0.905091 0.246126 0.424102
O O3 0.997223 0.251386 0.358930
O O4 0.039236 0.281795 0.661648
O O5 0.054295 0.500000 0.341036
O O6 0.019972 0.253840 0.144946
O O7 0.130497 0.254614 0.481522
O O8 0.979493 0.500000 0.945229
O O9 0.026755 0.756423 0.902742
O O10 0.900765 0.742188 0.817726
O O11 0.820585 0.500000 0.652840
O O12 0.766063 0.754373 0.654069
O O13 0.812544 0.739656 0.476407
O O14 0.781149 0.254970 0.160111
O O15 0.721464 0.000000 0.990391
O O16 0.650861 0.244832 0.963477
O O17 0.716124 0.241319 0.824741
O O18 0.075154 0.500000 0.888285
O O19 0.705871 0.000000 0.650555
O O20 0.830383 0.500000 0.351086
#
# Coordination Sequence:
#
# PCOD8053719 Si02
#       8
#     4   4   4   4   4   4   4   4
#     4   9  15  29  51  73  99 130 170 222 264 293
#     4   9  17  29  49  77 102 129 172 219 259 302
#     4   9  17  29  49  77 102 129 172 219 259 302
#     4  10  21  36  53  78 111 141 172 214 262 314
#     4  10  21  35  54  80 108 139 175 216 262 312
#     4   9  15  29  51  73  99 130 170 222 264 293
#     4  10  21  36  53  78 111 141 172 214 262 314
#     4  10  21  35  54  80 108 139 175 216 262 312
#
# _framework density 19.379241
#
# number of rings (size 3 to 8) (size 9 to 14) (size 15 to 20)
#    0.000    2.500    2.500    0.000    3.500    1.000 
#    0.000    0.000    0.000    3.000    0.000    0.000 
#    0.000    0.000    0.000    0.000    0.000    0.000 
#
# Total GULP energy -198274.793938 kJ/mol
# GULP energy per Si atom -12392.174621 kJ/mol
# Density = 1.933513 g / cm^3
# Si number density = 19.379241 Si / 1000 Ang^3
#
#
#
# Elastic Constant Matrix: (Units=GPa)
#
#
# Indices 1 2 3 4 5 6 
#
# 1 165.0821 13.7847 54.3990 0.0000 -5.6505 0.0000
# 2 13.7847 8.8765 17.8605 0.0000 -0.5588 0.0000
# 3 54.3990 17.8605 194.9007 0.0000 -12.7851 0.0000
# 4 0.0000 0.0000 0.0000 19.8630 0.0000 2.1935
# 5 -5.6505 -0.5588 -12.7851 0.0000 37.7393 0.0000
# 6 0.0000 0.0000 0.0000 2.1935 0.0000 23.2542
#
#
#
# Elastic Compliance Matrix: (Units=1/GPa)
#
#
# Indices 1 2 3 4 5 6 
#
# 1 0.007195 -0.008792 -0.001166 0.000000 0.000552 0.000000
# 2 -0.008792 0.149063 -0.011401 0.000000 -0.002972 0.000000
# 3 -0.001166 -0.011401 0.006626 0.000000 0.001901 0.000000
# 4 0.000000 0.000000 0.000000 0.050875 0.000000 -0.004799
# 5 0.000552 -0.002972 0.001901 0.000000 0.027180 0.000000
# 6 0.000000 0.000000 0.000000 -0.004799 0.000000 0.043456
#
#
# Mechanical properties :
#
#
# Convention : Reuss Voigt Hill
#
# Bulk Modulus (GPa) = 8.32184 60.10532 34.21358
# Shear Modulus (GPa) = 13.61772 35.02564 24.32168
#
# Velocity S-wave (km/s) = 2.65372 4.25594 3.54649
# Velocity P-wave (km/s) = 3.70043 7.43191 5.87054
#
# Compressibility (1/GPa) = 0.12016570
#
# Stress axis : x y z
#
# Youngs Moduli (GPa) = 138.98639 6.70856 150.92405
#
# Poissons Ratio (x) = 0.05898 0.17602
# Poissons Ratio (y) = 1.22195 1.72070
# Poissons Ratio (z) = 0.16210 0.07648
#
# Static dielectric constant tensor:
#      x y z
#    x 3.910460 0.000000 -0.031170 
#    y 0.000000 2.886270 0.000000 
#    z -0.031170 0.000000 3.816900 
# 
# 
# High freq. dielectric constant tensor:
#      x y z
#    x 1.777440 0.000000 -0.000700 
#    y 0.000000 1.684860 0.000000 
#    z -0.000700 0.000000 1.766900 
# 
# From -- ./inp_files/16232.got.cif
#   From: 2010.03.12/outbox.cif.g09.slc.cpg/sg8_9_cif.got.tgz:16232.got - 2010.03.31 10:45:26.
