data_PCOD8053255
_publ_section_title
;
Structure prediction by ZEFSAII (Michael W. Deem and Ramdas Pophale) SiO2 
 PCOD8053255
Probable space group: C M
;
_chemical_formula_sum "Si O2"
_cell_formula_units_Z 24
_cell_length_a 20.835178
_cell_length_b 7.576808
_cell_length_c 8.838099
_cell_angle_alpha 90.000000
_cell_angle_beta 64.644931
_cell_angle_gamma 90.000000
_cell_volume 1260.819418
_symmetry_space_group_name_H-M "C M"
_symmetry_group_IT_number 8
_symmetry_cell_setting 'monoclinic'
loop_
_space_group_symop_operation_xyz
x,y,z
x,-y,z
1/2+x,1/2+y,z
1/2+x,1/2-y,z
loop_
_atom_site_type_symbol
_atom_site_label
_atom_site_fract_x
_atom_site_fract_y
_atom_site_fract_z
Si Si1 0.554140 0.000000 0.022771
Si Si2 0.809302 0.194577 0.080454
Si Si3 0.797515 0.696427 0.768123
Si Si4 0.203056 0.500000 0.370285
Si Si5 0.943696 0.800209 0.481181
Si Si6 0.053002 0.500000 0.375191
Si Si7 0.442825 0.704417 0.134795
Si Si8 0.204513 0.500000 0.724672
O O1 0.576667 0.000000 0.176071
O O2 0.510253 0.824115 0.026188
O O3 0.622283 0.000000 0.848661
O O4 0.741460 0.174752 0.261861
O O5 0.876187 0.272608 0.104345
O O6 0.830042 0.000000 0.996559
O O7 0.789270 0.314415 0.958261
O O8 0.784479 0.500000 0.716906
O O9 0.876412 0.761492 0.652792
O O10 0.739395 0.824729 0.756623
O O11 0.120710 0.500000 0.414024
O O12 0.214988 0.500000 0.535965
O O13 0.920931 0.767539 0.331064
O O14 0.008012 0.673244 0.462087
O O15 0.969880 0.000000 0.480405
O O16 0.461747 0.500000 0.083310
#
# Coordination Sequence:
#
# PCOD8053255 Si02
#       8
#     2   4   4   2   4   2   4   2
#     4  10  22  36  62  88 125 166 195 248 304 368
#     4   9  19  38  60  88 120 158 196 249 303 350
#     4  12  23  37  62  92 121 160 205 253 307 367
#     4  10  22  42  66  82 127 170 199 258 306 356
#     4  10  19  36  61  90 122 158 197 248 298 360
#     4  10  20  38  58  92 125 160 209 232 308 370
#     4   9  19  36  61  90 122 157 199 242 297 367
#     4  12  24  44  60  86 127 164 207 256 310 354
#
# _framework density 19.035239000000001
#
# number of rings (size 3 to 8) (size 9 to 14) (size 15 to 20)
#    0.500    1.333    2.500    2.000    1.167    2.000 
#    0.000    5.833    0.000    0.000    0.000    0.000 
#    0.000    0.000    0.000    0.000    0.000    0.000 
#
# Total GULP energy -148793.778268 kJ/mol
# GULP energy per Si atom -12399.481522 kJ/mol
# Density = 1.899191 g / cm^3
# Si number density = 19.035239 Si / 1000 Ang^3
#
#
#
# Elastic Constant Matrix: (Units=GPa)
#
#
# Indices 1 2 3 4 5 6 
#
# 1 133.0130 53.9723 54.6812 0.0000 1.8757 0.0000
# 2 53.9723 120.2687 36.0681 0.0000 -1.8773 0.0000
# 3 54.6812 36.0681 115.5358 0.0000 -7.6948 0.0000
# 4 0.0000 0.0000 0.0000 17.7491 0.0000 -7.3694
# 5 1.8757 -1.8773 -7.6948 0.0000 33.1689 0.0000
# 6 0.0000 0.0000 0.0000 -7.3694 0.0000 14.1713
#
#
#
# Elastic Compliance Matrix: (Units=1/GPa)
#
#
# Indices 1 2 3 4 5 6 
#
# 1 0.010665 -0.003602 -0.004039 0.000000 -0.001744 0.000000
# 2 -0.003602 0.010391 -0.001510 0.000000 0.000442 0.000000
# 3 -0.004039 -0.001510 0.011221 0.000000 0.002746 0.000000
# 4 0.000000 0.000000 0.000000 0.071855 0.000000 0.037366
# 5 -0.001744 0.000442 0.002746 0.000000 0.030909 0.000000
# 6 0.000000 0.000000 0.000000 0.037366 0.000000 0.089996
#
#
# Mechanical properties :
#
#
# Convention : Reuss Voigt Hill
#
# Bulk Modulus (GPa) = 71.55509 73.14008 72.34759
# Shear Modulus (GPa) = 20.16155 27.95759 24.05957
#
# Velocity S-wave (km/s) = 3.25802 3.83656 3.55906
# Velocity P-wave (km/s) = 7.19898 7.62447 7.41478
#
# Compressibility (1/GPa) = 0.01397525
#
# Stress axis : x y z
#
# Youngs Moduli (GPa) = 93.76796 96.23970 89.11716
#
# Poissons Ratio (x) = 0.34664 0.35996
# Poissons Ratio (y) = 0.33773 0.13454
# Poissons Ratio (z) = 0.37874 0.14529
#
# Static dielectric constant tensor:
#      x y z
#    x 3.313930 0.000000 0.029650 
#    y 0.000000 3.682220 0.000000 
#    z 0.029650 0.000000 3.419020 
# 
# 
# High freq. dielectric constant tensor:
#      x y z
#    x 1.731830 0.000000 0.002850 
#    y 0.000000 1.738280 0.000000 
#    z 0.002850 0.000000 1.737450 
# 
# From -- ./inp_files/14231.got.cif
#   From: 2010.03.12/outbox.cif.g09.slc.cpg/sg8_8_cif.got.tgz:14231.got - 2010.03.31 10:45:26.
