data_PCOD8053203
_publ_section_title
;
Structure prediction by ZEFSAII (Michael W. Deem and Ramdas Pophale) SiO2 
 PCOD8053203
Probable space group: C M
;
_chemical_formula_sum "Si O2"
_cell_formula_units_Z 32
_cell_length_a 26.187442
_cell_length_b 8.849702
_cell_length_c 20.027698
_cell_angle_alpha 90.000000
_cell_angle_beta 159.337645
_cell_angle_gamma 90.000000
_cell_volume 1637.779301
_symmetry_space_group_name_H-M "C M"
_symmetry_group_IT_number 8
_symmetry_cell_setting 'monoclinic'
loop_
_space_group_symop_operation_xyz
x,y,z
x,-y,z
1/2+x,1/2+y,z
1/2+x,1/2-y,z
loop_
_atom_site_type_symbol
_atom_site_label
_atom_site_fract_x
_atom_site_fract_y
_atom_site_fract_z
Si Si1 0.774800 0.665808 0.659830
Si Si2 0.098581 0.821915 0.641317
Si Si3 0.158160 0.827224 0.219325
Si Si4 0.987444 0.673566 0.637100
Si Si5 0.186839 0.822280 0.988088
Si Si6 0.901447 0.666055 0.961994
Si Si7 0.984548 0.179869 0.356691
Si Si8 0.569258 0.819493 0.976446
O O1 0.749001 0.500000 0.597891
O O2 0.837239 0.650739 0.810103
O O3 0.617403 0.744794 0.472926
O O4 0.901957 0.744697 0.771659
O O5 0.269139 0.774982 0.846525
O O6 0.022678 0.725542 0.605574
O O7 0.014838 0.779891 0.470864
O O8 0.085336 0.000000 0.640026
O O9 0.317566 0.807357 0.444714
O O10 0.126387 0.000000 0.161231
O O11 0.149740 0.727203 0.142500
O O12 0.041029 0.775777 0.132112
O O13 0.035145 0.500000 0.704482
O O14 0.070154 0.777498 0.790556
O O15 0.153313 0.747513 0.017557
O O16 0.189153 0.000000 0.999240
O O17 0.343425 0.763357 0.156770
O O18 0.952124 0.500000 0.048439
O O19 0.969883 0.000000 0.330419
O O20 0.570059 0.000000 0.973224
#
# Coordination Sequence:
#
# PCOD8053203 Si02
#       8
#     4   4   4   4   4   4   4   4
#     4   7  13  28  53  82 106 132 169 209 250 307
#     4   9  18  34  58  85 109 137 175 216 259 313
#     4  10  20  34  55  84 111 136 175 221 261 309
#     4  11  24  39  53  73 105 144 183 221 264 313
#     4  12  25  38  52  75 107 141 181 224 264 311
#     4   8  15  30  53  81 110 138 170 210 260 314
#     4   9  17  34  59  83 108 139 173 210 259 315
#     4  10  19  35  59  83 108 139 174 213 263 318
#
# _framework density 19.538651999999999
#
# number of rings (size 3 to 8) (size 9 to 14) (size 15 to 20)
#    0.000    2.500    0.000    5.250    0.000    5.000 
#    0.000    6.875    0.000    1.500    0.000    0.000 
#    0.000    0.000    0.000    0.000    0.000    0.000 
#
# Total GULP energy -198284.672724 kJ/mol
# GULP energy per Si atom -12392.792045 kJ/mol
# Density = 1.949418 g / cm^3
# Si number density = 19.538652 Si / 1000 Ang^3
#
#
#
# Elastic Constant Matrix: (Units=GPa)
#
#
# Indices 1 2 3 4 5 6 
#
# 1 22.3504 18.5995 29.4848 0.0000 14.5120 0.0000
# 2 18.5995 83.9732 44.7138 0.0000 9.7034 0.0000
# 3 29.4848 44.7138 115.6895 0.0000 23.3601 0.0000
# 4 0.0000 0.0000 0.0000 27.1950 0.0000 2.5442
# 5 14.5120 9.7034 23.3601 0.0000 30.7105 0.0000
# 6 0.0000 0.0000 0.0000 2.5442 0.0000 23.5968
#
#
#
# Elastic Compliance Matrix: (Units=1/GPa)
#
#
# Indices 1 2 3 4 5 6 
#
# 1 0.088598 -0.009277 -0.013153 0.000000 -0.028930 0.000000
# 2 -0.009277 0.015970 -0.004341 0.000000 0.002640 0.000000
# 3 -0.013153 -0.004341 0.014345 0.000000 -0.003325 0.000000
# 4 0.000000 0.000000 0.000000 0.037146 0.000000 -0.004005
# 5 -0.028930 0.002640 -0.003325 0.000000 0.047928 0.000000
# 6 0.000000 0.000000 0.000000 -0.004005 0.000000 0.042810
#
#
# Mechanical properties :
#
#
# Convention : Reuss Voigt Hill
#
# Bulk Modulus (GPa) = 15.29744 45.28991 30.29367
# Shear Modulus (GPa) = 15.52172 24.91480 20.21826
#
# Velocity S-wave (km/s) = 2.82159 3.57480 3.22029
# Velocity P-wave (km/s) = 4.29668 6.34578 5.41897
#
# Compressibility (1/GPa) = 0.06537043
#
# Stress axis : x y z
#
# Youngs Moduli (GPa) = 11.28696 62.61829 69.71000
#
# Poissons Ratio (x) = 0.58092 0.91690
# Poissons Ratio (y) = 0.10471 0.30261
# Poissons Ratio (z) = 0.14846 0.27182
#
# Static dielectric constant tensor:
#      x y z
#    x 3.586560 0.000000 0.519620 
#    y 0.000000 3.428400 0.000000 
#    z 0.519620 0.000000 3.742890 
# 
# 
# High freq. dielectric constant tensor:
#      x y z
#    x 1.744770 0.000000 0.034490 
#    y 0.000000 1.745190 0.000000 
#    z 0.034490 0.000000 1.762300 
# 
# From -- ./inp_files/31351.got.cif
#   From: 2010.03.12/outbox.cif.g09.slc.cpg/sg8_16_cif.got.tgz:31351.got - 2010.03.31 10:45:26.
