data_PCOD8053437
_publ_section_title
;
Structure prediction by ZEFSAII (Michael W. Deem and Ramdas Pophale) SiO2 
 PCOD8053437
Probable space group: C M
;
_chemical_formula_sum "Si O2"
_cell_formula_units_Z 32
_cell_length_a 11.898546
_cell_length_b 13.280742
_cell_length_c 13.341803
_cell_angle_alpha 90.000000
_cell_angle_beta 126.574037
_cell_angle_gamma 90.000000
_cell_volume 1693.143078
_symmetry_space_group_name_H-M "C M"
_symmetry_group_IT_number 8
_symmetry_cell_setting 'monoclinic'
loop_
_space_group_symop_operation_xyz
x,y,z
x,-y,z
1/2+x,1/2+y,z
1/2+x,1/2-y,z
loop_
_atom_site_type_symbol
_atom_site_label
_atom_site_fract_x
_atom_site_fract_y
_atom_site_fract_z
Si Si1 0.075670 0.723691 0.545890
Si Si2 0.624050 0.889970 0.377442
Si Si3 0.773492 0.759618 0.309186
Si Si4 0.578765 0.389375 0.117233
Si Si5 0.327407 0.254473 0.934620
Si Si6 0.072933 0.616332 0.749971
Si Si7 0.833179 0.332746 0.150682
Si Si8 0.294636 0.880947 0.724783
O O1 0.151424 0.682612 0.486278
O O2 0.091685 0.643290 0.643367
O O3 0.150230 0.830512 0.609322
O O4 0.910015 0.733144 0.445527
O O5 0.710458 0.859156 0.324403
O O6 0.461910 0.895517 0.262554
O O7 0.675592 0.000000 0.436451
O O8 0.649846 0.673199 0.247961
O O9 0.814658 0.768600 0.212368
O O10 0.535283 0.500000 0.133362
O O11 0.694837 0.400381 0.090922
O O12 0.448234 0.337390 0.993379
O O13 0.179535 0.311479 0.866265
O O14 0.339040 0.175730 0.850025
O O15 0.356539 0.191296 0.048923
O O16 0.114239 0.500000 0.787517
O O17 0.916736 0.636156 0.707947
O O18 0.269316 0.000000 0.730951
#
# Coordination Sequence:
#
# PCOD8053437 Si02
#       8
#     4   4   4   4   4   4   4   4
#     4  10  21  38  62  80 115 149 195 240 285 346
#     4  11  20  35  58  84 112 148 190 233 283 340
#     4   9  21  36  56  84 116 146 182 237 290 333
#     4  10  20  35  56  83 116 151 187 227 279 342
#     4  11  20  38  58  86 117 151 192 239 283 340
#     4  10  21  37  58  83 112 152 194 241 293 340
#     4   9  19  35  55  80 117 153 183 231 277 342
#     4  10  23  40  60  84 115 156 196 240 293 341
#
# _framework density 18.899761999999999
#
# number of rings (size 3 to 8) (size 9 to 14) (size 15 to 20)
#    0.750    1.250    1.250    2.625    0.000    2.000 
#    0.000    1.875    0.000    4.500    0.000    0.000 
#    0.000    0.000    0.000    0.000    0.000    0.000 
#
# Total GULP energy -198225.167733 kJ/mol
# GULP energy per Si atom -12389.072983 kJ/mol
# Density = 1.885675 g / cm^3
# Si number density = 18.899762 Si / 1000 Ang^3
#
#
#
# Elastic Constant Matrix: (Units=GPa)
#
#
# Indices 1 2 3 4 5 6 
#
# 1 64.9653 35.8276 21.8317 0.0000 -8.9113 0.0000
# 2 35.8276 121.2884 47.0613 0.0000 3.1079 0.0000
# 3 21.8317 47.0613 96.6226 0.0000 -0.5464 0.0000
# 4 0.0000 0.0000 0.0000 22.5383 0.0000 -0.9920
# 5 -8.9113 3.1079 -0.5464 0.0000 26.5260 0.0000
# 6 0.0000 0.0000 0.0000 -0.9920 0.0000 24.7273
#
#
#
# Elastic Compliance Matrix: (Units=1/GPa)
#
#
# Indices 1 2 3 4 5 6 
#
# 1 0.019979 -0.005368 -0.001859 0.000000 0.007303 0.000000
# 2 -0.005368 0.011653 -0.004481 0.000000 -0.003261 0.000000
# 3 -0.001859 -0.004481 0.012953 0.000000 0.000167 0.000000
# 4 0.000000 0.000000 0.000000 0.044448 0.000000 0.001783
# 5 0.007303 -0.003261 0.000167 0.000000 0.040538 0.000000
# 6 0.000000 0.000000 0.000000 0.001783 0.000000 0.040513
#
#
# Mechanical properties :
#
#
# Convention : Reuss Voigt Hill
#
# Bulk Modulus (GPa) = 47.23642 54.70196 50.96919
# Shear Modulus (GPa) = 24.93084 26.63534 25.78309
#
# Velocity S-wave (km/s) = 3.63589 3.75813 3.69752
# Velocity P-wave (km/s) = 6.53251 6.91646 6.72722
#
# Compressibility (1/GPa) = 0.02117011
#
# Stress axis : x y z
#
# Youngs Moduli (GPa) = 50.05168 85.81691 77.20172
#
# Poissons Ratio (x) = 0.46064 0.14349
# Poissons Ratio (y) = 0.26866 0.34596
# Poissons Ratio (z) = 0.09302 0.38457
#
# Static dielectric constant tensor:
#      x y z
#    x 3.481930 0.000000 0.165310 
#    y 0.000000 3.292600 0.000000 
#    z 0.165310 0.000000 3.540470 
# 
# 
# High freq. dielectric constant tensor:
#      x y z
#    x 1.734650 0.000000 0.008310 
#    y 0.000000 1.719270 0.000000 
#    z 0.008310 0.000000 1.736400 
# 
# From -- ./inp_files/26003.got.cif
#   From: 2010.03.12/outbox.cif.g09.slc.cpg/sg8_14_cif.got.tgz:26003.got - 2010.03.31 10:45:26.
