data_PCOD8053812
_publ_section_title
;
Structure prediction by ZEFSAII (Michael W. Deem and Ramdas Pophale) SiO2 
 PCOD8053812
Probable space group: C M
;
_chemical_formula_sum "Si O2"
_cell_formula_units_Z 28
_cell_length_a 11.108875
_cell_length_b 19.012725
_cell_length_c 6.780401
_cell_angle_alpha 90.000000
_cell_angle_beta 111.364934
_cell_angle_gamma 90.000000
_cell_volume 1333.673781
_symmetry_space_group_name_H-M "C M"
_symmetry_group_IT_number 8
_symmetry_cell_setting 'monoclinic'
loop_
_space_group_symop_operation_xyz
x,y,z
x,-y,z
1/2+x,1/2+y,z
1/2+x,1/2-y,z
loop_
_atom_site_type_symbol
_atom_site_label
_atom_site_fract_x
_atom_site_fract_y
_atom_site_fract_z
Si Si1 0.847090 0.421294 0.176790
Si Si2 0.039410 0.582262 0.618011
Si Si3 0.938139 0.816668 0.983912
Si Si4 0.648393 0.369063 0.356698
Si Si5 0.358362 0.835562 0.794912
Si Si6 0.823148 0.079767 0.653645
Si Si7 0.881354 0.078737 0.257077
O O1 0.865081 0.500000 0.110700
O O2 0.730925 0.418725 0.263906
O O3 0.974294 0.395578 0.371074
O O4 0.819147 0.375652 0.968591
O O5 0.010991 0.500000 0.645069
O O6 0.190456 0.597866 0.687513
O O7 0.981418 0.628564 0.762476
O O8 0.842380 0.859741 0.078998
O O9 0.078920 0.810331 0.172695
O O10 0.888207 0.742451 0.884035
O O11 0.937657 0.868474 0.793920
O O12 0.736273 0.332076 0.574664
O O13 0.536612 0.416137 0.391965
O O14 0.801692 0.091632 0.408498
O O15 0.867416 0.000000 0.720164
O O16 0.849984 0.000000 0.155730
#
# Coordination Sequence:
#
# PCOD8053812 Si02
#       7
#     4   4   4   4   4   4   4
#     4  10  21  38  64  92 123 166 211 260 311 361
#     4   9  21  41  62  93 126 160 214 260 298 371
#     4  10  24  39  61  94 129 162 204 257 317 377
#     4   9  23  40  59  94 123 157 211 260 307 367
#     4  11  23  41  63  90 128 170 205 252 318 375
#     4  10  21  40  67  91 122 166 207 258 317 364
#     4   9  20  39  64  96 126 157 208 265 309 363
#
# _framework density 20.99464
#
# number of rings (size 3 to 8) (size 9 to 14) (size 15 to 20)
#    0.857    1.429    0.000    1.286    2.000    7.429 
#    0.000    2.857    0.000    0.000    0.000    0.000 
#    0.000    0.000    0.000    0.000    0.000    0.000 
#
# Total GULP energy -173449.112665 kJ/mol
# GULP energy per Si atom -12389.222333 kJ/mol
# Density = 2.094686 g / cm^3
# Si number density = 20.994640 Si / 1000 Ang^3
#
#
#
# Elastic Constant Matrix: (Units=GPa)
#
#
# Indices 1 2 3 4 5 6 
#
# 1 66.6666 30.9207 31.6237 0.0000 -6.7461 0.0000
# 2 30.9207 128.8317 70.3171 0.0000 -7.7211 0.0000
# 3 31.6237 70.3171 125.7473 0.0000 1.7559 0.0000
# 4 0.0000 0.0000 0.0000 39.3578 0.0000 0.8573
# 5 -6.7461 -7.7211 1.7559 0.0000 31.0009 0.0000
# 6 0.0000 0.0000 0.0000 0.8573 0.0000 1.3130
#
#
#
# Elastic Compliance Matrix: (Units=1/GPa)
#
#
# Indices 1 2 3 4 5 6 
#
# 1 0.017985 -0.002317 -0.003276 0.000000 0.003522 0.000000
# 2 -0.002317 0.011784 -0.006046 0.000000 0.002773 0.000000
# 3 -0.003276 -0.006046 0.012198 0.000000 -0.002910 0.000000
# 4 0.000000 0.000000 0.000000 0.025774 0.000000 -0.016829
# 5 0.003522 0.002773 -0.002910 0.000000 0.033879 0.000000
# 6 0.000000 0.000000 0.000000 -0.016829 0.000000 0.772617
#
#
# Mechanical properties :
#
#
# Convention : Reuss Voigt Hill
#
# Bulk Modulus (GPa) = 53.50834 65.21872 59.36353
# Shear Modulus (GPa) = 5.53253 26.89329 16.21291
#
# Velocity S-wave (km/s) = 1.62509 3.58293 2.78194
# Velocity P-wave (km/s) = 5.39103 6.94611 6.21738
#
# Compressibility (1/GPa) = 0.01868868
#
# Stress axis : x y z
#
# Youngs Moduli (GPa) = 55.60059 84.85986 81.98241
#
# Poissons Ratio (x) = 0.19664 0.26862
# Poissons Ratio (y) = 0.12884 0.49563
# Poissons Ratio (z) = 0.18218 0.51303
#
# Static dielectric constant tensor:
#      x y z
#    x 3.641610 0.000000 0.027320 
#    y 0.000000 3.584730 0.000000 
#    z 0.027320 0.000000 3.874220 
# 
# 
# High freq. dielectric constant tensor:
#      x y z
#    x 1.807630 0.000000 -0.002460 
#    y 0.000000 1.806720 0.000000 
#    z -0.002460 0.000000 1.835700 
# 
# From -- ./inp_files/2958.got.cif
#   From: 2010.03.12/outbox.cif.g09.slc.cpg/sg8_2_cif.got.tgz:2958.got - 2010.03.31 10:45:26.
