data_PCOD8053407
_publ_section_title
;
Structure prediction by ZEFSAII (Michael W. Deem and Ramdas Pophale) SiO2 
 PCOD8053407
Probable space group: C M
;
_chemical_formula_sum "Si O2"
_cell_formula_units_Z 32
_cell_length_a 28.264941
_cell_length_b 8.839899
_cell_length_c 22.514215
_cell_angle_alpha 90.000000
_cell_angle_beta 18.376413
_cell_angle_gamma 90.000000
_cell_volume 1773.449567
_symmetry_space_group_name_H-M "C M"
_symmetry_group_IT_number 8
_symmetry_cell_setting 'monoclinic'
loop_
_space_group_symop_operation_xyz
x,y,z
x,-y,z
1/2+x,1/2+y,z
1/2+x,1/2-y,z
loop_
_atom_site_type_symbol
_atom_site_label
_atom_site_fract_x
_atom_site_fract_y
_atom_site_fract_z
Si Si1 0.770860 0.822176 0.889140
Si Si2 0.072699 0.177778 0.593918
Si Si3 0.522895 0.321099 0.885798
Si Si4 0.811709 0.819985 0.591695
Si Si5 0.380988 0.176881 0.167232
Si Si6 0.684962 0.176653 0.864715
Si Si7 0.630920 0.323169 0.164603
Si Si8 0.433310 0.177605 0.870316
O O1 0.738740 0.749165 0.862572
O O2 0.939056 0.779081 0.708108
O O3 0.746301 0.000000 0.917365
O O4 0.649986 0.755893 0.078607
O O5 0.225316 0.231890 0.380966
O O6 0.053791 0.267600 0.677934
O O7 0.075087 0.000000 0.605480
O O8 0.534124 0.500000 0.873722
O O9 0.688968 0.251969 0.694345
O O10 0.455158 0.267642 0.904569
O O11 0.411496 0.266603 0.070422
O O12 0.782502 0.759935 0.693458
O O13 0.976381 0.764520 0.377195
O O14 0.793277 0.000000 0.610115
O O15 0.377019 0.000000 0.155665
O O16 0.509945 0.211871 0.061883
O O17 0.714937 0.000000 0.833479
O O18 0.625242 0.500000 0.159549
O O19 0.766323 0.280894 0.047232
O O20 0.454136 0.000000 0.856441
#
# Coordination Sequence:
#
# PCOD8053407 Si02
#       8
#     4   4   4   4   4   4   4   4
#     4   9  17  30  49  73 101 131 163 203 249 297
#     4   9  18  32  51  75 102 133 170 210 251 300
#     4  11  22  35  52  76 105 136 174 216 258 305
#     4   9  18  35  55  74  99 132 172 213 254 302
#     4   9  18  34  53  72  99 134 171 210 253 301
#     4   8  15  29  49  70  92 123 162 202 243 291
#     4   9  19  34  53  76 101 132 169 209 253 304
#     4  10  20  35  54  76 105 139 173 211 257 306
#
# _framework density 18.04393
#
# number of rings (size 3 to 8) (size 9 to 14) (size 15 to 20)
#    0.000    2.750    0.000    2.250    0.000    3.500 
#    0.000    7.500    0.000    0.000    0.000    0.000 
#    0.000    0.000    0.000    0.000    0.000    0.000 
#
# Total GULP energy -198399.370281 kJ/mol
# GULP energy per Si atom -12399.960643 kJ/mol
# Density = 1.800286 g / cm^3
# Si number density = 18.043930 Si / 1000 Ang^3
#
#
#
# Elastic Constant Matrix: (Units=GPa)
#
#
# Indices 1 2 3 4 5 6 
#
# 1 117.0805 27.6814 49.1507 -0.0163 8.3911 0.0015
# 2 27.6814 42.8976 31.5317 0.0080 3.5276 -0.0016
# 3 49.1507 31.5317 151.9883 -0.0071 5.0604 0.0006
# 4 -0.0163 0.0080 -0.0071 25.0640 -0.0007 5.9230
# 5 8.3911 3.5276 5.0604 -0.0007 14.7935 -0.0011
# 6 0.0015 -0.0016 0.0006 5.9230 -0.0011 25.0772
#
#
#
# Elastic Compliance Matrix: (Units=1/GPa)
#
#
# Indices 1 2 3 4 5 6 
#
# 1 0.011033 -0.005017 -0.002386 0.000009 -0.004246 -0.000003
# 2 -0.005017 0.030108 -0.004531 -0.000016 -0.002784 0.000006
# 3 -0.002386 -0.004531 0.008305 0.000002 -0.000407 -0.000001
# 4 0.000009 -0.000016 0.000002 0.042256 -0.000001 -0.009981
# 5 -0.004246 -0.002784 -0.000407 -0.000001 0.070809 0.000003
# 6 -0.000003 0.000006 -0.000001 -0.009981 0.000003 0.042234
#
#
# Mechanical properties :
#
#
# Convention : Reuss Voigt Hill
#
# Bulk Modulus (GPa) = 39.09567 58.74378 48.91973
# Shear Modulus (GPa) = 21.08468 26.56043 23.82255
#
# Velocity S-wave (km/s) = 3.42207 3.84081 3.63747
# Velocity P-wave (km/s) = 6.10967 7.23158 6.69417
#
# Compressibility (1/GPa) = 0.02557828
#
# Stress axis : x y z
#
# Youngs Moduli (GPa) = 90.63639 33.21356 120.41534
#
# Poissons Ratio (x) = 0.16662 0.28729
# Poissons Ratio (y) = 0.45470 0.54563
# Poissons Ratio (z) = 0.21624 0.15050
#
# Static dielectric constant tensor:
#      x y z
#    x 3.509280 0.000000 0.050650 
#    y 0.000000 3.133990 0.000010 
#    z 0.050650 0.000010 3.502770 
# 
# 
# High freq. dielectric constant tensor:
#      x y z
#    x 1.703290 0.000000 0.002870 
#    y 0.000000 1.679850 0.000000 
#    z 0.002870 0.000000 1.702110 
# 
# From -- ./inp_files/15832.got.cif
#   From: 2010.03.12/outbox.cif.g09.slc.cpg/sg8_8_cif.got.tgz:15832.got - 2010.03.31 10:45:26.
