data_PCOD8053781
_publ_section_title
;
Structure prediction by ZEFSAII (Michael W. Deem and Ramdas Pophale) SiO2 
 PCOD8053781
Probable space group: C M
;
_chemical_formula_sum "Si O2"
_cell_formula_units_Z 32
_cell_length_a 17.417270
_cell_length_b 13.876885
_cell_length_c 20.591379
_cell_angle_alpha 90.000000
_cell_angle_beta 18.770410
_cell_angle_gamma 90.000000
_cell_volume 1601.445571
_symmetry_space_group_name_H-M "C M"
_symmetry_group_IT_number 8
_symmetry_cell_setting 'monoclinic'
loop_
_space_group_symop_operation_xyz
x,y,z
x,-y,z
1/2+x,1/2+y,z
1/2+x,1/2-y,z
loop_
_atom_site_type_symbol
_atom_site_label
_atom_site_fract_x
_atom_site_fract_y
_atom_site_fract_z
Si Si1 0.481450 0.890166 0.031520
Si Si2 0.317950 0.793638 0.604683
Si Si3 0.538845 0.110743 0.839708
Si Si4 0.844221 0.889375 0.971743
Si Si5 0.271393 0.252421 0.304054
Si Si6 0.887685 0.394411 0.421372
Si Si7 0.782086 0.715877 0.930789
Si Si8 0.003089 0.181861 0.643506
O O1 0.322602 0.825190 0.206266
O O2 0.437818 0.000000 0.087378
O O3 0.407428 0.875288 0.014754
O O4 0.760719 0.866084 0.813229
O O5 0.560512 0.823386 0.447518
O O6 0.349818 0.810723 0.503219
O O7 0.270860 0.679504 0.652374
O O8 0.088937 0.855777 0.811716
O O9 0.367999 0.140309 0.916261
O O10 0.619446 0.000000 0.765972
O O11 0.635135 0.871084 0.189214
O O12 0.862920 0.000000 0.934271
O O13 0.790741 0.825569 0.951116
O O14 0.173201 0.206686 0.447864
O O15 0.511221 0.311946 0.128205
O O16 0.900027 0.500000 0.444498
O O17 0.661596 0.395281 0.555083
O O18 0.942869 0.722904 0.736407
#
# Coordination Sequence:
#
# PCOD8053781 Si02
#       8
#     4   4   4   4   4   4   4   4
#     4  10  23  38  58  92 126 158 203 256 311 370
#     4  11  23  39  62  88 124 160 205 249 304 366
#     4  10  21  42  64  85 121 164 206 255 301 353
#     4  10  21  37  61  92 121 154 196 251 306 358
#     4  11  24  37  61  87 122 168 197 247 308 366
#     4  11  22  36  63  94 122 160 201 247 310 372
#     4  10  22  38  63  90 122 159 205 253 301 364
#     4  11  20  37  59  92 126 157 191 250 315 371
#
# _framework density 19.981947000000002
#
# number of rings (size 3 to 8) (size 9 to 14) (size 15 to 20)
#    0.000    1.500    5.000    0.750    3.500    3.500 
#    0.000    1.250    0.000    1.500    0.000    0.000 
#    0.000    0.000    0.000    0.000    0.000    0.000 
#
# Total GULP energy -198290.061382 kJ/mol
# GULP energy per Si atom -12393.128836 kJ/mol
# Density = 1.993647 g / cm^3
# Si number density = 19.981947 Si / 1000 Ang^3
#
#
#
# Elastic Constant Matrix: (Units=GPa)
#
#
# Indices 1 2 3 4 5 6 
#
# 1 99.3729 26.8537 36.9240 0.6230 -1.5458 -0.0528
# 2 26.8537 61.9211 19.1898 -0.0564 9.2902 0.0248
# 3 36.9240 19.1898 119.8080 0.8387 -2.5745 -0.3140
# 4 0.6230 -0.0564 0.8387 16.7886 0.0187 2.4505
# 5 -1.5458 9.2902 -2.5745 0.0187 48.4701 0.0382
# 6 -0.0528 0.0248 -0.3140 2.4505 0.0382 23.4020
#
#
#
# Elastic Compliance Matrix: (Units=1/GPa)
#
#
# Indices 1 2 3 4 5 6 
#
# 1 0.012476 -0.004625 -0.003078 -0.000330 0.001121 0.000024
# 2 -0.004625 0.019289 -0.001751 0.000340 -0.003938 -0.000084
# 3 -0.003078 -0.001751 0.009595 -0.000396 0.000747 0.000164
# 4 -0.000330 0.000340 -0.000396 0.060523 -0.000115 -0.006344
# 5 0.001121 -0.003938 0.000747 -0.000115 0.021462 -0.000006
# 6 0.000024 -0.000084 0.000164 -0.006344 -0.000006 0.043398
#
#
# Mechanical properties :
#
#
# Convention : Reuss Voigt Hill
#
# Bulk Modulus (GPa) = 44.54004 49.67080 47.10542
# Shear Modulus (GPa) = 25.88848 30.94111 28.41479
#
# Velocity S-wave (km/s) = 3.60334 3.93931 3.77506
# Velocity P-wave (km/s) = 6.29687 6.75297 6.52891
#
# Compressibility (1/GPa) = 0.02245171
#
# Stress axis : x y z
#
# Youngs Moduli (GPa) = 80.15314 51.84207 104.22096
#
# Poissons Ratio (x) = 0.23978 0.32077
# Poissons Ratio (y) = 0.37073 0.18253
# Poissons Ratio (z) = 0.24669 0.09079
#
# Static dielectric constant tensor:
#      x y z
#    x 3.891180 0.001680 -0.171180 
#    y 0.001680 3.346380 -0.002100 
#    z -0.171180 -0.002100 4.080370 
# 
# 
# High freq. dielectric constant tensor:
#      x y z
#    x 1.786020 0.000000 0.001910 
#    y 0.000000 1.742060 0.000030 
#    z 0.001910 0.000030 1.796090 
# 
# From -- ./inp_files/31198.got.cif
#   From: 2010.03.12/outbox.cif.g09.slc.cpg/sg8_16_cif.got.tgz:31198.got - 2010.03.31 10:45:26.
