data_PCOD8053847
_publ_section_title
;
Structure prediction by ZEFSAII (Michael W. Deem and Ramdas Pophale) SiO2 
 PCOD8053847
Probable space group: C M
;
_chemical_formula_sum "Si O2"
_cell_formula_units_Z 24
_cell_length_a 14.826817
_cell_length_b 8.546200
_cell_length_c 10.054578
_cell_angle_alpha 90.000000
_cell_angle_beta 111.431428
_cell_angle_gamma 90.000000
_cell_volume 1185.951999
_symmetry_space_group_name_H-M "C M"
_symmetry_group_IT_number 8
_symmetry_cell_setting 'monoclinic'
loop_
_space_group_symop_operation_xyz
x,y,z
x,-y,z
1/2+x,1/2+y,z
1/2+x,1/2-y,z
loop_
_atom_site_type_symbol
_atom_site_label
_atom_site_fract_x
_atom_site_fract_y
_atom_site_fract_z
Si Si1 0.946800 0.819881 0.272320
Si Si2 0.158301 0.818553 0.739339
Si Si3 0.339577 0.819581 0.459246
Si Si4 0.645220 0.180625 0.446616
Si Si5 0.480342 0.820041 0.773667
Si Si6 0.362151 0.818112 0.968237
O O1 0.881524 0.786088 0.365181
O O2 0.043178 0.715261 0.321504
O O3 0.977674 0.000000 0.292025
O O4 0.884287 0.784476 0.108476
O O5 0.135061 0.718781 0.596489
O O6 0.258502 0.762667 0.857488
O O7 0.072717 0.789554 0.798546
O O8 0.163990 0.000000 0.702016
O O9 0.226904 0.783489 0.419638
O O10 0.394295 0.779308 0.625409
O O11 0.352259 0.000000 0.425925
O O12 0.671426 0.000000 0.442139
O O13 0.443328 0.784628 0.901421
O O14 0.511767 0.000000 0.774667
O O15 0.359038 0.000000 0.006078
#
# Coordination Sequence:
#
# PCOD8053847 Si02
#       6
#     4   4   4   4   4   4
#     4  12  26  43  64  95 131 170 213 262 318 378
#     4  11  22  39  65  95 127 165 212 261 313 377
#     4  11  22  41  67  96 127 166 212 263 317 376
#     4  12  24  40  65  95 128 169 214 263 315 374
#     4  10  21  39  65  94 125 165 210 259 315 375
#     4  10  23  44  64  89 130 171 207 260 322 374
#
# _framework density 20.236906000000001
#
# number of rings (size 3 to 8) (size 9 to 14) (size 15 to 20)
#    0.000    1.000    3.333    4.000    0.000    4.000 
#    0.000    3.333    0.000    0.000    0.000    0.000 
#    0.000    0.000    0.000    0.000    0.000    0.000 
#
# Total GULP energy -148903.429847 kJ/mol
# GULP energy per Si atom -12408.619154 kJ/mol
# Density = 2.019085 g / cm^3
# Si number density = 20.236906 Si / 1000 Ang^3
#
#
#
# Elastic Constant Matrix: (Units=GPa)
#
#
# Indices 1 2 3 4 5 6 
#
# 1 97.4852 12.4081 4.6116 0.0000 6.6926 0.0000
# 2 12.4081 73.0385 28.6625 0.0000 3.5082 0.0000
# 3 4.6116 28.6625 77.0242 0.0000 6.2880 0.0000
# 4 0.0000 0.0000 0.0000 23.1557 0.0000 -4.6272
# 5 6.6926 3.5082 6.2880 0.0000 30.5214 0.0000
# 6 0.0000 0.0000 0.0000 -4.6272 0.0000 36.7396
#
#
#
# Elastic Compliance Matrix: (Units=1/GPa)
#
#
# Indices 1 2 3 4 5 6 
#
# 1 0.010624 -0.001781 0.000203 0.000000 -0.002167 0.000000
# 2 -0.001781 0.016343 -0.005954 0.000000 -0.000261 0.000000
# 3 0.000203 -0.005954 0.015393 0.000000 -0.002532 0.000000
# 4 0.000000 0.000000 0.000000 0.044301 0.000000 0.005579
# 5 -0.002167 -0.000261 -0.002532 0.000000 0.033791 0.000000
# 6 0.000000 0.000000 0.000000 0.005579 0.000000 0.027921
#
#
# Mechanical properties :
#
#
# Convention : Reuss Voigt Hill
#
# Bulk Modulus (GPa) = 36.63280 37.65695 37.14488
# Shear Modulus (GPa) = 28.97997 31.54106 30.26052
#
# Velocity S-wave (km/s) = 3.78833 3.95218 3.87112
# Velocity P-wave (km/s) = 6.10545 6.28290 6.19481
#
# Compressibility (1/GPa) = 0.02729794
#
# Stress axis : x y z
#
# Youngs Moduli (GPa) = 94.12890 61.18890 64.96508
#
# Poissons Ratio (x) = 0.10895 -0.01321
# Poissons Ratio (y) = 0.16760 0.38678
# Poissons Ratio (z) = -0.01915 0.36429
#
# Static dielectric constant tensor:
#      x y z
#    x 3.706470 0.000000 0.013120 
#    y 0.000000 3.577370 0.000000 
#    z 0.013120 0.000000 3.582980 
# 
# 
# High freq. dielectric constant tensor:
#      x y z
#    x 1.803530 0.000000 -0.001250 
#    y 0.000000 1.790690 0.000000 
#    z -0.001250 0.000000 1.785650 
# 
# From -- ./inp_files/12136.got.cif
#   From: 2010.03.12/outbox.cif.g09.slc.cpg/sg8_7_cif.got.tgz:12136.got - 2010.03.31 10:45:26.
