data_PCOD8053914
_publ_section_title
;
Structure prediction by ZEFSAII (Michael W. Deem and Ramdas Pophale) SiO2 
 PCOD8053914
Probable space group: C M
;
_chemical_formula_sum "Si O2"
_cell_formula_units_Z 24
_cell_length_a 9.425639
_cell_length_b 14.322672
_cell_length_c 9.447563
_cell_angle_alpha 90.000000
_cell_angle_beta 58.876546
_cell_angle_gamma 90.000000
_cell_volume 1091.833971
_symmetry_space_group_name_H-M "C M"
_symmetry_group_IT_number 8
_symmetry_cell_setting 'monoclinic'
loop_
_space_group_symop_operation_xyz
x,y,z
x,-y,z
1/2+x,1/2+y,z
1/2+x,1/2-y,z
loop_
_atom_site_type_symbol
_atom_site_label
_atom_site_fract_x
_atom_site_fract_y
_atom_site_fract_z
Si Si1 0.222180 0.500000 0.138291
Si Si2 0.398167 0.687909 0.293616
Si Si3 0.920946 0.500000 0.839699
Si Si4 0.483899 0.797012 0.799194
Si Si5 0.705882 0.195697 0.108914
Si Si6 0.542912 0.500000 0.146416
Si Si7 0.414515 0.000000 0.508280
Si Si8 0.307457 0.800901 0.602076
O O1 0.197723 0.590431 0.051944
O O2 0.415027 0.500000 0.082851
O O3 0.091812 0.500000 0.338042
O O4 0.948244 0.704257 0.649345
O O5 0.522431 0.768088 0.181398
O O6 0.501705 0.591965 0.260287
O O7 0.325321 0.716151 0.482272
O O8 0.931062 0.500000 0.666638
O O9 0.013148 0.404074 0.839070
O O10 0.730394 0.500000 0.992226
O O11 0.629915 0.724630 0.763470
O O12 0.325138 0.762226 0.963769
O O13 0.752900 0.183301 0.251520
O O14 0.313102 0.903673 0.523861
#
# Coordination Sequence:
#
# PCOD8053914 Si02
#       8
#     2   4   2   4   4   2   2   4
#     4  10  22  38  65  92 124 168 212 248 306 388
#     4  11  22  40  64  92 124 162 210 254 308 368
#     4  10  22  40  63  90 126 170 210 248 310 384
#     4  11  24  42  65  92 127 165 209 258 311 371
#     4  11  22  40  64  92 124 162 210 254 308 368
#     4  10  22  38  65  92 124 168 212 248 306 388
#     4  10  22  40  63  90 126 170 210 248 310 384
#     4  11  24  42  65  92 127 165 209 258 311 371
#
# _framework density 21.981366000000001
#
# number of rings (size 3 to 8) (size 9 to 14) (size 15 to 20)
#    0.000    1.333    3.333    2.000   14.000    0.000 
#    0.000   10.000    0.000    0.000    0.000    0.000 
#    0.000    0.000    0.000    0.000    0.000    0.000 
#
# Total GULP energy -148700.490822 kJ/mol
# GULP energy per Si atom -12391.707568 kJ/mol
# Density = 2.193134 g / cm^3
# Si number density = 21.981366 Si / 1000 Ang^3
#
#
#
# Elastic Constant Matrix: (Units=GPa)
#
#
# Indices 1 2 3 4 5 6 
#
# 1 41.7256 25.8610 -1.0526 0.0000 -9.8240 0.0000
# 2 25.8610 156.1976 -1.1128 0.0000 -1.2059 0.0000
# 3 -1.0526 -1.1128 44.2334 0.0000 -1.6626 0.0000
# 4 0.0000 0.0000 0.0000 40.7481 0.0000 -7.7262
# 5 -9.8240 -1.2059 -1.6626 0.0000 35.9746 0.0000
# 6 0.0000 0.0000 0.0000 -7.7262 0.0000 26.6811
#
#
#
# Elastic Compliance Matrix: (Units=1/GPa)
#
#
# Indices 1 2 3 4 5 6 
#
# 1 0.028712 -0.004688 0.000856 0.000000 0.007723 0.000000
# 2 -0.004688 0.007171 0.000030 0.000000 -0.001038 0.000000
# 3 0.000856 0.000030 0.022677 0.000000 0.001283 0.000000
# 4 0.000000 0.000000 0.000000 0.025967 0.000000 0.007519
# 5 0.007723 -0.001038 0.001283 0.000000 0.029931 0.000000
# 6 0.000000 0.000000 0.000000 0.007519 0.000000 0.039657
#
#
# Mechanical properties :
#
#
# Convention : Reuss Voigt Hill
#
# Bulk Modulus (GPa) = 19.62571 32.17199 25.89885
# Shear Modulus (GPa) = 27.97935 35.24481 31.61208
#
# Velocity S-wave (km/s) = 3.57160 4.00859 3.79638
# Velocity P-wave (km/s) = 5.09472 6.00773 5.56996
#
# Compressibility (1/GPa) = 0.05095358
#
# Stress axis : x y z
#
# Youngs Moduli (GPa) = 34.82919 139.46017 44.09821
#
# Poissons Ratio (x) = 0.65378 -0.03773
# Poissons Ratio (y) = 0.16328 -0.00131
# Poissons Ratio (z) = -0.02980 -0.00416
#
# Static dielectric constant tensor:
#      x y z
#    x 3.637070 0.000000 -0.095440 
#    y 0.000000 4.805240 0.000000 
#    z -0.095440 0.000000 3.996360 
# 
# 
# High freq. dielectric constant tensor:
#      x y z
#    x 1.823430 0.000000 -0.012150 
#    y 0.000000 1.894290 0.000000 
#    z -0.012150 0.000000 1.869460 
# 
# From -- ./inp_files/26808.got.cif
#   From: 2010.03.12/outbox.cif.g09.slc.cpg/sg8_14_cif.got.tgz:26808.got - 2010.03.31 10:45:26.
