data_PCOD8053406
_publ_section_title
;
Structure prediction by ZEFSAII (Michael W. Deem and Ramdas Pophale) SiO2 
 PCOD8053406
Probable space group: C M
;
_chemical_formula_sum "Si O2"
_cell_formula_units_Z 32
_cell_length_a 14.513742
_cell_length_b 9.028837
_cell_length_c 13.972539
_cell_angle_alpha 90.000000
_cell_angle_beta 74.483291
_cell_angle_gamma 90.000000
_cell_volume 1764.257265
_symmetry_space_group_name_H-M "C M"
_symmetry_group_IT_number 8
_symmetry_cell_setting 'monoclinic'
loop_
_space_group_symop_operation_xyz
x,y,z
x,-y,z
1/2+x,1/2+y,z
1/2+x,1/2-y,z
loop_
_atom_site_type_symbol
_atom_site_label
_atom_site_fract_x
_atom_site_fract_y
_atom_site_fract_z
Si Si1 0.491120 0.325301 0.340490
Si Si2 0.334245 0.831828 0.819389
Si Si3 0.929523 0.668024 0.979076
Si Si4 0.798968 0.829647 0.494272
Si Si5 0.017642 0.175589 0.791699
Si Si6 0.695015 0.325421 0.359926
Si Si7 0.706657 0.828086 0.716714
Si Si8 0.886538 0.674854 0.202969
O O1 0.496655 0.500000 0.322862
O O2 0.407377 0.280860 0.438731
O O3 0.592925 0.264134 0.350616
O O4 0.467231 0.250863 0.245574
O O5 0.429359 0.745421 0.756563
O O6 0.244116 0.742642 0.804911
O O7 0.333174 0.000000 0.780498
O O8 0.335270 0.830046 0.935808
O O9 0.969043 0.500000 0.975773
O O10 0.901842 0.731068 0.090307
O O11 0.010348 0.770541 0.905561
O O12 0.719558 0.740219 0.456840
O O13 0.783008 0.801206 0.611047
O O14 0.783484 0.000000 0.471680
O O15 0.111015 0.241261 0.715690
O O16 0.016522 0.000000 0.785432
O O17 0.688998 0.500000 0.373351
O O18 0.779466 0.277700 0.263505
O O19 0.684147 0.000000 0.739067
O O20 0.899142 0.500000 0.208172
#
# Coordination Sequence:
#
# PCOD8053406 Si02
#       8
#     4   4   4   4   4   4   4   4
#     4   9  18  34  52  76 106 134 170 215 256 306
#     4   9  19  36  54  75 106 142 177 221 262 308
#     4   8  17  35  54  73 108 143 172 218 264 308
#     4   9  20  35  52  74 105 138 170 214 262 306
#     4  10  20  35  54  76 103 138 179 223 269 315
#     4   9  18  33  54  78 104 135 171 211 256 309
#     4  11  21  35  54  78 107 143 182 222 266 316
#     4   9  17  33  54  76 105 139 171 208 257 308
#
# _framework density 18.137944000000001
#
# number of rings (size 3 to 8) (size 9 to 14) (size 15 to 20)
#    0.750    2.000    0.000    1.500    0.000    3.000 
#    2.250    1.250    0.000    0.000    0.000    0.000 
#    0.000    0.000    0.000    0.000    0.000    0.000 
#
# Total GULP energy -198292.847980 kJ/mol
# GULP energy per Si atom -12393.302999 kJ/mol
# Density = 1.809666 g / cm^3
# Si number density = 18.137944 Si / 1000 Ang^3
#
#
#
# Elastic Constant Matrix: (Units=GPa)
#
#
# Indices 1 2 3 4 5 6 
#
# 1 104.7140 27.8327 16.8076 0.0000 8.1753 0.0000
# 2 27.8327 72.7412 19.9501 0.0000 1.2695 0.0000
# 3 16.8076 19.9501 63.9502 0.0000 3.0352 0.0000
# 4 0.0000 0.0000 0.0000 24.8199 0.0000 3.7776
# 5 8.1753 1.2695 3.0352 0.0000 20.7317 0.0000
# 6 0.0000 0.0000 0.0000 3.7776 0.0000 31.9378
#
#
#
# Elastic Compliance Matrix: (Units=1/GPa)
#
#
# Indices 1 2 3 4 5 6 
#
# 1 0.011104 -0.003752 -0.001562 0.000000 -0.003920 0.000000
# 2 -0.003752 0.016302 -0.004151 0.000000 0.001089 0.000000
# 3 -0.001562 -0.004151 0.017423 0.000000 -0.001681 0.000000
# 4 0.000000 0.000000 0.000000 0.041029 0.000000 -0.004853
# 5 -0.003920 0.001089 -0.001681 0.000000 0.049961 0.000000
# 6 0.000000 0.000000 0.000000 -0.004853 0.000000 0.031885
#
#
# Mechanical properties :
#
#
# Convention : Reuss Voigt Hill
#
# Bulk Modulus (GPa) = 38.61207 41.17626 39.89417
# Shear Modulus (GPa) = 25.60608 27.28554 26.44581
#
# Velocity S-wave (km/s) = 3.76139 3.88278 3.82257
# Velocity P-wave (km/s) = 6.34021 6.54617 6.44401
#
# Compressibility (1/GPa) = 0.02589864
#
# Stress axis : x y z
#
# Youngs Moduli (GPa) = 90.05916 61.34032 57.39703
#
# Poissons Ratio (x) = 0.23014 0.08964
# Poissons Ratio (y) = 0.33789 0.23828
# Poissons Ratio (z) = 0.14066 0.25465
#
# Static dielectric constant tensor:
#      x y z
#    x 3.292680 0.000000 -0.035820 
#    y 0.000000 3.258030 0.000000 
#    z -0.035820 0.000000 3.244260 
# 
# 
# High freq. dielectric constant tensor:
#      x y z
#    x 1.694010 0.000000 0.001540 
#    y 0.000000 1.702190 0.000000 
#    z 0.001540 0.000000 1.688250 
# 
# From -- ./inp_files/26412.got.cif
#   From: 2010.03.12/outbox.cif.g09.slc.cpg/sg8_14_cif.got.tgz:26412.got - 2010.03.31 10:45:26.
