data_PCOD8053331
_publ_section_title
;
Structure prediction by ZEFSAII (Michael W. Deem and Ramdas Pophale) SiO2 
 PCOD8053331
Probable space group: C M
;
_chemical_formula_sum "Si O2"
_cell_formula_units_Z 32
_cell_length_a 25.062802
_cell_length_b 8.961200
_cell_length_c 23.924816
_cell_angle_alpha 90.000000
_cell_angle_beta 162.081690
_cell_angle_gamma 90.000000
_cell_volume 1653.165859
_symmetry_space_group_name_H-M "C M"
_symmetry_group_IT_number 8
_symmetry_cell_setting 'monoclinic'
loop_
_space_group_symop_operation_xyz
x,y,z
x,-y,z
1/2+x,1/2+y,z
1/2+x,1/2-y,z
loop_
_atom_site_type_symbol
_atom_site_label
_atom_site_fract_x
_atom_site_fract_y
_atom_site_fract_z
Si Si1 0.482130 0.671974 0.918970
Si Si2 0.598484 0.677422 0.260053
Si Si3 0.297943 0.823857 0.030906
Si Si4 0.098638 0.670459 0.532060
Si Si5 0.987862 0.167782 0.527771
Si Si6 0.792142 0.322596 0.151674
Si Si7 0.586838 0.829985 0.131523
Si Si8 0.459774 0.675543 0.624181
O O1 0.523215 0.500000 0.974421
O O2 0.293026 0.689134 0.701979
O O3 0.622060 0.736093 0.014721
O O4 0.477647 0.763813 0.971814
O O5 0.603896 0.500000 0.265043
O O6 0.550643 0.735843 0.150921
O O7 0.784416 0.738801 0.466471
O O8 0.451222 0.733765 0.154926
O O9 0.111947 0.785053 0.818677
O O10 0.336547 0.000000 0.064883
O O11 0.289335 0.764098 0.085699
O O12 0.045265 0.500000 0.485921
O O13 0.093725 0.736979 0.589099
O O14 0.962369 0.743377 0.352810
O O15 0.785961 0.179410 0.312013
O O16 0.021401 0.227853 0.623932
O O17 0.056643 0.000000 0.591357
O O18 0.793422 0.500000 0.151363
O O19 0.529130 0.000000 0.085547
O O20 0.414534 0.500000 0.577707
#
# Coordination Sequence:
#
# PCOD8053331 Si02
#       8
#     4   4   4   4   4   4   4   4
#     4  10  20  34  54  84 115 148 189 235 289 344
#     4  11  23  38  58  87 121 155 190 240 297 350
#     4  10  21  39  64  88 113 156 203 244 286 341
#     4  10  20  33  54  84 114 148 186 229 285 343
#     4   9  18  33  53  80 113 147 186 233 284 337
#     4   9  19  37  58  82 115 150 192 240 284 333
#     4  10  20  36  58  83 114 153 193 236 286 345
#     4   9  20  38  59  86 117 153 197 241 287 345
#
# _framework density 19.356801000000001
#
# number of rings (size 3 to 8) (size 9 to 14) (size 15 to 20)
#    0.000    2.250    1.250    2.250    1.750    4.000 
#    0.000    5.000    0.000    1.500    0.000    0.000 
#    0.000    0.000    0.000    0.000    0.000    0.000 
#
# Total GULP energy -198401.575555 kJ/mol
# GULP energy per Si atom -12400.098472 kJ/mol
# Density = 1.931274 g / cm^3
# Si number density = 19.356801 Si / 1000 Ang^3
#
#
#
# Elastic Constant Matrix: (Units=GPa)
#
#
# Indices 1 2 3 4 5 6 
#
# 1 140.7080 47.2297 82.7439 0.0008 -1.1673 -0.0003
# 2 47.2297 77.3079 48.7251 -0.0002 3.7386 0.0003
# 3 82.7439 48.7251 132.7691 0.0027 0.1177 0.0014
# 4 0.0008 -0.0002 0.0027 20.9167 -0.0005 2.8299
# 5 -1.1673 3.7386 0.1177 -0.0005 27.1854 -0.0001
# 6 -0.0003 0.0003 0.0014 2.8299 -0.0001 25.8958
#
#
#
# Elastic Compliance Matrix: (Units=1/GPa)
#
#
# Indices 1 2 3 4 5 6 
#
# 1 0.011882 -0.003435 -0.006146 0.000000 0.001009 0.000000
# 2 -0.003435 0.017964 -0.004450 0.000001 -0.002599 0.000000
# 3 -0.006146 -0.004450 0.012995 -0.000001 0.000292 -0.000001
# 4 0.000000 0.000001 -0.000001 0.048526 0.000001 -0.005303
# 5 0.001009 -0.002599 0.000292 0.000001 0.037184 0.000000
# 6 0.000000 0.000000 -0.000001 -0.005303 0.000000 0.039196
#
#
# Mechanical properties :
#
#
# Convention : Reuss Voigt Hill
#
# Bulk Modulus (GPa) = 67.65552 78.68694 73.17123
# Shear Modulus (GPa) = 24.90871 26.27199 25.59035
#
# Velocity S-wave (km/s) = 3.59112 3.68808 3.63992
# Velocity P-wave (km/s) = 7.22652 7.67300 7.45310
#
# Compressibility (1/GPa) = 0.01478076
#
# Stress axis : x y z
#
# Youngs Moduli (GPa) = 84.16083 55.66751 76.95472
#
# Poissons Ratio (x) = 0.19119 0.47293
# Poissons Ratio (y) = 0.28905 0.34243
# Poissons Ratio (z) = 0.51721 0.24771
#
# Static dielectric constant tensor:
#      x y z
#    x 3.549810 0.000000 -0.048870 
#    y 0.000000 3.325270 -0.000010 
#    z -0.048870 -0.000010 3.619170 
# 
# 
# High freq. dielectric constant tensor:
#      x y z
#    x 1.748620 0.000000 0.001630 
#    y 0.000000 1.729000 0.000000 
#    z 0.001630 0.000000 1.763280 
# 
# From -- ./inp_files/32387.got.cif
#   From: 2010.03.12/outbox.cif.g09.slc.cpg/sg8_17_cif.got.tgz:32387.got - 2010.03.31 10:45:26.
