data_PCOD8053349
_publ_section_title
;
Structure prediction by ZEFSAII (Michael W. Deem and Ramdas Pophale) SiO2 
 PCOD8053349
Probable space group: C M
;
_chemical_formula_sum "Si O2"
_cell_formula_units_Z 24
_cell_length_a 18.839301
_cell_length_b 8.754562
_cell_length_c 20.411796
_cell_angle_alpha 90.000000
_cell_angle_beta 22.032114
_cell_angle_gamma 90.000000
_cell_volume 1262.867666
_symmetry_space_group_name_H-M "C M"
_symmetry_group_IT_number 8
_symmetry_cell_setting 'monoclinic'
loop_
_space_group_symop_operation_xyz
x,y,z
x,-y,z
1/2+x,1/2+y,z
1/2+x,1/2-y,z
loop_
_atom_site_type_symbol
_atom_site_label
_atom_site_fract_x
_atom_site_fract_y
_atom_site_fract_z
Si Si1 0.433640 0.320233 0.991760
Si Si2 0.644482 0.179854 0.691087
Si Si3 0.352924 0.821140 0.322860
Si Si4 0.510694 0.819152 0.323472
Si Si5 0.557704 0.180526 0.020064
Si Si6 0.472619 0.322229 0.712724
O O1 0.451975 0.500000 0.964492
O O2 0.564501 0.234046 0.828536
O O3 0.500846 0.276462 0.006075
O O4 0.217353 0.265566 0.168697
O O5 0.505604 0.233175 0.751913
O O6 0.855731 0.245728 0.503764
O O7 0.657174 0.000000 0.679677
O O8 0.474900 0.759186 0.279967
O O9 0.132896 0.778858 0.522079
O O10 0.386207 0.000000 0.290057
O O11 0.428007 0.753897 0.190217
O O12 0.484890 0.000000 0.349438
O O13 0.773380 0.221446 0.852312
O O14 0.530717 0.000000 0.030587
O O15 0.484750 0.500000 0.720673
#
# Coordination Sequence:
#
# PCOD8053349 Si02
#       6
#     4   4   4   4   4   4
#     4  11  23  38  56  80 114 153 188 226 276 332
#     4  11  22  36  58  86 113 143 184 235 281 324
#     4   8  15  31  55  77  98 132 180 225 265 317
#     4   9  19  38  61  81 105 145 191 230 275 331
#     4  10  20  34  53  79 111 146 183 223 270 326
#     4   9  18  35  57  79 107 145 184 221 269 330
#
# _framework density 19.004366000000001
#
# number of rings (size 3 to 8) (size 9 to 14) (size 15 to 20)
#    0.000    2.333    0.000    4.000    0.000    6.000 
#    0.000    5.000    0.000    0.000    0.000    0.000 
#    0.000    0.000    0.000    0.000    0.000    0.000 
#
# Total GULP energy -148807.688287 kJ/mol
# GULP energy per Si atom -12400.640691 kJ/mol
# Density = 1.896111 g / cm^3
# Si number density = 19.004366 Si / 1000 Ang^3
#
#
#
# Elastic Constant Matrix: (Units=GPa)
#
#
# Indices 1 2 3 4 5 6 
#
# 1 104.3586 25.7614 80.7162 0.0014 15.2316 -0.0007
# 2 25.7614 51.1056 35.3253 -0.0028 7.4002 0.0008
# 3 80.7162 35.3253 147.0736 -0.0053 14.4535 0.0007
# 4 0.0014 -0.0028 -0.0053 14.0354 -0.0001 3.6777
# 5 15.2316 7.4002 14.4535 -0.0001 19.1035 0.0004
# 6 -0.0007 0.0008 0.0007 3.6777 0.0004 31.4268
#
#
#
# Elastic Compliance Matrix: (Units=1/GPa)
#
#
# Indices 1 2 3 4 5 6 
#
# 1 0.017697 -0.002015 -0.008555 -0.000006 -0.006858 0.000001
# 2 -0.002015 0.024183 -0.004256 0.000004 -0.004541 -0.000001
# 3 -0.008555 -0.004256 0.012623 0.000005 -0.001081 -0.000001
# 4 -0.000006 0.000004 0.000005 0.073502 0.000000 -0.008602
# 5 -0.006858 -0.004541 -0.001081 0.000000 0.060391 -0.000001
# 6 0.000001 -0.000001 -0.000001 -0.008602 -0.000001 0.032827
#
#
# Mechanical properties :
#
#
# Convention : Reuss Voigt Hill
#
# Bulk Modulus (GPa) = 40.23978 65.12707 52.68343
# Shear Modulus (GPa) = 19.29329 23.62879 21.46104
#
# Velocity S-wave (km/s) = 3.18968 3.52992 3.36411
# Velocity P-wave (km/s) = 5.89791 7.13847 6.54764
#
# Compressibility (1/GPa) = 0.02485103
#
# Stress axis : x y z
#
# Youngs Moduli (GPa) = 56.50619 41.35207 79.22188
#
# Poissons Ratio (x) = 0.08331 0.67772
# Poissons Ratio (y) = 0.11384 0.33720
# Poissons Ratio (z) = 0.48339 0.17601
#
# Static dielectric constant tensor:
#      x y z
#    x 3.496300 0.000000 0.012940 
#    y 0.000000 3.232250 0.000000 
#    z 0.012940 0.000000 3.806780 
# 
# 
# High freq. dielectric constant tensor:
#      x y z
#    x 1.735470 0.000000 0.001010 
#    y 0.000000 1.715890 0.000000 
#    z 0.001010 0.000000 1.756060 
# 
# From -- ./inp_files/12112.got.cif
#   From: 2010.03.12/outbox.cif.g09.slc.cpg/sg8_7_cif.got.tgz:12112.got - 2010.03.31 10:45:26.
