data_PCOD8053615
_publ_section_title
;
Structure prediction by ZEFSAII (Michael W. Deem and Ramdas Pophale) SiO2 
 PCOD8053615
Probable space group: C M
;
_chemical_formula_sum "Si O2"
_cell_formula_units_Z 28
_cell_length_a 7.541240
_cell_length_b 19.130064
_cell_length_c 14.197085
_cell_angle_alpha 90.000000
_cell_angle_beta 143.049769
_cell_angle_gamma 90.000000
_cell_volume 1231.176514
_symmetry_space_group_name_H-M "C M"
_symmetry_group_IT_number 8
_symmetry_cell_setting 'monoclinic'
loop_
_space_group_symop_operation_xyz
x,y,z
x,-y,z
1/2+x,1/2+y,z
1/2+x,1/2-y,z
loop_
_atom_site_type_symbol
_atom_site_label
_atom_site_fract_x
_atom_site_fract_y
_atom_site_fract_z
Si Si1 0.855790 0.078971 0.207580
Si Si2 0.848052 0.923242 0.643175
Si Si3 0.487417 0.920820 0.886039
Si Si4 0.787805 0.418460 0.097071
Si Si5 0.142951 0.817496 0.462129
Si Si6 0.686363 0.883419 0.769377
Si Si7 0.130957 0.335349 0.389729
O O1 0.555753 0.081679 0.139460
O O2 0.105958 0.126115 0.362350
O O3 0.982940 0.000000 0.257234
O O4 0.763772 0.109767 0.064503
O O5 0.712823 0.933223 0.689823
O O6 0.648086 0.872773 0.497121
O O7 0.174141 0.887436 0.782700
O O8 0.863785 0.000000 0.602202
O O9 0.526603 0.918167 0.790524
O O10 0.470831 0.000000 0.914333
O O11 0.688787 0.500000 0.075132
O O12 0.874218 0.377836 0.228542
O O13 0.523178 0.369712 0.943702
O O14 0.481513 0.818061 0.646536
O O15 0.046194 0.744177 0.376734
O O16 0.933505 0.838477 0.459776
#
# Coordination Sequence:
#
# PCOD8053615 Si02
#       7
#     4   4   4   4   4   4   4
#     4   9  20  41  67  95 131 174 220 277 339 394
#     4  11  22  40  67  98 134 172 215 279 333 388
#     4  10  20  37  63  98 132 164 212 273 328 385
#     4  10  21  41  69  99 131 172 223 281 338 399
#     4  11  25  44  66  96 136 181 226 278 330 405
#     4  12  23  40  66 102 133 173 222 271 333 400
#     4  11  24  47  64  94 137 180 230 271 337 399
#
# _framework density 22.742473
#
# number of rings (size 3 to 8) (size 9 to 14) (size 15 to 20)
#    0.000    1.429    2.857    2.571    0.000    4.571 
#    2.571    2.857    0.000    0.000    0.000    0.000 
#    0.000    0.000    0.000    0.000    0.000    0.000 
#
# Total GULP energy -173444.467100 kJ/mol
# GULP energy per Si atom -12388.890507 kJ/mol
# Density = 2.269071 g / cm^3
# Si number density = 22.742473 Si / 1000 Ang^3
#
#
#
# Elastic Constant Matrix: (Units=GPa)
#
#
# Indices 1 2 3 4 5 6 
#
# 1 90.8656 21.5741 42.5750 -0.0005 -22.8095 -0.0002
# 2 21.5741 101.5493 64.9485 0.0015 -13.7314 0.0021
# 3 42.5750 64.9485 169.1223 -0.0015 -19.7449 -0.0047
# 4 -0.0005 0.0015 -0.0015 19.5117 -0.0010 -1.3336
# 5 -22.8095 -13.7314 -19.7449 -0.0010 40.2534 -0.0011
# 6 -0.0002 0.0021 -0.0047 -1.3336 -0.0011 24.9286
#
#
#
# Elastic Compliance Matrix: (Units=1/GPa)
#
#
# Indices 1 2 3 4 5 6 
#
# 1 0.013949 -0.000430 -0.002589 0.000000 0.006487 0.000000
# 2 -0.000430 0.013239 -0.004749 -0.000001 0.001943 -0.000002
# 3 -0.002589 -0.004749 0.008516 0.000001 0.001090 0.000002
# 4 0.000000 -0.000001 0.000001 0.051439 0.000002 0.002752
# 5 0.006487 0.001943 0.001090 0.000002 0.029716 0.000002
# 6 0.000000 -0.000002 0.000002 0.002752 0.000002 0.040262
#
#
# Mechanical properties :
#
#
# Convention : Reuss Voigt Hill
#
# Bulk Modulus (GPa) = 49.58608 68.85914 59.22261
# Shear Modulus (GPa) = 27.87383 32.43472 30.15427
#
# Velocity S-wave (km/s) = 3.50470 3.78057 3.64524
# Velocity P-wave (km/s) = 6.18287 7.02854 6.61922
#
# Compressibility (1/GPa) = 0.02016695
#
# Stress axis : x y z
#
# Youngs Moduli (GPa) = 71.68998 75.53486 117.43116
#
# Poissons Ratio (x) = 0.03252 0.30401
# Poissons Ratio (y) = 0.03086 0.55768
# Poissons Ratio (z) = 0.18559 0.35871
#
# Static dielectric constant tensor:
#      x y z
#    x 4.108840 0.000000 -0.126930 
#    y 0.000000 3.733670 0.000000 
#    z -0.126930 0.000000 4.461550 
# 
# 
# High freq. dielectric constant tensor:
#      x y z
#    x 1.912240 0.000000 -0.006570 
#    y 0.000000 1.849740 0.000000 
#    z -0.006570 0.000000 1.913000 
# 
# From -- ./inp_files/25632.got.cif
#   From: 2010.03.12/outbox.cif.g09.slc.cpg/sg8_13_cif.got.tgz:25632.got - 2010.03.31 10:45:26.
