data_PCOD8053190
_publ_section_title
;
Structure prediction by ZEFSAII (Michael W. Deem and Ramdas Pophale) SiO2 
 PCOD8053190
Probable space group: C M
;
_chemical_formula_sum "Si O2"
_cell_formula_units_Z 32
_cell_length_a 20.358641
_cell_length_b 8.681996
_cell_length_c 19.986064
_cell_angle_alpha 90.000000
_cell_angle_beta 28.673734
_cell_angle_gamma 90.000000
_cell_volume 1695.021445
_symmetry_space_group_name_H-M "C M"
_symmetry_group_IT_number 8
_symmetry_cell_setting 'monoclinic'
loop_
_space_group_symop_operation_xyz
x,y,z
x,-y,z
1/2+x,1/2+y,z
1/2+x,1/2-y,z
loop_
_atom_site_type_symbol
_atom_site_label
_atom_site_fract_x
_atom_site_fract_y
_atom_site_fract_z
Si Si1 0.410800 0.680112 0.451910
Si Si2 0.833556 0.322435 0.767941
Si Si3 0.533415 0.821358 0.472836
Si Si4 0.167092 0.321515 0.170162
Si Si5 0.288060 0.820900 0.192056
Si Si6 0.595980 0.178992 0.901021
Si Si7 0.369943 0.322641 0.875335
Si Si8 0.133792 0.820414 0.724037
O O1 0.426516 0.500000 0.426529
O O2 0.452014 0.723265 0.490609
O O3 0.509414 0.766958 0.310959
O O4 0.255278 0.730573 0.577911
O O5 0.791348 0.500000 0.799353
O O6 0.705194 0.219576 0.860408
O O7 0.873065 0.284586 0.808193
O O8 0.967180 0.285672 0.603796
O O9 0.693035 0.771459 0.329855
O O10 0.520596 0.000000 0.465186
O O11 0.178174 0.500000 0.180348
O O12 0.251859 0.225089 0.148700
O O13 0.229483 0.292762 0.041142
O O14 0.257756 0.000000 0.228756
O O15 0.446371 0.781003 0.064246
O O16 0.626424 0.277696 0.808285
O O17 0.606166 0.000000 0.872608
O O18 0.382618 0.500000 0.841831
O O19 0.494028 0.274180 0.812596
O O20 0.164901 0.000000 0.691299
#
# Coordination Sequence:
#
# PCOD8053190 Si02
#       8
#     4   4   4   4   4   4   4   4
#     4  11  21  33  55  87 116 149 187 238 287 334
#     4  11  24  39  59  84 116 155 193 236 287 345
#     4  10  20  35  55  82 114 151 190 233 284 341
#     4  10  19  35  57  83 114 151 188 233 286 342
#     4  10  20  33  55  87 115 145 186 236 286 335
#     4  11  22  36  58  87 117 149 191 240 286 339
#     4  10  23  40  60  84 115 153 192 235 289 345
#     4  11  21  37  59  86 115 149 193 239 287 339
#
# _framework density 18.878817999999999
#
# number of rings (size 3 to 8) (size 9 to 14) (size 15 to 20)
#    0.000    1.500    2.500    4.875    0.000    5.000 
#    0.000    1.250    0.000    1.500    0.000    0.000 
#    0.000    0.000    0.000    0.000    0.000    0.000 
#
# Total GULP energy -198456.982348 kJ/mol
# GULP energy per Si atom -12403.561397 kJ/mol
# Density = 1.883585 g / cm^3
# Si number density = 18.878818 Si / 1000 Ang^3
#
#
#
# Elastic Constant Matrix: (Units=GPa)
#
#
# Indices 1 2 3 4 5 6 
#
# 1 58.2935 13.3452 36.2920 0.0000 3.5780 0.0000
# 2 13.3452 55.8179 42.2982 0.0005 -1.4384 -0.0001
# 3 36.2920 42.2982 140.0052 0.0004 -0.3520 -0.0002
# 4 0.0000 0.0005 0.0004 34.2248 -0.0001 -0.3290
# 5 3.5780 -1.4384 -0.3520 -0.0001 26.4315 0.0000
# 6 0.0000 -0.0001 -0.0002 -0.3290 0.0000 27.0671
#
#
#
# Elastic Compliance Matrix: (Units=1/GPa)
#
#
# Indices 1 2 3 4 5 6 
#
# 1 0.020737 -0.001238 -0.005009 0.000000 -0.002941 0.000000
# 2 -0.001238 0.023345 -0.006729 0.000000 0.001348 0.000000
# 3 -0.005009 -0.006729 0.010475 0.000000 0.000451 0.000000
# 4 0.000000 0.000000 0.000000 0.029222 0.000000 0.000355
# 5 -0.002941 0.001348 0.000451 0.000000 0.038311 0.000000
# 6 0.000000 0.000000 0.000000 0.000355 0.000000 0.036950
#
#
# Mechanical properties :
#
#
# Convention : Reuss Voigt Hill
#
# Bulk Modulus (GPa) = 34.95783 48.66528 41.81156
# Shear Modulus (GPa) = 25.70354 28.35677 27.03015
#
# Velocity S-wave (km/s) = 3.69386 3.87982 3.78798
# Velocity P-wave (km/s) = 6.06217 6.77528 6.42862
#
# Compressibility (1/GPa) = 0.02860589
#
# Stress axis : x y z
#
# Youngs Moduli (GPa) = 48.22334 42.83561 95.46591
#
# Poissons Ratio (x) = 0.05303 0.47816
# Poissons Ratio (y) = 0.05970 0.64236
# Poissons Ratio (z) = 0.24154 0.28823
#
# Static dielectric constant tensor:
#      x y z
#    x 3.083020 0.000000 -0.140980 
#    y 0.000000 3.526450 0.000000 
#    z -0.140980 0.000000 3.855840 
# 
# 
# High freq. dielectric constant tensor:
#      x y z
#    x 1.693640 0.000000 -0.007710 
#    y 0.000000 1.746420 0.000000 
#    z -0.007710 0.000000 1.753350 
# 
# From -- ./inp_files/31342.got.cif
#   From: 2010.03.12/outbox.cif.g09.slc.cpg/sg8_16_cif.got.tgz:31342.got - 2010.03.31 10:45:26.
