data_PCOD8053796
_publ_section_title
;
Structure prediction by ZEFSAII (Michael W. Deem and Ramdas Pophale) SiO2 
 PCOD8053796
Probable space group: C M
;
_chemical_formula_sum "Si O2"
_cell_formula_units_Z 32
_cell_length_a 22.050356
_cell_length_b 9.028516
_cell_length_c 20.152834
_cell_angle_alpha 90.000000
_cell_angle_beta 24.732798
_cell_angle_gamma 90.000000
_cell_volume 1678.596661
_symmetry_space_group_name_H-M "C M"
_symmetry_group_IT_number 8
_symmetry_cell_setting 'monoclinic'
loop_
_space_group_symop_operation_xyz
x,y,z
x,-y,z
1/2+x,1/2+y,z
1/2+x,1/2-y,z
loop_
_atom_site_type_symbol
_atom_site_label
_atom_site_fract_x
_atom_site_fract_y
_atom_site_fract_z
Si Si1 0.712930 0.327850 0.178940
Si Si2 0.044411 0.171990 0.097785
Si Si3 0.036457 0.675053 0.242681
Si Si4 0.740015 0.170202 0.541446
Si Si5 0.227027 0.174396 0.789852
Si Si6 0.548051 0.829423 0.856102
Si Si7 0.713606 0.169720 0.417585
Si Si8 0.534288 0.326495 0.486182
O O1 0.689365 0.500000 0.185334
O O2 0.655450 0.229850 0.176090
O O3 0.632202 0.282176 0.326435
O O4 0.880261 0.288717 0.022078
O O5 0.081099 0.266579 0.126025
O O6 0.881380 0.203587 0.234688
O O7 0.061138 0.000000 0.099874
O O8 0.154841 0.221632 0.931053
O O9 0.034325 0.500000 0.243506
O O10 0.878964 0.732028 0.421819
O O11 0.611825 0.203502 0.719942
O O12 0.681142 0.207154 0.526685
O O13 0.792020 0.000000 0.492563
O O14 0.124387 0.224553 0.832665
O O15 0.381085 0.249720 0.629610
O O16 0.247272 0.000000 0.765596
O O17 0.573797 0.000000 0.850800
O O18 0.612361 0.275008 0.475406
O O19 0.674621 0.000000 0.439840
O O20 0.508301 0.500000 0.516368
#
# Coordination Sequence:
#
# PCOD8053796 Si02
#       8
#     4   4   4   4   4   4   4   4
#     4  10  22  39  57  79 112 152 187 223 275 334
#     4   9  20  39  60  81 110 148 184 222 276 337
#     4  11  22  35  57  87 114 143 183 230 273 320
#     4   9  19  37  59  82 112 150 185 220 273 335
#     4  11  23  38  58  83 111 145 185 230 278 328
#     4  10  21  38  60  83 109 145 188 231 274 325
#     4   9  18  35  58  82 108 141 184 229 274 328
#     4  11  23  37  55  81 114 150 186 227 275 327
#
# _framework density 19.063542999999999
#
# number of rings (size 3 to 8) (size 9 to 14) (size 15 to 20)
#    0.000    2.000    0.000    4.125    0.000    9.000 
#    0.000    2.500    0.000    0.000    0.000    0.000 
#    0.000    0.000    0.000    0.000    0.000    0.000 
#
# Total GULP energy -198478.399625 kJ/mol
# GULP energy per Si atom -12404.899977 kJ/mol
# Density = 1.902015 g / cm^3
# Si number density = 19.063543 Si / 1000 Ang^3
#
#
#
# Elastic Constant Matrix: (Units=GPa)
#
#
# Indices 1 2 3 4 5 6 
#
# 1 130.7346 67.3052 71.9643 -0.0003 -4.1014 0.0002
# 2 67.3052 89.2763 61.4022 -0.0013 -0.0143 0.0008
# 3 71.9643 61.4022 163.0315 -0.0013 3.7324 0.0009
# 4 -0.0003 -0.0013 -0.0013 25.0201 0.0005 -3.3999
# 5 -4.1014 -0.0143 3.7324 0.0005 23.0212 -0.0003
# 6 0.0002 0.0008 0.0009 -3.3999 -0.0003 39.0914
#
#
#
# Elastic Compliance Matrix: (Units=1/GPa)
#
#
# Indices 1 2 3 4 5 6 
#
# 1 0.013606 -0.008207 -0.002982 0.000000 0.002902 0.000000
# 2 -0.008207 0.020087 -0.003924 0.000001 -0.000813 0.000000
# 3 -0.002982 -0.003924 0.008973 0.000000 -0.001988 0.000000
# 4 0.000000 0.000001 0.000000 0.040446 -0.000001 0.003518
# 5 0.002902 -0.000813 -0.001988 -0.000001 0.044277 0.000000
# 6 0.000000 0.000000 0.000000 0.003518 0.000000 0.025887
#
#
# Mechanical properties :
#
#
# Convention : Reuss Voigt Hill
#
# Bulk Modulus (GPa) = 80.37394 87.15398 83.76396
# Shear Modulus (GPa) = 26.64549 29.58458 28.11504
#
# Velocity S-wave (km/s) = 3.74266 3.94368 3.84449
# Velocity P-wave (km/s) = 7.80572 8.15804 7.98383
#
# Compressibility (1/GPa) = 0.01244184
#
# Stress axis : x y z
#
# Youngs Moduli (GPa) = 73.49491 49.78353 111.44057
#
# Poissons Ratio (x) = 0.40856 0.33228
# Poissons Ratio (y) = 0.60315 0.43731
# Poissons Ratio (z) = 0.21914 0.19536
#
# Static dielectric constant tensor:
#      x y z
#    x 3.490380 0.000000 0.120800 
#    y 0.000000 3.442190 0.000000 
#    z 0.120800 0.000000 3.729530 
# 
# 
# High freq. dielectric constant tensor:
#      x y z
#    x 1.747190 0.000000 0.005460 
#    y 0.000000 1.737650 0.000000 
#    z 0.005460 0.000000 1.750650 
# 
# From -- ./inp_files/29732.got.cif
#   From: 2010.03.12/outbox.cif.g09.slc.cpg/sg8_15_cif.got.tgz:29732.got - 2010.03.31 10:45:26.
