data_PCOD8053097
_publ_section_title
;
Structure prediction by ZEFSAII (Michael W. Deem and Ramdas Pophale) SiO2 
 PCOD8053097
Probable space group: C M
;
_chemical_formula_sum "Si O2"
_cell_formula_units_Z 24
_cell_length_a 24.639805
_cell_length_b 8.685744
_cell_length_c 18.155225
_cell_angle_alpha 90.000000
_cell_angle_beta 18.957556
_cell_angle_gamma 90.000000
_cell_volume 1262.270336
_symmetry_space_group_name_H-M "C M"
_symmetry_group_IT_number 8
_symmetry_cell_setting 'monoclinic'
loop_
_space_group_symop_operation_xyz
x,y,z
x,-y,z
1/2+x,1/2+y,z
1/2+x,1/2-y,z
loop_
_atom_site_type_symbol
_atom_site_label
_atom_site_fract_x
_atom_site_fract_y
_atom_site_fract_z
Si Si1 0.371530 0.317337 0.483730
Si Si2 0.041701 0.182673 0.648774
Si Si3 0.182914 0.682059 0.161794
Si Si4 0.840441 0.316430 0.366832
Si Si5 0.189522 0.680687 0.861112
Si Si6 0.027183 0.818411 0.501815
O O1 0.376624 0.500000 0.472083
O O2 0.555812 0.258837 0.267534
O O3 0.307364 0.246192 0.490509
O O4 0.241841 0.259832 0.712949
O O5 0.069061 0.239717 0.529980
O O6 0.192613 0.246595 0.504645
O O7 0.040198 0.000000 0.651329
O O8 0.866807 0.243699 0.905318
O O9 0.168447 0.500000 0.171478
O O10 0.147833 0.730156 0.290788
O O11 0.843089 0.500000 0.366041
O O12 0.014410 0.246490 0.112203
O O13 0.164846 0.500000 0.889240
O O14 0.334216 0.724305 0.733343
O O15 0.056115 0.000000 0.454029
#
# Coordination Sequence:
#
# PCOD8053097 Si02
#       6
#     4   4   4   4   4   4
#     4  10  20  35  53  77 103 131 168 213 255 297
#     4   9  19  33  52  76 105 137 169 201 248 308
#     4  10  19  34  54  77 102 133 169 209 251 298
#     4  10  19  34  54  76 101 136 172 205 247 302
#     4   8  16  31  52  72  96 130 169 206 248 296
#     4   9  17  33  53  74  99 133 173 212 247 293
#
# _framework density 19.013359999999999
#
# number of rings (size 3 to 8) (size 9 to 14) (size 15 to 20)
#    0.000    2.667    0.000    3.000    0.000    4.000 
#    0.000   13.333    0.000    0.000    0.000    0.000 
#    0.000    0.000    0.000    0.000    0.000    0.000 
#
# Total GULP energy -148789.161716 kJ/mol
# GULP energy per Si atom -12399.096810 kJ/mol
# Density = 1.897009 g / cm^3
# Si number density = 19.013360 Si / 1000 Ang^3
#
#
#
# Elastic Constant Matrix: (Units=GPa)
#
#
# Indices 1 2 3 4 5 6 
#
# 1 175.9626 21.2310 58.1752 -0.0001 -3.4615 0.0000
# 2 21.2310 26.5591 15.0985 0.0007 -0.8157 0.0001
# 3 58.1752 15.0985 70.7806 0.0002 -3.3934 0.0001
# 4 -0.0001 0.0007 0.0002 20.3148 0.0000 5.4069
# 5 -3.4615 -0.8157 -3.3934 0.0000 22.5776 0.0000
# 6 0.0000 0.0001 0.0001 5.4069 0.0000 29.4609
#
#
#
# Elastic Compliance Matrix: (Units=1/GPa)
#
#
# Indices 1 2 3 4 5 6 
#
# 1 0.008013 -0.003028 -0.005929 0.000000 0.000228 0.000000
# 2 -0.003028 0.043993 -0.006891 -0.000002 0.000089 0.000000
# 3 -0.005929 -0.006891 0.020564 0.000000 0.001933 0.000000
# 4 0.000000 -0.000002 0.000000 0.051753 0.000000 -0.009498
# 5 0.000228 0.000089 0.001933 0.000000 0.044620 0.000000
# 6 0.000000 0.000000 0.000000 -0.009498 0.000000 0.035686
#
#
# Mechanical properties :
#
#
# Convention : Reuss Voigt Hill
#
# Bulk Modulus (GPa) = 24.46603 51.36798 37.91701
# Shear Modulus (GPa) = 20.00391 26.39050 23.19720
#
# Velocity S-wave (km/s) = 3.24712 3.72963 3.49671
# Velocity P-wave (km/s) = 5.19174 6.75442 6.02397
#
# Compressibility (1/GPa) = 0.04087300
#
# Stress axis : x y z
#
# Youngs Moduli (GPa) = 124.79532 22.73108 48.62831
#
# Poissons Ratio (x) = 0.06883 0.28833
# Poissons Ratio (y) = 0.37787 0.33511
# Poissons Ratio (z) = 0.73994 0.15665
#
# Static dielectric constant tensor:
#      x y z
#    x 3.652810 0.000000 0.048680 
#    y 0.000000 3.116010 0.000000 
#    z 0.048680 0.000000 3.763970 
# 
# 
# High freq. dielectric constant tensor:
#      x y z
#    x 1.746960 0.000000 0.008170 
#    y 0.000000 1.704420 0.000000 
#    z 0.008170 0.000000 1.743850 
# 
# From -- ./inp_files/12059.got.cif
#   From: 2010.03.12/outbox.cif.g09.slc.cpg/sg8_7_cif.got.tgz:12059.got - 2010.03.31 10:45:26.
