data_PCOD8053725
_publ_section_title
;
Structure prediction by ZEFSAII (Michael W. Deem and Ramdas Pophale) SiO2 
 PCOD8053725
Probable space group: C M
;
_chemical_formula_sum "Si O2"
_cell_formula_units_Z 32
_cell_length_a 5.011811
_cell_length_b 34.919962
_cell_length_c 12.369907
_cell_angle_alpha 90.000000
_cell_angle_beta 48.646348
_cell_angle_gamma 90.000000
_cell_volume 1625.061970
_symmetry_space_group_name_H-M "C M"
_symmetry_group_IT_number 8
_symmetry_cell_setting 'monoclinic'
loop_
_space_group_symop_operation_xyz
x,y,z
x,-y,z
1/2+x,1/2+y,z
1/2+x,1/2-y,z
loop_
_atom_site_type_symbol
_atom_site_label
_atom_site_fract_x
_atom_site_fract_y
_atom_site_fract_z
Si Si1 0.840650 0.772777 0.164390
Si Si2 0.305056 0.603789 0.999044
Si Si3 0.783436 0.846004 0.672369
Si Si4 0.493876 0.956977 0.237683
Si Si5 0.741011 0.727251 0.504718
Si Si6 0.276285 0.103640 0.672613
Si Si7 0.803409 0.345943 0.997778
Si Si8 0.671625 0.043057 0.426901
O O1 0.635613 0.760081 0.110773
O O2 0.540779 0.776847 0.334517
O O3 0.040568 0.812784 0.104911
O O4 0.105491 0.568190 0.105213
O O5 0.532692 0.588879 0.836393
O O6 0.571022 0.618872 0.018542
O O7 0.037553 0.638009 0.034752
O O8 0.537766 0.862002 0.641266
O O9 0.550207 0.830092 0.834799
O O10 0.039356 0.812649 0.564113
O O11 0.024955 0.881015 0.645640
O O12 0.633343 0.940286 0.315174
O O13 0.074072 0.957053 0.355549
O O14 0.643556 0.000000 0.179949
O O15 0.446757 0.760180 0.558114
O O16 0.476712 0.067749 0.569638
O O17 0.512221 0.000000 0.471454
#
# Coordination Sequence:
#
# PCOD8053725 Si02
#       8
#     4   4   4   4   4   4   4   4
#     4  10  21  36  53  76 106 139 178 222 268 321
#     4  10  21  37  56  81 112 144 182 225 269 322
#     4  10  21  36  55  80 108 140 181 225 268 320
#     4  10  21  37  57  83 113 144 182 225 268 320
#     4  10  21  36  53  76 106 139 178 222 268 321
#     4  10  21  37  56  81 112 144 182 225 269 322
#     4  10  21  36  55  80 108 140 181 225 268 320
#     4  10  21  37  57  83 113 144 182 225 268 320
#
# _framework density 19.691559999999999
#
# number of rings (size 3 to 8) (size 9 to 14) (size 15 to 20)
#    0.000    2.000    0.000    3.000    0.000    4.500 
#    0.000    0.000    0.000    9.000    0.000    0.000 
#    0.000    0.000    0.000    0.000    0.000    0.000 
#
# Total GULP energy -198385.902336 kJ/mol
# GULP energy per Si atom -12399.118896 kJ/mol
# Density = 1.964674 g / cm^3
# Si number density = 19.691560 Si / 1000 Ang^3
#
#
#
# Elastic Constant Matrix: (Units=GPa)
#
#
# Indices 1 2 3 4 5 6 
#
# 1 84.2561 8.9596 24.9795 0.0000 -6.9887 0.0000
# 2 8.9596 80.5773 57.6600 0.0000 -1.6990 0.0000
# 3 24.9795 57.6600 75.5853 0.0000 -8.9498 0.0000
# 4 0.0000 0.0000 0.0000 10.9430 0.0000 -6.7215
# 5 -6.9887 -1.6990 -8.9498 0.0000 24.6865 0.0000
# 6 0.0000 0.0000 0.0000 -6.7215 0.0000 15.7872
#
#
#
# Elastic Compliance Matrix: (Units=1/GPa)
#
#
# Indices 1 2 3 4 5 6 
#
# 1 0.013714 0.003564 -0.007066 0.000000 0.001566 0.000000
# 2 0.003564 0.029113 -0.024063 0.000000 -0.005711 0.000000
# 3 -0.007066 -0.024063 0.034990 0.000000 0.009029 0.000000
# 4 0.000000 0.000000 0.000000 0.123743 0.000000 0.052685
# 5 0.001566 -0.005711 0.009029 0.000000 0.043832 0.000000
# 6 0.000000 0.000000 0.000000 0.052685 0.000000 0.085773
#
#
# Mechanical properties :
#
#
# Convention : Reuss Voigt Hill
#
# Bulk Modulus (GPa) = 44.07431 47.06854 45.57143
# Shear Modulus (GPa) = 12.69499 20.20465 16.44982
#
# Velocity S-wave (km/s) = 2.54183 3.20669 2.89342
# Velocity P-wave (km/s) = 5.57185 6.13720 5.86134
#
# Compressibility (1/GPa) = 0.02268895
#
# Stress axis : x y z
#
# Youngs Moduli (GPa) = 72.91650 34.34948 28.57929
#
# Poissons Ratio (x) = -0.12244 0.20194
# Poissons Ratio (y) = -0.25990 0.68769
# Poissons Ratio (z) = 0.51523 0.82654
#
# Static dielectric constant tensor:
#      x y z
#    x 4.012950 0.000000 -0.082130 
#    y 0.000000 3.372150 0.000000 
#    z -0.082130 0.000000 3.587540 
# 
# 
# High freq. dielectric constant tensor:
#      x y z
#    x 1.791030 0.000000 -0.011620 
#    y 0.000000 1.755080 0.000000 
#    z -0.011620 0.000000 1.760530 
# 
# From -- ./inp_files/25043.got.cif
#   From: 2010.03.12/outbox.cif.g09.slc.cpg/sg8_13_cif.got.tgz:25043.got - 2010.03.31 10:45:26.
