data_PCOD8053465
_publ_section_title
;
Structure prediction by ZEFSAII (Michael W. Deem and Ramdas Pophale) SiO2 
 PCOD8053465
Probable space group: C M
;
_chemical_formula_sum "Si O2"
_cell_formula_units_Z 32
_cell_length_a 9.057380
_cell_length_b 20.692004
_cell_length_c 12.514128
_cell_angle_alpha 90.000000
_cell_angle_beta 136.677450
_cell_angle_gamma 90.000000
_cell_volume 1609.148590
_symmetry_space_group_name_H-M "C M"
_symmetry_group_IT_number 8
_symmetry_cell_setting 'monoclinic'
loop_
_space_group_symop_operation_xyz
x,y,z
x,-y,z
1/2+x,1/2+y,z
1/2+x,1/2-y,z
loop_
_atom_site_type_symbol
_atom_site_label
_atom_site_fract_x
_atom_site_fract_y
_atom_site_fract_z
Si Si1 0.140060 0.931108 0.210720
Si Si2 0.079652 0.794437 0.180656
Si Si3 0.826140 0.928033 0.234414
Si Si4 0.476459 0.574712 0.546714
Si Si5 0.281075 0.188825 0.685508
Si Si6 0.458116 0.196100 0.545880
Si Si7 0.613540 0.928602 0.528149
Si Si8 0.639191 0.809174 0.042333
O O1 0.063517 0.865251 0.111549
O O2 0.396464 0.932973 0.345133
O O3 0.049645 0.924752 0.284865
O O4 0.056193 0.000000 0.116178
O O5 0.302755 0.790616 0.363043
O O6 0.038507 0.738721 0.074816
O O7 0.884026 0.786273 0.158906
O O8 0.870988 0.905890 0.378515
O O9 0.640946 0.882315 0.088099
O O10 0.729311 0.000000 0.181401
O O11 0.551192 0.500000 0.586077
O O12 0.681924 0.620469 0.670530
O O13 0.306796 0.589292 0.550590
O O14 0.316486 0.192599 0.577767
O O15 0.125776 0.245892 0.642146
O O16 0.509822 0.194929 0.864206
O O17 0.588993 0.128410 0.602238
O O18 0.654464 0.000000 0.602546
#
# Coordination Sequence:
#
# PCOD8053465 Si02
#       8
#     4   4   4   4   4   4   4   4
#     4   8  15  30  53  80 107 138 182 234 279 323
#     4  10  20  36  57  81 108 147 191 233 280 343
#     4   9  18  35  58  82 110 148 195 238 278 337
#     4  10  20  35  58  87 116 149 193 239 285 343
#     4  12  24  38  56  84 119 153 190 241 301 348
#     4  11  22  38  61  84 113 152 197 239 286 350
#     4   9  18  33  56  86 113 139 181 238 287 330
#     4  11  23  37  55  82 116 148 185 238 296 346
#
# _framework density 19.886292999999998
#
# number of rings (size 3 to 8) (size 9 to 14) (size 15 to 20)
#    0.000    2.000    0.000    5.250    0.000    5.000 
#    0.000    0.000    0.000    2.250    0.000    8.750 
#    0.000    0.000    0.000    0.000    0.000    0.000 
#
# Total GULP energy -198304.840463 kJ/mol
# GULP energy per Si atom -12394.052529 kJ/mol
# Density = 1.984103 g / cm^3
# Si number density = 19.886293 Si / 1000 Ang^3
#
#
#
# Elastic Constant Matrix: (Units=GPa)
#
#
# Indices 1 2 3 4 5 6 
#
# 1 85.2982 46.4634 9.5936 0.0000 2.6113 0.0000
# 2 46.4634 126.3397 33.8583 0.0000 3.2598 0.0000
# 3 9.5936 33.8583 64.6874 0.0000 1.8122 0.0000
# 4 0.0000 0.0000 0.0000 18.2235 0.0000 2.2761
# 5 2.6113 3.2598 1.8122 0.0000 18.7265 0.0000
# 6 0.0000 0.0000 0.0000 2.2761 0.0000 33.9451
#
#
#
# Elastic Compliance Matrix: (Units=1/GPa)
#
#
# Indices 1 2 3 4 5 6 
#
# 1 0.014717 -0.005591 0.000776 0.000000 -0.001154 0.000000
# 2 -0.005591 0.011355 -0.005094 0.000000 -0.000704 0.000000
# 3 0.000776 -0.005094 0.018037 0.000000 -0.000967 0.000000
# 4 0.000000 0.000000 0.000000 0.055338 0.000000 -0.003710
# 5 -0.001154 -0.000704 -0.000967 0.000000 0.053777 0.000000
# 6 0.000000 0.000000 0.000000 -0.003710 0.000000 0.029708
#
#
# Mechanical properties :
#
#
# Convention : Reuss Voigt Hill
#
# Bulk Modulus (GPa) = 41.16759 50.68402 45.92580
# Shear Modulus (GPa) = 23.71388 26.60635 25.16011
#
# Velocity S-wave (km/s) = 3.45697 3.66173 3.56082
# Velocity P-wave (km/s) = 6.05645 6.58938 6.32853
#
# Compressibility (1/GPa) = 0.02429095
#
# Stress axis : x y z
#
# Youngs Moduli (GPa) = 67.94912 88.07023 55.44035
#
# Poissons Ratio (x) = 0.49236 -0.04301
# Poissons Ratio (y) = 0.37987 0.28243
# Poissons Ratio (z) = -0.05272 0.44866
#
# Static dielectric constant tensor:
#      x y z
#    x 3.563550 0.000000 0.076820 
#    y 0.000000 4.167420 0.000000 
#    z 0.076820 0.000000 3.117750 
# 
# 
# High freq. dielectric constant tensor:
#      x y z
#    x 1.777940 0.000000 0.008300 
#    y 0.000000 1.804630 0.000000 
#    z 0.008300 0.000000 1.724290 
# 
# From -- ./inp_files/19271.got.cif
#   From: 2010.03.12/outbox.cif.g09.slc.cpg/sg8_10_cif.got.tgz:19271.got - 2010.03.31 10:45:26.
