data_PCOD8053187
_publ_section_title
;
Structure prediction by ZEFSAII (Michael W. Deem and Ramdas Pophale) SiO2 
 PCOD8053187
Probable space group: C M
;
_chemical_formula_sum "Si O2"
_cell_formula_units_Z 24
_cell_length_a 26.214673
_cell_length_b 7.579735
_cell_length_c 9.547049
_cell_angle_alpha 90.000000
_cell_angle_beta 136.296896
_cell_angle_gamma 90.000000
_cell_volume 1310.679099
_symmetry_space_group_name_H-M "C M"
_symmetry_group_IT_number 8
_symmetry_cell_setting 'monoclinic'
loop_
_space_group_symop_operation_xyz
x,y,z
x,-y,z
1/2+x,1/2+y,z
1/2+x,1/2-y,z
loop_
_atom_site_type_symbol
_atom_site_label
_atom_site_fract_x
_atom_site_fract_y
_atom_site_fract_z
Si Si1 0.789040 0.304239 0.162480
Si Si2 0.955628 0.500000 0.727023
Si Si3 0.706540 0.299864 0.462067
Si Si4 0.170586 0.204647 0.705748
Si Si5 0.558604 0.000000 0.435521
Si Si6 0.096261 0.500000 0.192931
Si Si7 0.842174 0.196214 0.553556
Si Si8 0.921241 0.500000 0.347274
O O1 0.764975 0.500000 0.167656
O O2 0.798057 0.186611 0.318363
O O3 0.867950 0.326189 0.237652
O O4 0.727764 0.226118 0.936710
O O5 0.911455 0.326343 0.686644
O O6 0.967395 0.500000 0.583523
O O7 0.035910 0.500000 0.952637
O O8 0.683187 0.500000 0.381290
O O9 0.709739 0.266142 0.634531
O O10 0.787734 0.259160 0.567344
O O11 0.646319 0.173043 0.271706
O O12 0.097792 0.323949 0.571814
O O13 0.148876 0.000000 0.685300
O O14 0.556040 0.000000 0.262982
O O15 0.474618 0.000000 0.320704
O O16 0.871216 0.000000 0.645381
#
# Coordination Sequence:
#
# PCOD8053187 Si02
#       8
#     4   2   4   4   2   2   4   2
#     4   8  17  35  54  76 107 140 178 217 267 322
#     4  10  22  40  52  78 115 146 181 230 267 324
#     4  10  19  35  57  82 111 142 179 228 270 322
#     4   9  19  34  55  81 109 138 177 223 269 320
#     4  10  20  34  56  80 109 142 179 222 267 322
#     4  10  22  36  54  82 113 144 185 218 277 324
#     4  11  20  34  57  81 109 144 184 225 272 321
#     4   8  18  36  54  72 109 142 175 218 267 316
#
# _framework density 18.311116999999999
#
# number of rings (size 3 to 8) (size 9 to 14) (size 15 to 20)
#    0.500    2.000    2.500    0.000    1.167    3.333 
#    0.000    3.333    0.000    0.000    0.000    0.000 
#    0.000    0.000    0.000    0.000    0.000    0.000 
#
# Total GULP energy -148749.754809 kJ/mol
# GULP energy per Si atom -12395.812901 kJ/mol
# Density = 1.826944 g / cm^3
# Si number density = 18.311117 Si / 1000 Ang^3
#
#
#
# Elastic Constant Matrix: (Units=GPa)
#
#
# Indices 1 2 3 4 5 6 
#
# 1 53.5029 7.6762 -24.1726 0.0000 0.9215 0.0000
# 2 7.6762 100.9963 8.2778 0.0000 2.3334 0.0000
# 3 -24.1726 8.2778 55.4439 0.0000 4.4674 0.0000
# 4 0.0000 0.0000 0.0000 19.2556 0.0000 -1.4050
# 5 0.9215 2.3334 4.4674 0.0000 11.7464 0.0000
# 6 0.0000 0.0000 0.0000 -1.4050 0.0000 9.0159
#
#
#
# Elastic Compliance Matrix: (Units=1/GPa)
#
#
# Indices 1 2 3 4 5 6 
#
# 1 0.024358 -0.002659 0.011480 0.000000 -0.005748 0.000000
# 2 -0.002659 0.010339 -0.002635 0.000000 -0.000843 0.000000
# 3 0.011480 -0.002635 0.024207 0.000000 -0.009583 0.000000
# 4 0.000000 0.000000 0.000000 0.052530 0.000000 0.008186
# 5 -0.005748 -0.000843 -0.009583 0.000000 0.089395 0.000000
# 6 0.000000 0.000000 0.000000 0.008186 0.000000 0.112191
#
#
# Mechanical properties :
#
#
# Convention : Reuss Voigt Hill
#
# Bulk Modulus (GPa) = 14.03037 21.50065 17.76551
# Shear Modulus (GPa) = 15.41271 22.54769 18.98020
#
# Velocity S-wave (km/s) = 2.90438 3.51289 3.22303
# Velocity P-wave (km/s) = 4.35041 5.31236 4.85527
#
# Compressibility (1/GPa) = 0.07127395
#
# Stress axis : x y z
#
# Youngs Moduli (GPa) = 41.05483 96.72174 41.31063
#
# Poissons Ratio (x) = 0.25722 -0.47424
# Poissons Ratio (y) = 0.10918 0.10886
# Poissons Ratio (z) = -0.47130 0.25487
#
# Static dielectric constant tensor:
#      x y z
#    x 3.168390 0.000000 -0.102820 
#    y 0.000000 3.466420 0.000000 
#    z -0.102820 0.000000 3.207200 
# 
# 
# High freq. dielectric constant tensor:
#      x y z
#    x 1.697440 0.000000 -0.009010 
#    y 0.000000 1.711040 0.000000 
#    z -0.009010 0.000000 1.697180 
# 
# From -- ./inp_files/14278.got.cif
#   From: 2010.03.12/outbox.cif.g09.slc.cpg/sg8_8_cif.got.tgz:14278.got - 2010.03.31 10:45:26.
