data_PCOD8053879
_publ_section_title
;
Structure prediction by ZEFSAII (Michael W. Deem and Ramdas Pophale) SiO2 
 PCOD8053879
Probable space group: C M
;
_chemical_formula_sum "Si O2"
_cell_formula_units_Z 24
_cell_length_a 11.339374
_cell_length_b 13.541435
_cell_length_c 14.739041
_cell_angle_alpha 90.000000
_cell_angle_beta 30.583484
_cell_angle_gamma 90.000000
_cell_volume 1151.501111
_symmetry_space_group_name_H-M "C M"
_symmetry_group_IT_number 8
_symmetry_cell_setting 'monoclinic'
loop_
_space_group_symop_operation_xyz
x,y,z
x,-y,z
1/2+x,1/2+y,z
1/2+x,1/2-y,z
loop_
_atom_site_type_symbol
_atom_site_label
_atom_site_fract_x
_atom_site_fract_y
_atom_site_fract_z
Si Si1 0.577140 0.609164 0.358330
Si Si2 0.834778 0.890170 0.903552
Si Si3 0.592206 0.607980 0.554058
Si Si4 0.231970 0.685815 0.449145
Si Si5 0.459825 0.262039 0.123366
Si Si6 0.709754 0.385003 0.803302
O O1 0.683826 0.500000 0.272058
O O2 0.491302 0.620298 0.519123
O O3 0.351615 0.618900 0.445145
O O4 0.767715 0.690731 0.204876
O O5 0.883149 0.884012 0.763867
O O6 0.070141 0.867887 0.802622
O O7 0.742792 0.000000 0.990074
O O8 0.643471 0.808717 0.053224
O O9 0.715339 0.500000 0.483920
O O10 0.769505 0.698450 0.451900
O O11 0.345821 0.667573 0.275196
O O12 0.960979 0.661871 0.623808
O O13 0.574485 0.332014 0.973872
O O14 0.732957 0.500000 0.811996
#
# Coordination Sequence:
#
# PCOD8053879 Si02
#       6
#     4   4   4   4   4   4
#     4  10  22  41  63  94 128 161 204 255 308 366
#     4  10  21  41  65  92 123 160 209 258 305 360
#     4   9  20  37  63  91 118 162 209 248 300 358
#     4  11  23  40  66  92 128 162 204 252 313 368
#     4  11  23  40  66  92 122 164 209 252 306 367
#     4  11  25  43  63  91 127 163 205 257 310 367
#
# _framework density 20.842358000000001
#
# number of rings (size 3 to 8) (size 9 to 14) (size 15 to 20)
#    0.000    1.667    1.667    2.000    4.667    2.000 
#    3.000    0.833    0.000    0.000    0.000    0.000 
#    0.000    0.000    0.000    0.000    0.000    0.000 
#
# Total GULP energy -148770.692094 kJ/mol
# GULP energy per Si atom -12397.557674 kJ/mol
# Density = 2.079492 g / cm^3
# Si number density = 20.842358 Si / 1000 Ang^3
#
#
#
# Elastic Constant Matrix: (Units=GPa)
#
#
# Indices 1 2 3 4 5 6 
#
# 1 95.9167 45.2507 54.4976 0.0002 -1.9250 -0.0032
# 2 45.2507 112.8657 51.2814 -0.0170 7.2224 0.0056
# 3 54.4976 51.2814 135.5692 -0.0297 12.3144 0.0055
# 4 0.0002 -0.0170 -0.0297 16.4046 0.0102 1.7933
# 5 -1.9250 7.2224 12.3144 0.0102 32.1951 -0.0021
# 6 -0.0032 0.0056 0.0055 1.7933 -0.0021 25.5469
#
#
#
# Elastic Compliance Matrix: (Units=1/GPa)
#
#
# Indices 1 2 3 4 5 6 
#
# 1 0.015226 -0.004115 -0.004901 -0.000016 0.003708 0.000005
# 2 -0.004115 0.011835 -0.002651 0.000009 -0.001887 -0.000003
# 3 -0.004901 -0.002651 0.010694 0.000019 -0.003788 -0.000004
# 4 -0.000016 0.000009 0.000019 0.061430 -0.000030 -0.004312
# 5 0.003708 -0.001887 -0.003788 -0.000030 0.033155 0.000007
# 6 0.000005 -0.000003 -0.000004 -0.004312 0.000007 0.039446
#
#
# Mechanical properties :
#
#
# Convention : Reuss Voigt Hill
#
# Bulk Modulus (GPa) = 69.34693 71.82345 70.58519
# Shear Modulus (GPa) = 25.00911 27.71747 26.36329
#
# Velocity S-wave (km/s) = 3.46774 3.65068 3.56039
# Velocity P-wave (km/s) = 7.02695 7.23223 7.13033
#
# Compressibility (1/GPa) = 0.01442025
#
# Stress axis : x y z
#
# Youngs Moduli (GPa) = 65.67671 84.49312 93.51470
#
# Poissons Ratio (x) = 0.34769 0.45832
# Poissons Ratio (y) = 0.27026 0.24794
# Poissons Ratio (z) = 0.32188 0.22402
#
# Static dielectric constant tensor:
#      x y z
#    x 3.645130 0.000000 0.118370 
#    y 0.000000 4.125590 0.000010 
#    z 0.118370 0.000010 3.630870 
# 
# 
# High freq. dielectric constant tensor:
#      x y z
#    x 1.804600 0.000000 0.012460 
#    y 0.000000 1.832610 0.000000 
#    z 0.012460 0.000000 1.808330 
# 
# From -- ./inp_files/20370.got.cif
#   From: 2010.03.12/outbox.cif.g09.slc.cpg/sg8_11_cif.got.tgz:20370.got - 2010.03.31 10:45:26.
