data_PCOD8053515
_publ_section_title
;
Structure prediction by ZEFSAII (Michael W. Deem and Ramdas Pophale) SiO2 
 PCOD8053515
Probable space group: C M
;
_chemical_formula_sum "Si O2"
_cell_formula_units_Z 32
_cell_length_a 27.958761
_cell_length_b 9.020858
_cell_length_c 7.130191
_cell_angle_alpha 90.000000
_cell_angle_beta 106.692772
_cell_angle_gamma 90.000000
_cell_volume 1722.536358
_symmetry_space_group_name_H-M "C M"
_symmetry_group_IT_number 8
_symmetry_cell_setting 'monoclinic'
loop_
_space_group_symop_operation_xyz
x,y,z
x,-y,z
1/2+x,1/2+y,z
1/2+x,1/2-y,z
loop_
_atom_site_type_symbol
_atom_site_label
_atom_site_fract_x
_atom_site_fract_y
_atom_site_fract_z
Si Si1 0.956240 0.332667 0.866190
Si Si2 0.131586 0.173850 0.651167
Si Si3 0.643117 0.173311 0.263959
Si Si4 0.712202 0.673838 0.052428
Si Si5 0.350808 0.167716 0.629074
Si Si6 0.062952 0.672644 0.860666
Si Si7 0.382116 0.669557 0.997469
Si Si8 0.810220 0.829492 0.236851
O O1 0.966217 0.500000 0.946737
O O2 0.911238 0.327537 0.660787
O O3 0.006797 0.268247 0.834302
O O4 0.937701 0.239037 0.028572
O O5 0.135999 0.255415 0.458840
O O6 0.083668 0.234416 0.709317
O O7 0.124703 0.000000 0.608337
O O8 0.180430 0.208848 0.830460
O O9 0.689444 0.249177 0.211302
O O10 0.654435 0.000000 0.300357
O O11 0.593659 0.201766 0.085386
O O12 0.715216 0.500000 0.095170
O O13 0.766868 0.741162 0.080333
O O14 0.318762 0.260944 0.448631
O O15 0.330604 0.000000 0.606043
O O16 0.342035 0.242862 0.822023
O O17 0.064049 0.500000 0.805783
O O18 0.383750 0.500000 0.935118
O O19 0.362733 0.687659 0.186631
O O20 0.794273 0.000000 0.236699
#
# Coordination Sequence:
#
# PCOD8053515 Si02
#       8
#     4   4   4   4   4   4   4   4
#     4   8  17  35  56  79 108 145 182 223 270 315
#     4  10  21  37  56  82 112 143 179 222 271 327
#     4  10  20  36  59  83 110 143 178 223 272 323
#     4  10  22  38  57  79 108 142 181 226 270 321
#     4   9  19  35  55  77 106 144 181 223 267 312
#     4   9  18  36  58  81 109 142 184 225 267 319
#     4   9  19  35  53  76 108 142 179 224 268 315
#     4  11  22  36  56  81 109 143 182 224 271 324
#
# _framework density 18.577255999999998
#
# number of rings (size 3 to 8) (size 9 to 14) (size 15 to 20)
#    0.750    1.750    0.000    1.875    0.000    5.500 
#    2.250    2.500    0.000    0.000    0.000    0.000 
#    0.000    0.000    0.000    0.000    0.000    0.000 
#
# Total GULP energy -198308.029684 kJ/mol
# GULP energy per Si atom -12394.251855 kJ/mol
# Density = 1.853497 g / cm^3
# Si number density = 18.577256 Si / 1000 Ang^3
#
#
#
# Elastic Constant Matrix: (Units=GPa)
#
#
# Indices 1 2 3 4 5 6 
#
# 1 68.2709 33.2676 8.4772 0.0000 -6.6259 0.0000
# 2 33.2676 109.5914 46.0142 0.0000 -11.3778 0.0000
# 3 8.4772 46.0142 78.9634 0.0000 -11.0999 0.0000
# 4 0.0000 0.0000 0.0000 30.7034 0.0000 -2.8323
# 5 -6.6259 -11.3778 -11.0999 0.0000 21.0626 0.0000
# 6 0.0000 0.0000 0.0000 -2.8323 0.0000 30.9674
#
#
#
# Elastic Compliance Matrix: (Units=1/GPa)
#
#
# Indices 1 2 3 4 5 6 
#
# 1 0.017564 -0.005807 0.001981 0.000000 0.003432 0.000000
# 2 -0.005807 0.014184 -0.007367 0.000000 0.001953 0.000000
# 3 0.001981 -0.007367 0.017575 0.000000 0.005905 0.000000
# 4 0.000000 0.000000 0.000000 0.032847 0.000000 0.003004
# 5 0.003432 0.001953 0.005905 0.000000 0.052724 0.000000
# 6 0.000000 0.000000 0.000000 0.003004 0.000000 0.032567
#
#
# Mechanical properties :
#
#
# Convention : Reuss Voigt Hill
#
# Bulk Modulus (GPa) = 37.12580 48.03821 42.58201
# Shear Modulus (GPa) = 25.14756 27.81779 26.48267
#
# Velocity S-wave (km/s) = 3.68322 3.87384 3.77973
# Velocity P-wave (km/s) = 6.17382 6.77669 6.48227
#
# Compressibility (1/GPa) = 0.02693544
#
# Stress axis : x y z
#
# Youngs Moduli (GPa) = 56.93308 70.50345 56.90004
#
# Poissons Ratio (x) = 0.40943 -0.11271
# Poissons Ratio (y) = 0.33063 0.41920
# Poissons Ratio (z) = -0.11278 0.51942
#
# Static dielectric constant tensor:
#      x y z
#    x 3.377910 0.000000 -0.012640 
#    y 0.000000 3.496020 0.000000 
#    z -0.012640 0.000000 3.144100 
# 
# 
# High freq. dielectric constant tensor:
#      x y z
#    x 1.713740 0.000000 -0.004600 
#    y 0.000000 1.734020 0.000000 
#    z -0.004600 0.000000 1.702800 
# 
# From -- ./inp_files/6406.got.cif
#   From: 2010.03.12/outbox.cif.g09.slc.cpg/sg8_4_cif.got.tgz:6406.got - 2010.03.31 10:45:26.
