data_PCOD8053444
_publ_section_title
;
Structure prediction by ZEFSAII (Michael W. Deem and Ramdas Pophale) SiO2 
 PCOD8053444
Probable space group: C M
;
_chemical_formula_sum "Si O2"
_cell_formula_units_Z 32
_cell_length_a 14.811733
_cell_length_b 8.797164
_cell_length_c 25.354501
_cell_angle_alpha 90.000000
_cell_angle_beta 151.370426
_cell_angle_gamma 90.000000
_cell_volume 1582.962295
_symmetry_space_group_name_H-M "C M"
_symmetry_group_IT_number 8
_symmetry_cell_setting 'monoclinic'
loop_
_space_group_symop_operation_xyz
x,y,z
x,-y,z
1/2+x,1/2+y,z
1/2+x,1/2-y,z
loop_
_atom_site_type_symbol
_atom_site_label
_atom_site_fract_x
_atom_site_fract_y
_atom_site_fract_z
Si Si1 0.524990 0.822284 0.057640
Si Si2 0.832002 0.671951 0.699620
Si Si3 0.789732 0.178469 0.446553
Si Si4 0.098528 0.673715 0.665035
Si Si5 0.692655 0.825776 0.941995
Si Si6 0.447288 0.321671 0.906738
Si Si7 0.024215 0.175128 0.467085
Si Si8 0.936617 0.178899 0.308202
O O1 0.727809 0.776642 0.184005
O O2 0.510286 0.000000 0.037050
O O3 0.374514 0.777853 0.025354
O O4 0.488388 0.724124 0.987231
O O5 0.771948 0.500000 0.687314
O O6 0.738954 0.798931 0.688333
O O7 0.747184 0.696354 0.597030
O O8 0.057288 0.688171 0.820543
O O9 0.894144 0.241768 0.447568
O O10 0.582224 0.249561 0.341418
O O11 0.909941 0.226683 0.560347
O O12 0.770383 0.000000 0.435718
O O13 0.032387 0.500000 0.632850
O O14 0.225776 0.715723 0.781480
O O15 0.585445 0.771549 0.939320
O O16 0.755143 0.000000 0.982299
O O17 0.485681 0.500000 0.918080
O O18 0.978260 0.252393 0.387451
O O19 0.971243 0.000000 0.433705
O O20 0.968275 0.000000 0.324396
#
# Coordination Sequence:
#
# PCOD8053444 Si02
#       8
#     4   4   4   4   4   4   4   4
#     4  11  24  39  55  80 114 152 196 242 284 331
#     4   8  15  30  54  82 109 138 175 221 275 335
#     4  10  20  35  57  84 112 144 179 221 276 333
#     4   9  17  31  54  83 112 142 178 222 275 335
#     4  10  20  36  59  86 115 146 183 232 288 344
#     4  10  21  38  60  84 112 150 192 235 285 337
#     4   8  16  34  57  78 105 140 174 212 267 331
#     4  10  22  39  56  77 107 146 191 233 272 322
#
# _framework density 20.215264000000001
#
# number of rings (size 3 to 8) (size 9 to 14) (size 15 to 20)
#    0.000    2.500    0.000    2.625    0.000    5.000 
#    0.000    6.875    0.000    0.000    0.000    0.000 
#    0.000    0.000    0.000    0.000    0.000    0.000 
#
# Total GULP energy -198302.381692 kJ/mol
# GULP energy per Si atom -12393.898856 kJ/mol
# Density = 2.016925 g / cm^3
# Si number density = 20.215264 Si / 1000 Ang^3
#
#
#
# Elastic Constant Matrix: (Units=GPa)
#
#
# Indices 1 2 3 4 5 6 
#
# 1 43.2434 9.0175 13.8971 0.0000 5.4857 0.0000
# 2 9.0175 45.3974 28.6572 0.0000 3.6258 0.0000
# 3 13.8971 28.6572 83.6576 0.0016 7.4966 0.0001
# 4 0.0000 0.0000 0.0016 27.1665 0.0002 4.1391
# 5 5.4857 3.6258 7.4966 0.0002 37.2227 0.0000
# 6 0.0000 0.0000 0.0001 4.1391 0.0000 28.4830
#
#
#
# Elastic Compliance Matrix: (Units=1/GPa)
#
#
# Indices 1 2 3 4 5 6 
#
# 1 0.025024 -0.002910 -0.002907 0.000000 -0.002819 0.000000
# 2 -0.002910 0.028468 -0.009225 0.000001 -0.000486 0.000000
# 3 -0.002907 -0.009225 0.015762 -0.000001 -0.001847 0.000000
# 4 0.000000 0.000001 -0.000001 0.037643 0.000000 -0.005470
# 5 -0.002819 -0.000486 -0.001847 0.000000 0.027700 0.000000
# 6 0.000000 0.000000 0.000000 -0.005470 0.000000 0.035904
#
#
# Mechanical properties :
#
#
# Convention : Reuss Voigt Hill
#
# Bulk Modulus (GPa) = 25.53050 30.60467 28.06759
# Shear Modulus (GPa) = 23.40369 26.62289 25.01329
#
# Velocity S-wave (km/s) = 3.40623 3.63294 3.52141
# Velocity P-wave (km/s) = 5.30345 5.72451 5.51800
#
# Compressibility (1/GPa) = 0.03916883
#
# Stress axis : x y z
#
# Youngs Moduli (GPa) = 39.96211 35.12748 63.44379
#
# Poissons Ratio (x) = 0.10223 0.18446
# Poissons Ratio (y) = 0.11630 0.58525
# Poissons Ratio (z) = 0.11619 0.32404
#
# Static dielectric constant tensor:
#      x y z
#    x 3.495230 0.000000 -0.038490 
#    y 0.000000 3.490580 0.000000 
#    z -0.038490 0.000000 3.944410 
# 
# 
# High freq. dielectric constant tensor:
#      x y z
#    x 1.769760 0.000000 0.002690 
#    y 0.000000 1.776680 0.000000 
#    z 0.002690 0.000000 1.796760 
# 
# From -- ./inp_files/26579.got.cif
#   From: 2010.03.12/outbox.cif.g09.slc.cpg/sg8_14_cif.got.tgz:26579.got - 2010.03.31 10:45:26.
