data_PCOD8053689
_publ_section_title
;
Structure prediction by ZEFSAII (Michael W. Deem and Ramdas Pophale) SiO2 
 PCOD8053689
Probable space group: C M
;
_chemical_formula_sum "Si O2"
_cell_formula_units_Z 32
_cell_length_a 19.541445
_cell_length_b 8.467681
_cell_length_c 12.088893
_cell_angle_alpha 90.000000
_cell_angle_beta 51.054753
_cell_angle_gamma 90.000000
_cell_volume 1555.772320
_symmetry_space_group_name_H-M "C M"
_symmetry_group_IT_number 8
_symmetry_cell_setting 'monoclinic'
loop_
_space_group_symop_operation_xyz
x,y,z
x,-y,z
1/2+x,1/2+y,z
1/2+x,1/2-y,z
loop_
_atom_site_type_symbol
_atom_site_label
_atom_site_fract_x
_atom_site_fract_y
_atom_site_fract_z
Si Si1 0.861260 0.684854 0.020960
Si Si2 0.858661 0.815898 0.267172
Si Si3 0.512126 0.814982 0.705760
Si Si4 0.222007 0.318895 0.001456
Si Si5 0.698582 0.315341 0.570384
Si Si6 0.768406 0.675723 0.732421
Si Si7 0.469254 0.823689 0.513749
Si Si8 0.522806 0.187428 0.227915
O O1 0.870372 0.500000 0.037729
O O2 0.853794 0.778067 0.142580
O O3 0.773594 0.713098 0.037750
O O4 0.946404 0.751957 0.866998
O O5 0.781447 0.725852 0.409960
O O6 0.954497 0.767466 0.213971
O O7 0.843768 0.000000 0.300833
O O8 0.613545 0.783292 0.623950
O O9 0.488893 0.735743 0.610076
O O10 0.492172 0.000000 0.720018
O O11 0.230773 0.500000 0.029664
O O12 0.260943 0.297848 0.839730
O O13 0.120840 0.266438 0.092901
O O14 0.679354 0.500000 0.577039
O O15 0.712758 0.268385 0.683610
O O16 0.739934 0.500000 0.801018
O O17 0.867205 0.672421 0.589496
O O18 0.513194 0.742262 0.362200
O O19 0.508538 0.000000 0.483890
O O20 0.505396 0.000000 0.243300
#
# Coordination Sequence:
#
# PCOD8053689 Si02
#       8
#     4   4   4   4   4   4   4   4
#     4  11  24  44  66  90 128 172 212 258 318 377
#     4  12  26  43  64  92 127 167 214 264 315 374
#     4  10  22  40  65  93 123 164 208 257 315 376
#     4  11  24  39  63  97 129 164 209 261 313 372
#     4  11  24  42  65  93 126 165 208 261 319 376
#     4  10  20  40  66  87 118 165 210 256 313 373
#     4   9  17  38  66  87 115 159 208 254 307 366
#     4  10  22  42  65  91 126 168 209 255 316 376
#
# _framework density 20.568560999999999
#
# number of rings (size 3 to 8) (size 9 to 14) (size 15 to 20)
#    0.000    1.500    2.500    2.250    3.500    3.000 
#    0.000    0.625    0.000    0.000    0.000    0.000 
#    0.000    0.000    0.000    0.000    0.000    0.000 
#
# Total GULP energy -198397.087642 kJ/mol
# GULP energy per Si atom -12399.817978 kJ/mol
# Density = 2.052175 g / cm^3
# Si number density = 20.568561 Si / 1000 Ang^3
#
#
#
# Elastic Constant Matrix: (Units=GPa)
#
#
# Indices 1 2 3 4 5 6 
#
# 1 115.1512 8.5522 34.3305 0.0000 4.5321 0.0000
# 2 8.5522 34.4463 11.6355 0.0000 3.4329 0.0000
# 3 34.3305 11.6355 95.2393 0.0000 11.0431 0.0000
# 4 0.0000 0.0000 0.0000 23.8195 0.0000 -2.9631
# 5 4.5321 3.4329 11.0431 0.0000 38.4416 0.0000
# 6 0.0000 0.0000 0.0000 -2.9631 0.0000 31.3972
#
#
#
# Elastic Compliance Matrix: (Units=1/GPa)
#
#
# Indices 1 2 3 4 5 6 
#
# 1 0.009785 -0.001287 -0.003361 0.000000 -0.000073 0.000000
# 2 -0.001287 0.030557 -0.003073 0.000000 -0.001694 0.000000
# 3 -0.003361 -0.003073 0.012423 0.000000 -0.002898 0.000000
# 4 0.000000 0.000000 0.000000 0.042481 0.000000 0.004009
# 5 -0.000073 -0.001694 -0.002898 0.000000 0.027006 0.000000
# 6 0.000000 0.000000 0.000000 0.004009 0.000000 0.032228
#
#
# Mechanical properties :
#
#
# Convention : Reuss Voigt Hill
#
# Bulk Modulus (GPa) = 26.79325 39.31926 33.05625
# Shear Modulus (GPa) = 27.41781 31.41955 29.41868
#
# Velocity S-wave (km/s) = 3.65498 3.91263 3.78600
# Velocity P-wave (km/s) = 5.55576 6.29041 5.93446
#
# Compressibility (1/GPa) = 0.03732283
#
# Stress axis : x y z
#
# Youngs Moduli (GPa) = 102.19907 32.72573 80.49580
#
# Poissons Ratio (x) = 0.04211 0.27058
# Poissons Ratio (y) = 0.13149 0.24736
# Poissons Ratio (z) = 0.34354 0.10056
#
# Static dielectric constant tensor:
#      x y z
#    x 3.762600 0.000000 0.109270 
#    y 0.000000 3.502440 0.000000 
#    z 0.109270 0.000000 3.854470 
# 
# 
# High freq. dielectric constant tensor:
#      x y z
#    x 1.815410 0.000000 0.005730 
#    y 0.000000 1.781560 0.000000 
#    z 0.005730 0.000000 1.816600 
# 
# From -- ./inp_files/23875.got.cif
#   From: 2010.03.12/outbox.cif.g09.slc.cpg/sg8_12_cif.got.tgz:23875.got - 2010.03.31 10:45:26.
