data_PCOD8053647
_publ_section_title
;
Structure prediction by ZEFSAII (Michael W. Deem and Ramdas Pophale) SiO2 
 PCOD8053647
Probable space group: C M
;
_chemical_formula_sum "Si O2"
_cell_formula_units_Z 32
_cell_length_a 18.300153
_cell_length_b 13.183388
_cell_length_c 22.236804
_cell_angle_alpha 90.000000
_cell_angle_beta 162.429011
_cell_angle_gamma 90.000000
_cell_volume 1619.566724
_symmetry_space_group_name_H-M "C M"
_symmetry_group_IT_number 8
_symmetry_cell_setting 'monoclinic'
loop_
_space_group_symop_operation_xyz
x,y,z
x,-y,z
1/2+x,1/2+y,z
1/2+x,1/2-y,z
loop_
_atom_site_type_symbol
_atom_site_label
_atom_site_fract_x
_atom_site_fract_y
_atom_site_fract_z
Si Si1 0.598810 0.206738 0.058340
Si Si2 0.702714 0.273871 0.951031
Si Si3 0.702908 0.885838 0.352753
Si Si4 0.593074 0.266259 0.725990
Si Si5 0.029200 0.109817 0.923095
Si Si6 0.444124 0.300448 0.435203
Si Si7 0.969211 0.614228 0.841176
Si Si8 0.996551 0.387840 0.552391
O O1 0.832015 0.188306 0.281792
O O2 0.356869 0.206357 0.907953
O O3 0.654673 0.311050 0.066655
O O4 0.578826 0.115964 0.994427
O O5 0.980516 0.307581 0.174534
O O6 0.605933 0.265264 0.807564
O O7 0.545184 0.353212 0.866443
O O8 0.666218 0.161288 0.950073
O O9 0.895246 0.851135 0.553985
O O10 0.838468 0.888365 0.394874
O O11 0.614418 0.000000 0.297971
O O12 0.512195 0.158965 0.632310
O O13 0.755152 0.096920 0.726421
O O14 0.159060 0.000000 0.030894
O O15 0.366393 0.193161 0.405917
O O16 0.732177 0.313675 0.655556
O O17 0.908506 0.500000 0.773958
O O18 0.869123 0.500000 0.454933
#
# Coordination Sequence:
#
# PCOD8053647 Si02
#       8
#     4   4   4   4   4   4   4   4
#     4  10  20  38  63  90 119 159 204 254 296 359
#     4  11  22  40  59  90 126 159 196 253 309 363
#     4  11  23  38  61  92 125 158 202 255 305 361
#     4  10  21  39  60  88 126 161 198 255 304 358
#     4   9  18  36  58  84 122 158 195 243 299 360
#     4  11  20  39  64  94 121 157 210 253 299 360
#     4  11  24  43  63  88 125 164 202 253 305 362
#     4   9  18  37  62  88 118 158 201 244 295 357
#
# _framework density 19.758369999999999
#
# number of rings (size 3 to 8) (size 9 to 14) (size 15 to 20)
#    0.000    1.750    6.250    0.750    0.000    5.000 
#    0.000    2.500    0.000    0.000    0.000    0.000 
#    0.000    0.000    0.000    0.000    0.000    0.000 
#
# Total GULP energy -198275.159875 kJ/mol
# GULP energy per Si atom -12392.197492 kJ/mol
# Density = 1.971340 g / cm^3
# Si number density = 19.758370 Si / 1000 Ang^3
#
#
#
# Elastic Constant Matrix: (Units=GPa)
#
#
# Indices 1 2 3 4 5 6 
#
# 1 117.4732 33.7719 52.0830 -0.0102 -22.3774 0.0466
# 2 33.7719 123.1908 34.3917 0.2020 -1.0246 0.1427
# 3 52.0830 34.3917 97.1941 0.0677 -25.3484 0.0782
# 4 -0.0102 0.2020 0.0677 15.2715 -0.0031 2.0603
# 5 -22.3774 -1.0246 -25.3484 -0.0031 34.3382 -0.0121
# 6 0.0466 0.1427 0.0782 2.0603 -0.0121 13.6844
#
#
#
# Elastic Compliance Matrix: (Units=1/GPa)
#
#
# Indices 1 2 3 4 5 6 
#
# 1 0.011927 -0.001959 -0.004565 0.000055 0.004344 0.000002
# 2 -0.001959 0.009518 -0.003191 -0.000105 -0.003349 -0.000061
# 3 -0.004565 -0.003191 0.016178 -0.000026 0.008872 -0.000032
# 4 0.000055 -0.000105 -0.000026 0.066840 0.000015 -0.010062
# 5 0.004344 -0.003349 0.008872 0.000015 0.038403 0.000001
# 6 0.000002 -0.000061 -0.000032 -0.010062 0.000001 0.074592
#
#
# Mechanical properties :
#
#
# Convention : Reuss Voigt Hill
#
# Bulk Modulus (GPa) = 54.96864 64.26125 59.61495
# Shear Modulus (GPa) = 20.58001 27.16624 23.87313
#
# Velocity S-wave (km/s) = 3.23086 3.71202 3.47977
# Velocity P-wave (km/s) = 6.46520 7.13907 6.81047
#
# Compressibility (1/GPa) = 0.01819219
#
# Stress axis : x y z
#
# Youngs Moduli (GPa) = 83.84013 105.06531 61.81157
#
# Poissons Ratio (x) = 0.20585 0.28219
# Poissons Ratio (y) = 0.16427 0.19725
# Poissons Ratio (z) = 0.38275 0.33528
#
# Static dielectric constant tensor:
#      x y z
#    x 3.698680 -0.000340 -0.016060 
#    y -0.000340 3.950450 -0.000370 
#    z -0.016060 -0.000370 3.368230 
# 
# 
# High freq. dielectric constant tensor:
#      x y z
#    x 1.772130 -0.000010 0.000330 
#    y -0.000010 1.769440 -0.000030 
#    z 0.000330 -0.000030 1.750670 
# 
# From -- ./inp_files/31206.got.cif
#   From: 2010.03.12/outbox.cif.g09.slc.cpg/sg8_16_cif.got.tgz:31206.got - 2010.03.31 10:45:26.
