data_PCOD8053281
_publ_section_title
;
Structure prediction by ZEFSAII (Michael W. Deem and Ramdas Pophale) SiO2 
 PCOD8053281
Probable space group: C M
;
_chemical_formula_sum "Si O2"
_cell_formula_units_Z 32
_cell_length_a 9.910527
_cell_length_b 24.299433
_cell_length_c 9.914518
_cell_angle_alpha 90.000000
_cell_angle_beta 137.409392
_cell_angle_gamma 90.000000
_cell_volume 1615.831831
_symmetry_space_group_name_H-M "C M"
_symmetry_group_IT_number 8
_symmetry_cell_setting 'monoclinic'
loop_
_space_group_symop_operation_xyz
x,y,z
x,-y,z
1/2+x,1/2+y,z
1/2+x,1/2-y,z
loop_
_atom_site_type_symbol
_atom_site_label
_atom_site_fract_x
_atom_site_fract_y
_atom_site_fract_z
Si Si1 0.023790 0.253828 0.134170
Si Si2 0.868219 0.564691 0.510373
Si Si3 0.548941 0.127302 0.884240
Si Si4 0.170358 0.435612 0.498889
Si Si5 0.998767 0.863445 0.165884
Si Si6 0.006223 0.863154 0.856218
Si Si7 0.960896 0.627420 0.124172
Si Si8 0.587236 0.246270 0.880456
O O1 0.082141 0.198635 0.260689
O O2 0.059106 0.312615 0.232913
O O3 0.144105 0.253445 0.082144
O O4 0.784051 0.249798 0.932746
O O5 0.831625 0.500000 0.481987
O O6 0.654174 0.592810 0.336334
O O7 0.969606 0.580749 0.725948
O O8 0.011196 0.583343 0.494012
O O9 0.479937 0.187526 0.774477
O O10 0.453241 0.116416 0.959189
O O11 0.787472 0.125367 0.081410
O O12 0.209743 0.500000 0.532293
O O13 0.380447 0.406570 0.679140
O O14 0.090790 0.418876 0.293455
O O15 0.953266 0.868604 0.973907
O O16 0.956274 0.801537 0.760959
O O17 0.237812 0.876750 0.013730
#
# Coordination Sequence:
#
# PCOD8053281 Si02
#       8
#     4   4   4   4   4   4   4   4
#     4   8  16  31  56  85 113 145 185 228 287 351
#     4  11  24  39  59  87 114 154 208 239 274 344
#     4  10  21  39  60  87 120 149 185 244 298 338
#     4  11  24  39  59  87 114 154 208 239 274 344
#     4  10  19  37  62  86 115 155 192 237 289 342
#     4  10  19  37  62  86 115 155 192 237 289 342
#     4  10  21  39  60  87 120 149 185 244 298 338
#     4   8  16  31  56  85 113 145 185 228 287 351
#
# _framework density 19.804041999999999
#
# number of rings (size 3 to 8) (size 9 to 14) (size 15 to 20)
#    0.000    2.250    2.500    0.000    0.000    4.000 
#    0.000    1.250    0.000    0.000    0.000    0.000 
#    0.000    0.000    0.000    0.000    0.000    0.000 
#
# Total GULP energy -198297.455542 kJ/mol
# GULP energy per Si atom -12393.590971 kJ/mol
# Density = 1.975897 g / cm^3
# Si number density = 19.804042 Si / 1000 Ang^3
#
#
#
# Elastic Constant Matrix: (Units=GPa)
#
#
# Indices 1 2 3 4 5 6 
#
# 1 67.6369 23.6115 12.4623 0.0000 -1.7161 0.0000
# 2 23.6115 111.8804 49.1600 0.0000 4.4197 0.0000
# 3 12.4623 49.1600 67.1466 0.0000 1.6491 0.0000
# 4 0.0000 0.0000 0.0000 31.1402 0.0000 5.9911
# 5 -1.7161 4.4197 1.6491 0.0000 21.7934 0.0000
# 6 0.0000 0.0000 0.0000 5.9911 0.0000 24.1210
#
#
#
# Elastic Compliance Matrix: (Units=1/GPa)
#
#
# Indices 1 2 3 4 5 6 
#
# 1 0.016068 -0.003150 -0.000724 0.000000 0.001959 0.000000
# 2 -0.003150 0.013878 -0.009518 0.000000 -0.002342 0.000000
# 3 -0.000724 -0.009518 0.021990 0.000000 0.000209 0.000000
# 4 0.000000 0.000000 0.000000 0.033724 0.000000 -0.008376
# 5 0.001959 -0.002342 0.000209 0.000000 0.046499 0.000000
# 6 0.000000 0.000000 0.000000 -0.008376 0.000000 0.043538
#
#
# Mechanical properties :
#
#
# Convention : Reuss Voigt Hill
#
# Bulk Modulus (GPa) = 39.75912 46.34792 43.05352
# Shear Modulus (GPa) = 23.71182 26.17293 24.94238
#
# Velocity S-wave (km/s) = 3.46399 3.63932 3.55274
# Velocity P-wave (km/s) = 6.00989 6.41199 6.21419
#
# Compressibility (1/GPa) = 0.02515146
#
# Stress axis : x y z
#
# Youngs Moduli (GPa) = 62.23686 72.05807 45.47435
#
# Poissons Ratio (x) = 0.22700 0.03291
# Poissons Ratio (y) = 0.19606 0.43283
# Poissons Ratio (z) = 0.04505 0.68585
#
# Static dielectric constant tensor:
#      x y z
#    x 3.649650 0.000000 0.075050 
#    y 0.000000 3.805820 0.000000 
#    z 0.075050 0.000000 3.047600 
# 
# 
# High freq. dielectric constant tensor:
#      x y z
#    x 1.781710 0.000000 0.009100 
#    y 0.000000 1.783400 0.000000 
#    z 0.009100 0.000000 1.724580 
# 
# From -- ./inp_files/20903.got.cif
#   From: 2010.03.12/outbox.cif.g09.slc.cpg/sg8_11_cif.got.tgz:20903.got - 2010.03.31 10:45:26.
