data_PCOD8053619
_publ_section_title
;
Structure prediction by ZEFSAII (Michael W. Deem and Ramdas Pophale) SiO2 
 PCOD8053619
Probable space group: C M
;
_chemical_formula_sum "Si O2"
_cell_formula_units_Z 32
_cell_length_a 11.862215
_cell_length_b 13.344510
_cell_length_c 9.271435
_cell_angle_alpha 90.000000
_cell_angle_beta 89.856005
_cell_angle_gamma 90.000000
_cell_volume 1467.621310
_symmetry_space_group_name_H-M "C M"
_symmetry_group_IT_number 8
_symmetry_cell_setting 'monoclinic'
loop_
_space_group_symop_operation_xyz
x,y,z
x,-y,z
1/2+x,1/2+y,z
1/2+x,1/2-y,z
loop_
_atom_site_type_symbol
_atom_site_label
_atom_site_fract_x
_atom_site_fract_y
_atom_site_fract_z
Si Si1 0.986500 0.609623 0.150310
Si Si2 0.427913 0.383417 0.109981
Si Si3 0.843284 0.384871 0.888811
Si Si4 0.455208 0.746663 0.658592
Si Si5 0.195654 0.608550 0.963957
Si Si6 0.576679 0.118055 0.440681
Si Si7 0.603064 0.310707 0.897500
Si Si8 0.336926 0.383065 0.419048
O O1 0.931685 0.500000 0.166001
O O2 0.993991 0.656562 0.310452
O O3 0.906793 0.663859 0.030315
O O4 0.116833 0.599792 0.103719
O O5 0.459179 0.500000 0.101917
O O6 0.402671 0.350312 0.273497
O O7 0.320464 0.361370 0.010278
O O8 0.534540 0.320526 0.048921
O O9 0.883765 0.500000 0.866001
O O10 0.873920 0.318330 0.751264
O O11 0.708609 0.385039 0.907746
O O12 0.544002 0.817783 0.578856
O O13 0.522519 0.667787 0.761254
O O14 0.381465 0.680271 0.552789
O O15 0.195457 0.500000 0.882237
O O16 0.145570 0.696910 0.866644
O O17 0.705634 0.140549 0.399942
O O18 0.558713 0.000000 0.470094
O O19 0.357704 0.500000 0.450419
#
# Coordination Sequence:
#
# PCOD8053619 Si02
#       8
#     4   4   4   4   4   4   4   4
#     4   9  18  38  66  91 118 154 200 262 314 352
#     4  10  22  42  68  93 119 160 211 264 315 365
#     4  11  24  44  63  90 131 167 206 258 309 367
#     4  12  25  39  61  93 126 171 210 244 306 375
#     4  10  20  37  64  93 122 153 202 266 314 352
#     4  10  21  41  67  94 121 157 206 261 316 368
#     4  12  25  40  62  94 128 171 210 247 307 374
#     4  10  23  43  64  90 125 159 204 264 314 363
#
# _framework density 21.803989999999999
#
# number of rings (size 3 to 8) (size 9 to 14) (size 15 to 20)
#    0.000    1.500    2.500    2.250    1.750    1.500 
#    0.000    4.375    0.000    1.500    0.000    0.000 
#    0.000    0.000    0.000    0.000    0.000    0.000 
#
# Total GULP energy -198311.761999 kJ/mol
# GULP energy per Si atom -12394.485125 kJ/mol
# Density = 2.175436 g / cm^3
# Si number density = 21.803990 Si / 1000 Ang^3
#
#
#
# Elastic Constant Matrix: (Units=GPa)
#
#
# Indices 1 2 3 4 5 6 
#
# 1 120.8398 46.8590 63.0399 0.0000 -2.5486 0.0000
# 2 46.8590 75.6284 38.2020 0.0000 7.7300 0.0000
# 3 63.0399 38.2020 139.6367 0.0000 5.0567 0.0000
# 4 0.0000 0.0000 0.0000 26.5903 0.0000 2.7350
# 5 -2.5486 7.7300 5.0567 0.0000 33.9808 0.0000
# 6 0.0000 0.0000 0.0000 2.7350 0.0000 36.8321
#
#
#
# Elastic Compliance Matrix: (Units=1/GPa)
#
#
# Indices 1 2 3 4 5 6 
#
# 1 0.012965 -0.006184 -0.004270 0.000000 0.003015 0.000000
# 2 -0.006184 0.018578 -0.002133 0.000000 -0.004373 0.000000
# 3 -0.004270 -0.002133 0.009719 0.000000 -0.001281 0.000000
# 4 0.000000 0.000000 0.000000 0.037897 0.000000 -0.002814
# 5 0.003015 -0.004373 -0.001281 0.000000 0.030840 0.000000
# 6 0.000000 0.000000 0.000000 -0.002814 0.000000 0.027359
#
#
# Mechanical properties :
#
#
# Convention : Reuss Voigt Hill
#
# Bulk Modulus (GPa) = 62.15641 70.25630 66.20636
# Shear Modulus (GPa) = 29.78052 32.01423 30.89738
#
# Velocity S-wave (km/s) = 3.69972 3.83596 3.76846
# Velocity P-wave (km/s) = 6.84247 7.20494 7.02604
#
# Compressibility (1/GPa) = 0.01608844
#
# Stress axis : x y z
#
# Youngs Moduli (GPa) = 77.13208 53.82649 102.88947
#
# Poissons Ratio (x) = 0.33286 0.43938
# Poissons Ratio (y) = 0.47698 0.21941
# Poissons Ratio (z) = 0.32938 0.11479
#
# Static dielectric constant tensor:
#      x y z
#    x 3.866950 0.000000 0.017320 
#    y 0.000000 3.963210 0.000000 
#    z 0.017320 0.000000 3.840240 
# 
# 
# High freq. dielectric constant tensor:
#      x y z
#    x 1.855460 0.000000 0.004180 
#    y 0.000000 1.862650 0.000000 
#    z 0.004180 0.000000 1.847940 
# 
# From -- ./inp_files/10737.got.cif
#   From: 2010.03.12/outbox.cif.g09.slc.cpg/sg8_6_cif.got.tgz:10737.got - 2010.03.31 10:45:26.
