data_PCOD8053383
_publ_section_title
;
Structure prediction by ZEFSAII (Michael W. Deem and Ramdas Pophale) SiO2 
 PCOD8053383
Probable space group: C M
;
_chemical_formula_sum "Si O2"
_cell_formula_units_Z 32
_cell_length_a 18.329110
_cell_length_b 13.535805
_cell_length_c 12.306322
_cell_angle_alpha 90.000000
_cell_angle_beta 149.016712
_cell_angle_gamma 90.000000
_cell_volume 1571.745354
_symmetry_space_group_name_H-M "C M"
_symmetry_group_IT_number 8
_symmetry_cell_setting 'monoclinic'
loop_
_space_group_symop_operation_xyz
x,y,z
x,-y,z
1/2+x,1/2+y,z
1/2+x,1/2-y,z
loop_
_atom_site_type_symbol
_atom_site_label
_atom_site_fract_x
_atom_site_fract_y
_atom_site_fract_z
Si Si1 0.921700 0.797981 0.566110
Si Si2 0.081969 0.385784 0.749176
Si Si3 0.285618 0.612652 0.811191
Si Si4 0.585026 0.607504 0.471012
Si Si5 0.729716 0.886194 0.489104
Si Si6 0.214010 0.114914 0.858951
Si Si7 0.784763 0.107860 0.198730
Si Si8 0.976030 0.259881 0.167599
O O1 0.864740 0.828936 0.611635
O O2 0.798531 0.824538 0.322443
O O3 0.940892 0.679971 0.578716
O O4 0.071629 0.852281 0.738721
O O5 0.039226 0.500000 0.702097
O O6 0.160182 0.361434 0.735719
O O7 0.178980 0.349576 0.973351
O O8 0.336468 0.500000 0.897259
O O9 0.228872 0.626147 0.617802
O O10 0.416906 0.685879 0.000238
O O11 0.621589 0.500000 0.464255
O O12 0.700271 0.632193 0.711305
O O13 0.435361 0.596718 0.336469
O O14 0.576851 0.695853 0.375583
O O15 0.583288 0.840746 0.254692
O O16 0.737828 0.000000 0.464461
O O17 0.242564 0.000000 0.922828
O O18 0.348513 0.181794 0.066974
O O19 0.731482 0.000000 0.168881
#
# Coordination Sequence:
#
# PCOD8053383 Si02
#       8
#     4   4   4   4   4   4   4   4
#     4  11  21  39  62  86 117 162 197 241 300 355
#     4  10  20  37  64  93 115 150 203 255 291 342
#     4  10  21  39  61  89 123 159 195 239 300 366
#     4   9  17  31  54  84 110 140 187 244 288 330
#     4  11  26  41  56  85 130 165 189 234 308 369
#     4  10  20  34  57  85 112 143 198 251 281 331
#     4   9  17  32  59  88 114 146 198 247 288 338
#     4  12  20  35  59  88 111 157 197 243 288 343
#
# _framework density 20.359531
#
# number of rings (size 3 to 8) (size 9 to 14) (size 15 to 20)
#    0.000    1.750    2.500    3.375    1.750    1.000 
#    0.000    1.250    0.000    2.250    0.000    0.000 
#    0.000    0.000    0.000    0.000    0.000    0.000 
#
# Total GULP energy -198335.517492 kJ/mol
# GULP energy per Si atom -12395.969843 kJ/mol
# Density = 2.031319 g / cm^3
# Si number density = 20.359531 Si / 1000 Ang^3
#
#
#
# Elastic Constant Matrix: (Units=GPa)
#
#
# Indices 1 2 3 4 5 6 
#
# 1 84.0023 51.4982 42.8806 0.0000 3.6310 0.0000
# 2 51.4982 133.3655 51.3805 0.0000 3.4748 0.0000
# 3 42.8806 51.3805 63.0054 0.0000 2.4700 0.0000
# 4 0.0000 0.0000 0.0000 27.7403 0.0000 0.0847
# 5 3.6310 3.4748 2.4700 0.0000 23.2648 0.0000
# 6 0.0000 0.0000 0.0000 0.0847 0.0000 28.0810
#
#
#
# Elastic Compliance Matrix: (Units=1/GPa)
#
#
# Indices 1 2 3 4 5 6 
#
# 1 0.019339 -0.003472 -0.010275 0.000000 -0.001409 0.000000
# 2 -0.003472 0.011568 -0.007053 0.000000 -0.000437 0.000000
# 3 -0.010275 -0.007053 0.028631 0.000000 -0.000383 0.000000
# 4 0.000000 0.000000 0.000000 0.036049 0.000000 -0.000109
# 5 -0.001409 -0.000437 -0.000383 0.000000 0.043309 0.000000
# 6 0.000000 0.000000 0.000000 -0.000109 0.000000 0.035612
#
#
# Mechanical properties :
#
#
# Convention : Reuss Voigt Hill
#
# Bulk Modulus (GPa) = 55.74939 63.54354 59.64646
# Shear Modulus (GPa) = 22.51363 24.79149 23.65256
#
# Velocity S-wave (km/s) = 3.32897 3.49332 3.41213
# Velocity P-wave (km/s) = 6.49753 6.89561 6.69953
#
# Compressibility (1/GPa) = 0.01793741
#
# Stress axis : x y z
#
# Youngs Moduli (GPa) = 51.70842 86.44802 34.92681
#
# Poissons Ratio (x) = 0.30019 0.35887
# Poissons Ratio (y) = 0.17955 0.24634
# Poissons Ratio (z) = 0.53130 0.60971
#
# Static dielectric constant tensor:
#      x y z
#    x 3.358140 0.000000 -0.254580 
#    y 0.000000 4.035380 0.000000 
#    z -0.254580 0.000000 3.769010 
# 
# 
# High freq. dielectric constant tensor:
#      x y z
#    x 1.756520 0.000000 -0.012050 
#    y 0.000000 1.819980 0.000000 
#    z -0.012050 0.000000 1.780220 
# 
# From -- ./inp_files/23341.got.cif
#   From: 2010.03.12/outbox.cif.g09.slc.cpg/sg8_12_cif.got.tgz:23341.got - 2010.03.31 10:45:26.
