data_PCOD8053828
_publ_section_title
;
Structure prediction by ZEFSAII (Michael W. Deem and Ramdas Pophale) SiO2 
 PCOD8053828
Probable space group: C M
;
_chemical_formula_sum "Si O2"
_cell_formula_units_Z 28
_cell_length_a 7.795112
_cell_length_b 18.379203
_cell_length_c 13.962814
_cell_angle_alpha 90.000000
_cell_angle_beta 43.523861
_cell_angle_gamma 90.000000
_cell_volume 1377.604971
_symmetry_space_group_name_H-M "C M"
_symmetry_group_IT_number 8
_symmetry_cell_setting 'monoclinic'
loop_
_space_group_symop_operation_xyz
x,y,z
x,-y,z
1/2+x,1/2+y,z
1/2+x,1/2-y,z
loop_
_atom_site_type_symbol
_atom_site_label
_atom_site_fract_x
_atom_site_fract_y
_atom_site_fract_z
Si Si1 0.311080 0.275940 0.555060
Si Si2 0.385518 0.328149 0.723236
Si Si3 0.929695 0.320374 0.038296
Si Si4 0.957461 0.917470 0.175180
Si Si5 0.162128 0.082934 0.751689
Si Si6 0.826382 0.158058 0.038143
Si Si7 0.625621 0.859344 0.468021
O O1 0.389456 0.331324 0.606897
O O2 0.481066 0.205059 0.472446
O O3 0.337624 0.321100 0.446620
O O4 0.032017 0.246444 0.692071
O O5 0.519875 0.400046 0.709694
O O6 0.106970 0.326132 0.874863
O O7 0.690556 0.368864 0.112383
O O8 0.852276 0.236516 0.076664
O O9 0.071084 0.345925 0.078674
O O10 0.829891 0.897215 0.125648
O O11 0.745227 0.912361 0.342173
O O12 0.051550 0.000000 0.130572
O O13 0.452800 0.096575 0.613215
O O14 0.114918 0.000000 0.802093
O O15 0.058562 0.137546 0.875007
#
# Coordination Sequence:
#
# PCOD8053828 Si02
#       7
#     4   4   4   4   4   4   4
#     4   9  18  36  63  95 115 158 211 273 307 365
#     4   9  18  34  61  92 124 147 206 269 314 362
#     4  11  22  39  70  97 127 166 221 264 318 385
#     4  12  28  44  62  96 138 174 209 266 333 386
#     4  10  21  39  61  89 126 169 207 257 324 381
#     4  11  23  42  71  95 125 168 221 272 318 377
#     4  10  22  38  64  86 129 160 215 255 318 376
#
# _framework density 20.325130999999999
#
# number of rings (size 3 to 8) (size 9 to 14) (size 15 to 20)
#    0.000    1.714    1.429    4.286    4.000    2.857 
#    5.143    1.429    0.000    0.000    0.000    0.000 
#    0.000    0.000    0.000    0.000    0.000    0.000 
#
# Total GULP energy -173546.694140 kJ/mol
# GULP energy per Si atom -12396.192439 kJ/mol
# Density = 2.027887 g / cm^3
# Si number density = 20.325131 Si / 1000 Ang^3
#
#
#
# Elastic Constant Matrix: (Units=GPa)
#
#
# Indices 1 2 3 4 5 6 
#
# 1 115.3436 41.8005 39.0037 -0.0001 12.7587 0.0001
# 2 41.8005 117.2362 34.4658 0.0001 7.9244 0.0000
# 3 39.0037 34.4658 76.7614 -0.0002 9.0715 0.0002
# 4 -0.0001 0.0001 -0.0002 24.0048 0.0003 0.5543
# 5 12.7587 7.9244 9.0715 0.0003 23.2353 -0.0002
# 6 0.0001 0.0000 0.0002 0.5543 -0.0002 20.2120
#
#
#
# Elastic Compliance Matrix: (Units=1/GPa)
#
#
# Indices 1 2 3 4 5 6 
#
# 1 0.011448 -0.002590 -0.004210 0.000000 -0.003759 0.000000
# 2 -0.002590 0.010478 -0.003286 0.000000 -0.000868 0.000000
# 3 -0.004210 -0.003286 0.017021 0.000000 -0.003213 0.000000
# 4 0.000000 0.000000 0.000000 0.041685 -0.000001 -0.001143
# 5 -0.003759 -0.000868 -0.003213 -0.000001 0.046653 0.000001
# 6 0.000000 0.000000 0.000000 -0.001143 0.000001 0.049507
#
#
# Mechanical properties :
#
#
# Convention : Reuss Voigt Hill
#
# Bulk Modulus (GPa) = 53.25937 59.98681 56.62309
# Shear Modulus (GPa) = 24.60370 26.42850 25.51610
#
# Velocity S-wave (km/s) = 3.48301 3.60986 3.54700
# Velocity P-wave (km/s) = 6.51427 6.85219 6.68536
#
# Compressibility (1/GPa) = 0.01877604
#
# Stress axis : x y z
#
# Youngs Moduli (GPa) = 87.35400 95.43830 58.74933
#
# Poissons Ratio (x) = 0.24719 0.24731
# Poissons Ratio (y) = 0.22625 0.19305
# Poissons Ratio (z) = 0.36772 0.31361
#
# Static dielectric constant tensor:
#      x y z
#    x 3.913390 0.000000 0.009230 
#    y 0.000000 3.526160 0.000000 
#    z 0.009230 0.000000 3.513190 
# 
# 
# High freq. dielectric constant tensor:
#      x y z
#    x 1.800350 0.000000 0.004230 
#    y 0.000000 1.777590 0.000000 
#    z 0.004230 0.000000 1.784120 
# 
# From -- ./inp_files/25482.got.cif
#   From: 2010.03.12/outbox.cif.g09.slc.cpg/sg8_13_cif.got.tgz:25482.got - 2010.03.31 10:45:26.
