data_PCOD8053564
_publ_section_title
;
Structure prediction by ZEFSAII (Michael W. Deem and Ramdas Pophale) SiO2 
 PCOD8053564
Probable space group: C M
;
_chemical_formula_sum "Si O2"
_cell_formula_units_Z 32
_cell_length_a 22.544069
_cell_length_b 8.831146
_cell_length_c 27.587478
_cell_angle_alpha 90.000000
_cell_angle_beta 17.745377
_cell_angle_gamma 90.000000
_cell_volume 1674.011563
_symmetry_space_group_name_H-M "C M"
_symmetry_group_IT_number 8
_symmetry_cell_setting 'monoclinic'
loop_
_space_group_symop_operation_xyz
x,y,z
x,-y,z
1/2+x,1/2+y,z
1/2+x,1/2-y,z
loop_
_atom_site_type_symbol
_atom_site_label
_atom_site_fract_x
_atom_site_fract_y
_atom_site_fract_z
Si Si1 0.225000 0.320606 0.986870
Si Si2 0.972726 0.324830 0.361432
Si Si3 0.913097 0.821440 0.558342
Si Si4 0.477974 0.179254 0.610386
Si Si5 0.235625 0.821872 0.231576
Si Si6 0.665373 0.819785 0.924305
Si Si7 0.385068 0.819811 0.321942
Si Si8 0.143783 0.823007 0.693823
O O1 0.229265 0.500000 0.982726
O O2 0.188973 0.260720 0.960785
O O3 0.430046 0.260715 0.847653
O O4 0.053179 0.262652 0.155104
O O5 0.025045 0.500000 0.319420
O O6 0.941420 0.263069 0.331686
O O7 0.776203 0.292078 0.543864
O O8 0.157546 0.244060 0.241839
O O9 0.910641 0.734284 0.610443
O O10 0.719220 0.773910 0.680461
O O11 0.101491 0.768345 0.380913
O O12 0.913438 0.000000 0.567841
O O13 0.328718 0.240253 0.765932
O O14 0.689126 0.242219 0.457629
O O15 0.480929 0.000000 0.609536
O O16 0.225545 0.000000 0.235416
O O17 0.454539 0.765735 0.069739
O O18 0.689557 0.000000 0.901757
O O19 0.355919 0.000000 0.342945
O O20 0.143984 0.000000 0.707588
#
# Coordination Sequence:
#
# PCOD8053564 Si02
#       8
#     4   4   4   4   4   4   4   4
#     4   9  18  34  59  84 109 143 184 224 266 319
#     4   9  18  32  54  81 113 150 183 216 263 319
#     4  10  20  37  59  82 109 145 182 220 268 326
#     4  12  25  38  54  80 110 142 180 229 278 322
#     4   9  19  35  58  84 111 143 182 224 267 316
#     4  10  20  37  58  80 108 146 185 223 268 323
#     4  10  20  37  59  82 108 144 184 222 267 325
#     4   9  17  32  53  81 114 147 182 222 263 312
#
# _framework density 19.115756999999999
#
# number of rings (size 3 to 8) (size 9 to 14) (size 15 to 20)
#    0.000    2.250    0.000    3.000    0.000    6.500 
#    0.000    6.875    0.000    0.000    0.000    0.000 
#    0.000    0.000    0.000    0.000    0.000    0.000 
#
# Total GULP energy -198443.055448 kJ/mol
# GULP energy per Si atom -12402.690966 kJ/mol
# Density = 1.907225 g / cm^3
# Si number density = 19.115757 Si / 1000 Ang^3
#
#
#
# Elastic Constant Matrix: (Units=GPa)
#
#
# Indices 1 2 3 4 5 6 
#
# 1 162.7846 34.5919 88.6401 -0.0066 0.8991 -0.0386
# 2 34.5919 41.5417 38.8910 0.0860 -0.8205 -0.0369
# 3 88.6401 38.8910 159.1162 0.1646 -13.5659 0.0912
# 4 -0.0066 0.0860 0.1646 21.3809 -0.0072 -13.7119
# 5 0.8991 -0.8205 -13.5659 -0.0072 34.1688 -0.0609
# 6 -0.0386 -0.0369 0.0912 -13.7119 -0.0609 6.8946
#
#
#
# Elastic Compliance Matrix: (Units=1/GPa)
#
#
# Indices 1 2 3 4 5 6 
#
# 1 0.009389 -0.003623 -0.004526 -0.000360 -0.002132 -0.000642
# 2 -0.003623 0.032798 -0.006130 -0.000205 -0.001551 -0.000186
# 3 -0.004526 -0.006130 0.010662 0.000586 0.004207 0.001003
# 4 -0.000360 -0.000205 0.000586 -0.169751 -0.000400 -0.337616
# 5 -0.002132 -0.001551 0.004207 -0.000400 0.030954 -0.000599
# 6 -0.000642 -0.000186 0.001003 -0.337616 -0.000599 -0.526431
#
#
# Mechanical properties :
#
#
# Convention : Reuss Voigt Hill
#
# Bulk Modulus (GPa) = 41.16838 76.40983 58.78910
# Shear Modulus (GPa) = -8.68470 25.91016 8.61273
#
# Velocity S-wave (km/s) = -2.13379 3.68562 2.12493
# Velocity P-wave (km/s) = 3.93857 7.62697 6.06972
#
# Compressibility (1/GPa) = 0.02429049
#
# Stress axis : x y z
#
# Youngs Moduli (GPa) = 106.50656 30.49002 93.79295
#
# Poissons Ratio (x) = 0.11047 0.42450
# Poissons Ratio (y) = 0.38588 0.57495
# Poissons Ratio (z) = 0.48204 0.18690
#
# Static dielectric constant tensor:
#      x y z
#    x 3.755570 -0.000170 -0.044740 
#    y -0.000170 3.289050 0.000470 
#    z -0.044740 0.000470 3.699520 
# 
# 
# High freq. dielectric constant tensor:
#      x y z
#    x 1.758430 0.000000 -0.005300 
#    y 0.000000 1.719910 0.000010 
#    z -0.005300 0.000010 1.750030 
# 
# From -- ./inp_files/15816.got.cif
#   From: 2010.03.12/outbox.cif.g09.slc.cpg/sg8_8_cif.got.tgz:15816.got - 2010.03.31 10:45:26.
