data_PCOD8053459
_publ_section_title
;
Structure prediction by ZEFSAII (Michael W. Deem and Ramdas Pophale) SiO2 
 PCOD8053459
Probable space group: C M
;
_chemical_formula_sum "Si O2"
_cell_formula_units_Z 32
_cell_length_a 15.433602
_cell_length_b 9.088357
_cell_length_c 22.495974
_cell_angle_alpha 90.000000
_cell_angle_beta 32.057509
_cell_angle_gamma 90.000000
_cell_volume 1674.804074
_symmetry_space_group_name_H-M "C M"
_symmetry_group_IT_number 8
_symmetry_cell_setting 'monoclinic'
loop_
_space_group_symop_operation_xyz
x,y,z
x,-y,z
1/2+x,1/2+y,z
1/2+x,1/2-y,z
loop_
_atom_site_type_symbol
_atom_site_label
_atom_site_fract_x
_atom_site_fract_y
_atom_site_fract_z
Si Si1 0.429270 0.672923 0.205580
Si Si2 0.262889 0.325965 0.813918
Si Si3 0.316784 0.834699 0.446472
Si Si4 0.113213 0.675339 0.201105
Si Si5 0.597519 0.324392 0.677067
Si Si6 0.779228 0.173310 0.669153
Si Si7 0.461184 0.327808 0.049821
Si Si8 0.635871 0.334309 0.430993
O O1 0.440108 0.500000 0.210561
O O2 0.567972 0.752960 0.164105
O O3 0.460612 0.714636 0.119238
O O4 0.246761 0.725361 0.327927
O O5 0.247839 0.500000 0.825077
O O6 0.419566 0.271030 0.759718
O O7 0.279685 0.270813 0.736537
O O8 0.103101 0.258394 0.935329
O O9 0.485715 0.761818 0.325006
O O10 0.234019 0.758676 0.551907
O O11 0.183212 0.830660 0.472393
O O12 0.359108 0.000000 0.440509
O O13 0.091663 0.500000 0.207049
O O14 0.292656 0.721899 0.116756
O O15 0.603913 0.500000 0.675604
O O16 0.632098 0.256235 0.721404
O O17 0.948003 0.216590 0.538016
O O18 0.749306 0.000000 0.683787
O O19 0.488395 0.500000 0.025193
O O20 0.657816 0.500000 0.393364
#
# Coordination Sequence:
#
# PCOD8053459 Si02
#       8
#     4   4   4   4   4   4   4   4
#     4  10  21  36  56  86 117 144 183 236 284 325
#     4  10  22  41  60  79 111 153 193 230 274 334
#     4   8  14  30  57  80 106 144 183 220 267 330
#     4   9  19  37  59  81 110 152 189 224 277 339
#     4  10  20  35  58  85 110 146 190 229 277 338
#     4  10  21  37  57  84 114 147 186 232 283 331
#     4  10  23  40  59  82 112 151 192 232 277 331
#     4   9  17  34  58  81 114 153 184 221 277 342
#
# _framework density 19.106712999999999
#
# number of rings (size 3 to 8) (size 9 to 14) (size 15 to 20)
#    0.000    2.500    1.250    1.125    1.750    4.000 
#    0.000    7.500    0.000    0.000    0.000    0.000 
#    0.000    0.000    0.000    0.000    0.000    0.000 
#
# Total GULP energy -198364.027712 kJ/mol
# GULP energy per Si atom -12397.751732 kJ/mol
# Density = 1.906322 g / cm^3
# Si number density = 19.106713 Si / 1000 Ang^3
#
#
#
# Elastic Constant Matrix: (Units=GPa)
#
#
# Indices 1 2 3 4 5 6 
#
# 1 135.3120 43.8681 79.4231 0.0000 -20.1709 0.0000
# 2 43.8681 40.0485 41.0495 0.0003 -1.9125 -0.0001
# 3 79.4231 41.0495 129.2602 0.0000 -12.9826 0.0003
# 4 0.0000 0.0003 0.0000 30.8982 0.0001 -0.7496
# 5 -20.1709 -1.9125 -12.9826 0.0001 24.5326 0.0002
# 6 0.0000 -0.0001 0.0003 -0.7496 0.0002 31.0250
#
#
#
# Elastic Compliance Matrix: (Units=1/GPa)
#
#
# Indices 1 2 3 4 5 6 
#
# 1 0.015273 -0.011286 -0.004887 0.000000 0.009092 0.000000
# 2 -0.011286 0.045651 -0.008594 0.000000 -0.010269 0.000000
# 3 -0.004887 -0.008594 0.013727 0.000000 0.002576 0.000000
# 4 0.000000 0.000000 0.000000 0.032383 0.000000 0.000782
# 5 0.009092 -0.010269 0.002576 0.000000 0.048800 0.000000
# 6 0.000000 0.000000 0.000000 0.000782 0.000000 0.032251
#
#
# Mechanical properties :
#
#
# Convention : Reuss Voigt Hill
#
# Bulk Modulus (GPa) = 39.81490 70.36689 55.09090
# Shear Modulus (GPa) = 20.32579 26.64315 23.48447
#
# Velocity S-wave (km/s) = 3.26514 3.73827 3.50969
# Velocity P-wave (km/s) = 5.92438 7.45260 6.73199
#
# Compressibility (1/GPa) = 0.02511623
#
# Stress axis : x y z
#
# Youngs Moduli (GPa) = 65.47400 21.90536 72.84831
#
# Poissons Ratio (x) = 0.24723 0.35602
# Poissons Ratio (y) = 0.73897 0.62606
# Poissons Ratio (z) = 0.31998 0.18825
#
# Static dielectric constant tensor:
#      x y z
#    x 3.563050 0.000000 -0.019370 
#    y 0.000000 3.199000 0.000000 
#    z -0.019370 0.000000 3.532800 
# 
# 
# High freq. dielectric constant tensor:
#      x y z
#    x 1.748940 0.000000 -0.003640 
#    y 0.000000 1.716910 0.000000 
#    z -0.003640 0.000000 1.745500 
# 
# From -- ./inp_files/28210.got.cif
#   From: 2010.03.12/outbox.cif.g09.slc.cpg/sg8_15_cif.got.tgz:28210.got - 2010.03.31 10:45:26.
