data_PCOD8053609
_publ_section_title
;
Structure prediction by ZEFSAII (Michael W. Deem and Ramdas Pophale) SiO2 
 PCOD8053609
Probable space group: C M
;
_chemical_formula_sum "Si O2"
_cell_formula_units_Z 32
_cell_length_a 10.215605
_cell_length_b 14.538029
_cell_length_c 10.576303
_cell_angle_alpha 90.000000
_cell_angle_beta 89.701258
_cell_angle_gamma 90.000000
_cell_volume 1570.715769
_symmetry_space_group_name_H-M "C M"
_symmetry_group_IT_number 8
_symmetry_cell_setting 'monoclinic'
loop_
_space_group_symop_operation_xyz
x,y,z
x,-y,z
1/2+x,1/2+y,z
1/2+x,1/2-y,z
loop_
_atom_site_type_symbol
_atom_site_label
_atom_site_fract_x
_atom_site_fract_y
_atom_site_fract_z
Si Si1 0.373630 0.237384 0.112340
Si Si2 0.380056 0.608859 0.304019
Si Si3 0.732681 0.893012 0.757247
Si Si4 0.040658 0.106993 0.746366
Si Si5 0.626219 0.252064 0.946817
Si Si6 0.887821 0.608843 0.349338
Si Si7 0.650079 0.891845 0.485566
Si Si8 0.618531 0.391609 0.472482
O O1 0.375594 0.340034 0.170148
O O2 0.397653 0.159221 0.216131
O O3 0.487016 0.229378 0.008802
O O4 0.232841 0.220382 0.050655
O O5 0.376935 0.500000 0.277920
O O6 0.258465 0.645099 0.387617
O O7 0.510248 0.643104 0.374458
O O8 0.886823 0.876014 0.756277
O O9 0.668529 0.839343 0.873057
O O10 0.673264 0.853475 0.626302
O O11 0.698604 0.000000 0.775677
O O12 0.116171 0.161012 0.854678
O O13 0.090941 0.147259 0.612133
O O14 0.075914 0.000000 0.761845
O O15 0.887313 0.500000 0.323062
O O16 0.759259 0.641959 0.424379
O O17 0.008331 0.638434 0.437418
O O18 0.668095 0.000000 0.491890
O O19 0.607827 0.500000 0.480145
#
# Coordination Sequence:
#
# PCOD8053609 Si02
#       8
#     4   4   4   4   4   4   4   4
#     4  12  26  40  58  86 128 170 212 248 294 364
#     4  10  20  37  63  89 117 160 207 252 302 368
#     4  10  21  42  69  92 123 163 204 259 315 367
#     4  10  21  42  69  92 123 163 204 259 315 367
#     4  12  26  42  60  92 124 168 222 254 286 366
#     4  10  22  39  59  89 127 156 189 256 320 362
#     4   9  18  37  65  93 118 150 199 253 316 375
#     4   9  18  37  65  93 118 150 199 253 316 375
#
# _framework density 20.372878
#
# number of rings (size 3 to 8) (size 9 to 14) (size 15 to 20)
#    0.000    1.750    2.500    1.500    0.000    5.000 
#    0.000    1.250    0.000    0.000    0.000    0.000 
#    0.000    0.000    0.000    0.000    0.000    0.000 
#
# Total GULP energy -198454.132929 kJ/mol
# GULP energy per Si atom -12403.383308 kJ/mol
# Density = 2.032651 g / cm^3
# Si number density = 20.372878 Si / 1000 Ang^3
#
#
#
# Elastic Constant Matrix: (Units=GPa)
#
#
# Indices 1 2 3 4 5 6 
#
# 1 116.1675 23.3515 33.2925 0.0000 9.5282 0.0000
# 2 23.3515 76.1106 40.2899 0.0000 7.0841 0.0000
# 3 33.2925 40.2899 110.6652 0.0000 10.1326 0.0000
# 4 0.0000 0.0000 0.0000 37.7863 0.0000 2.8946
# 5 9.5282 7.0841 10.1326 0.0000 46.3500 0.0000
# 6 0.0000 0.0000 0.0000 2.8946 0.0000 13.7662
#
#
#
# Elastic Compliance Matrix: (Units=1/GPa)
#
#
# Indices 1 2 3 4 5 6 
#
# 1 0.009677 -0.001699 -0.002178 0.000000 -0.001253 0.000000
# 2 -0.001699 0.016641 -0.005456 0.000000 -0.001001 0.000000
# 3 -0.002178 -0.005456 0.011796 0.000000 -0.001297 0.000000
# 4 0.000000 0.000000 0.000000 0.026898 0.000000 -0.005656
# 5 -0.001253 -0.001001 -0.001297 0.000000 0.022269 0.000000
# 6 0.000000 0.000000 0.000000 -0.005656 0.000000 0.073831
#
#
# Mechanical properties :
#
#
# Convention : Reuss Voigt Hill
#
# Bulk Modulus (GPa) = 51.41661 55.20122 53.30892
# Shear Modulus (GPa) = 26.84395 33.31444 30.07920
#
# Velocity S-wave (km/s) = 3.63386 4.04819 3.84661
# Velocity P-wave (km/s) = 6.54974 7.00034 6.77879
#
# Compressibility (1/GPa) = 0.01944897
#
# Stress axis : x y z
#
# Youngs Moduli (GPa) = 103.33999 60.09098 84.77137
#
# Poissons Ratio (x) = 0.10212 0.18460
# Poissons Ratio (y) = 0.17563 0.46249
# Poissons Ratio (z) = 0.22504 0.32784
#
# Static dielectric constant tensor:
#      x y z
#    x 3.913040 0.000000 -0.003460 
#    y 0.000000 3.538020 0.000000 
#    z -0.003460 0.000000 3.784290 
# 
# 
# High freq. dielectric constant tensor:
#      x y z
#    x 1.806460 0.000000 0.000910 
#    y 0.000000 1.794170 0.000000 
#    z 0.000910 0.000000 1.801300 
# 
# From -- ./inp_files/18868.got.cif
#   From: 2010.03.12/outbox.cif.g09.slc.cpg/sg8_10_cif.got.tgz:18868.got - 2010.03.31 10:45:26.
