data_PCOD8053683
_publ_section_title
;
Structure prediction by ZEFSAII (Michael W. Deem and Ramdas Pophale) SiO2 
 PCOD8053683
Probable space group: C M
;
_chemical_formula_sum "Si O2"
_cell_formula_units_Z 32
_cell_length_a 14.445277
_cell_length_b 17.143759
_cell_length_c 11.463317
_cell_angle_alpha 90.000000
_cell_angle_beta 150.097960
_cell_angle_gamma 90.000000
_cell_volume 1415.218837
_symmetry_space_group_name_H-M "C M"
_symmetry_group_IT_number 8
_symmetry_cell_setting 'monoclinic'
loop_
_space_group_symop_operation_xyz
x,y,z
x,-y,z
1/2+x,1/2+y,z
1/2+x,1/2-y,z
loop_
_atom_site_type_symbol
_atom_site_label
_atom_site_fract_x
_atom_site_fract_y
_atom_site_fract_z
Si Si1 0.799510 0.410144 0.562360
Si Si2 0.507101 0.690428 0.376808
Si Si3 0.100593 0.411667 0.324070
Si Si4 0.226632 0.087567 0.996532
Si Si5 0.102142 0.908615 0.105912
Si Si6 0.619344 0.183061 0.827675
Si Si7 0.210175 0.346062 0.673396
Si Si8 0.416458 0.338681 0.536860
O O1 0.821039 0.500000 0.620160
O O2 0.646251 0.375179 0.481280
O O3 0.736749 0.396989 0.361215
O O4 0.003741 0.370317 0.792867
O O5 0.633464 0.766621 0.531697
O O6 0.418244 0.662095 0.400607
O O7 0.329231 0.701055 0.098411
O O8 0.111287 0.500000 0.286048
O O9 0.169871 0.413333 0.534604
O O10 0.209178 0.352166 0.358043
O O11 0.892443 0.374503 0.101111
O O12 0.208405 0.123319 0.106688
O O13 0.292829 0.000000 0.088248
O O14 0.036050 0.089073 0.716596
O O15 0.041318 0.000000 0.027207
O O16 0.931014 0.849358 0.934620
O O17 0.620771 0.140226 0.702956
O O18 0.509925 0.263885 0.698188
#
# Coordination Sequence:
#
# PCOD8053683 Si02
#       8
#     4   4   4   4   4   4   4   4
#     4  11  25  44  68 100 136 177 224 274 335 404
#     4  11  26  46  65  97 131 180 225 273 330 401
#     4  11  22  39  67 100 131 168 215 272 336 392
#     4  10  21  38  64  99 133 167 213 274 338 388
#     4  10  20  39  71 105 135 170 218 284 342 392
#     4  11  25  45  67  94 132 176 224 276 338 389
#     4  11  21  41  70  98 130 171 223 280 333 390
#     4  11  24  42  64  93 130 175 220 271 320 398
#
# _framework density 22.611345
#
# number of rings (size 3 to 8) (size 9 to 14) (size 15 to 20)
#    0.000    1.250    2.500    3.000    0.000    5.500 
#    0.000    1.250    0.000    0.000    0.000    0.000 
#    0.000    0.000    0.000    0.000    0.000    0.000 
#
# Total GULP energy -198324.487269 kJ/mol
# GULP energy per Si atom -12395.280454 kJ/mol
# Density = 2.255988 g / cm^3
# Si number density = 22.611345 Si / 1000 Ang^3
#
#
#
# Elastic Constant Matrix: (Units=GPa)
#
#
# Indices 1 2 3 4 5 6 
#
# 1 149.0685 50.4846 34.3296 0.0000 23.6818 0.0000
# 2 50.4846 84.9516 35.2069 0.0000 16.2819 0.0000
# 3 34.3296 35.2069 68.5378 0.0000 16.6195 0.0000
# 4 0.0000 0.0000 0.0000 33.8350 0.0000 6.1894
# 5 23.6818 16.2819 16.6195 0.0000 46.5655 0.0000
# 6 0.0000 0.0000 0.0000 6.1894 0.0000 32.4072
#
#
#
# Elastic Compliance Matrix: (Units=1/GPa)
#
#
# Indices 1 2 3 4 5 6 
#
# 1 0.008887 -0.004080 -0.001757 0.000000 -0.002466 0.000000
# 2 -0.004080 0.017151 -0.006366 0.000000 -0.001650 0.000000
# 3 -0.001757 -0.006366 0.019688 0.000000 -0.003907 0.000000
# 4 0.000000 0.000000 0.000000 0.030625 0.000000 -0.005849
# 5 -0.002466 -0.001650 -0.003907 0.000000 0.024700 0.000000
# 6 0.000000 0.000000 0.000000 -0.005849 0.000000 0.031974
#
#
# Mechanical properties :
#
#
# Convention : Reuss Voigt Hill
#
# Bulk Modulus (GPa) = 46.90887 60.28890 53.59888
# Shear Modulus (GPa) = 30.38784 34.73066 32.55925
#
# Velocity S-wave (km/s) = 3.66993 3.92341 3.79879
# Velocity P-wave (km/s) = 6.22484 6.87352 6.55720
#
# Compressibility (1/GPa) = 0.02131793
#
# Stress axis : x y z
#
# Youngs Moduli (GPa) = 112.52963 58.30637 50.79114
#
# Poissons Ratio (x) = 0.23790 0.08926
# Poissons Ratio (y) = 0.45914 0.32336
# Poissons Ratio (z) = 0.19775 0.37120
#
# Static dielectric constant tensor:
#      x y z
#    x 4.183350 0.000000 0.170450 
#    y 0.000000 3.899960 0.000000 
#    z 0.170450 0.000000 4.095740 
# 
# 
# High freq. dielectric constant tensor:
#      x y z
#    x 1.903530 0.000000 0.016240 
#    y 0.000000 1.879240 0.000000 
#    z 0.016240 0.000000 1.890170 
# 
# From -- ./inp_files/22414.got.cif
#   From: 2010.03.12/outbox.cif.g09.slc.cpg/sg8_12_cif.got.tgz:22414.got - 2010.03.31 10:45:26.
