data_PCOD8053211
_publ_section_title
;
Structure prediction by ZEFSAII (Michael W. Deem and Ramdas Pophale) SiO2 
 PCOD8053211
Probable space group: C M
;
_chemical_formula_sum "Si O2"
_cell_formula_units_Z 32
_cell_length_a 15.247558
_cell_length_b 8.641047
_cell_length_c 22.755625
_cell_angle_alpha 90.000000
_cell_angle_beta 31.866883
_cell_angle_gamma 90.000000
_cell_volume 1582.873471
_symmetry_space_group_name_H-M "C M"
_symmetry_group_IT_number 8
_symmetry_cell_setting 'monoclinic'
loop_
_space_group_symop_operation_xyz
x,y,z
x,-y,z
1/2+x,1/2+y,z
1/2+x,1/2-y,z
loop_
_atom_site_type_symbol
_atom_site_label
_atom_site_fract_x
_atom_site_fract_y
_atom_site_fract_z
Si Si1 0.662410 0.182796 0.767910
Si Si2 0.980989 0.679269 0.387431
Si Si3 0.325871 0.178900 0.357121
Si Si4 0.332435 0.318924 0.905489
Si Si5 0.332942 0.675398 0.155080
Si Si6 0.973715 0.817697 0.515370
Si Si7 0.137179 0.815396 0.910156
Si Si8 0.561559 0.324402 0.135215
O O1 0.518376 0.271803 0.815665
O O2 0.833080 0.237475 0.640508
O O3 0.676652 0.230971 0.827399
O O4 0.632990 0.000000 0.779638
O O5 0.012363 0.500000 0.385054
O O6 0.836084 0.699849 0.421787
O O7 0.924297 0.764467 0.478433
O O8 0.151971 0.754490 0.263780
O O9 0.485399 0.264686 0.239327
O O10 0.151765 0.252135 0.434294
O O11 0.338934 0.000000 0.331629
O O12 0.323062 0.500000 0.897545
O O13 0.275795 0.226556 0.879699
O O14 0.218002 0.278572 0.026753
O O15 0.305528 0.500000 0.151145
O O16 0.415567 0.689503 0.171392
O O17 0.457227 0.748162 0.035619
O O18 0.986922 0.000000 0.509014
O O19 0.136356 0.000000 0.902589
O O20 0.624258 0.500000 0.106434
#
# Coordination Sequence:
#
# PCOD8053211 Si02
#       8
#     4   4   4   4   4   4   4   4
#     4  11  24  42  62  87 124 167 212 257 304 361
#     4  10  20  36  59  87 118 157 200 242 295 361
#     4  10  21  36  58  88 119 156 198 245 301 359
#     4  11  23  40  62  90 122 160 207 257 311 366
#     4   8  16  32  55  84 120 154 188 238 293 353
#     4  10  23  42  59  84 123 159 199 253 300 350
#     4  10  21  39  62  92 127 161 203 250 307 369
#     4  10  19  35  59  88 123 158 195 246 305 365
#
# _framework density 20.216398999999999
#
# number of rings (size 3 to 8) (size 9 to 14) (size 15 to 20)
#    0.000    2.000    1.250    3.000    1.750    2.500 
#    0.000    1.875    0.000    0.000    0.000    0.000 
#    0.000    0.000    0.000    0.000    0.000    0.000 
#
# Total GULP energy -198390.360816 kJ/mol
# GULP energy per Si atom -12399.397551 kJ/mol
# Density = 2.017039 g / cm^3
# Si number density = 20.216399 Si / 1000 Ang^3
#
#
#
# Elastic Constant Matrix: (Units=GPa)
#
#
# Indices 1 2 3 4 5 6 
#
# 1 84.1216 7.8167 47.9807 0.0002 13.0172 0.0000
# 2 7.8167 41.4077 24.7475 0.0004 -2.7757 0.0001
# 3 47.9807 24.7475 120.8262 0.0002 16.9247 0.0001
# 4 0.0002 0.0004 0.0002 27.5674 0.0001 4.0774
# 5 13.0172 -2.7757 16.9247 0.0001 30.8698 0.0000
# 6 0.0000 0.0001 0.0001 4.0774 0.0000 31.8654
#
#
#
# Elastic Compliance Matrix: (Units=1/GPa)
#
#
# Indices 1 2 3 4 5 6 
#
# 1 0.015707 0.000284 -0.005818 0.000000 -0.003408 0.000000
# 2 0.000284 0.028600 -0.006839 0.000000 0.006202 0.000000
# 3 -0.005818 -0.006839 0.012706 0.000000 -0.005128 0.000000
# 4 0.000000 0.000000 0.000000 0.036975 0.000000 -0.004731
# 5 -0.003408 0.006202 -0.005128 0.000000 0.037200 0.000000
# 6 0.000000 0.000000 0.000000 -0.004731 0.000000 0.031987
#
#
# Mechanical properties :
#
#
# Convention : Reuss Voigt Hill
#
# Bulk Modulus (GPa) = 30.99284 45.27170 38.13227
# Shear Modulus (GPa) = 25.16653 29.11455 27.14054
#
# Velocity S-wave (km/s) = 3.53208 3.79904 3.66799
# Velocity P-wave (km/s) = 5.65667 6.45645 6.06975
#
# Compressibility (1/GPa) = 0.03226552
#
# Stress axis : x y z
#
# Youngs Moduli (GPa) = 63.66573 34.96542 78.70436
#
# Poissons Ratio (x) = -0.00992 0.45791
# Poissons Ratio (y) = -0.01806 0.53827
# Poissons Ratio (z) = 0.37041 0.23913
#
# Static dielectric constant tensor:
#      x y z
#    x 3.593730 0.000000 -0.053050 
#    y 0.000000 3.512410 0.000000 
#    z -0.053050 0.000000 3.840690 
# 
# 
# High freq. dielectric constant tensor:
#      x y z
#    x 1.792840 0.000000 0.000360 
#    y 0.000000 1.772890 0.000000 
#    z 0.000360 0.000000 1.790010 
# 
# From -- ./inp_files/31979.got.cif
#   From: 2010.03.12/outbox.cif.g09.slc.cpg/sg8_16_cif.got.tgz:31979.got - 2010.03.31 10:45:26.
