data_PCOD8053040
_publ_section_title
;
Structure prediction by ZEFSAII (Michael W. Deem and Ramdas Pophale) SiO2 
 PCOD8053040
Probable space group: C M
;
_chemical_formula_sum "Si O2"
_cell_formula_units_Z 32
_cell_length_a 28.462945
_cell_length_b 8.647040
_cell_length_c 15.903072
_cell_angle_alpha 90.000000
_cell_angle_beta 153.349849
_cell_angle_gamma 90.000000
_cell_volume 1755.622043
_symmetry_space_group_name_H-M "C M"
_symmetry_group_IT_number 8
_symmetry_cell_setting 'monoclinic'
loop_
_space_group_symop_operation_xyz
x,y,z
x,-y,z
1/2+x,1/2+y,z
1/2+x,1/2-y,z
loop_
_atom_site_type_symbol
_atom_site_label
_atom_site_fract_x
_atom_site_fract_y
_atom_site_fract_z
Si Si1 0.037750 0.317843 0.333660
Si Si2 0.471486 0.316167 0.054127
Si Si3 0.788262 0.817246 0.327982
Si Si4 0.721688 0.316816 0.049975
Si Si5 0.512283 0.682536 0.631928
Si Si6 0.932101 0.817963 0.326909
Si Si7 0.679675 0.816286 0.325214
Si Si8 0.262344 0.681816 0.633255
O O1 0.023075 0.500000 0.321686
O O2 0.159799 0.270317 0.522419
O O3 0.977323 0.264952 0.153707
O O4 0.991193 0.229333 0.337869
O O5 0.469197 0.500000 0.062299
O O6 0.567677 0.267500 0.148619
O O7 0.366447 0.249191 0.842072
O O8 0.909483 0.763441 0.519287
O O9 0.739077 0.761226 0.336785
O O10 0.779735 0.000000 0.303291
O O11 0.724791 0.740759 0.150544
O O12 0.720520 0.500000 0.047624
O O13 0.616344 0.245726 0.839652
O O14 0.818357 0.259593 0.148566
O O15 0.521466 0.500000 0.649937
O O16 0.500643 0.737785 0.516606
O O17 0.914616 0.000000 0.301542
O O18 0.748903 0.760358 0.515639
O O19 0.661357 0.000000 0.298739
O O20 0.274065 0.500000 0.650658
#
# Coordination Sequence:
#
# PCOD8053040 Si02
#       8
#     4   4   4   4   4   4   4   4
#     4  10  20  36  54  74 101 132 166 203 248 298
#     4  10  19  33  53  77 102 129 166 209 250 292
#     4   9  18  34  53  73 101 136 169 203 248 298
#     4  10  19  33  53  77 102 129 166 209 250 292
#     4   8  17  33  52  73  99 132 168 205 246 294
#     4  10  20  36  54  74 101 132 166 203 248 298
#     4   9  18  34  53  73 101 136 169 203 248 298
#     4   8  17  33  52  73  99 132 168 205 246 294
#
# _framework density 18.227157999999999
#
# number of rings (size 3 to 8) (size 9 to 14) (size 15 to 20)
#    0.000    2.750    0.000    3.000    0.000    2.500 
#    0.000   17.500    0.000    0.000    0.000    0.000 
#    0.000    0.000    0.000    0.000    0.000    0.000 
#
# Total GULP energy -198370.226361 kJ/mol
# GULP energy per Si atom -12398.139148 kJ/mol
# Density = 1.818567 g / cm^3
# Si number density = 18.227158 Si / 1000 Ang^3
#
#
#
# Elastic Constant Matrix: (Units=GPa)
#
#
# Indices 1 2 3 4 5 6 
#
# 1 134.7550 7.7535 67.4999 0.0000 2.8380 0.0000
# 2 7.7535 24.6762 18.0844 0.0000 -0.1771 0.0000
# 3 67.4999 18.0844 177.8242 0.0000 6.3030 0.0000
# 4 0.0000 0.0000 0.0000 24.5536 0.0000 0.0811
# 5 2.8380 -0.1771 6.3030 0.0000 12.6061 0.0000
# 6 0.0000 0.0000 0.0000 0.0811 0.0000 30.7334
#
#
#
# Elastic Compliance Matrix: (Units=1/GPa)
#
#
# Indices 1 2 3 4 5 6 
#
# 1 0.009168 -0.000370 -0.003430 0.000000 -0.000354 0.000000
# 2 -0.000370 0.043907 -0.004428 0.000000 0.002914 0.000000
# 3 -0.003430 -0.004428 0.007483 0.000000 -0.003032 0.000000
# 4 0.000000 0.000000 0.000000 0.040728 0.000000 -0.000107
# 5 -0.000354 0.002914 -0.003032 0.000000 0.080963 0.000000
# 6 0.000000 0.000000 0.000000 -0.000107 0.000000 0.032538
#
#
# Mechanical properties :
#
#
# Convention : Reuss Voigt Hill
#
# Bulk Modulus (GPa) = 22.67423 58.21456 40.44440
# Shear Modulus (GPa) = 20.32989 29.83980 25.08484
#
# Velocity S-wave (km/s) = 3.34333 4.05051 3.71379
# Velocity P-wave (km/s) = 5.23169 7.34052 6.37392
#
# Compressibility (1/GPa) = 0.04410293
#
# Stress axis : x y z
#
# Youngs Moduli (GPa) = 109.07978 22.77525 133.63183
#
# Poissons Ratio (x) = 0.00842 0.45833
# Poissons Ratio (y) = 0.04031 0.59177
# Poissons Ratio (z) = 0.37412 0.10086
#
# Static dielectric constant tensor:
#      x y z
#    x 3.432160 0.000000 -0.013000 
#    y 0.000000 3.161050 0.000000 
#    z -0.013000 0.000000 3.744510 
# 
# 
# High freq. dielectric constant tensor:
#      x y z
#    x 1.710380 0.000000 0.000230 
#    y 0.000000 1.690350 0.000000 
#    z 0.000230 0.000000 1.712080 
# 
# From -- ./inp_files/13857.got.cif
#   From: 2010.03.12/outbox.cif.g09.slc.cpg/sg8_7_cif.got.tgz:13857.got - 2010.03.31 10:45:26.
