data_PCOD8053894
_publ_section_title
;
Structure prediction by ZEFSAII (Michael W. Deem and Ramdas Pophale) SiO2 
 PCOD8053894
Probable space group: C M
;
_chemical_formula_sum "Si O2"
_cell_formula_units_Z 20
_cell_length_a 14.222042
_cell_length_b 9.640649
_cell_length_c 17.478719
_cell_angle_alpha 90.000000
_cell_angle_beta 20.619511
_cell_angle_gamma 90.000000
_cell_volume 843.953132
_symmetry_space_group_name_H-M "C M"
_symmetry_group_IT_number 8
_symmetry_cell_setting 'monoclinic'
loop_
_space_group_symop_operation_xyz
x,y,z
x,-y,z
1/2+x,1/2+y,z
1/2+x,1/2-y,z
loop_
_atom_site_type_symbol
_atom_site_label
_atom_site_fract_x
_atom_site_fract_y
_atom_site_fract_z
Si Si1 0.845050 0.793861 0.980930
Si Si2 0.098579 0.793772 0.950646
Si Si3 0.402463 0.000000 0.332126
Si Si4 0.299030 0.500000 0.282059
Si Si5 0.516428 0.000000 0.819267
Si Si6 0.059599 0.500000 0.614261
Si Si7 0.284055 0.500000 0.774784
Si Si8 0.761587 0.500000 0.608812
O O1 0.825065 0.633540 0.972249
O O2 0.558174 0.863358 0.183511
O O3 0.076418 0.863733 0.753850
O O4 0.923236 0.820545 0.009220
O O5 0.152887 0.629886 0.918728
O O6 0.938434 0.860678 0.143551
O O7 0.387507 0.863510 0.726715
O O8 0.419441 0.000000 0.410146
O O9 0.101529 0.000000 0.533299
O O10 0.315001 0.500000 0.362901
O O11 0.982608 0.500000 0.506625
O O12 0.658612 0.000000 0.627563
O O13 0.730285 0.000000 0.724541
#
# Coordination Sequence:
#
# PCOD8053894 Si02
#       8
#     4   4   2   2   2   2   2   2
#     4  10  21  44  72 106 143 182 240 298 347 426
#     4  10  21  44  70 105 143 180 239 300 346 421
#     4  11  22  43  79 103 135 197 239 279 368 427
#     4  11  19  41  78 107 136 191 243 285 355 425
#     4  10  25  47  69 103 155 184 225 311 353 406
#     4  11  22  43  71 101 144 195 235 283 353 432
#     4  10  25  47  72 106 152 183 231 308 361 405
#     4  11  19  37  73 110 140 180 237 296 346 431
#
# _framework density 23.697998999999999
#
# number of rings (size 3 to 8) (size 9 to 14) (size 15 to 20)
#    0.000    1.600    4.000    1.200    2.800    0.000 
#    7.200    4.000    0.000    0.000    0.000    0.000 
#    0.000    0.000    0.000    0.000    0.000    0.000 
#
# Total GULP energy -123989.437918 kJ/mol
# GULP energy per Si atom -12398.943792 kJ/mol
# Density = 2.364406 g / cm^3
# Si number density = 23.697999 Si / 1000 Ang^3
#
#
#
# Elastic Constant Matrix: (Units=GPa)
#
#
# Indices 1 2 3 4 5 6 
#
# 1 113.0488 44.8891 50.2771 0.0195 21.5843 -0.0507
# 2 44.8891 213.3120 75.6959 -0.0501 8.5840 0.0333
# 3 50.2771 75.6959 145.9094 0.0297 10.6181 -0.0618
# 4 0.0195 -0.0501 0.0297 14.0782 -0.0475 0.3539
# 5 21.5843 8.5840 10.6181 -0.0475 49.8764 0.0440
# 6 -0.0507 0.0333 -0.0618 0.3539 0.0440 -9.7486
#
#
#
# Elastic Compliance Matrix: (Units=1/GPa)
#
#
# Indices 1 2 3 4 5 6 
#
# 1 0.011444 -0.001164 -0.003041 -0.000026 -0.004105 -0.000064
# 2 -0.001164 0.005871 -0.002649 0.000027 0.000057 0.000044
# 3 -0.003041 -0.002649 0.009290 -0.000024 -0.000206 -0.000054
# 4 -0.000026 0.000027 -0.000024 0.070968 0.000077 0.002577
# 5 -0.004105 0.000057 -0.000206 0.000077 0.021860 0.000124
# 6 -0.000064 0.000044 -0.000054 0.002577 0.000124 -0.102484
#
#
# Mechanical properties :
#
#
# Convention : Reuss Voigt Hill
#
# Bulk Modulus (GPa) = 77.53090 90.44383 83.98736
# Shear Modulus (GPa) = 143.04304 30.93507 86.98906
#
# Velocity S-wave (km/s) = 7.77765 3.61693 6.06523
# Velocity P-wave (km/s) = 10.65096 7.46264 9.19603
#
# Compressibility (1/GPa) = 0.01289808
#
# Stress axis : x y z
#
# Youngs Moduli (GPa) = 87.38215 170.34319 107.63815
#
# Poissons Ratio (x) = 0.19828 0.32730
# Poissons Ratio (y) = 0.10171 0.28509
# Poissons Ratio (z) = 0.26571 0.45117
#
# Static dielectric constant tensor:
#      x y z
#    x 4.339810 -0.000130 0.063180 
#    y -0.000130 4.380440 0.000130 
#    z 0.063180 0.000130 3.973740 
# 
# 
# High freq. dielectric constant tensor:
#      x y z
#    x 1.947840 0.000000 0.002590 
#    y 0.000000 1.945260 0.000020 
#    z 0.002590 0.000020 1.926670 
# 
# From -- ./inp_files/29183.got.cif
#   From: 2010.03.12/outbox.cif.g09.slc.cpg/sg8_15_cif.got.tgz:29183.got - 2010.03.31 10:45:26.
