data_PCOD8053043
_publ_section_title
;
Structure prediction by ZEFSAII (Michael W. Deem and Ramdas Pophale) SiO2 
 PCOD8053043
Probable space group: C M
;
_chemical_formula_sum "Si O2"
_cell_formula_units_Z 32
_cell_length_a 24.336565
_cell_length_b 9.239097
_cell_length_c 20.310247
_cell_angle_alpha 90.000000
_cell_angle_beta 156.635126
_cell_angle_gamma 90.000000
_cell_volume 1811.091887
_symmetry_space_group_name_H-M "C M"
_symmetry_group_IT_number 8
_symmetry_cell_setting 'monoclinic'
loop_
_space_group_symop_operation_xyz
x,y,z
x,-y,z
1/2+x,1/2+y,z
1/2+x,1/2-y,z
loop_
_atom_site_type_symbol
_atom_site_label
_atom_site_fract_x
_atom_site_fract_y
_atom_site_fract_z
Si Si1 0.102380 0.330165 0.837020
Si Si2 0.172619 0.331951 0.686573
Si Si3 0.905721 0.668369 0.878815
Si Si4 0.561201 0.835548 0.182755
Si Si5 0.773985 0.330793 0.925386
Si Si6 0.327651 0.170630 0.460007
Si Si7 0.123142 0.668569 0.011310
Si Si8 0.856675 0.666541 0.342824
O O1 0.128724 0.500000 0.854451
O O2 0.228070 0.240019 0.943541
O O3 0.094970 0.289742 0.905265
O O4 0.960169 0.277997 0.647129
O O5 0.210675 0.500000 0.738889
O O6 0.266651 0.263694 0.732108
O O7 0.195169 0.249091 0.779677
O O8 0.013546 0.313639 0.490314
O O9 0.862844 0.500000 0.832526
O O10 0.985843 0.713740 0.900761
O O11 0.006177 0.705319 0.049929
O O12 0.691274 0.736208 0.343948
O O13 0.612549 0.000000 0.240808
O O14 0.439267 0.808638 0.101313
O O15 0.735671 0.500000 0.880352
O O16 0.342194 0.227139 0.401195
O O17 0.314572 0.000000 0.448222
O O18 0.151781 0.500000 0.052564
O O19 0.259236 0.748383 0.186035
O O20 0.811732 0.500000 0.291988
#
# Coordination Sequence:
#
# PCOD8053043 Si02
#       8
#     4   4   4   4   4   4   4   4
#     4  10  21  38  56  78 109 144 181 218 266 321
#     4  10  19  33  54  80 108 140 177 222 268 313
#     4   9  18  33  51  78 109 137 175 222 268 314
#     4   9  18  32  51  78 107 134 172 220 265 310
#     4  10  20  34  53  79 110 142 175 220 270 315
#     4  10  19  33  53  79 107 138 176 220 264 312
#     4  10  21  37  57  78 108 146 179 220 266 317
#     4  10  20  34  53  80 110 139 177 224 267 312
#
# _framework density 17.668899
#
# number of rings (size 3 to 8) (size 9 to 14) (size 15 to 20)
#    0.000    2.250    2.500    1.500    0.000    5.000 
#    0.000    1.250    0.000    4.500    0.000    0.000 
#    0.000    0.000    0.000    0.000    0.000    0.000 
#
# Total GULP energy -198431.580752 kJ/mol
# GULP energy per Si atom -12401.973797 kJ/mol
# Density = 1.762868 g / cm^3
# Si number density = 17.668899 Si / 1000 Ang^3
#
#
#
# Elastic Constant Matrix: (Units=GPa)
#
#
# Indices 1 2 3 4 5 6 
#
# 1 137.2175 54.9923 61.1655 0.0000 10.0074 0.0000
# 2 54.9923 66.6541 45.6462 0.0000 8.4384 0.0000
# 3 61.1655 45.6462 97.6813 0.0000 7.2294 0.0000
# 4 0.0000 0.0000 0.0000 28.1319 0.0000 7.1281
# 5 10.0074 8.4384 7.2294 0.0000 25.4807 0.0000
# 6 0.0000 0.0000 0.0000 7.1281 0.0000 31.3533
#
#
#
# Elastic Compliance Matrix: (Units=1/GPa)
#
#
# Indices 1 2 3 4 5 6 
#
# 1 0.012010 -0.006859 -0.004223 0.000000 -0.001247 0.000000
# 2 -0.006859 0.026492 -0.007799 0.000000 -0.003867 0.000000
# 3 -0.004223 -0.007799 0.016560 0.000000 -0.000457 0.000000
# 4 0.000000 0.000000 0.000000 0.037720 0.000000 -0.008576
# 5 -0.001247 -0.003867 -0.000457 0.000000 0.041146 0.000000
# 6 0.000000 0.000000 0.000000 -0.008576 0.000000 0.033844
#
#
# Mechanical properties :
#
#
# Convention : Reuss Voigt Hill
#
# Bulk Modulus (GPa) = 57.80036 69.46234 63.63135
# Shear Modulus (GPa) = 23.66326 26.30976 24.98651
#
# Velocity S-wave (km/s) = 3.66356 3.86300 3.76460
# Velocity P-wave (km/s) = 7.11896 7.70037 7.41537
#
# Compressibility (1/GPa) = 0.01730093
#
# Stress axis : x y z
#
# Youngs Moduli (GPa) = 83.26548 37.74756 60.38767
#
# Poissons Ratio (x) = 0.25890 0.25501
# Poissons Ratio (y) = 0.57110 0.47094
# Poissons Ratio (z) = 0.35161 0.29438
#
# Static dielectric constant tensor:
#      x y z
#    x 3.364160 0.000000 0.182670 
#    y 0.000000 3.252920 0.000000 
#    z 0.182670 0.000000 3.118260 
# 
# 
# High freq. dielectric constant tensor:
#      x y z
#    x 1.680230 0.000000 0.020590 
#    y 0.000000 1.683710 0.000000 
#    z 0.020590 0.000000 1.668100 
# 
# From -- ./inp_files/15799.got.cif
#   From: 2010.03.12/outbox.cif.g09.slc.cpg/sg8_8_cif.got.tgz:15799.got - 2010.03.31 10:45:26.
