data_PCOD8053338
_publ_section_title
;
Structure prediction by ZEFSAII (Michael W. Deem and Ramdas Pophale) SiO2 
 PCOD8053338
Probable space group: C M
;
_chemical_formula_sum "Si O2"
_cell_formula_units_Z 24
_cell_length_a 24.488391
_cell_length_b 9.220399
_cell_length_c 18.283720
_cell_angle_alpha 90.000000
_cell_angle_beta 18.804626
_cell_angle_gamma 90.000000
_cell_volume 1330.735042
_symmetry_space_group_name_H-M "C M"
_symmetry_group_IT_number 8
_symmetry_cell_setting 'monoclinic'
loop_
_space_group_symop_operation_xyz
x,y,z
x,-y,z
1/2+x,1/2+y,z
1/2+x,1/2-y,z
loop_
_atom_site_type_symbol
_atom_site_label
_atom_site_fract_x
_atom_site_fract_y
_atom_site_fract_z
Si Si1 0.125000 0.332072 0.497710
Si Si2 0.806839 0.170962 0.650908
Si Si3 0.184907 0.160798 0.677904
Si Si4 0.492499 0.340291 0.060402
Si Si5 0.472975 0.168249 0.839116
Si Si6 0.119250 0.170745 0.355250
O O1 0.138913 0.500000 0.457443
O O2 0.301870 0.281648 0.311700
O O3 0.082929 0.240744 0.479605
O O4 0.979179 0.307452 0.743532
O O5 0.823522 0.247518 0.549636
O O6 0.968450 0.217278 0.492827
O O7 0.791972 0.000000 0.658934
O O8 0.636275 0.229791 0.908968
O O9 0.130036 0.244446 0.674645
O O10 0.256271 0.000000 0.568029
O O11 0.018012 0.146754 0.940258
O O12 0.515600 0.500000 0.067734
O O13 0.499213 0.000000 0.825517
O O14 0.293582 0.224845 0.097225
O O15 0.122930 0.000000 0.362425
#
# Coordination Sequence:
#
# PCOD8053338 Si02
#       6
#     4   4   4   4   4   4
#     4  10  20  34  54  78 102 131 169 209 252 300
#     4   9  17  30  51  74 100 136 169 202 249 299
#     4   9  17  31  51  75  99 126 167 208 247 293
#     4   8  16  31  50  74  98 124 166 207 245 292
#     4  10  20  34  54  78 102 132 168 208 253 300
#     4  10  20  34  52  75 105 135 167 206 250 300
#
# _framework density 18.035146000000001
#
# number of rings (size 3 to 8) (size 9 to 14) (size 15 to 20)
#    1.000    1.667    1.667    0.500    0.000    2.667 
#    0.000    1.667    0.000    8.000    0.000    0.000 
#    0.000    0.000    0.000    0.000    0.000    0.000 
#
# Total GULP energy -148664.289128 kJ/mol
# GULP energy per Si atom -12388.690761 kJ/mol
# Density = 1.799410 g / cm^3
# Si number density = 18.035146 Si / 1000 Ang^3
#
#
#
# Elastic Constant Matrix: (Units=GPa)
#
#
# Indices 1 2 3 4 5 6 
#
# 1 117.2103 58.4750 56.1423 -0.0001 -14.1361 0.0000
# 2 58.4750 80.2173 31.6343 0.0000 -14.8493 0.0001
# 3 56.1423 31.6343 54.3375 -0.0005 -5.7649 0.0002
# 4 -0.0001 0.0000 -0.0005 19.9867 0.0002 -2.0669
# 5 -14.1361 -14.8493 -5.7649 0.0002 29.6307 -0.0001
# 6 0.0000 0.0001 0.0002 -2.0669 -0.0001 30.5066
#
#
#
# Elastic Compliance Matrix: (Units=1/GPa)
#
#
# Indices 1 2 3 4 5 6 
#
# 1 0.020827 -0.008204 -0.016464 0.000000 0.002621 0.000000
# 2 -0.008204 0.020699 -0.002950 0.000000 0.005886 0.000000
# 3 -0.016464 -0.002950 0.036904 0.000001 -0.002153 0.000000
# 4 0.000000 0.000000 0.000001 0.050386 0.000000 0.003414
# 5 0.002621 0.005886 -0.002153 0.000000 0.037530 0.000000
# 6 0.000000 0.000000 0.000000 0.003414 0.000000 0.033011
#
#
# Mechanical properties :
#
#
# Convention : Reuss Voigt Hill
#
# Bulk Modulus (GPa) = 43.11569 60.47427 51.79498
# Shear Modulus (GPa) = 19.06033 23.05902 21.05968
#
# Velocity S-wave (km/s) = 3.25444 3.57958 3.42087
# Velocity P-wave (km/s) = 6.17092 7.11959 6.66216
#
# Compressibility (1/GPa) = 0.02319341
#
# Stress axis : x y z
#
# Youngs Moduli (GPa) = 48.01489 48.31111 27.09749
#
# Poissons Ratio (x) = 0.39633 0.44614
# Poissons Ratio (y) = 0.39390 0.07994
# Poissons Ratio (z) = 0.79054 0.14252
#
# Static dielectric constant tensor:
#      x y z
#    x 3.075270 0.000000 -0.029640 
#    y 0.000000 3.287160 0.000000 
#    z -0.029640 0.000000 3.192010 
# 
# 
# High freq. dielectric constant tensor:
#      x y z
#    x 1.678410 0.000000 -0.004750 
#    y 0.000000 1.698900 0.000000 
#    z -0.004750 0.000000 1.676620 
# 
# From -- ./inp_files/16702.got.cif
#   From: 2010.03.12/outbox.cif.g09.slc.cpg/sg8_9_cif.got.tgz:16702.got - 2010.03.31 10:45:26.
