data_PCOD8053533
_publ_section_title
;
Structure prediction by ZEFSAII (Michael W. Deem and Ramdas Pophale) SiO2 
 PCOD8053533
Probable space group: C M
;
_chemical_formula_sum "Si O2"
_cell_formula_units_Z 32
_cell_length_a 25.114912
_cell_length_b 8.810320
_cell_length_c 23.911938
_cell_angle_alpha 90.000000
_cell_angle_beta 17.806908
_cell_angle_gamma 90.000000
_cell_volume 1618.042565
_symmetry_space_group_name_H-M "C M"
_symmetry_group_IT_number 8
_symmetry_cell_setting 'monoclinic'
loop_
_space_group_symop_operation_xyz
x,y,z
x,-y,z
1/2+x,1/2+y,z
1/2+x,1/2-y,z
loop_
_atom_site_type_symbol
_atom_site_label
_atom_site_fract_x
_atom_site_fract_y
_atom_site_fract_z
Si Si1 0.360780 0.328084 0.706840
Si Si2 0.459752 0.173879 0.716557
Si Si3 0.352670 0.326117 0.323620
Si Si4 0.348681 0.319250 0.594170
Si Si5 0.656208 0.319310 0.209396
Si Si6 0.951618 0.328087 0.115987
Si Si7 0.463777 0.180749 0.979061
Si Si8 0.156206 0.322090 0.088289
O O1 0.429706 0.500000 0.645252
O O2 0.457661 0.220133 0.653624
O O3 0.402348 0.266596 0.602945
O O4 0.156195 0.322853 0.923283
O O5 0.656223 0.194813 0.543029
O O6 0.330065 0.278358 0.881298
O O7 0.399556 0.000000 0.782689
O O8 0.412869 0.500000 0.269340
O O9 0.354668 0.279823 0.256602
O O10 0.482395 0.221647 0.228939
O O11 0.344467 0.500000 0.598455
O O12 0.485961 0.256536 0.411887
O O13 0.156232 0.256761 0.771028
O O14 0.656195 0.500000 0.208652
O O15 0.656158 0.260510 0.147216
O O16 0.826510 0.256546 0.071315
O O17 0.882685 0.500000 0.192247
O O18 0.910068 0.266596 0.095208
O O19 0.468003 0.000000 0.974908
O O20 0.156202 0.500000 0.098004
#
# Coordination Sequence:
#
# PCOD8053533 Si02
#       8
#     4   4   4   4   4   4   4   4
#     4   9  17  32  57  89 123 156 192 238 290 347
#     4  11  24  40  60  88 120 157 199 246 303 362
#     4  11  24  40  60  88 120 157 199 246 303 362
#     4   8  16  31  53  85 119 150 191 236 282 343
#     4  10  20  36  60  84 112 158 203 242 287 348
#     4   9  17  32  57  89 123 156 192 238 290 347
#     4   8  16  31  53  85 119 150 191 236 282 343
#     4  12  26  44  62  84 118 160 205 256 303 354
#
# _framework density 19.776983000000001
#
# number of rings (size 3 to 8) (size 9 to 14) (size 15 to 20)
#    0.000    2.250    1.250    3.375    1.750    3.000 
#    0.000    3.750    0.000    1.500    0.000    0.000 
#    0.000    0.000    0.000    0.000    0.000    0.000 
#
# Total GULP energy -198389.190275 kJ/mol
# GULP energy per Si atom -12399.324392 kJ/mol
# Density = 1.973197 g / cm^3
# Si number density = 19.776983 Si / 1000 Ang^3
#
#
#
# Elastic Constant Matrix: (Units=GPa)
#
#
# Indices 1 2 3 4 5 6 
#
# 1 111.8436 2.7404 59.3873 0.0158 9.0536 -0.0026
# 2 2.7404 25.2326 13.2755 0.0302 -3.0196 -0.0056
# 3 59.3873 13.2755 104.8433 0.0613 -6.9356 -0.0170
# 4 0.0158 0.0302 0.0613 19.3276 -0.0178 3.0271
# 5 9.0536 -3.0196 -6.9356 -0.0178 14.9224 0.0035
# 6 -0.0026 -0.0056 -0.0170 3.0271 0.0035 29.9822
#
#
#
# Elastic Compliance Matrix: (Units=1/GPa)
#
#
# Indices 1 2 3 4 5 6 
#
# 1 0.015106 0.001858 -0.009670 0.000004 -0.013283 -0.000003
# 2 0.001858 0.043268 -0.006217 -0.000046 0.004738 0.000009
# 3 -0.009670 -0.006217 0.016619 -0.000025 0.012333 0.000008
# 4 0.000004 -0.000046 -0.000025 0.052571 0.000041 -0.005308
# 5 -0.013283 0.004738 0.012333 0.000041 0.081763 -0.000007
# 6 -0.000003 0.000009 0.000008 -0.005308 -0.000007 0.033889
#
#
# Mechanical properties :
#
#
# Convention : Reuss Voigt Hill
#
# Bulk Modulus (GPa) = 21.30743 43.63621 32.47182
# Shear Modulus (GPa) = 17.42648 23.94754 20.68701
#
# Velocity S-wave (km/s) = 2.97164 3.48354 3.23772
# Velocity P-wave (km/s) = 4.75094 6.18806 5.51650
#
# Compressibility (1/GPa) = 0.04693198
#
# Stress axis : x y z
#
# Youngs Moduli (GPa) = 66.20054 23.11190 60.17268
#
# Poissons Ratio (x) = -0.04293 0.58189
# Poissons Ratio (y) = -0.12298 0.37412
# Poissons Ratio (z) = 0.64018 0.14370
#
# Static dielectric constant tensor:
#      x y z
#    x 3.670890 0.000000 -0.043910 
#    y 0.000000 3.278590 0.000010 
#    z -0.043910 0.000010 3.825790 
# 
# 
# High freq. dielectric constant tensor:
#      x y z
#    x 1.771370 0.000000 -0.002440 
#    y 0.000000 1.735630 0.000000 
#    z -0.002440 0.000000 1.779990 
# 
# From -- ./inp_files/32371.got.cif
#   From: 2010.03.12/outbox.cif.g09.slc.cpg/sg8_17_cif.got.tgz:32371.got - 2010.03.31 10:45:26.
