data_PCOD8053482
_publ_section_title
;
Structure prediction by ZEFSAII (Michael W. Deem and Ramdas Pophale) SiO2 
 PCOD8053482
Probable space group: C M
;
_chemical_formula_sum "Si O2"
_cell_formula_units_Z 32
_cell_length_a 32.510536
_cell_length_b 8.926585
_cell_length_c 12.352266
_cell_angle_alpha 90.000000
_cell_angle_beta 26.510582
_cell_angle_gamma 90.000000
_cell_volume 1600.089911
_symmetry_space_group_name_H-M "C M"
_symmetry_group_IT_number 8
_symmetry_cell_setting 'monoclinic'
loop_
_space_group_symop_operation_xyz
x,y,z
x,-y,z
1/2+x,1/2+y,z
1/2+x,1/2-y,z
loop_
_atom_site_type_symbol
_atom_site_label
_atom_site_fract_x
_atom_site_fract_y
_atom_site_fract_z
Si Si1 0.141550 0.675942 0.654220
Si Si2 0.817487 0.176042 0.848276
Si Si3 0.963501 0.824942 0.032177
Si Si4 0.760023 0.825494 0.581055
Si Si5 0.513543 0.325489 0.479335
Si Si6 0.708585 0.675477 0.919822
Si Si7 0.249152 0.171871 0.216697
Si Si8 0.950646 0.671760 0.835202
O O1 0.139649 0.500000 0.641674
O O2 0.209770 0.722728 0.589236
O O3 0.171029 0.750588 0.471959
O O4 0.040226 0.737855 0.921477
O O5 0.924850 0.217224 0.614813
O O6 0.786230 0.240354 0.806703
O O7 0.801699 0.000000 0.886931
O O8 0.752918 0.248791 0.091764
O O9 0.866985 0.786840 0.315374
O O10 0.984064 0.000000 0.986066
O O11 0.967851 0.771370 0.898873
O O12 0.717974 0.725772 0.774431
O O13 0.743950 0.000000 0.644613
O O14 0.510423 0.500000 0.517106
O O15 0.514236 0.231550 0.588338
O O16 0.605384 0.281359 0.198768
O O17 0.726355 0.500000 0.888414
O O18 0.222403 0.000000 0.260554
O O19 0.344860 0.190474 0.052752
O O20 0.976364 0.500000 0.799074
#
# Coordination Sequence:
#
# PCOD8053482 Si02
#       8
#     4   4   4   4   4   4   4   4
#     4  11  23  40  62  91 122 159 206 253 306 366
#     4  10  21  39  62  88 122 162 204 249 302 365
#     4  11  23  40  62  89 122 162 203 251 309 368
#     4  10  24  45  64  85 121 164 206 251 305 367
#     4   9  21  40  60  86 121 162 201 244 304 365
#     4  11  24  41  64  90 120 160 207 256 304 362
#     4  10  20  36  60  91 127 162 200 251 308 364
#     4  10  20  35  60  92 125 159 201 251 302 361
#
# _framework density 19.998875000000002
#
# number of rings (size 3 to 8) (size 9 to 14) (size 15 to 20)
#    0.000    1.750    1.250    2.250    1.750    5.500 
#    0.000    3.750    0.000    0.000    0.000    0.000 
#    0.000    0.000    0.000    0.000    0.000    0.000 
#
# Total GULP energy -198491.334142 kJ/mol
# GULP energy per Si atom -12405.708384 kJ/mol
# Density = 1.995336 g / cm^3
# Si number density = 19.998875 Si / 1000 Ang^3
#
#
#
# Elastic Constant Matrix: (Units=GPa)
#
#
# Indices 1 2 3 4 5 6 
#
# 1 52.5347 36.1623 30.3740 0.0000 8.0305 0.0000
# 2 36.1623 85.4009 41.5934 0.0000 7.1035 0.0000
# 3 30.3740 41.5934 100.4823 0.0000 10.0841 0.0000
# 4 0.0000 0.0000 0.0000 34.8438 0.0000 2.8937
# 5 8.0305 7.1035 10.0841 0.0000 26.3186 0.0000
# 6 0.0000 0.0000 0.0000 2.8937 0.0000 37.7212
#
#
#
# Elastic Compliance Matrix: (Units=1/GPa)
#
#
# Indices 1 2 3 4 5 6 
#
# 1 0.028930 -0.009813 -0.004225 0.000000 -0.004560 0.000000
# 2 -0.009813 0.018068 -0.004497 0.000000 -0.000159 0.000000
# 3 -0.004225 -0.004497 0.013353 0.000000 -0.002613 0.000000
# 4 0.000000 0.000000 0.000000 0.028884 0.000000 -0.002216
# 5 -0.004560 -0.000159 -0.002613 0.000000 0.040432 0.000000
# 6 0.000000 0.000000 0.000000 -0.002216 0.000000 0.026680
#
#
# Mechanical properties :
#
#
# Convention : Reuss Voigt Hill
#
# Bulk Modulus (GPa) = 42.95432 50.51970 46.73701
# Shear Modulus (GPa) = 24.85381 28.46259 26.65820
#
# Velocity S-wave (km/s) = 3.52911 3.77664 3.65497
# Velocity P-wave (km/s) = 6.17504 6.65834 6.42124
#
# Compressibility (1/GPa) = 0.02328055
#
# Stress axis : x y z
#
# Youngs Moduli (GPa) = 34.56651 55.34641 74.89005
#
# Poissons Ratio (x) = 0.54311 0.31644
# Poissons Ratio (y) = 0.33920 0.33676
# Poissons Ratio (z) = 0.14606 0.24888
#
# Static dielectric constant tensor:
#      x y z
#    x 3.616900 0.000000 -0.160950 
#    y 0.000000 3.679200 0.000000 
#    z -0.160950 0.000000 3.718280 
# 
# 
# High freq. dielectric constant tensor:
#      x y z
#    x 1.780610 0.000000 -0.009350 
#    y 0.000000 1.788270 0.000000 
#    z -0.009350 0.000000 1.783860 
# 
# From -- ./inp_files/24820.got.cif
#   From: 2010.03.12/outbox.cif.g09.slc.cpg/sg8_13_cif.got.tgz:24820.got - 2010.03.31 10:45:26.
