data_PCOD8053962
_publ_section_title
;
Structure prediction by ZEFSAII (Michael W. Deem and Ramdas Pophale) SiO2 
 PCOD8053962
Probable space group: C M
;
_chemical_formula_sum "Si O2"
_cell_formula_units_Z 22
_cell_length_a 10.067612
_cell_length_b 9.635760
_cell_length_c 12.601969
_cell_angle_alpha 90.000000
_cell_angle_beta 76.674620
_cell_angle_gamma 90.000000
_cell_volume 1189.591910
_symmetry_space_group_name_H-M "C M"
_symmetry_group_IT_number 8
_symmetry_cell_setting 'monoclinic'
loop_
_space_group_symop_operation_xyz
x,y,z
x,-y,z
1/2+x,1/2+y,z
1/2+x,1/2-y,z
loop_
_atom_site_type_symbol
_atom_site_label
_atom_site_fract_x
_atom_site_fract_y
_atom_site_fract_z
Si Si1 0.322170 0.335429 0.612110
Si Si2 0.613368 0.249131 0.475849
Si Si3 0.967391 0.500000 0.141748
Si Si4 0.564672 0.000000 0.345878
Si Si5 0.509525 0.152447 0.933287
Si Si6 0.760753 0.663443 0.829808
Si Si7 0.770858 0.500000 0.356793
O O1 0.323675 0.500000 0.635888
O O2 0.457791 0.290101 0.525966
O O3 0.188002 0.294383 0.570464
O O4 0.318426 0.246580 0.719486
O O5 0.633911 0.130856 0.385803
O O6 0.681568 0.370465 0.400043
O O7 0.817375 0.500000 0.224169
O O8 0.082104 0.500000 0.214166
O O9 0.984453 0.637458 0.065003
O O10 0.404517 0.000000 0.406816
O O11 0.615410 0.274100 0.890531
O O12 0.365795 0.189108 0.905792
O O13 0.560595 0.000000 0.880260
O O14 0.742554 0.500000 0.806454
#
# Coordination Sequence:
#
# PCOD8053962 Si02
#       7
#     4   4   2   2   4   4   2
#     4  12  25  38  61  94 126 174 203 248 309 376
#     4  12  23  40  64  93 131 163 207 253 304 372
#     4   8  20  44  67  85 123 169 201 259 323 349
#     4  10  22  41  62  92 126 160 203 262 302 363
#     4   9  21  43  62  89 123 162 202 263 303 368
#     4  11  24  39  64  92 127 160 211 254 313 367
#     4  10  22  41  63  93 125 159 208 255 305 368
#
# _framework density 18.493735999999998
#
# number of rings (size 3 to 8) (size 9 to 14) (size 15 to 20)
#    1.091    0.364    3.636    1.636    2.545    5.818 
#    0.000    0.000    2.000    0.000    0.000    0.000 
#    0.000    0.000    0.000    0.000    0.000    0.000 
#
# Total GULP energy -136317.161199 kJ/mol
# GULP energy per Si atom -12392.469200 kJ/mol
# Density = 1.845164 g / cm^3
# Si number density = 18.493736 Si / 1000 Ang^3
#
#
#
# Elastic Constant Matrix: (Units=GPa)
#
#
# Indices 1 2 3 4 5 6 
#
# 1 75.3772 37.8562 12.8705 0.0000 9.4096 0.0000
# 2 37.8562 145.1353 46.4785 0.0000 1.5101 0.0000
# 3 12.8705 46.4785 97.5118 0.0000 8.6613 0.0000
# 4 0.0000 0.0000 0.0000 44.8664 0.0000 -4.5148
# 5 9.4096 1.5101 8.6613 0.0000 25.8694 0.0000
# 6 0.0000 0.0000 0.0000 -4.5148 0.0000 33.1642
#
#
#
# Elastic Compliance Matrix: (Units=1/GPa)
#
#
# Indices 1 2 3 4 5 6 
#
# 1 0.016050 -0.004262 0.000422 0.000000 -0.005731 0.000000
# 2 -0.004262 0.009281 -0.004072 0.000000 0.002372 0.000000
# 3 0.000422 -0.004072 0.012505 0.000000 -0.004102 0.000000
# 4 0.000000 0.000000 0.000000 0.022598 0.000000 0.003076
# 5 -0.005731 0.002372 -0.004102 0.000000 0.041975 0.000000
# 6 0.000000 0.000000 0.000000 0.003076 0.000000 0.030572
#
#
# Mechanical properties :
#
#
# Convention : Reuss Voigt Hill
#
# Bulk Modulus (GPa) = 45.42897 56.93718 51.18308
# Shear Modulus (GPa) = 32.02201 35.50128 33.76164
#
# Velocity S-wave (km/s) = 4.16565 4.38612 4.27731
# Velocity P-wave (km/s) = 6.91048 7.51697 7.22010
#
# Compressibility (1/GPa) = 0.02201239
#
# Stress axis : x y z
#
# Youngs Moduli (GPa) = 62.30370 107.74561 79.96976
#
# Poissons Ratio (x) = 0.45921 -0.03375
# Poissons Ratio (y) = 0.26554 0.32563
# Poissons Ratio (z) = -0.02629 0.43873
#
# Static dielectric constant tensor:
#      x y z
#    x 3.406550 0.000000 0.075130 
#    y 0.000000 3.427320 0.000000 
#    z 0.075130 0.000000 3.323100 
# 
# 
# High freq. dielectric constant tensor:
#      x y z
#    x 1.719920 0.000000 0.006240 
#    y 0.000000 1.725170 0.000000 
#    z 0.006240 0.000000 1.713630 
# 
# From -- ./inp_files/19749.got.cif
#   From: 2010.03.12/outbox.cif.g09.slc.cpg/sg8_10_cif.got.tgz:19749.got - 2010.03.31 10:45:26.
