data_PCOD8053866
_publ_section_title
;
Structure prediction by ZEFSAII (Michael W. Deem and Ramdas Pophale) SiO2 
 PCOD8053866
Probable space group: C M
;
_chemical_formula_sum "Si O2"
_cell_formula_units_Z 24
_cell_length_a 18.639047
_cell_length_b 8.545258
_cell_length_c 11.903239
_cell_angle_alpha 90.000000
_cell_angle_beta 140.894401
_cell_angle_gamma 90.000000
_cell_volume 1195.838208
_symmetry_space_group_name_H-M "C M"
_symmetry_group_IT_number 8
_symmetry_cell_setting 'monoclinic'
loop_
_space_group_symop_operation_xyz
x,y,z
x,-y,z
1/2+x,1/2+y,z
1/2+x,1/2-y,z
loop_
_atom_site_type_symbol
_atom_site_label
_atom_site_fract_x
_atom_site_fract_y
_atom_site_fract_z
Si Si1 0.510570 0.179589 0.588270
Si Si2 0.913174 0.819789 0.902434
Si Si3 0.652159 0.819123 0.215976
Si Si4 0.849286 0.318579 0.591153
Si Si5 0.249063 0.181367 0.881915
Si Si6 0.789761 0.319046 0.185341
O O1 0.454882 0.227417 0.639716
O O2 0.616958 0.290880 0.693832
O O3 0.420166 0.208786 0.379158
O O4 0.551399 0.000000 0.639660
O O5 0.882114 0.714131 0.758228
O O6 0.825031 0.786792 0.894086
O O7 0.905713 0.000000 0.858069
O O8 0.038692 0.780087 0.098130
O O9 0.738567 0.779335 0.421472
O O10 0.705750 0.782027 0.159913
O O11 0.619586 0.000000 0.181708
O O12 0.819555 0.500000 0.537482
O O13 0.279051 0.000000 0.900176
O O14 0.275129 0.235970 0.040181
O O15 0.755866 0.500000 0.160478
#
# Coordination Sequence:
#
# PCOD8053866 Si02
#       6
#     4   4   4   4   4   4
#     4   9  19  37  60  85 113 146 186 236 290 343
#     4  12  25  40  58  83 119 159 198 240 290 346
#     4  11  22  38  62  90 119 152 193 239 290 346
#     4  10  21  40  64  89 117 150 194 243 290 343
#     4  11  23  38  57  83 116 153 194 239 289 344
#     4   9  20  39  61  84 114 152 193 237 285 340
#
# _framework density 20.069604999999999
#
# number of rings (size 3 to 8) (size 9 to 14) (size 15 to 20)
#    0.000    1.667    0.000    6.000    0.000    8.667 
#    0.000    5.000    0.000    0.000    0.000    0.000 
#    0.000    0.000    0.000    0.000    0.000    0.000 
#
# Total GULP energy -148881.405631 kJ/mol
# GULP energy per Si atom -12406.783803 kJ/mol
# Density = 2.002393 g / cm^3
# Si number density = 20.069605 Si / 1000 Ang^3
#
#
#
# Elastic Constant Matrix: (Units=GPa)
#
#
# Indices 1 2 3 4 5 6 
#
# 1 90.5358 21.5170 44.2087 0.0000 19.0249 0.0000
# 2 21.5170 62.9191 15.8219 0.0000 3.2440 0.0000
# 3 44.2087 15.8219 84.2732 0.0000 17.2220 0.0000
# 4 0.0000 0.0000 0.0000 16.0344 0.0000 20.3930
# 5 19.0249 3.2440 17.2220 0.0000 16.6471 0.0000
# 6 0.0000 0.0000 0.0000 20.3930 0.0000 16.2740
#
#
#
# Elastic Compliance Matrix: (Units=1/GPa)
#
#
# Indices 1 2 3 4 5 6 
#
# 1 0.017596 -0.003877 -0.005767 0.000000 -0.013388 0.000000
# 2 -0.003877 0.017535 -0.001858 0.000000 0.002936 0.000000
# 3 -0.005767 -0.001858 0.017524 0.000000 -0.011177 0.000000
# 4 0.000000 0.000000 0.000000 -0.105040 0.000000 0.131626
# 5 -0.013388 0.002936 -0.011177 0.000000 0.086361 0.000000
# 6 0.000000 0.000000 0.000000 0.131626 0.000000 -0.103493
#
#
# Mechanical properties :
#
#
# Convention : Reuss Voigt Hill
#
# Bulk Modulus (GPa) = 33.72558 44.53594 39.13076
# Shear Modulus (GPa) = -136.50890 20.20313 -58.15288
#
# Velocity S-wave (km/s) = -8.25623 3.17622 -5.38874
# Velocity P-wave (km/s) = 8.60502 5.97412 4.37929
#
# Compressibility (1/GPa) = 0.02965108
#
# Stress axis : x y z
#
# Youngs Moduli (GPa) = 56.83104 57.02812 57.06331
#
# Poissons Ratio (x) = 0.22110 0.32908
# Poissons Ratio (y) = 0.22034 0.10604
# Poissons Ratio (z) = 0.32774 0.10598
#
# Static dielectric constant tensor:
#      x y z
#    x 3.541020 0.000000 0.021170 
#    y 0.000000 3.868390 0.000000 
#    z 0.021170 0.000000 3.680210 
# 
# 
# High freq. dielectric constant tensor:
#      x y z
#    x 1.776700 0.000000 0.003530 
#    y 0.000000 1.785380 0.000000 
#    z 0.003530 0.000000 1.793180 
# 
# From -- ./inp_files/23643.got.cif
#   From: 2010.03.12/outbox.cif.g09.slc.cpg/sg8_12_cif.got.tgz:23643.got - 2010.03.31 10:45:26.
