data_PCOD8053799
_publ_section_title
;
Structure prediction by ZEFSAII (Michael W. Deem and Ramdas Pophale) SiO2 
 PCOD8053799
Probable space group: C M
;
_chemical_formula_sum "Si O2"
_cell_formula_units_Z 32
_cell_length_a 12.480465
_cell_length_b 13.340487
_cell_length_c 9.040805
_cell_angle_alpha 90.000000
_cell_angle_beta 93.724937
_cell_angle_gamma 90.000000
_cell_volume 1502.073236
_symmetry_space_group_name_H-M "C M"
_symmetry_group_IT_number 8
_symmetry_cell_setting 'monoclinic'
loop_
_space_group_symop_operation_xyz
x,y,z
x,-y,z
1/2+x,1/2+y,z
1/2+x,1/2-y,z
loop_
_atom_site_type_symbol
_atom_site_label
_atom_site_fract_x
_atom_site_fract_y
_atom_site_fract_z
Si Si1 0.888410 0.109519 0.041870
Si Si2 0.020182 0.389250 0.394972
Si Si3 0.665770 0.382941 0.350384
Si Si4 0.933919 0.815415 0.354629
Si Si5 0.137031 0.113762 0.018402
Si Si6 0.247798 0.381875 0.542020
Si Si7 0.761230 0.752545 0.819673
Si Si8 0.840687 0.611709 0.596215
O O1 0.879465 0.125489 0.216589
O O2 0.009784 0.112726 0.001145
O O3 0.838969 0.000000 0.003086
O O4 0.823326 0.194654 0.955996
O O5 0.004873 0.500000 0.318114
O O6 0.958440 0.300028 0.303347
O O7 0.962904 0.391071 0.550185
O O8 0.146077 0.364402 0.424531
O O9 0.683530 0.500000 0.339643
O O10 0.549284 0.360916 0.410736
O O11 0.675156 0.341945 0.182028
O O12 0.758729 0.338529 0.465800
O O13 0.854678 0.827429 0.487737
O O14 0.180631 0.000000 0.997810
O O15 0.168699 0.187088 0.887762
O O16 0.270008 0.500000 0.564157
O O17 0.218104 0.334358 0.698562
O O18 0.840794 0.676045 0.744545
O O19 0.799557 0.500000 0.629084
#
# Coordination Sequence:
#
# PCOD8053799 Si02
#       8
#     4   4   4   4   4   4   4   4
#     4  10  24  43  62  89 126 162 203 255 304 360
#     4  10  23  40  60  88 126 159 200 256 305 358
#     4   9  19  38  66  94 119 154 210 267 306 353
#     4  11  21  40  69  91 119 162 210 253 311 365
#     4   9  21  41  63  89 121 160 206 256 307 364
#     4  11  24  41  62  91 126 163 208 256 306 367
#     4  12  23  35  62  90 125 162 203 245 310 369
#     4  10  21  38  60  90 124 160 204 256 305 358
#
# _framework density 21.303888000000001
#
# number of rings (size 3 to 8) (size 9 to 14) (size 15 to 20)
#    0.000    1.750    1.250    3.375    3.500    2.000 
#    0.000    1.875    0.000    3.000    0.000    0.000 
#    0.000    0.000    0.000    0.000    0.000    0.000 
#
# Total GULP energy -198313.983703 kJ/mol
# GULP energy per Si atom -12394.623981 kJ/mol
# Density = 2.125540 g / cm^3
# Si number density = 21.303888 Si / 1000 Ang^3
#
#
#
# Elastic Constant Matrix: (Units=GPa)
#
#
# Indices 1 2 3 4 5 6 
#
# 1 75.6515 29.0801 28.9355 0.0000 -7.8881 0.0000
# 2 29.0801 96.1901 31.6241 0.0000 -1.4825 0.0000
# 3 28.9355 31.6241 60.3598 0.0000 -16.6653 0.0000
# 4 0.0000 0.0000 0.0000 40.9873 0.0000 0.1852
# 5 -7.8881 -1.4825 -16.6653 0.0000 23.7115 0.0000
# 6 0.0000 0.0000 0.0000 0.1852 0.0000 33.0542
#
#
#
# Elastic Compliance Matrix: (Units=1/GPa)
#
#
# Indices 1 2 3 4 5 6 
#
# 1 0.016871 -0.003047 -0.006197 0.000000 0.001067 0.000000
# 2 -0.003047 0.013559 -0.007059 0.000000 -0.005127 0.000000
# 3 -0.006197 -0.007059 0.027974 0.000000 0.017158 0.000000
# 4 0.000000 0.000000 0.000000 0.024398 0.000000 -0.000137
# 5 0.001067 -0.005127 0.017158 0.000000 0.054267 0.000000
# 6 0.000000 0.000000 0.000000 -0.000137 0.000000 0.030254
#
#
# Mechanical properties :
#
#
# Convention : Reuss Voigt Hill
#
# Bulk Modulus (GPa) = 38.76188 45.72010 42.24099
# Shear Modulus (GPa) = 23.97752 29.05469 26.51611
#
# Velocity S-wave (km/s) = 3.35849 3.69700 3.53180
# Velocity P-wave (km/s) = 5.76832 6.30327 6.04172
#
# Compressibility (1/GPa) = 0.02579854
#
# Stress axis : x y z
#
# Youngs Moduli (GPa) = 59.27288 73.75246 35.74764
#
# Poissons Ratio (x) = 0.22470 0.22153
# Poissons Ratio (y) = 0.18058 0.25234
# Poissons Ratio (z) = 0.36732 0.52062
#
# Static dielectric constant tensor:
#      x y z
#    x 3.723480 0.000000 -0.032890 
#    y 0.000000 4.254730 0.000000 
#    z -0.032890 0.000000 3.673010 
# 
# 
# High freq. dielectric constant tensor:
#      x y z
#    x 1.825860 0.000000 -0.010360 
#    y 0.000000 1.863490 0.000000 
#    z -0.010360 0.000000 1.804770 
# 
# From -- ./inp_files/10741.got.cif
#   From: 2010.03.12/outbox.cif.g09.slc.cpg/sg8_6_cif.got.tgz:10741.got - 2010.03.31 10:45:26.
