data_PCOD8053342
_publ_section_title
;
Structure prediction by ZEFSAII (Michael W. Deem and Ramdas Pophale) SiO2 
 PCOD8053342
Probable space group: C M
;
_chemical_formula_sum "Si O2"
_cell_formula_units_Z 32
_cell_length_a 14.613108
_cell_length_b 9.424330
_cell_length_c 12.086862
_cell_angle_alpha 90.000000
_cell_angle_beta 89.336006
_cell_angle_gamma 90.000000
_cell_volume 1664.475774
_symmetry_space_group_name_H-M "C M"
_symmetry_group_IT_number 8
_symmetry_cell_setting 'monoclinic'
loop_
_space_group_symop_operation_xyz
x,y,z
x,-y,z
1/2+x,1/2+y,z
1/2+x,1/2-y,z
loop_
_atom_site_type_symbol
_atom_site_label
_atom_site_fract_x
_atom_site_fract_y
_atom_site_fract_z
Si Si1 0.170480 0.167309 0.265430
Si Si2 0.482226 0.166676 0.652433
Si Si3 0.533707 0.165415 0.402586
Si Si4 0.150419 0.658468 0.058150
Si Si5 0.339449 0.667991 0.782467
Si Si6 0.880146 0.664289 0.230554
Si Si7 0.135763 0.668328 0.817388
Si Si8 0.366762 0.656651 0.025659
O O1 0.122081 0.240985 0.370614
O O2 0.124107 0.233081 0.155778
O O3 0.277745 0.206184 0.269550
O O4 0.153094 0.000000 0.267487
O O5 0.507888 0.204059 0.527384
O O6 0.390296 0.250057 0.683675
O O7 0.562529 0.225040 0.730668
O O8 0.465517 0.000000 0.669067
O O9 0.447879 0.208774 0.327548
O O10 0.558582 0.000000 0.389421
O O11 0.113830 0.500000 0.088919
O O12 0.258351 0.651825 0.040526
O O13 0.107884 0.715771 0.942847
O O14 0.344108 0.500000 0.761457
O O15 0.235526 0.725920 0.781622
O O16 0.386795 0.707343 0.899826
O O17 0.885372 0.500000 0.203154
O O18 0.910916 0.740203 0.116308
O O19 0.141278 0.500000 0.817169
O O20 0.407641 0.500000 0.044929
#
# Coordination Sequence:
#
# PCOD8053342 Si02
#       8
#     4   4   4   4   4   4   4   4
#     4  10  20  34  53  77 103 130 165 210 253 293
#     4  10  21  36  53  74  99 131 175 214 242 289
#     4  10  22  38  52  70 100 137 174 208 246 296
#     4   8  14  29  53  77 102 132 163 196 245 307
#     4   9  18  34  54  76 104 133 161 202 255 300
#     4   9  19  35  53  74 103 135 164 203 254 298
#     4   8  16  33  55  76 101 134 166 199 246 303
#     4   8  15  29  51  78 104 130 162 200 245 302
#
# _framework density 19.225272
#
# number of rings (size 3 to 8) (size 9 to 14) (size 15 to 20)
#    0.000    3.000    0.000    1.875    0.000    4.000 
#    0.000    6.875    0.000    0.000    0.000    0.000 
#    0.000    0.000    0.000    0.000    0.000    0.000 
#
# Total GULP energy -198367.787417 kJ/mol
# GULP energy per Si atom -12397.986714 kJ/mol
# Density = 1.918151 g / cm^3
# Si number density = 19.225272 Si / 1000 Ang^3
#
#
#
# Elastic Constant Matrix: (Units=GPa)
#
#
# Indices 1 2 3 4 5 6 
#
# 1 44.8895 16.5265 17.9028 0.0000 -4.4488 0.0000
# 2 16.5265 49.2887 27.9257 0.0000 -10.1294 0.0000
# 3 17.9028 27.9257 92.6334 0.0000 -6.6892 0.0000
# 4 0.0000 0.0000 0.0000 31.5239 0.0000 -8.0922
# 5 -4.4488 -10.1294 -6.6892 0.0000 34.1053 0.0000
# 6 0.0000 0.0000 0.0000 -8.0922 0.0000 22.2800
#
#
#
# Elastic Compliance Matrix: (Units=1/GPa)
#
#
# Indices 1 2 3 4 5 6 
#
# 1 0.026061 -0.006944 -0.002888 0.000000 0.000771 0.000000
# 2 -0.006944 0.027549 -0.006530 0.000000 0.005996 0.000000
# 3 -0.002888 -0.006530 0.013344 0.000000 0.000301 0.000000
# 4 0.000000 0.000000 0.000000 0.034984 0.000000 0.012706
# 5 0.000771 0.005996 0.000301 0.000000 0.031261 0.000000
# 6 0.000000 0.000000 0.000000 0.012706 0.000000 0.049498
#
#
# Mechanical properties :
#
#
# Convention : Reuss Voigt Hill
#
# Bulk Modulus (GPa) = 29.21362 34.61351 31.91357
# Shear Modulus (GPa) = 22.04287 25.87894 23.96091
#
# Velocity S-wave (km/s) = 3.38976 3.67289 3.53416
# Velocity P-wave (km/s) = 5.52712 6.00251 5.76971
#
# Compressibility (1/GPa) = 0.03423060
#
# Stress axis : x y z
#
# Youngs Moduli (GPa) = 38.37080 36.29921 74.94190
#
# Poissons Ratio (x) = 0.25206 0.21642
# Poissons Ratio (y) = 0.26644 0.48937
# Poissons Ratio (z) = 0.11081 0.23704
#
# Static dielectric constant tensor:
#      x y z
#    x 3.453900 0.000000 0.088520 
#    y 0.000000 3.333830 0.000000 
#    z 0.088520 0.000000 3.667530 
# 
# 
# High freq. dielectric constant tensor:
#      x y z
#    x 1.742040 0.000000 -0.002370 
#    y 0.000000 1.726890 0.000000 
#    z -0.002370 0.000000 1.748670 
# 
# From -- ./inp_files/21550.got.cif
#   From: 2010.03.12/outbox.cif.g09.slc.cpg/sg8_11_cif.got.tgz:21550.got - 2010.03.31 10:45:26.
