data_PCOD8053667
_publ_section_title
;
Structure prediction by ZEFSAII (Michael W. Deem and Ramdas Pophale) SiO2 
 PCOD8053667
Probable space group: C M
;
_chemical_formula_sum "Si O2"
_cell_formula_units_Z 28
_cell_length_a 8.787341
_cell_length_b 32.056924
_cell_length_c 5.060754
_cell_angle_alpha 90.000000
_cell_angle_beta 115.614353
_cell_angle_gamma 90.000000
_cell_volume 1285.488830
_symmetry_space_group_name_H-M "C M"
_symmetry_group_IT_number 8
_symmetry_cell_setting 'monoclinic'
loop_
_space_group_symop_operation_xyz
x,y,z
x,-y,z
1/2+x,1/2+y,z
1/2+x,1/2-y,z
loop_
_atom_site_type_symbol
_atom_site_label
_atom_site_fract_x
_atom_site_fract_y
_atom_site_fract_z
Si Si1 0.903890 0.228797 0.544440
Si Si2 0.139471 0.000000 0.989780
Si Si3 0.049140 0.582275 0.673125
Si Si4 0.359320 0.000000 0.635821
Si Si5 0.938833 0.863862 0.470475
Si Si6 0.521306 0.775297 0.156761
Si Si7 0.948563 0.084674 0.964536
Si Si8 0.539164 0.131595 0.160814
O O1 0.703990 0.224974 0.439087
O O2 0.994434 0.184310 0.548577
O O3 0.899561 0.252762 0.266142
O O4 0.000523 0.252835 0.854698
O O5 0.031816 0.960220 0.997648
O O6 0.302718 0.000000 0.291359
O O7 0.204980 0.000000 0.733898
O O8 0.975323 0.598772 0.337307
O O9 0.975815 0.540257 0.742211
O O10 0.249396 0.576997 0.811360
O O11 0.989345 0.616728 0.834431
O O12 0.005475 0.887991 0.260694
O O13 0.738713 0.864853 0.334681
O O14 0.017045 0.888764 0.772097
O O15 0.456351 0.822860 0.106618
#
# Coordination Sequence:
#
# PCOD8053667 Si02
#       8
#     4   2   4   2   4   4   4   4
#     4  11  22  39  61  89 123 159 199 248 301 355
#     4  12  25  40  57  86 124 152 178 236 309 356
#     4  10  20  39  63  84 107 151 204 240 277 345
#     4  12  25  40  57  86 124 152 178 236 309 356
#     4   9  19  36  61  86 112 149 199 248 285 332
#     4  11  22  39  61  89 123 159 199 248 301 355
#     4  10  20  39  63  84 107 151 204 240 277 345
#     4   9  19  36  61  86 112 149 199 248 285 332
#
# _framework density 21.781599
#
# number of rings (size 3 to 8) (size 9 to 14) (size 15 to 20)
#    0.000    1.714    0.000    4.714    0.000    4.571 
#    0.000   20.000    0.000    0.000    0.000    0.000 
#    0.000    0.000    0.000    0.000    0.000    0.000 
#
# Total GULP energy -173471.785482 kJ/mol
# GULP energy per Si atom -12390.841820 kJ/mol
# Density = 2.173202 g / cm^3
# Si number density = 21.781599 Si / 1000 Ang^3
#
#
#
# Elastic Constant Matrix: (Units=GPa)
#
#
# Indices 1 2 3 4 5 6 
#
# 1 39.2402 24.0691 21.8443 0.0000 -13.6544 0.0000
# 2 24.0691 115.6728 14.3909 0.0000 2.1088 0.0000
# 3 21.8443 14.3909 100.7228 0.0000 -17.7493 0.0000
# 4 0.0000 0.0000 0.0000 47.0770 0.0000 -7.8342
# 5 -13.6544 2.1088 -17.7493 0.0000 28.4848 0.0000
# 6 0.0000 0.0000 0.0000 -7.8342 0.0000 30.0891
#
#
#
# Elastic Compliance Matrix: (Units=1/GPa)
#
#
# Indices 1 2 3 4 5 6 
#
# 1 0.038279 -0.007721 -0.004341 0.000000 0.016216 0.000000
# 2 -0.007721 0.010425 -0.000678 0.000000 -0.004895 0.000000
# 3 -0.004341 -0.000678 0.011917 0.000000 0.005395 0.000000
# 4 0.000000 0.000000 0.000000 0.022204 0.000000 0.005781
# 5 0.016216 -0.004895 0.005395 0.000000 0.046604 0.000000
# 6 0.000000 0.000000 0.000000 0.005781 0.000000 0.034740
#
#
# Mechanical properties :
#
#
# Convention : Reuss Voigt Hill
#
# Bulk Modulus (GPa) = 28.45554 41.80492 35.13023
# Shear Modulus (GPa) = 24.83091 34.15227 29.49159
#
# Velocity S-wave (km/s) = 3.38004 3.96402 3.68362
# Velocity P-wave (km/s) = 5.32215 6.33922 5.85282
#
# Compressibility (1/GPa) = 0.03514254
#
# Stress axis : x y z
#
# Youngs Moduli (GPa) = 26.12397 95.92212 83.91189
#
# Poissons Ratio (x) = 0.74058 0.36427
# Poissons Ratio (y) = 0.20169 0.05687
# Poissons Ratio (z) = 0.11341 0.06500
#
# Static dielectric constant tensor:
#      x y z
#    x 3.662270 0.000000 -0.231140 
#    y 0.000000 3.860920 0.000000 
#    z -0.231140 0.000000 4.066480 
# 
# 
# High freq. dielectric constant tensor:
#      x y z
#    x 1.837380 0.000000 -0.016520 
#    y 0.000000 1.875500 0.000000 
#    z -0.016520 0.000000 1.861970 
# 
# From -- ./inp_files/1911.got.cif
#   From: 2010.03.12/outbox.cif.g09.slc.cpg/sg8_1_cif.got.tgz:1911.got - 2010.03.31 10:45:26.
