data_PCOD8053294
_publ_section_title
;
Structure prediction by ZEFSAII (Michael W. Deem and Ramdas Pophale) SiO2 
 PCOD8053294
Probable space group: C M
;
_chemical_formula_sum "Si O2"
_cell_formula_units_Z 32
_cell_length_a 24.156205
_cell_length_b 8.797859
_cell_length_c 19.705189
_cell_angle_alpha 90.000000
_cell_angle_beta 157.216054
_cell_angle_gamma 90.000000
_cell_volume 1621.757398
_symmetry_space_group_name_H-M "C M"
_symmetry_group_IT_number 8
_symmetry_cell_setting 'monoclinic'
loop_
_space_group_symop_operation_xyz
x,y,z
x,-y,z
1/2+x,1/2+y,z
1/2+x,1/2-y,z
loop_
_atom_site_type_symbol
_atom_site_label
_atom_site_fract_x
_atom_site_fract_y
_atom_site_fract_z
Si Si1 0.733960 0.319539 0.647040
Si Si2 0.053063 0.819052 0.315663
Si Si3 0.103066 0.819821 0.640514
Si Si4 0.764677 0.328093 0.446530
Si Si5 0.556130 0.822983 0.984965
Si Si6 0.568229 0.830442 0.844248
Si Si7 0.810398 0.679457 0.350128
Si Si8 0.254454 0.176472 0.948776
O O1 0.731944 0.500000 0.643149
O O2 0.627649 0.255556 0.468577
O O3 0.679757 0.259880 0.658933
O O4 0.895503 0.262434 0.816651
O O5 0.134535 0.751779 0.341236
O O6 0.890857 0.768843 0.127687
O O7 0.063746 0.000000 0.328166
O O8 0.943618 0.754002 0.462303
O O9 0.089668 0.000000 0.625777
O O10 0.196507 0.764231 0.810675
O O11 0.721407 0.500000 0.380136
O O12 0.800547 0.249743 0.415185
O O13 0.898026 0.320962 0.647673
O O14 0.606710 0.797027 0.965166
O O15 0.569200 0.000000 0.020028
O O16 0.661482 0.720320 0.147438
O O17 0.620413 0.000000 0.881838
O O18 0.635144 0.705068 0.870797
O O19 0.835848 0.500000 0.378986
O O20 0.292567 0.000000 0.988274
#
# Coordination Sequence:
#
# PCOD8053294 Si02
#       8
#     4   4   4   4   4   4   4   4
#     4   9  19  38  62  84 109 147 195 240 277 330
#     4  10  20  38  63  86 109 147 198 242 280 335
#     4  10  22  40  58  81 116 155 193 233 282 342
#     4   9  18  36  61  85 109 142 193 244 282 329
#     4  10  21  38  63  88 111 147 195 240 283 337
#     4  10  19  38  64  84 107 148 197 239 280 336
#     4  11  23  38  58  86 119 152 187 236 291 341
#     4  11  24  38  55  86 122 152 186 236 291 340
#
# _framework density 19.731680000000001
#
# number of rings (size 3 to 8) (size 9 to 14) (size 15 to 20)
#    0.000    2.000    2.500    0.750    3.500    1.000 
#    0.000    2.500    0.000    0.000    0.000    0.000 
#    0.000    0.000    0.000    0.000    0.000    0.000 
#
# Total GULP energy -198388.052368 kJ/mol
# GULP energy per Si atom -12399.253273 kJ/mol
# Density = 1.968677 g / cm^3
# Si number density = 19.731680 Si / 1000 Ang^3
#
#
#
# Elastic Constant Matrix: (Units=GPa)
#
#
# Indices 1 2 3 4 5 6 
#
# 1 130.5184 23.8965 48.4994 0.0000 1.3825 0.0000
# 2 23.8965 23.0291 17.4294 0.0001 -1.8858 0.0001
# 3 48.4994 17.4294 120.0730 0.0001 -2.9938 0.0001
# 4 0.0000 0.0001 0.0001 27.4687 0.0000 0.6564
# 5 1.3825 -1.8858 -2.9938 0.0000 29.2763 0.0000
# 6 0.0000 0.0001 0.0001 0.6564 0.0000 22.8617
#
#
#
# Elastic Compliance Matrix: (Units=1/GPa)
#
#
# Indices 1 2 3 4 5 6 
#
# 1 0.010355 -0.008610 -0.002966 0.000000 -0.001347 0.000000
# 2 -0.008610 0.056114 -0.004579 0.000000 0.003553 0.000000
# 3 -0.002966 -0.004579 0.010213 0.000000 0.000890 0.000000
# 4 0.000000 0.000000 0.000000 0.036430 0.000000 -0.001046
# 5 -0.001347 0.003553 0.000890 0.000000 0.034541 0.000000
# 6 0.000000 0.000000 0.000000 -0.001046 0.000000 0.043771
#
#
# Mechanical properties :
#
#
# Convention : Reuss Voigt Hill
#
# Bulk Modulus (GPa) = 22.53700 50.36344 36.45022
# Shear Modulus (GPa) = 20.96219 28.17437 24.56828
#
# Velocity S-wave (km/s) = 3.26293 3.78282 3.53245
# Velocity P-wave (km/s) = 5.06380 6.68276 5.92880
#
# Compressibility (1/GPa) = 0.04437147
#
# Stress axis : x y z
#
# Youngs Moduli (GPa) = 96.57536 17.82086 97.91238
#
# Poissons Ratio (x) = 0.15344 0.29043
# Poissons Ratio (y) = 0.83151 0.44835
# Poissons Ratio (z) = 0.28646 0.08160
#
# Static dielectric constant tensor:
#      x y z
#    x 3.840730 0.000000 -0.088850 
#    y 0.000000 3.190050 0.000000 
#    z -0.088850 0.000000 3.565590 
# 
# 
# High freq. dielectric constant tensor:
#      x y z
#    x 1.785560 0.000000 -0.001920 
#    y 0.000000 1.729320 0.000000 
#    z -0.001920 0.000000 1.776770 
# 
# From -- ./inp_files/31664.got.cif
#   From: 2010.03.12/outbox.cif.g09.slc.cpg/sg8_16_cif.got.tgz:31664.got - 2010.03.31 10:45:26.
