data_PCOD8053271
_publ_section_title
;
Structure prediction by ZEFSAII (Michael W. Deem and Ramdas Pophale) SiO2 
 PCOD8053271
Probable space group: C M
;
_chemical_formula_sum "Si O2"
_cell_formula_units_Z 24
_cell_length_a 26.844322
_cell_length_b 7.581239
_cell_length_c 21.526029
_cell_angle_alpha 90.000000
_cell_angle_beta 15.419031
_cell_angle_gamma 90.000000
_cell_volume 1164.759403
_symmetry_space_group_name_H-M "C M"
_symmetry_group_IT_number 8
_symmetry_cell_setting 'monoclinic'
loop_
_space_group_symop_operation_xyz
x,y,z
x,-y,z
1/2+x,1/2+y,z
1/2+x,1/2-y,z
loop_
_atom_site_type_symbol
_atom_site_label
_atom_site_fract_x
_atom_site_fract_y
_atom_site_fract_z
Si Si1 0.859818 0.500000 0.884978
Si Si2 0.258131 0.298192 0.789737
Si Si3 0.705734 0.000000 0.385370
Si Si4 0.927795 0.000000 0.367065
Si Si5 0.682236 0.298463 0.317592
Si Si6 0.360797 0.196903 0.534725
Si Si7 0.995159 0.000000 0.148042
Si Si8 0.290883 0.697423 0.055733
O O1 0.992627 0.500000 0.665662
O O2 0.649305 0.500000 0.112913
O O3 0.902287 0.327684 0.876026
O O4 0.204209 0.500000 0.868167
O O5 0.467720 0.255734 0.559490
O O6 0.235169 0.257097 0.744166
O O7 0.120782 0.175168 0.993932
O O8 0.746975 0.825981 0.295628
O O9 0.841545 0.000000 0.279976
O O10 0.886208 0.000000 0.344193
O O11 0.829064 0.827941 0.515370
O O12 0.708765 0.500000 0.306765
O O13 0.811526 0.259672 0.102184
O O14 0.574269 0.205478 0.298884
O O15 0.302245 0.000000 0.584578
O O16 0.371521 0.500000 0.950508
#
# Coordination Sequence:
#
# PCOD8053271 Si02
#       8
#     2   4   2   2   4   4   2   4
#     4  10  20  36  58  86 115 148 193 248 297 340
#     4  10  19  36  65  93 114 145 195 252 298 341
#     4  12  26  40  54  82 127 170 195 230 287 352
#     4  10  20  36  58  86 115 148 193 248 297 340
#     4  10  19  36  65  93 114 145 195 252 298 341
#     4   9  16  30  59  91 113 137 183 247 301 341
#     4  12  26  40  54  82 127 170 195 230 287 352
#     4   9  16  30  59  91 113 137 183 247 301 341
#
# _framework density 20.605115000000001
#
# number of rings (size 3 to 8) (size 9 to 14) (size 15 to 20)
#    0.000    2.000    3.333    1.500    0.000    2.000 
#    0.000    5.000    0.000    0.000    0.000    0.000 
#    0.000    0.000    0.000    0.000    0.000    0.000 
#
# Total GULP energy -148823.230949 kJ/mol
# GULP energy per Si atom -12401.935912 kJ/mol
# Density = 2.055822 g / cm^3
# Si number density = 20.605115 Si / 1000 Ang^3
#
#
#
# Elastic Constant Matrix: (Units=GPa)
#
#
# Indices 1 2 3 4 5 6 
#
# 1 113.0623 57.7545 12.6179 0.0053 27.8095 -0.0075
# 2 57.7545 161.6027 16.1259 0.0098 15.7168 -0.0082
# 3 12.6179 16.1259 15.7193 0.0070 14.7309 -0.0117
# 4 0.0053 0.0098 0.0070 16.6388 -0.0027 11.9926
# 5 27.8095 15.7168 14.7309 -0.0027 30.1343 0.0024
# 6 -0.0075 -0.0082 -0.0117 11.9926 0.0024 25.9044
#
#
#
# Elastic Compliance Matrix: (Units=1/GPa)
#
#
# Indices 1 2 3 4 5 6 
#
# 1 0.013549 -0.004131 0.005647 -0.000017 -0.013110 0.000014
# 2 -0.004131 0.008154 -0.008556 0.000004 0.003742 -0.000005
# 3 0.005647 -0.008556 0.126523 -0.000157 -0.062599 0.000135
# 4 -0.000017 0.000004 -0.000157 0.090198 0.000101 -0.041758
# 5 -0.013110 0.003742 -0.062599 0.000101 0.073933 -0.000085
# 6 0.000014 -0.000005 0.000135 -0.041758 -0.000085 0.057935
#
#
# Mechanical properties :
#
#
# Convention : Reuss Voigt Hill
#
# Bulk Modulus (GPa) = 7.45443 51.48677 29.47060
# Shear Modulus (GPa) = 11.65266 28.12790 19.89028
#
# Velocity S-wave (km/s) = 2.38065 3.69873 3.11031
# Velocity P-wave (km/s) = 3.34399 6.57893 5.21846
#
# Compressibility (1/GPa) = 0.13414844
#
# Stress axis : x y z
#
# Youngs Moduli (GPa) = 73.80547 122.63716 7.90372
#
# Poissons Ratio (x) = 0.50659 -0.04464
# Poissons Ratio (y) = 0.30487 0.06762
# Poissons Ratio (z) = -0.41682 1.04922
#
# Static dielectric constant tensor:
#      x y z
#    x 3.502500 0.000000 0.294910 
#    y 0.000000 4.009860 0.000000 
#    z 0.294910 0.000000 3.449110 
# 
# 
# High freq. dielectric constant tensor:
#      x y z
#    x 1.788360 0.000000 0.021860 
#    y 0.000000 1.822550 0.000000 
#    z 0.021860 0.000000 1.774860 
# 
# From -- ./inp_files/30078.got.cif
#   From: 2010.03.12/outbox.cif.g09.slc.cpg/sg8_16_cif.got.tgz:30078.got - 2010.03.31 10:45:26.
