data_PCOD8053246
_publ_section_title
;
Structure prediction by ZEFSAII (Michael W. Deem and Ramdas Pophale) SiO2 
 PCOD8053246
Probable space group: C M
;
_chemical_formula_sum "Si O2"
_cell_formula_units_Z 32
_cell_length_a 20.844325
_cell_length_b 12.978742
_cell_length_c 6.818189
_cell_angle_alpha 90.000000
_cell_angle_beta 112.543647
_cell_angle_gamma 90.000000
_cell_volume 1703.600000
_symmetry_space_group_name_H-M "C M"
_symmetry_group_IT_number 8
_symmetry_cell_setting 'monoclinic'
loop_
_space_group_symop_operation_xyz
x,y,z
x,-y,z
1/2+x,1/2+y,z
1/2+x,1/2-y,z
loop_
_atom_site_type_symbol
_atom_site_label
_atom_site_fract_x
_atom_site_fract_y
_atom_site_fract_z
Si Si1 0.158740 0.753225 0.505740
Si Si2 0.354094 0.726108 0.455669
Si Si3 0.478191 0.738755 0.889790
Si Si4 0.404022 0.383661 0.129684
Si Si5 0.778829 0.887460 0.691900
Si Si6 0.117339 0.206546 0.869839
Si Si7 0.729558 0.380927 0.264696
Si Si8 0.590982 0.879539 0.103785
O O1 0.223923 0.698967 0.685938
O O2 0.112725 0.797478 0.628917
O O3 0.184051 0.846198 0.398430
O O4 0.117791 0.665339 0.340707
O O5 0.413452 0.765022 0.674827
O O6 0.392739 0.679721 0.314236
O O7 0.311627 0.637013 0.517144
O O8 0.301928 0.818136 0.333454
O O9 0.540284 0.673385 0.855705
O O10 0.460472 0.673693 0.062398
O O11 0.509127 0.850228 0.991541
O O12 0.429559 0.500000 0.206699
O O13 0.332827 0.387525 0.929670
O O14 0.744378 0.000000 0.631034
O O15 0.180049 0.133418 0.016712
O O16 0.132374 0.322297 0.974264
O O17 0.749799 0.500000 0.309695
O O18 0.603980 0.000000 0.105364
#
# Coordination Sequence:
#
# PCOD8053246 Si02
#       8
#     4   4   4   4   4   4   4   4
#     4  10  19  36  60  84 112 151 188 235 288 345
#     4  10  20  36  58  81 113 152 190 236 290 340
#     4   9  22  37  55  82 119 147 193 241 286 340
#     4  10  20  36  58  82 111 148 190 236 287 342
#     4   9  18  32  53  85 111 136 179 233 286 344
#     4   9  21  38  57  82 118 151 190 238 287 340
#     4  10  22  39  58  85 118 152 197 241 285 345
#     4   9  20  36  55  81 114 147 187 234 283 340
#
# _framework density 18.783750999999999
#
# number of rings (size 3 to 8) (size 9 to 14) (size 15 to 20)
#    0.750    1.750    0.000    1.500    1.750    3.000 
#    0.000    3.750    0.000    0.000    0.000    0.000 
#    0.000    0.000    0.000    0.000    0.000    0.000 
#
# Total GULP energy -198276.802984 kJ/mol
# GULP energy per Si atom -12392.300186 kJ/mol
# Density = 1.874100 g / cm^3
# Si number density = 18.783751 Si / 1000 Ang^3
#
#
#
# Elastic Constant Matrix: (Units=GPa)
#
#
# Indices 1 2 3 4 5 6 
#
# 1 76.6134 17.1051 26.6271 0.0000 -8.9658 0.0000
# 2 17.1051 97.7757 26.4043 0.0000 -3.4715 0.0000
# 3 26.6271 26.4043 77.5903 0.0000 -19.1581 0.0000
# 4 0.0000 0.0000 0.0000 14.2541 0.0000 2.3155
# 5 -8.9658 -3.4715 -19.1581 0.0000 37.2314 0.0000
# 6 0.0000 0.0000 0.0000 2.3155 0.0000 22.3980
#
#
#
# Elastic Compliance Matrix: (Units=1/GPa)
#
#
# Indices 1 2 3 4 5 6 
#
# 1 0.015031 -0.001404 -0.004375 0.000000 0.001238 0.000000
# 2 -0.001404 0.011430 -0.003698 0.000000 -0.001175 0.000000
# 3 -0.004375 -0.003698 0.017530 0.000000 0.007622 0.000000
# 4 0.000000 0.000000 0.000000 0.071353 0.000000 -0.007376
# 5 0.001238 -0.001175 0.007622 0.000000 0.030970 0.000000
# 6 0.000000 0.000000 0.000000 -0.007376 0.000000 0.045409
#
#
# Mechanical properties :
#
#
# Convention : Reuss Voigt Hill
#
# Bulk Modulus (GPa) = 39.94069 43.58358 41.76214
# Shear Modulus (GPa) = 22.82855 26.89957 24.86406
#
# Velocity S-wave (km/s) = 3.48995 3.78837 3.64222
# Velocity P-wave (km/s) = 6.12774 6.51067 6.32211
#
# Compressibility (1/GPa) = 0.02503713
#
# Stress axis : x y z
#
# Youngs Moduli (GPa) = 66.52731 87.48855 57.04499
#
# Poissons Ratio (x) = 0.12285 0.24957
# Poissons Ratio (y) = 0.09342 0.21095
# Poissons Ratio (z) = 0.29105 0.32353
#
# Static dielectric constant tensor:
#      x y z
#    x 3.400420 0.000000 0.068360 
#    y 0.000000 3.244830 0.000000 
#    z 0.068360 0.000000 3.425310 
# 
# 
# High freq. dielectric constant tensor:
#      x y z
#    x 1.725020 0.000000 0.005480 
#    y 0.000000 1.707110 0.000000 
#    z 0.005480 0.000000 1.736820 
# 
# From -- ./inp_files/6009.got.cif
#   From: 2010.03.12/outbox.cif.g09.slc.cpg/sg8_4_cif.got.tgz:6009.got - 2010.03.31 10:45:26.
