data_PCOD8053011
_publ_section_title
;
Structure prediction by ZEFSAII (Michael W. Deem and Ramdas Pophale) SiO2 
 PCOD8053011
Probable space group: C M
;
_chemical_formula_sum "Si O2"
_cell_formula_units_Z 32
_cell_length_a 19.886587
_cell_length_b 9.035137
_cell_length_c 24.773066
_cell_angle_alpha 90.000000
_cell_angle_beta 23.494776
_cell_angle_gamma 90.000000
_cell_volume 1774.530056
_symmetry_space_group_name_H-M "C M"
_symmetry_group_IT_number 8
_symmetry_cell_setting 'monoclinic'
loop_
_space_group_symop_operation_xyz
x,y,z
x,-y,z
1/2+x,1/2+y,z
1/2+x,1/2-y,z
loop_
_atom_site_type_symbol
_atom_site_label
_atom_site_fract_x
_atom_site_fract_y
_atom_site_fract_z
Si Si1 0.923550 0.169442 0.474690
Si Si2 0.685434 0.824868 0.556987
Si Si3 0.967953 0.674804 0.279573
Si Si4 0.379175 0.327052 0.242383
Si Si5 0.032520 0.828990 0.013332
Si Si6 0.025640 0.170940 0.514531
Si Si7 0.195593 0.671027 0.208460
Si Si8 0.376961 0.673570 0.738232
O O1 0.757690 0.218440 0.563137
O O2 0.900474 0.197960 0.555603
O O3 0.090576 0.251209 0.332440
O O4 0.959180 0.000000 0.435504
O O5 0.497868 0.759632 0.690944
O O6 0.798777 0.747399 0.427990
O O7 0.682465 0.000000 0.549252
O O8 0.939509 0.500000 0.296643
O O9 0.129778 0.716406 0.197367
O O10 0.997875 0.743316 0.198492
O O11 0.381906 0.500000 0.252937
O O12 0.452929 0.290926 0.129664
O O13 0.189087 0.270815 0.387349
O O14 0.893081 0.792069 0.069965
O O15 0.089611 0.000000 0.968276
O O16 0.187401 0.722202 0.888722
O O17 0.923489 0.217682 0.642792
O O18 0.083308 0.000000 0.475080
O O19 0.162966 0.500000 0.243020
O O20 0.394489 0.500000 0.735735
#
# Coordination Sequence:
#
# PCOD8053011 Si02
#       8
#     4   4   4   4   4   4   4   4
#     4   9  18  32  54  82 109 139 177 224 274 319
#     4  10  19  33  54  80 111 145 181 223 271 322
#     4  10  19  32  54  82 112 142 177 226 274 321
#     4  11  21  34  56  83 109 141 184 228 273 322
#     4  10  22  39  56  78 109 146 185 225 272 327
#     4  10  20  35  55  81 111 140 179 228 273 320
#     4   9  18  34  54  78 109 143 179 221 271 322
#     4  11  23  37  55  80 110 148 186 223 274 329
#
# _framework density 18.032943
#
# number of rings (size 3 to 8) (size 9 to 14) (size 15 to 20)
#    0.000    2.000    2.500    1.500    0.000    3.000 
#    0.000    1.250    0.000    4.500    0.000    0.000 
#    0.000    0.000    0.000    0.000    0.000    0.000 
#
# Total GULP energy -198395.090072 kJ/mol
# GULP energy per Si atom -12399.693130 kJ/mol
# Density = 1.799190 g / cm^3
# Si number density = 18.032943 Si / 1000 Ang^3
#
#
#
# Elastic Constant Matrix: (Units=GPa)
#
#
# Indices 1 2 3 4 5 6 
#
# 1 121.6388 45.4472 49.0982 0.0055 -11.5123 -0.0025
# 2 45.4472 76.6517 44.4103 0.0056 -2.5575 -0.0041
# 3 49.0982 44.4103 90.4644 0.0112 -7.8046 -0.0069
# 4 0.0055 0.0056 0.0112 30.3381 -0.0029 -1.9039
# 5 -11.5123 -2.5575 -7.8046 -0.0029 23.1832 0.0001
# 6 -0.0025 -0.0041 -0.0069 -1.9039 0.0001 26.7405
#
#
#
# Elastic Compliance Matrix: (Units=1/GPa)
#
#
# Indices 1 2 3 4 5 6 
#
# 1 0.011905 -0.004728 -0.003785 0.000000 0.004116 -0.000001
# 2 -0.004728 0.020133 -0.007548 0.000000 -0.002668 0.000001
# 3 -0.003785 -0.007548 0.017076 -0.000004 0.003036 0.000003
# 4 0.000000 0.000000 -0.000004 0.033110 0.000003 0.002357
# 5 0.004116 -0.002668 0.003036 0.000003 0.045907 0.000001
# 6 -0.000001 0.000001 0.000003 0.002357 0.000001 0.037564
#
#
# Mechanical properties :
#
#
# Convention : Reuss Voigt Hill
#
# Bulk Modulus (GPa) = 58.85135 62.96291 60.90713
# Shear Modulus (GPa) = 24.57237 26.03896 25.30566
#
# Velocity S-wave (km/s) = 3.69540 3.80408 3.75013
# Velocity P-wave (km/s) = 7.13542 7.36790 7.25259
#
# Compressibility (1/GPa) = 0.01699196
#
# Stress axis : x y z
#
# Youngs Moduli (GPa) = 83.99861 49.66860 58.56322
#
# Poissons Ratio (x) = 0.23485 0.22166
# Poissons Ratio (y) = 0.39717 0.44202
# Poissons Ratio (z) = 0.31793 0.37489
#
# Static dielectric constant tensor:
#      x y z
#    x 3.852840 0.000000 -0.137380 
#    y 0.000000 3.376050 0.000000 
#    z -0.137380 0.000000 3.043320 
# 
# 
# High freq. dielectric constant tensor:
#      x y z
#    x 1.717710 0.000000 -0.013640 
#    y 0.000000 1.705920 0.000000 
#    z -0.013640 0.000000 1.663120 
# 
# From -- ./inp_files/15780.got.cif
#   From: 2010.03.12/outbox.cif.g09.slc.cpg/sg8_8_cif.got.tgz:15780.got - 2010.03.31 10:45:26.
