data_PCOD8053921
_publ_section_title
;
Structure prediction by ZEFSAII (Michael W. Deem and Ramdas Pophale) SiO2 
 PCOD8053921
Probable space group: C M
;
_chemical_formula_sum "Si O2"
_cell_formula_units_Z 32
_cell_length_a 21.786147
_cell_length_b 13.664081
_cell_length_c 9.096381
_cell_angle_alpha 90.000000
_cell_angle_beta 34.281202
_cell_angle_gamma 90.000000
_cell_volume 1525.227212
_symmetry_space_group_name_H-M "C M"
_symmetry_group_IT_number 8
_symmetry_cell_setting 'monoclinic'
loop_
_space_group_symop_operation_xyz
x,y,z
x,-y,z
1/2+x,1/2+y,z
1/2+x,1/2-y,z
loop_
_atom_site_type_symbol
_atom_site_label
_atom_site_fract_x
_atom_site_fract_y
_atom_site_fract_z
Si Si1 0.648300 0.391728 0.397660
Si Si2 0.543921 0.891289 0.696778
Si Si3 0.885387 0.889175 0.394050
Si Si4 0.867774 0.388804 0.813508
Si Si5 0.766443 0.237969 0.834487
Si Si6 0.964931 0.197706 0.934710
Si Si7 0.275630 0.615485 0.108064
Si Si8 0.086678 0.892318 0.199330
O O1 0.660954 0.500000 0.436969
O O2 0.587385 0.330578 0.642806
O O3 0.769203 0.351017 0.117612
O O4 0.572219 0.389048 0.403518
O O5 0.485873 0.884153 0.652179
O O6 0.479112 0.814903 0.929052
O O7 0.670783 0.868257 0.420448
O O8 0.528087 0.000000 0.795266
O O9 0.787222 0.820039 0.641257
O O10 0.844236 0.000000 0.452504
O O11 0.936914 0.853144 0.141546
O O12 0.969233 0.879771 0.361440
O O13 0.839224 0.500000 0.820953
O O14 0.863714 0.315049 0.683057
O O15 0.661712 0.302736 0.000966
O O16 0.749658 0.160816 0.000126
O O17 0.877660 0.168605 0.983339
O O18 0.300239 0.500000 0.040819
O O19 0.134253 0.000000 0.059711
#
# Coordination Sequence:
#
# PCOD8053921 Si02
#       8
#     4   4   4   4   4   4   4   4
#     4   9  17  33  62  92 116 146 199 253 297 348
#     4  10  22  39  60  90 123 150 196 256 303 355
#     4  11  25  41  58  85 126 163 201 246 293 355
#     4   9  18  35  61  92 119 149 193 251 303 352
#     4  11  20  36  62  89 120 155 198 244 305 353
#     4  12  23  39  62  87 121 166 204 242 303 360
#     4  11  23  38  62  92 122 156 203 253 300 356
#     4   9  20  39  61  89 117 151 198 255 302 349
#
# _framework density 20.980481999999999
#
# number of rings (size 3 to 8) (size 9 to 14) (size 15 to 20)
#    0.000    1.750    1.250    4.875    1.750    2.000 
#    0.000    1.250    0.000    0.750    0.000    0.000 
#    0.000    0.000    0.000    0.000    0.000    0.000 
#
# Total GULP energy -198296.900094 kJ/mol
# GULP energy per Si atom -12393.556256 kJ/mol
# Density = 2.093273 g / cm^3
# Si number density = 20.980482 Si / 1000 Ang^3
#
#
#
# Elastic Constant Matrix: (Units=GPa)
#
#
# Indices 1 2 3 4 5 6 
#
# 1 17.5064 7.3833 11.8568 0.0000 -2.3409 0.0000
# 2 7.3833 151.3741 65.5106 0.0000 6.4369 0.0000
# 3 11.8568 65.5106 79.7443 0.0000 8.0487 0.0000
# 4 0.0000 0.0000 0.0000 37.6355 0.0000 -0.7852
# 5 -2.3409 6.4369 8.0487 0.0000 29.0677 0.0000
# 6 0.0000 0.0000 0.0000 -0.7852 0.0000 27.8412
#
#
#
# Elastic Compliance Matrix: (Units=1/GPa)
#
#
# Indices 1 2 3 4 5 6 
#
# 1 0.065606 0.001600 -0.011899 0.000000 0.008224 0.000000
# 2 0.001600 0.010290 -0.008718 0.000000 0.000264 0.000000
# 3 -0.011899 -0.008718 0.021987 0.000000 -0.005116 0.000000
# 4 0.000000 0.000000 0.000000 0.026586 0.000000 0.000750
# 5 0.008224 0.000264 -0.005116 0.000000 0.036423 0.000000
# 6 0.000000 0.000000 0.000000 0.000750 0.000000 0.035939
#
#
# Mechanical properties :
#
#
# Convention : Reuss Voigt Hill
#
# Bulk Modulus (GPa) = 16.70863 46.45848 31.58356
# Shear Modulus (GPa) = 19.62217 29.83383 24.72800
#
# Velocity S-wave (km/s) = 3.06152 3.77501 3.43683
# Velocity P-wave (km/s) = 4.52530 6.41815 5.55297
#
# Compressibility (1/GPa) = 0.05984931
#
# Stress axis : x y z
#
# Youngs Moduli (GPa) = 15.24256 97.18556 45.48104
#
# Poissons Ratio (x) = -0.15549 0.54118
# Poissons Ratio (y) = -0.02439 0.39648
# Poissons Ratio (z) = 0.18137 0.84722
#
# Static dielectric constant tensor:
#      x y z
#    x 3.525890 0.000000 -0.189220 
#    y 0.000000 4.328130 0.000000 
#    z -0.189220 0.000000 3.489710 
# 
# 
# High freq. dielectric constant tensor:
#      x y z
#    x 1.791060 0.000000 -0.024640 
#    y 0.000000 1.854380 0.000000 
#    z -0.024640 0.000000 1.794150 
# 
# From -- ./inp_files/17117.got.cif
#   From: 2010.03.12/outbox.cif.g09.slc.cpg/sg8_9_cif.got.tgz:17117.got - 2010.03.31 10:45:26.
