data_PCOD8053015
_publ_section_title
;
Structure prediction by ZEFSAII (Michael W. Deem and Ramdas Pophale) SiO2 
 PCOD8053015
Probable space group: C M
;
_chemical_formula_sum "Si O2"
_cell_formula_units_Z 24
_cell_length_a 18.552255
_cell_length_b 8.991185
_cell_length_c 11.961308
_cell_angle_alpha 90.000000
_cell_angle_beta 139.610229
_cell_angle_gamma 90.000000
_cell_volume 1292.875037
_symmetry_space_group_name_H-M "C M"
_symmetry_group_IT_number 8
_symmetry_cell_setting 'monoclinic'
loop_
_space_group_symop_operation_xyz
x,y,z
x,-y,z
1/2+x,1/2+y,z
1/2+x,1/2-y,z
loop_
_atom_site_type_symbol
_atom_site_label
_atom_site_fract_x
_atom_site_fract_y
_atom_site_fract_z
Si Si1 0.044750 0.176068 0.400150
Si Si2 0.105846 0.171523 0.720955
Si Si3 0.419738 0.164068 0.616820
Si Si4 0.211191 0.675479 0.425706
Si Si5 0.313348 0.827469 0.101138
Si Si6 0.730842 0.336734 0.236087
O O1 0.077228 0.228554 0.563218
O O2 0.128680 0.256309 0.417166
O O3 0.920468 0.223660 0.220277
O O4 0.056242 0.000000 0.399935
O O5 0.037124 0.257364 0.735400
O O6 0.072309 0.000000 0.692770
O O7 0.236968 0.196437 0.900966
O O8 0.335985 0.260429 0.596950
O O9 0.360255 0.149616 0.425825
O O10 0.438414 0.000000 0.692126
O O11 0.211531 0.500000 0.436084
O O12 0.170330 0.723928 0.251614
O O13 0.235262 0.779418 0.114145
O O14 0.349563 0.000000 0.155794
O O15 0.673118 0.500000 0.175532
#
# Coordination Sequence:
#
# PCOD8053015 Si02
#       6
#     4   4   4   4   4   4
#     4  11  21  35  54  79 112 144 176 220 268 316
#     4  10  21  35  56  83 110 140 178 220 264 317
#     4   9  17  32  54  79 105 135 174 217 262 312
#     4  10  19  32  55  79 104 142 182 219 266 317
#     4  10  20  36  57  82 109 141 178 218 265 319
#     4   8  16  32  54  78 104 134 172 216 261 311
#
# _framework density 18.563278
#
# number of rings (size 3 to 8) (size 9 to 14) (size 15 to 20)
#    1.000    1.333    1.667    2.000    0.000    2.000 
#    0.000    1.667    0.000    0.000    0.000    0.000 
#    0.000    0.000    0.000    0.000    0.000    0.000 
#
# Total GULP energy -148671.485595 kJ/mol
# GULP energy per Si atom -12389.290466 kJ/mol
# Density = 1.852103 g / cm^3
# Si number density = 18.563278 Si / 1000 Ang^3
#
#
#
# Elastic Constant Matrix: (Units=GPa)
#
#
# Indices 1 2 3 4 5 6 
#
# 1 128.4385 74.9400 37.5168 0.0000 5.3559 0.0000
# 2 74.9400 119.4274 31.7841 0.0000 6.5063 0.0000
# 3 37.5168 31.7841 72.3516 0.0000 10.0038 0.0000
# 4 0.0000 0.0000 0.0000 14.8429 0.0000 11.9548
# 5 5.3559 6.5063 10.0038 0.0000 10.7837 0.0000
# 6 0.0000 0.0000 0.0000 11.9548 0.0000 28.2000
#
#
#
# Elastic Compliance Matrix: (Units=1/GPa)
#
#
# Indices 1 2 3 4 5 6 
#
# 1 0.013076 -0.007276 -0.003778 0.000000 0.001400 0.000000
# 2 -0.007276 0.013573 -0.001786 0.000000 -0.002919 0.000000
# 3 -0.003778 -0.001786 0.018534 0.000000 -0.014239 0.000000
# 4 0.000000 0.000000 0.000000 0.102303 0.000000 -0.043369
# 5 0.001400 -0.002919 -0.014239 0.000000 0.107008 0.000000
# 6 0.000000 0.000000 0.000000 -0.043369 0.000000 0.053846
#
#
# Mechanical properties :
#
#
# Convention : Reuss Voigt Hill
#
# Bulk Modulus (GPa) = 51.27362 67.63326 59.45344
# Shear Modulus (GPa) = 14.68335 22.49711 18.59023
#
# Velocity S-wave (km/s) = 2.81550 3.48503 3.16801
# Velocity P-wave (km/s) = 6.18469 7.25995 6.74379
#
# Compressibility (1/GPa) = 0.01950321
#
# Stress axis : x y z
#
# Youngs Moduli (GPa) = 76.47381 73.67302 53.95551
#
# Poissons Ratio (x) = 0.53606 0.20383
# Poissons Ratio (y) = 0.55644 0.09638
# Poissons Ratio (z) = 0.28889 0.13160
#
# Static dielectric constant tensor:
#      x y z
#    x 3.203140 0.000000 -0.053290 
#    y 0.000000 3.396420 0.000000 
#    z -0.053290 0.000000 3.220950 
# 
# 
# High freq. dielectric constant tensor:
#      x y z
#    x 1.707180 0.000000 -0.001030 
#    y 0.000000 1.723210 0.000000 
#    z -0.001030 0.000000 1.693070 
# 
# From -- ./inp_files/22691.got.cif
#   From: 2010.03.12/outbox.cif.g09.slc.cpg/sg8_12_cif.got.tgz:22691.got - 2010.03.31 10:45:26.
