data_PCOD8053875
_publ_section_title
;
Structure prediction by ZEFSAII (Michael W. Deem and Ramdas Pophale) SiO2 
 PCOD8053875
Probable space group: C M
;
_chemical_formula_sum "Si O2"
_cell_formula_units_Z 20
_cell_length_a 4.926721
_cell_length_b 26.374133
_cell_length_c 7.025405
_cell_angle_alpha 90.000000
_cell_angle_beta 103.809417
_cell_angle_gamma 90.000000
_cell_volume 886.480674
_symmetry_space_group_name_H-M "C M"
_symmetry_group_IT_number 8
_symmetry_cell_setting 'monoclinic'
loop_
_space_group_symop_operation_xyz
x,y,z
x,-y,z
1/2+x,1/2+y,z
1/2+x,1/2-y,z
loop_
_atom_site_type_symbol
_atom_site_label
_atom_site_fract_x
_atom_site_fract_y
_atom_site_fract_z
Si Si1 0.076760 0.351786 0.562420
Si Si2 0.639289 0.351108 0.818281
Si Si3 0.224860 0.556862 0.334832
Si Si4 0.919224 0.716109 0.186909
Si Si5 0.630409 0.556932 0.073288
O O1 0.351507 0.324258 0.698493
O O2 0.194310 0.404937 0.503765
O O3 0.843331 0.362755 0.678852
O O4 0.934112 0.318148 0.376452
O O5 0.795321 0.315562 0.993083
O O6 0.541074 0.404039 0.895546
O O7 0.256606 0.500000 0.423313
O O8 0.492633 0.572169 0.252614
O O9 0.962254 0.560395 0.149975
O O10 0.730104 0.765499 0.189733
O O11 0.535268 0.500000 0.999653
#
# Coordination Sequence:
#
# PCOD8053875 Si02
#       5
#     4   4   4   4   4
#     4  12  26  43  72 103 134 177 226 276 335 405
#     4  12  26  43  72 103 134 177 226 276 335 405
#     4  10  21  40  68  99 138 181 219 265 328 400
#     4  12  28  48  71  96 135 176 224 288 344 390
#     4  10  21  40  68  99 138 181 219 265 328 400
#
# _framework density 22.561122999999998
#
# number of rings (size 3 to 8) (size 9 to 14) (size 15 to 20)
#    0.000    0.800    2.000    4.800    2.800    6.400 
#    0.000    0.000    0.000    0.000    0.000    0.000 
#    0.000    0.000    0.000    0.000    0.000    0.000 
#
# Total GULP energy -124054.857096 kJ/mol
# GULP energy per Si atom -12405.485710 kJ/mol
# Density = 2.250977 g / cm^3
# Si number density = 22.561123 Si / 1000 Ang^3
#
#
#
# Elastic Constant Matrix: (Units=GPa)
#
#
# Indices 1 2 3 4 5 6 
#
# 1 90.2936 17.9662 24.4333 0.0000 -5.3362 0.0000
# 2 17.9662 98.6457 54.9683 0.0000 -10.1402 0.0000
# 3 24.4333 54.9683 117.9556 0.0000 -2.6140 0.0000
# 4 0.0000 0.0000 0.0000 -1.8387 0.0000 -1.8804
# 5 -5.3362 -10.1402 -2.6140 0.0000 44.4296 0.0000
# 6 0.0000 0.0000 0.0000 -1.8804 0.0000 34.7047
#
#
#
# Elastic Compliance Matrix: (Units=1/GPa)
#
#
# Indices 1 2 3 4 5 6 
#
# 1 0.011866 -0.000936 -0.001998 0.000000 0.001094 0.000000
# 2 -0.000936 0.014112 -0.006322 0.000000 0.002736 0.000000
# 3 -0.001998 -0.006322 0.011816 0.000000 -0.000988 0.000000
# 4 0.000000 0.000000 0.000000 -0.515297 0.000000 -0.027921
# 5 0.001094 0.002736 -0.000988 0.000000 0.023205 0.000000
# 6 0.000000 0.000000 0.000000 -0.027921 0.000000 0.027302
#
#
# Mechanical properties :
#
#
# Convention : Reuss Voigt Hill
#
# Bulk Modulus (GPa) = 51.85740 55.73672 53.79706
# Shear Modulus (GPa) = -12.43599 29.42756 8.49579
#
# Velocity S-wave (km/s) = -2.35034 3.61549 1.94264
# Velocity P-wave (km/s) = 3.95850 6.49519 5.37853
#
# Compressibility (1/GPa) = 0.01928365
#
# Stress axis : x y z
#
# Youngs Moduli (GPa) = 84.27157 70.86370 84.63339
#
# Poissons Ratio (x) = 0.06629 0.16908
# Poissons Ratio (y) = 0.07884 0.53503
# Poissons Ratio (z) = 0.16836 0.44798
#
# Static dielectric constant tensor:
#      x y z
#    x 4.235970 0.000000 0.070370 
#    y 0.000000 4.083620 0.000000 
#    z 0.070370 0.000000 3.993420 
# 
# 
# High freq. dielectric constant tensor:
#      x y z
#    x 1.910270 0.000000 -0.000010 
#    y 0.000000 1.886950 0.000000 
#    z -0.000010 0.000000 1.888730 
# 
# From -- ./inp_files/518.got.cif
#   From: 2010.03.12/outbox.cif.g09.slc.cpg/sg8_1_cif.got.tgz:518.got - 2010.03.31 10:45:26.
