data_PCOD8053344
_publ_section_title
;
Structure prediction by ZEFSAII (Michael W. Deem and Ramdas Pophale) SiO2 
 PCOD8053344
Probable space group: C M
;
_chemical_formula_sum "Si O2"
_cell_formula_units_Z 24
_cell_length_a 18.687237
_cell_length_b 8.847389
_cell_length_c 9.095198
_cell_angle_alpha 90.000000
_cell_angle_beta 58.255804
_cell_angle_gamma 90.000000
_cell_volume 1278.787692
_symmetry_space_group_name_H-M "C M"
_symmetry_group_IT_number 8
_symmetry_cell_setting 'monoclinic'
loop_
_space_group_symop_operation_xyz
x,y,z
x,-y,z
1/2+x,1/2+y,z
1/2+x,1/2-y,z
loop_
_atom_site_type_symbol
_atom_site_label
_atom_site_fract_x
_atom_site_fract_y
_atom_site_fract_z
Si Si1 0.842250 0.828757 0.869220
Si Si2 0.031047 0.678438 0.150988
Si Si3 0.426757 0.167300 0.530812
Si Si4 0.514040 0.327183 0.860753
Si Si5 0.600535 0.169079 0.515228
Si Si6 0.180491 0.822165 0.163286
O O1 0.862158 0.781471 0.678931
O O2 0.925281 0.812219 0.876358
O O3 0.808410 0.000000 0.904816
O O4 0.773675 0.717030 0.009505
O O5 0.047416 0.500000 0.141357
O O6 0.115057 0.760488 0.114500
O O7 0.950835 0.722501 0.340437
O O8 0.008521 0.728378 0.012496
O O9 0.512962 0.161590 0.526487
O O10 0.385894 0.000000 0.571812
O O11 0.535115 0.500000 0.876747
O O12 0.589112 0.262793 0.677943
O O13 0.668245 0.250444 0.337846
O O14 0.632520 0.000000 0.517830
O O15 0.169151 0.000000 0.189242
#
# Coordination Sequence:
#
# PCOD8053344 Si02
#       6
#     4   4   4   4   4   4
#     4  10  20  34  53  77 105 136 172 213 259 309
#     4  10  20  35  55  78 106 138 172 212 260 310
#     4   8  16  31  51  74  99 132 172 210 252 305
#     4  10  20  34  54  80 107 136 173 214 256 305
#     4   9  17  32  53  75 102 136 174 211 253 308
#     4  11  21  34  54  78 105 136 175 218 258 305
#
# _framework density 18.767776000000001
#
# number of rings (size 3 to 8) (size 9 to 14) (size 15 to 20)
#    0.000    2.333    0.000    4.500    0.000    6.667 
#    0.000    1.667    0.000    4.000    0.000    0.000 
#    0.000    0.000    0.000    0.000    0.000    0.000 
#
# Total GULP energy -148797.077825 kJ/mol
# GULP energy per Si atom -12399.756485 kJ/mol
# Density = 1.872506 g / cm^3
# Si number density = 18.767776 Si / 1000 Ang^3
#
#
#
# Elastic Constant Matrix: (Units=GPa)
#
#
# Indices 1 2 3 4 5 6 
#
# 1 24.5282 23.4777 30.5779 0.0000 2.0391 0.0000
# 2 23.4777 116.9754 53.9121 0.0000 -6.2717 0.0000
# 3 30.5779 53.9121 150.7510 0.0000 6.1936 0.0000
# 4 0.0000 0.0000 0.0000 39.4281 0.0000 1.1414
# 5 2.0391 -6.2717 6.1936 0.0000 25.9144 0.0000
# 6 0.0000 0.0000 0.0000 1.1414 0.0000 24.9950
#
#
#
# Elastic Compliance Matrix: (Units=1/GPa)
#
#
# Indices 1 2 3 4 5 6 
#
# 1 0.060332 -0.008139 -0.009141 0.000000 -0.004532 0.000000
# 2 -0.008139 0.011637 -0.002679 0.000000 0.004097 0.000000
# 3 -0.009141 -0.002679 0.009536 0.000000 -0.002208 0.000000
# 4 0.000000 0.000000 0.000000 0.025396 0.000000 -0.001160
# 5 -0.004532 0.004097 -0.002208 0.000000 0.040465 0.000000
# 6 0.000000 0.000000 0.000000 -0.001160 0.000000 0.040061
#
#
# Mechanical properties :
#
#
# Convention : Reuss Voigt Hill
#
# Bulk Modulus (GPa) = 24.04572 56.46557 40.25564
# Shear Modulus (GPa) = 20.72909 30.35329 25.54119
#
# Velocity S-wave (km/s) = 3.32701 4.02594 3.69305
# Velocity P-wave (km/s) = 5.25345 7.19463 6.29926
#
# Compressibility (1/GPa) = 0.04158745
#
# Stress axis : x y z
#
# Youngs Moduli (GPa) = 16.57494 85.93447 104.86268
#
# Poissons Ratio (x) = 0.69945 0.95850
# Poissons Ratio (y) = 0.13491 0.28092
# Poissons Ratio (z) = 0.15150 0.23021
#
# Static dielectric constant tensor:
#      x y z
#    x 2.955000 0.000000 0.098660 
#    y 0.000000 3.636580 0.000000 
#    z 0.098660 0.000000 3.816640 
# 
# 
# High freq. dielectric constant tensor:
#      x y z
#    x 1.679540 0.000000 0.003900 
#    y 0.000000 1.743830 0.000000 
#    z 0.003900 0.000000 1.747110 
# 
# From -- ./inp_files/14196.got.cif
#   From: 2010.03.12/outbox.cif.g09.slc.cpg/sg8_8_cif.got.tgz:14196.got - 2010.03.31 10:45:26.
