data_PCOD8053365
_publ_section_title
;
Structure prediction by ZEFSAII (Michael W. Deem and Ramdas Pophale) SiO2 
 PCOD8053365
Probable space group: C M
;
_chemical_formula_sum "Si O2"
_cell_formula_units_Z 32
_cell_length_a 22.475198
_cell_length_b 9.043018
_cell_length_c 27.652109
_cell_angle_alpha 90.000000
_cell_angle_beta 162.250071
_cell_angle_gamma 90.000000
_cell_volume 1713.365707
_symmetry_space_group_name_H-M "C M"
_symmetry_group_IT_number 8
_symmetry_cell_setting 'monoclinic'
loop_
_space_group_symop_operation_xyz
x,y,z
x,-y,z
1/2+x,1/2+y,z
1/2+x,1/2-y,z
loop_
_atom_site_type_symbol
_atom_site_label
_atom_site_fract_x
_atom_site_fract_y
_atom_site_fract_z
Si Si1 0.734200 0.824150 0.011250
Si Si2 0.508102 0.325256 0.550521
Si Si3 0.781199 0.828773 0.938015
Si Si4 0.469359 0.674742 0.630241
Si Si5 0.813824 0.326228 0.710638
Si Si6 0.226170 0.828690 0.261345
Si Si7 0.065016 0.826294 0.339445
Si Si8 0.975661 0.172037 0.379066
O O1 0.909653 0.764958 0.180397
O O2 0.730804 0.000000 0.011722
O O3 0.770272 0.771602 0.984575
O O4 0.528907 0.755245 0.871454
O O5 0.480438 0.500000 0.523695
O O6 0.521476 0.274523 0.616195
O O7 0.706066 0.272695 0.676322
O O8 0.321384 0.250302 0.381303
O O9 0.636212 0.732513 0.794258
O O10 0.718646 0.000000 0.886439
O O11 0.996237 0.802433 0.084314
O O12 0.457609 0.500000 0.625208
O O13 0.264385 0.740712 0.487140
O O14 0.842067 0.500000 0.734077
O O15 0.682506 0.281365 0.562794
O O16 0.302123 0.762911 0.269609
O O17 0.280435 0.000000 0.306453
O O18 0.977761 0.790107 0.324397
O O19 0.106279 0.000000 0.365362
O O20 0.934652 0.000000 0.357052
#
# Coordination Sequence:
#
# PCOD8053365 Si02
#       8
#     4   4   4   4   4   4   4   4
#     4   9  17  31  54  80 102 131 177 225 262 306
#     4   9  19  35  54  78 108 140 176 220 269 319
#     4  10  21  36  53  76 107 141 179 223 269 319
#     4  11  23  36  53  78 108 142 179 225 274 316
#     4   8  14  28  50  74 100 131 170 214 256 303
#     4  10  20  34  55  81 109 142 178 220 267 315
#     4  10  20  35  57  81 105 139 181 222 266 320
#     4   9  18  33  54  78 107 144 180 217 263 316
#
# _framework density 18.676691000000002
#
# number of rings (size 3 to 8) (size 9 to 14) (size 15 to 20)
#    0.000    2.500    0.000    3.000    0.000    6.500 
#    0.000    3.125    0.000    3.000    0.000    0.000 
#    0.000    0.000    0.000    0.000    0.000    0.000 
#
# Total GULP energy -198402.306890 kJ/mol
# GULP energy per Si atom -12400.144181 kJ/mol
# Density = 1.863418 g / cm^3
# Si number density = 18.676691 Si / 1000 Ang^3
#
#
#
# Elastic Constant Matrix: (Units=GPa)
#
#
# Indices 1 2 3 4 5 6 
#
# 1 142.0918 45.9659 70.1705 -0.0039 -13.7596 -0.0022
# 2 45.9659 46.3806 42.0706 -0.1227 -0.0062 0.0180
# 3 70.1705 42.0706 120.0454 -0.0275 -1.6347 0.0380
# 4 -0.0039 -0.1227 -0.0275 26.3985 0.0331 1.0657
# 5 -13.7596 -0.0062 -1.6347 0.0331 31.3337 -0.0054
# 6 -0.0022 0.0180 0.0380 1.0657 -0.0054 24.0898
#
#
#
# Elastic Compliance Matrix: (Units=1/GPa)
#
#
# Indices 1 2 3 4 5 6 
#
# 1 0.012334 -0.008426 -0.004186 -0.000049 0.005196 0.000017
# 2 -0.008426 0.037376 -0.008229 0.000170 -0.004122 -0.000024
# 3 -0.004186 -0.008229 0.013646 -0.000023 -0.001128 -0.000015
# 4 -0.000049 0.000170 -0.000023 0.037950 -0.000063 -0.001679
# 5 0.005196 -0.004122 -0.001128 -0.000063 0.034137 0.000016
# 6 0.000017 -0.000024 -0.000015 -0.001679 0.000016 0.041586
#
#
# Mechanical properties :
#
#
# Convention : Reuss Voigt Hill
#
# Bulk Modulus (GPa) = 46.14067 69.43686 57.78876
# Shear Modulus (GPa) = 22.13031 26.38511 24.25771
#
# Velocity S-wave (km/s) = 3.44600 3.76271 3.60783
# Velocity P-wave (km/s) = 6.37117 7.49242 6.95443
#
# Compressibility (1/GPa) = 0.02167285
#
# Stress axis : x y z
#
# Youngs Moduli (GPa) = 81.07799 26.75504 73.28378
#
# Poissons Ratio (x) = 0.22544 0.30675
# Poissons Ratio (y) = 0.68318 0.60308
# Poissons Ratio (z) = 0.33937 0.22018
#
# Static dielectric constant tensor:
#      x y z
#    x 3.726350 -0.000040 0.041200 
#    y -0.000040 3.174240 -0.000100 
#    z 0.041200 -0.000100 3.563310 
# 
# 
# High freq. dielectric constant tensor:
#      x y z
#    x 1.739470 0.000000 0.004870 
#    y 0.000000 1.694320 -0.000010 
#    z 0.004870 -0.000010 1.729970 
# 
# From -- ./inp_files/16866.got.cif
#   From: 2010.03.12/outbox.cif.g09.slc.cpg/sg8_9_cif.got.tgz:16866.got - 2010.03.31 10:45:26.
