data_PCOD8053268
_publ_section_title
;
Structure prediction by ZEFSAII (Michael W. Deem and Ramdas Pophale) SiO2 
 PCOD8053268
Probable space group: C M
;
_chemical_formula_sum "Si O2"
_cell_formula_units_Z 32
_cell_length_a 9.071614
_cell_length_b 18.406207
_cell_length_c 11.719807
_cell_angle_alpha 90.000000
_cell_angle_beta 128.915202
_cell_angle_gamma 90.000000
_cell_volume 1522.620339
_symmetry_space_group_name_H-M "C M"
_symmetry_group_IT_number 8
_symmetry_cell_setting 'monoclinic'
loop_
_space_group_symop_operation_xyz
x,y,z
x,-y,z
1/2+x,1/2+y,z
1/2+x,1/2-y,z
loop_
_atom_site_type_symbol
_atom_site_label
_atom_site_fract_x
_atom_site_fract_y
_atom_site_fract_z
Si Si1 0.319470 0.216337 0.484260
Si Si2 0.244009 0.709095 0.681075
Si Si3 0.822032 0.686945 0.128637
Si Si4 0.820164 0.660701 0.870508
Si Si5 0.219071 0.366550 0.348637
Si Si6 0.200008 0.417401 0.084340
Si Si7 0.531392 0.333376 0.183636
Si Si8 0.450047 0.582532 0.666411
O O1 0.248751 0.238529 0.574126
O O2 0.529097 0.183914 0.596675
O O3 0.314504 0.286625 0.398037
O O4 0.184245 0.156168 0.360288
O O5 0.317092 0.756180 0.823988
O O6 0.368057 0.636594 0.723923
O O7 0.635364 0.681372 0.114930
O O8 0.887861 0.769393 0.148000
O O9 0.994199 0.640188 0.267165
O O10 0.770379 0.656287 0.979672
O O11 0.658027 0.611960 0.730862
O O12 0.028817 0.629712 0.948927
O O13 0.247012 0.399751 0.238164
O O14 0.315247 0.417411 0.490027
O O15 0.138695 0.500000 0.040917
O O16 0.394208 0.403254 0.108010
O O17 0.462112 0.500000 0.718854
#
# Coordination Sequence:
#
# PCOD8053268 Si02
#       8
#     4   4   4   4   4   4   4   4
#     4  10  19  36  64  99 122 158 213 281 308 385
#     4  11  21  38  65  94 129 164 217 262 329 380
#     4  10  22  37  65  94 119 165 215 271 309 386
#     4  11  24  42  65  91 127 176 222 260 316 398
#     4   9  18  40  66  94 124 169 216 267 332 390
#     4  11  24  41  63  92 133 174 220 270 328 391
#     4  11  21  37  64  91 129 155 218 268 326 365
#     4  11  23  39  66  97 133 169 217 273 336 393
#
# _framework density 21.016400999999998
#
# number of rings (size 3 to 8) (size 9 to 14) (size 15 to 20)
#    0.000    1.500    2.500    6.000    3.500    0.000 
#    0.000    5.625    0.000    0.750    0.000    0.000 
#    0.000    0.000    0.000    0.000    0.000    0.000 
#
# Total GULP energy -198385.985605 kJ/mol
# GULP energy per Si atom -12399.124100 kJ/mol
# Density = 2.096857 g / cm^3
# Si number density = 21.016401 Si / 1000 Ang^3
#
#
#
# Elastic Constant Matrix: (Units=GPa)
#
#
# Indices 1 2 3 4 5 6 
#
# 1 120.8982 37.9314 40.1185 0.0000 16.0148 0.0000
# 2 37.9314 94.2778 40.0866 0.0000 16.1723 0.0000
# 3 40.1185 40.0866 101.0520 0.0000 18.8649 0.0000
# 4 0.0000 0.0000 0.0000 16.8724 0.0000 2.1831
# 5 16.0148 16.1723 18.8649 0.0000 30.2094 0.0000
# 6 0.0000 0.0000 0.0000 2.1831 0.0000 21.6009
#
#
#
# Elastic Compliance Matrix: (Units=1/GPa)
#
#
# Indices 1 2 3 4 5 6 
#
# 1 0.010273 -0.002616 -0.002587 0.000000 -0.002430 0.000000
# 2 -0.002616 0.013903 -0.003788 0.000000 -0.003691 0.000000
# 3 -0.002587 -0.003788 0.013347 0.000000 -0.004936 0.000000
# 4 0.000000 0.000000 0.000000 0.060054 0.000000 -0.006069
# 5 -0.002430 -0.003691 -0.004936 0.000000 0.039448 0.000000
# 6 0.000000 0.000000 0.000000 -0.006069 0.000000 0.046908
#
#
# Mechanical properties :
#
#
# Convention : Reuss Voigt Hill
#
# Bulk Modulus (GPa) = 51.17426 61.38899 56.28162
# Shear Modulus (GPa) = 23.98917 26.94264 25.46591
#
# Velocity S-wave (km/s) = 3.38220 3.58436 3.48475
# Velocity P-wave (km/s) = 6.29721 6.81202 6.55967
#
# Compressibility (1/GPa) = 0.01954108
#
# Stress axis : x y z
#
# Youngs Moduli (GPa) = 97.34689 71.92610 74.92423
#
# Poissons Ratio (x) = 0.18818 0.19382
# Poissons Ratio (y) = 0.25469 0.28378
# Poissons Ratio (z) = 0.25182 0.27243
#
# Static dielectric constant tensor:
#      x y z
#    x 3.753710 0.000000 0.204880 
#    y 0.000000 3.490880 0.000000 
#    z 0.204880 0.000000 4.046550 
# 
# 
# High freq. dielectric constant tensor:
#      x y z
#    x 1.821240 0.000000 0.017250 
#    y 0.000000 1.780180 0.000000 
#    z 0.017250 0.000000 1.839710 
# 
# From -- ./inp_files/19276.got.cif
#   From: 2010.03.12/outbox.cif.g09.slc.cpg/sg8_10_cif.got.tgz:19276.got - 2010.03.31 10:45:26.
