data_PCOD8053003
_publ_section_title
;
Structure prediction by ZEFSAII (Michael W. Deem and Ramdas Pophale) SiO2 
 PCOD8053003
Probable space group: C M
;
_chemical_formula_sum "Si O2"
_cell_formula_units_Z 32
_cell_length_a 27.995604
_cell_length_b 9.352635
_cell_length_c 10.631302
_cell_angle_alpha 90.000000
_cell_angle_beta 35.457747
_cell_angle_gamma 90.000000
_cell_volume 1614.785956
_symmetry_space_group_name_H-M "C M"
_symmetry_group_IT_number 8
_symmetry_cell_setting 'monoclinic'
loop_
_space_group_symop_operation_xyz
x,y,z
x,-y,z
1/2+x,1/2+y,z
1/2+x,1/2-y,z
loop_
_atom_site_type_symbol
_atom_site_label
_atom_site_fract_x
_atom_site_fract_y
_atom_site_fract_z
Si Si1 0.119850 0.339475 0.971270
Si Si2 0.061131 0.665565 0.364364
Si Si3 0.724188 0.834054 0.170387
Si Si4 0.373412 0.332622 0.168297
Si Si5 0.017232 0.661297 0.937020
Si Si6 0.406513 0.335408 0.807382
Si Si7 0.234097 0.156060 0.585564
Si Si8 0.138618 0.844071 0.549590
O O1 0.154481 0.500000 0.919687
O O2 0.064317 0.336524 0.967054
O O3 0.196697 0.230704 0.790636
O O4 0.065883 0.292781 0.207137
O O5 0.041686 0.500000 0.426585
O O6 0.151724 0.703771 0.226827
O O7 0.984220 0.748473 0.588607
O O8 0.711664 0.729952 0.315614
O O9 0.718732 0.000000 0.225320
O O10 0.819020 0.804574 0.921256
O O11 0.375375 0.500000 0.189903
O O12 0.287461 0.270189 0.396318
O O13 0.435600 0.253703 0.129533
O O14 0.391335 0.295319 0.985203
O O15 0.996476 0.500000 0.940865
O O16 0.063034 0.733047 0.718151
O O17 0.430788 0.500000 0.740224
O O18 0.161212 0.125513 0.644845
O O19 0.274545 0.000000 0.532960
O O20 0.114061 0.000000 0.542893
#
# Coordination Sequence:
#
# PCOD8053003 Si02
#       8
#     4   4   4   4   4   4   4   4
#     4   9  20  40  59  78 110 152 193 235 283 338
#     4  10  22  40  62  84 113 155 202 242 286 343
#     4  10  20  37  59  84 115 155 196 236 291 351
#     4  11  21  35  56  85 118 147 184 233 290 351
#     4  10  20  34  55  80 112 150 188 232 289 344
#     4  10  22  38  58  86 121 153 188 238 295 349
#     4  10  20  34  56  83 112 145 183 230 281 338
#     4  10  19  32  53  82 113 143 184 230 281 344
#
# _framework density 19.816867999999999
#
# number of rings (size 3 to 8) (size 9 to 14) (size 15 to 20)
#    0.000    2.000    1.250    2.250    0.000    6.000 
#    2.250    0.000    0.000    0.000    0.000    0.000 
#    0.000    0.000    0.000    0.000    0.000    0.000 
#
# Total GULP energy -198229.064182 kJ/mol
# GULP energy per Si atom -12389.316511 kJ/mol
# Density = 1.977176 g / cm^3
# Si number density = 19.816868 Si / 1000 Ang^3
#
#
#
# Elastic Constant Matrix: (Units=GPa)
#
#
# Indices 1 2 3 4 5 6 
#
# 1 40.9695 41.0223 46.7617 0.0000 -8.1364 0.0000
# 2 41.0223 143.2738 82.3080 0.0000 3.9207 0.0000
# 3 46.7617 82.3080 132.8347 0.0000 1.7904 0.0000
# 4 0.0000 0.0000 0.0000 39.5293 0.0000 -4.1572
# 5 -8.1364 3.9207 1.7904 0.0000 29.4871 0.0000
# 6 0.0000 0.0000 0.0000 -4.1572 0.0000 20.2857
#
#
#
# Elastic Compliance Matrix: (Units=1/GPa)
#
#
# Indices 1 2 3 4 5 6 
#
# 1 0.049763 -0.006969 -0.013409 0.000000 0.015472 0.000000
# 2 -0.006969 0.011845 -0.004843 0.000000 -0.003204 0.000000
# 3 -0.013409 -0.004843 0.015303 0.000000 -0.003985 0.000000
# 4 0.000000 0.000000 0.000000 0.025855 0.000000 0.005299
# 5 0.015472 -0.003204 -0.003985 0.000000 0.038850 0.000000
# 6 0.000000 0.000000 0.000000 0.005299 0.000000 0.050382
#
#
# Mechanical properties :
#
#
# Convention : Reuss Voigt Hill
#
# Bulk Modulus (GPa) = 37.77830 73.02911 55.40370
# Shear Modulus (GPa) = 19.89961 27.65949 23.77955
#
# Velocity S-wave (km/s) = 3.17231 3.74003 3.46781
# Velocity P-wave (km/s) = 5.70291 7.45536 6.63723
#
# Compressibility (1/GPa) = 0.02647022
#
# Stress axis : x y z
#
# Youngs Moduli (GPa) = 20.09530 84.42520 65.34687
#
# Poissons Ratio (x) = 0.58832 0.87621
# Poissons Ratio (y) = 0.14004 0.31648
# Poissons Ratio (z) = 0.26945 0.40887
#
# Static dielectric constant tensor:
#      x y z
#    x 3.470900 0.000000 -0.132450 
#    y 0.000000 3.949290 0.000000 
#    z -0.132450 0.000000 3.584040 
# 
# 
# High freq. dielectric constant tensor:
#      x y z
#    x 1.747630 0.000000 -0.010860 
#    y 0.000000 1.785040 0.000000 
#    z -0.010860 0.000000 1.767470 
# 
# From -- ./inp_files/22795.got.cif
#   From: 2010.03.12/outbox.cif.g09.slc.cpg/sg8_12_cif.got.tgz:22795.got - 2010.03.31 10:45:26.
