data_PCOD8053016
_publ_section_title
;
Structure prediction by ZEFSAII (Michael W. Deem and Ramdas Pophale) SiO2 
 PCOD8053016
Probable space group: C M
;
_chemical_formula_sum "Si O2"
_cell_formula_units_Z 32
_cell_length_a 20.400438
_cell_length_b 8.935990
_cell_length_c 13.185812
_cell_angle_alpha 90.000000
_cell_angle_beta 136.890928
_cell_angle_gamma 90.000000
_cell_volume 1642.696261
_symmetry_space_group_name_H-M "C M"
_symmetry_group_IT_number 8
_symmetry_cell_setting 'monoclinic'
loop_
_space_group_symop_operation_xyz
x,y,z
x,-y,z
1/2+x,1/2+y,z
1/2+x,1/2-y,z
loop_
_atom_site_type_symbol
_atom_site_label
_atom_site_fract_x
_atom_site_fract_y
_atom_site_fract_z
Si Si1 0.233780 0.173231 0.430940
Si Si2 0.431217 0.827011 0.767337
Si Si3 0.118319 0.823235 0.918513
Si Si4 0.912590 0.165822 0.279121
Si Si5 0.397230 0.826181 0.957213
Si Si6 0.753604 0.166964 0.926794
Si Si7 0.051500 0.673593 0.302023
Si Si8 0.748418 0.823377 0.232918
O O1 0.329239 0.201205 0.601740
O O2 0.146629 0.227791 0.402526
O O3 0.235974 0.271808 0.332997
O O4 0.220215 0.000000 0.387053
O O5 0.507670 0.725547 0.795014
O O6 0.426712 0.773982 0.878778
O O7 0.462457 0.000000 0.795585
O O8 0.163589 0.762711 0.864823
O O9 0.128022 0.000000 0.930800
O O10 0.169665 0.757471 0.075472
O O11 0.857106 0.216329 0.318953
O O12 0.996276 0.281176 0.343453
O O13 0.957377 0.000000 0.342334
O O14 0.832185 0.163218 0.102748
O O15 0.300535 0.740110 0.880215
O O16 0.371406 0.000000 0.931471
O O17 0.485677 0.788582 0.130845
O O18 0.718411 0.000000 0.860041
O O19 0.078330 0.500000 0.337933
O O20 0.729440 0.000000 0.202909
#
# Coordination Sequence:
#
# PCOD8053016 Si02
#       8
#     4   4   4   4   4   4   4   4
#     4  11  23  37  54  77 108 146 186 226 267 317
#     4  10  22  39  55  75 109 148 183 224 272 317
#     4  11  21  34  57  85 110 139 179 223 266 321
#     4   8  16  31  52  78 106 135 169 214 267 320
#     4   9  18  34  56  80 105 137 177 220 268 321
#     4   9  17  31  53  81 111 138 169 217 271 319
#     4  10  19  32  55  82 107 137 174 220 271 323
#     4  10  20  36  58  82 110 142 177 222 272 320
#
# _framework density 19.480167999999999
#
# number of rings (size 3 to 8) (size 9 to 14) (size 15 to 20)
#    0.000    2.250    0.000    4.125    0.000    6.500 
#    0.000    1.250    0.000    1.500    0.000    0.000 
#    0.000    0.000    0.000    0.000    0.000    0.000 
#
# Total GULP energy -198423.320113 kJ/mol
# GULP energy per Si atom -12401.457507 kJ/mol
# Density = 1.943583 g / cm^3
# Si number density = 19.480168 Si / 1000 Ang^3
#
#
#
# Elastic Constant Matrix: (Units=GPa)
#
#
# Indices 1 2 3 4 5 6 
#
# 1 113.5015 57.4534 30.1464 0.0000 35.1841 0.0000
# 2 57.4534 115.9270 36.5615 0.0000 21.4448 0.0000
# 3 30.1464 36.5615 46.3314 0.0000 18.2954 0.0000
# 4 0.0000 0.0000 0.0000 20.9131 0.0000 4.8409
# 5 35.1841 21.4448 18.2954 0.0000 17.5654 0.0000
# 6 0.0000 0.0000 0.0000 4.8409 0.0000 40.6564
#
#
#
# Elastic Compliance Matrix: (Units=1/GPa)
#
#
# Indices 1 2 3 4 5 6 
#
# 1 0.026602 -0.005780 0.009354 0.000000 -0.055972 0.000000
# 2 -0.005780 0.013403 -0.008368 0.000000 0.003931 0.000000
# 3 0.009354 -0.008368 0.043256 0.000000 -0.053575 0.000000
# 4 0.000000 0.000000 0.000000 0.049172 0.000000 -0.005855
# 5 -0.055972 0.003931 -0.053575 0.000000 0.220047 0.000000
# 6 0.000000 0.000000 0.000000 -0.005855 0.000000 0.025293
#
#
# Mechanical properties :
#
#
# Convention : Reuss Voigt Hill
#
# Bulk Modulus (GPa) = 13.57331 58.23139 35.90235
# Shear Modulus (GPa) = 12.13831 25.93356 19.03593
#
# Velocity S-wave (km/s) = 2.49893 3.65263 3.12940
# Velocity P-wave (km/s) = 3.91268 6.90988 5.61496
#
# Compressibility (1/GPa) = 0.07367402
#
# Stress axis : x y z
#
# Youngs Moduli (GPa) = 37.59052 74.61157 23.11808
#
# Poissons Ratio (x) = 0.43129 -0.21626
# Poissons Ratio (y) = 0.21729 0.19344
# Poissons Ratio (z) = -0.35164 0.62432
#
# Static dielectric constant tensor:
#      x y z
#    x 3.862250 0.000000 0.084110 
#    y 0.000000 3.628000 0.000000 
#    z 0.084110 0.000000 3.193590 
# 
# 
# High freq. dielectric constant tensor:
#      x y z
#    x 1.775670 0.000000 0.011780 
#    y 0.000000 1.763560 0.000000 
#    z 0.011780 0.000000 1.719510 
# 
# From -- ./inp_files/23901.got.cif
#   From: 2010.03.12/outbox.cif.g09.slc.cpg/sg8_12_cif.got.tgz:23901.got - 2010.03.31 10:45:26.
