data_PCOD8053568
_publ_section_title
;
Structure prediction by ZEFSAII (Michael W. Deem and Ramdas Pophale) SiO2 
 PCOD8053568
Probable space group: C M
;
_chemical_formula_sum "Si O2"
_cell_formula_units_Z 32
_cell_length_a 16.733978
_cell_length_b 14.104254
_cell_length_c 11.370373
_cell_angle_alpha 90.000000
_cell_angle_beta 36.091603
_cell_angle_gamma 90.000000
_cell_volume 1580.872272
_symmetry_space_group_name_H-M "C M"
_symmetry_group_IT_number 8
_symmetry_cell_setting 'monoclinic'
loop_
_space_group_symop_operation_xyz
x,y,z
x,-y,z
1/2+x,1/2+y,z
1/2+x,1/2-y,z
loop_
_atom_site_type_symbol
_atom_site_label
_atom_site_fract_x
_atom_site_fract_y
_atom_site_fract_z
Si Si1 0.086560 0.606713 0.065830
Si Si2 0.296440 0.392784 0.429650
Si Si3 0.378585 0.224066 0.174837
Si Si4 0.663118 0.893810 0.230446
Si Si5 0.101152 0.113147 0.491817
Si Si6 0.354189 0.388072 0.622790
Si Si7 0.427791 0.276167 0.872557
Si Si8 0.519212 0.894628 0.641173
O O1 0.075575 0.500000 0.030710
O O2 0.070235 0.609297 0.225704
O O3 0.958537 0.662669 0.172644
O O4 0.230940 0.650813 0.851083
O O5 0.352628 0.500000 0.346317
O O6 0.356190 0.327567 0.256426
O O7 0.337697 0.351137 0.508579
O O8 0.134226 0.392695 0.605648
O O9 0.240382 0.168834 0.305179
O O10 0.472270 0.238524 0.948242
O O11 0.577312 0.863190 0.445728
O O12 0.721182 0.000000 0.181638
O O13 0.783632 0.822250 0.065792
O O14 0.997984 0.141808 0.508790
O O15 0.036081 0.148999 0.692376
O O16 0.124961 0.000000 0.470045
O O17 0.344395 0.500000 0.633838
O O18 0.410135 0.184877 0.807270
O O19 0.453389 0.000000 0.712877
#
# Coordination Sequence:
#
# PCOD8053568 Si02
#       8
#     4   4   4   4   4   4   4   4
#     4  10  21  39  62  91 120 158 205 253 304 364
#     4  10  20  37  58  84 121 160 204 248 295 360
#     4  12  25  37  61  93 127 160 202 256 313 357
#     4  10  20  39  65  89 118 161 208 249 296 369
#     4  11  23  41  63  92 124 159 201 256 311 361
#     4   9  19  38  64  86 115 161 207 247 301 364
#     4  12  21  37  60  90 121 159 204 248 302 363
#     4  10  21  38  60  89 124 162 202 251 305 364
#
# _framework density 20.241990000000001
#
# number of rings (size 3 to 8) (size 9 to 14) (size 15 to 20)
#    0.000    1.500    3.750    1.500    0.000    4.500 
#    0.000    0.000    0.000    0.750    0.000    0.000 
#    0.000    0.000    0.000    0.000    0.000    0.000 
#
# Total GULP energy -198341.604075 kJ/mol
# GULP energy per Si atom -12396.350255 kJ/mol
# Density = 2.019592 g / cm^3
# Si number density = 20.241990 Si / 1000 Ang^3
#
#
#
# Elastic Constant Matrix: (Units=GPa)
#
#
# Indices 1 2 3 4 5 6 
#
# 1 103.3330 38.9819 45.8411 0.0000 11.6891 0.0000
# 2 38.9819 110.0939 49.8985 0.0000 12.6327 0.0000
# 3 45.8411 49.8985 84.9024 0.0000 21.2386 0.0000
# 4 0.0000 0.0000 0.0000 33.8944 0.0000 5.1687
# 5 11.6891 12.6327 21.2386 0.0000 34.9639 0.0000
# 6 0.0000 0.0000 0.0000 5.1687 0.0000 23.0180
#
#
#
# Elastic Compliance Matrix: (Units=1/GPa)
#
#
# Indices 1 2 3 4 5 6 
#
# 1 0.013023 -0.001941 -0.005869 0.000000 -0.000088 0.000000
# 2 -0.001941 0.012671 -0.006386 0.000000 -0.000050 0.000000
# 3 -0.005869 -0.006386 0.020792 0.000000 -0.008360 0.000000
# 4 0.000000 0.000000 0.000000 0.030549 0.000000 -0.006860
# 5 -0.000088 -0.000050 -0.008360 0.000000 0.033727 0.000000
# 6 0.000000 0.000000 0.000000 -0.006860 0.000000 0.044985
#
#
# Mechanical properties :
#
#
# Convention : Reuss Voigt Hill
#
# Bulk Modulus (GPa) = 55.26994 63.08583 59.17789
# Shear Modulus (GPa) = 26.29235 29.28245 27.78740
#
# Velocity S-wave (km/s) = 3.60794 3.80757 3.70910
# Velocity P-wave (km/s) = 6.68731 7.11081 6.90231
#
# Compressibility (1/GPa) = 0.01809302
#
# Stress axis : x y z
#
# Youngs Moduli (GPa) = 76.78588 78.92247 48.09653
#
# Poissons Ratio (x) = 0.15321 0.28227
# Poissons Ratio (y) = 0.14906 0.30715
# Poissons Ratio (z) = 0.45064 0.50401
#
# Static dielectric constant tensor:
#      x y z
#    x 3.960900 0.000000 0.369790 
#    y 0.000000 3.840750 0.000000 
#    z 0.369790 0.000000 3.599370 
# 
# 
# High freq. dielectric constant tensor:
#      x y z
#    x 1.789640 0.000000 0.023880 
#    y 0.000000 1.798070 0.000000 
#    z 0.023880 0.000000 1.771990 
# 
# From -- ./inp_files/23318.got.cif
#   From: 2010.03.12/outbox.cif.g09.slc.cpg/sg8_12_cif.got.tgz:23318.got - 2010.03.31 10:45:26.
