data_PCOD8053053
_publ_section_title
;
Structure prediction by ZEFSAII (Michael W. Deem and Ramdas Pophale) SiO2 
 PCOD8053053
Probable space group: C M
;
_chemical_formula_sum "Si O2"
_cell_formula_units_Z 28
_cell_length_a 12.284257
_cell_length_b 13.721824
_cell_length_c 10.219013
_cell_angle_alpha 90.000000
_cell_angle_beta 60.530386
_cell_angle_gamma 90.000000
_cell_volume 1499.673423
_symmetry_space_group_name_H-M "C M"
_symmetry_group_IT_number 8
_symmetry_cell_setting 'monoclinic'
loop_
_space_group_symop_operation_xyz
x,y,z
x,-y,z
1/2+x,1/2+y,z
1/2+x,1/2-y,z
loop_
_atom_site_type_symbol
_atom_site_label
_atom_site_fract_x
_atom_site_fract_y
_atom_site_fract_z
Si Si1 0.768330 0.711993 0.796030
Si Si2 0.740240 0.788002 0.242165
Si Si3 0.004279 0.783925 0.519105
Si Si4 0.226205 0.890532 0.080198
Si Si5 0.940803 0.110828 0.299335
Si Si6 0.782344 0.890533 0.958016
Si Si7 0.067749 0.889172 0.738888
O O1 0.733663 0.819301 0.872395
O O2 0.658838 0.680395 0.764965
O O3 0.898895 0.713863 0.641606
O O4 0.785891 0.637364 0.905738
O O5 0.609674 0.786125 0.396589
O O6 0.774925 0.680698 0.165778
O O7 0.849715 0.819609 0.273248
O O8 0.722649 0.862627 0.132475
O O9 0.065529 0.854207 0.590716
O O10 0.943016 0.854212 0.447511
O O11 0.076843 0.881226 0.153693
O O12 0.266271 0.000000 0.094269
O O13 0.891338 0.000000 0.324106
O O14 0.931707 0.881241 0.884535
O O15 0.742258 0.000000 0.943967
O O16 0.117215 0.000000 0.714108
#
# Coordination Sequence:
#
# PCOD8053053 Si02
#       7
#     4   4   4   4   4   4   4
#     4  10  19  33  55  78 105 134 168 211 257 303
#     4  10  19  33  55  78 105 134 168 211 257 303
#     4  10  21  34  49  76 110 138 165 206 257 308
#     4   9  19  35  56  79 100 130 175 217 250 295
#     4  10  19  34  57  78  99 133 176 216 250 293
#     4   9  19  35  56  79 100 130 175 217 250 295
#     4  10  19  34  57  78  99 133 176 216 250 293
#
# _framework density 18.670732999999998
#
# number of rings (size 3 to 8) (size 9 to 14) (size 15 to 20)
#    0.000    2.286    0.000    3.000    0.000    3.429 
#    0.000    2.857    0.000   37.714    0.000    0.000 
#    0.000    0.000    0.000    0.000    0.000    0.000 
#
# Total GULP energy -173636.710891 kJ/mol
# GULP energy per Si atom -12402.622207 kJ/mol
# Density = 1.862824 g / cm^3
# Si number density = 18.670733 Si / 1000 Ang^3
#
#
#
# Elastic Constant Matrix: (Units=GPa)
#
#
# Indices 1 2 3 4 5 6 
#
# 1 91.2680 79.4351 49.6477 0.0000 20.4488 0.0000
# 2 79.4351 145.4139 62.2623 0.0000 11.6609 0.0000
# 3 49.6477 62.2623 134.9473 0.0000 -1.8970 0.0000
# 4 0.0000 0.0000 0.0000 23.4699 0.0000 1.7973
# 5 20.4488 11.6609 -1.8970 0.0000 31.7972 0.0000
# 6 0.0000 0.0000 0.0000 1.7973 0.0000 28.9862
#
#
#
# Elastic Compliance Matrix: (Units=1/GPa)
#
#
# Indices 1 2 3 4 5 6 
#
# 1 0.026213 -0.011303 -0.004611 0.000000 -0.012987 0.000000
# 2 -0.011303 0.013824 -0.002190 0.000000 0.002069 0.000000
# 3 -0.004611 -0.002190 0.010179 0.000000 0.004376 0.000000
# 4 0.000000 0.000000 0.000000 0.042811 0.000000 -0.002655
# 5 -0.012987 0.002069 0.004376 0.000000 0.039304 0.000000
# 6 0.000000 0.000000 0.000000 -0.002655 0.000000 0.034664
#
#
# Mechanical properties :
#
#
# Convention : Reuss Voigt Hill
#
# Bulk Modulus (GPa) = 71.40062 83.81328 77.60695
# Shear Modulus (GPa) = 24.05321 28.86958 26.46139
#
# Velocity S-wave (km/s) = 3.59316 3.93650 3.76874
# Velocity P-wave (km/s) = 7.45248 8.10241 7.78423
#
# Compressibility (1/GPa) = 0.01400548
#
# Stress axis : x y z
#
# Youngs Moduli (GPa) = 38.14904 72.34042 98.24291
#
# Poissons Ratio (x) = 0.81770 0.45302
# Poissons Ratio (y) = 0.43122 0.21518
# Poissons Ratio (z) = 0.17591 0.15844
#
# Static dielectric constant tensor:
#      x y z
#    x 3.168060 0.000000 -0.007370 
#    y 0.000000 3.540280 0.000000 
#    z -0.007370 0.000000 3.601970 
# 
# 
# High freq. dielectric constant tensor:
#      x y z
#    x 1.701250 0.000000 0.005940 
#    y 0.000000 1.726520 0.000000 
#    z 0.005940 0.000000 1.740180 
# 
# From -- ./inp_files/10620.got.cif
#   From: 2010.03.12/outbox.cif.g09.slc.cpg/sg8_6_cif.got.tgz:10620.got - 2010.03.31 10:45:26.
