data_PCOD8053936
_publ_section_title
;
Structure prediction by ZEFSAII (Michael W. Deem and Ramdas Pophale) SiO2 
 PCOD8053936
Probable space group: C M
;
_chemical_formula_sum "Si O2"
_cell_formula_units_Z 32
_cell_length_a 20.418132
_cell_length_b 8.870609
_cell_length_c 25.071497
_cell_angle_alpha 90.000000
_cell_angle_beta 22.348131
_cell_angle_gamma 90.000000
_cell_volume 1726.632032
_symmetry_space_group_name_H-M "C M"
_symmetry_group_IT_number 8
_symmetry_cell_setting 'monoclinic'
loop_
_space_group_symop_operation_xyz
x,y,z
x,-y,z
1/2+x,1/2+y,z
1/2+x,1/2-y,z
loop_
_atom_site_type_symbol
_atom_site_label
_atom_site_fract_x
_atom_site_fract_y
_atom_site_fract_z
Si Si1 0.420020 0.674648 0.297410
Si Si2 0.448253 0.827099 0.004904
Si Si3 0.673458 0.674642 0.401955
Si Si4 0.891215 0.822528 0.441583
Si Si5 0.308714 0.826625 0.995047
Si Si6 0.207275 0.677088 0.265000
Si Si7 0.125834 0.823498 0.711717
Si Si8 0.282174 0.672764 0.694829
O O1 0.368631 0.500000 0.329705
O O2 0.287003 0.778459 0.366619
O O3 0.417528 0.723818 0.360736
O O4 0.610388 0.704973 0.130676
O O5 0.344067 0.784705 0.029896
O O6 0.651994 0.796778 0.842160
O O7 0.412253 0.000000 0.047879
O O8 0.381639 0.721451 0.102502
O O9 0.703286 0.500000 0.366107
O O10 0.728896 0.772464 0.309572
O O11 0.475737 0.706188 0.567538
O O12 0.708322 0.757005 0.598255
O O13 0.043337 0.756462 0.362718
O O14 0.894279 0.000000 0.447247
O O15 0.427257 0.726858 0.866990
O O16 0.358660 0.000000 0.948082
O O17 0.179745 0.500000 0.283306
O O18 0.236045 0.780408 0.680657
O O19 0.133975 0.000000 0.696578
O O20 0.259457 0.500000 0.692357
#
# Coordination Sequence:
#
# PCOD8053936 Si02
#       8
#     4   4   4   4   4   4   4   4
#     4  10  22  40  61  84 114 152 194 237 285 343
#     4   9  17  34  58  83 110 147 191 234 283 341
#     4  11  23  39  60  84 116 156 191 233 290 349
#     4  11  21  38  60  83 113 153 194 236 287 341
#     4   9  18  36  58  81 113 154 190 228 285 348
#     4  12  23  35  56  88 118 147 190 243 286 335
#     4  11  21  32  54  89 118 145 186 243 287 330
#     4   9  19  36  57  80 112 154 192 228 283 349
#
# _framework density 18.533192
#
# number of rings (size 3 to 8) (size 9 to 14) (size 15 to 20)
#    0.000    1.750    2.500    3.750    0.000    4.000 
#    0.000    1.250    0.000    3.000    0.000    0.000 
#    0.000    0.000    0.000    0.000    0.000    0.000 
#
# Total GULP energy -198449.237951 kJ/mol
# GULP energy per Si atom -12403.077372 kJ/mol
# Density = 1.849101 g / cm^3
# Si number density = 18.533192 Si / 1000 Ang^3
#
#
#
# Elastic Constant Matrix: (Units=GPa)
#
#
# Indices 1 2 3 4 5 6 
#
# 1 56.0850 34.0359 36.1801 -0.0101 1.2860 -0.0022
# 2 34.0359 96.4881 43.9238 0.0457 8.0758 0.0155
# 3 36.1801 43.9238 119.3107 0.0255 5.6568 0.0174
# 4 -0.0101 0.0457 0.0255 22.8441 0.0032 -2.5365
# 5 1.2860 8.0758 5.6568 0.0032 29.0263 -0.0011
# 6 -0.0022 0.0155 0.0174 -2.5365 -0.0011 27.9553
#
#
#
# Elastic Compliance Matrix: (Units=1/GPa)
#
#
# Indices 1 2 3 4 5 6 
#
# 1 0.025232 -0.006639 -0.005291 0.000031 0.001760 0.000012
# 2 -0.006639 0.014394 -0.003139 -0.000029 -0.003099 -0.000009
# 3 -0.005291 -0.003139 0.011192 -0.000009 -0.001073 -0.000007
# 4 0.000031 -0.000029 -0.000009 0.044221 0.000004 0.004012
# 5 0.001760 -0.003099 -0.001073 0.000004 0.035445 0.000004
# 6 0.000012 -0.000009 -0.000007 0.004012 0.000004 0.036135
#
#
# Mechanical properties :
#
#
# Convention : Reuss Voigt Hill
#
# Bulk Modulus (GPa) = 48.35442 55.57371 51.96407
# Shear Modulus (GPa) = 24.55184 26.48141 25.51662
#
# Velocity S-wave (km/s) = 3.64366 3.78413 3.71456
# Velocity P-wave (km/s) = 6.62186 7.01028 6.81884
#
# Compressibility (1/GPa) = 0.02068063
#
# Stress axis : x y z
#
# Youngs Moduli (GPa) = 39.63244 69.47189 89.34717
#
# Poissons Ratio (x) = 0.46125 0.47270
# Poissons Ratio (y) = 0.26314 0.28045
# Poissons Ratio (z) = 0.20968 0.21807
#
# Static dielectric constant tensor:
#      x y z
#    x 3.112990 0.000000 0.142490 
#    y 0.000000 3.350520 0.000000 
#    z 0.142490 0.000000 3.730240 
# 
# 
# High freq. dielectric constant tensor:
#      x y z
#    x 1.685860 0.000000 0.010100 
#    y 0.000000 1.719280 0.000000 
#    z 0.010100 0.000000 1.736620 
# 
# From -- ./inp_files/31361.got.cif
#   From: 2010.03.12/outbox.cif.g09.slc.cpg/sg8_16_cif.got.tgz:31361.got - 2010.03.31 10:45:26.
