data_PCOD8053314
_publ_section_title
;
Structure prediction by ZEFSAII (Michael W. Deem and Ramdas Pophale) SiO2 
 PCOD8053314
Probable space group: C M
;
_chemical_formula_sum "Si O2"
_cell_formula_units_Z 32
_cell_length_a 20.620557
_cell_length_b 9.291155
_cell_length_c 25.263715
_cell_angle_alpha 90.000000
_cell_angle_beta 22.211898
_cell_angle_gamma 90.000000
_cell_volume 1829.772409
_symmetry_space_group_name_H-M "C M"
_symmetry_group_IT_number 8
_symmetry_cell_setting 'monoclinic'
loop_
_space_group_symop_operation_xyz
x,y,z
x,-y,z
1/2+x,1/2+y,z
1/2+x,1/2-y,z
loop_
_atom_site_type_symbol
_atom_site_label
_atom_site_fract_x
_atom_site_fract_y
_atom_site_fract_z
Si Si1 0.481230 0.668655 0.502790
Si Si2 0.315133 0.335665 0.245767
Si Si3 0.907144 0.830871 0.676758
Si Si4 0.170568 0.832218 0.927993
Si Si5 0.311674 0.831961 0.930480
Si Si6 0.977627 0.168072 0.235963
Si Si7 0.195757 0.331909 0.634349
Si Si8 0.740250 0.329660 0.492107
O O1 0.513156 0.500000 0.479465
O O2 0.654740 0.739309 0.350059
O O3 0.438129 0.725458 0.593967
O O4 0.326013 0.711889 0.581848
O O5 0.256859 0.500000 0.285993
O O6 0.373711 0.299314 0.260928
O O7 0.468342 0.304326 0.088736
O O8 0.736478 0.753687 0.827130
O O9 0.069435 0.785768 0.589598
O O10 0.874346 0.000000 0.702521
O O11 0.271888 0.767780 0.902417
O O12 0.209907 0.000000 0.889639
O O13 0.505733 0.796210 0.800527
O O14 0.274041 0.000000 0.952766
O O15 0.174986 0.778614 0.077788
O O16 0.904100 0.263576 0.338747
O O17 0.966219 0.000000 0.260115
O O18 0.209400 0.500000 0.608531
O O19 0.234762 0.235853 0.554381
O O20 0.762596 0.500000 0.478936
#
# Coordination Sequence:
#
# PCOD8053314 Si02
#       8
#     4   4   4   4   4   4   4   4
#     4  10  21  36  53  76 107 141 174 209 258 314
#     4   9  18  32  52  78 106 137 173 214 257 302
#     4  10  20  33  49  76 109 137 169 212 260 307
#     4   9  17  31  53  79 102 131 173 216 256 299
#     4   8  15  30  52  77 101 127 170 220 254 292
#     4   9  17  31  53  78 102 133 175 217 256 303
#     4  10  20  36  57  76 101 140 178 213 255 309
#     4  11  21  33  51  78 110 138 168 215 264 304
#
# _framework density 17.488513999999999
#
# number of rings (size 3 to 8) (size 9 to 14) (size 15 to 20)
#    0.000    2.500    2.500    1.875    0.000    2.000 
#    0.000    3.750    0.000    3.000    0.000    0.000 
#    0.000    0.000    0.000    0.000    0.000    0.000 
#
# Total GULP energy -198387.348375 kJ/mol
# GULP energy per Si atom -12399.209273 kJ/mol
# Density = 1.744871 g / cm^3
# Si number density = 17.488514 Si / 1000 Ang^3
#
#
#
# Elastic Constant Matrix: (Units=GPa)
#
#
# Indices 1 2 3 4 5 6 
#
# 1 93.5245 41.9907 64.5961 0.0119 -1.2208 -0.0020
# 2 41.9907 49.9577 53.8916 0.0409 3.1888 0.0058
# 3 64.5961 53.8916 145.0884 0.0477 2.5143 0.0073
# 4 0.0119 0.0409 0.0477 27.9585 0.0123 1.7636
# 5 -1.2208 3.1888 2.5143 0.0123 28.6906 -0.0029
# 6 -0.0020 0.0058 0.0073 1.7636 -0.0029 23.5598
#
#
#
# Elastic Compliance Matrix: (Units=1/GPa)
#
#
# Indices 1 2 3 4 5 6 
#
# 1 0.018703 -0.011425 -0.004125 0.000014 0.002427 0.000005
# 2 -0.011425 0.040579 -0.009914 -0.000035 -0.004127 -0.000006
# 3 -0.004125 -0.009914 0.012414 -0.000005 -0.000162 -0.000001
# 4 0.000014 -0.000035 -0.000005 0.035937 -0.000011 -0.002690
# 5 0.002427 -0.004127 -0.000162 -0.000011 0.035431 0.000006
# 6 0.000005 -0.000006 -0.000001 -0.002690 0.000006 0.042647
#
#
# Mechanical properties :
#
#
# Convention : Reuss Voigt Hill
#
# Bulk Modulus (GPa) = 48.15442 67.72526 57.93984
# Shear Modulus (GPa) = 20.52868 24.58127 22.55497
#
# Velocity S-wave (km/s) = 3.42985 3.75316 3.59514
# Velocity P-wave (km/s) = 6.57874 7.58889 7.10180
#
# Compressibility (1/GPa) = 0.02076652
#
# Stress axis : x y z
#
# Youngs Moduli (GPa) = 53.46734 24.64357 80.55222
#
# Poissons Ratio (x) = 0.28156 0.33229
# Poissons Ratio (y) = 0.61088 0.79861
# Poissons Ratio (z) = 0.22056 0.24432
#
# Static dielectric constant tensor:
#      x y z
#    x 3.051660 0.000000 0.057300 
#    y 0.000000 3.031150 0.000010 
#    z 0.057300 0.000010 3.408830 
# 
# 
# High freq. dielectric constant tensor:
#      x y z
#    x 1.650340 0.000000 0.008120 
#    y 0.000000 1.659380 0.000000 
#    z 0.008120 0.000000 1.689220 
# 
# From -- ./inp_files/16221.got.cif
#   From: 2010.03.12/outbox.cif.g09.slc.cpg/sg8_9_cif.got.tgz:16221.got - 2010.03.31 10:45:26.
