data_PCOD8053537
_publ_section_title
;
Structure prediction by ZEFSAII (Michael W. Deem and Ramdas Pophale) SiO2 
 PCOD8053537
Probable space group: C M
;
_chemical_formula_sum "Si O2"
_cell_formula_units_Z 32
_cell_length_a 11.054567
_cell_length_b 24.107425
_cell_length_c 11.530075
_cell_angle_alpha 90.000000
_cell_angle_beta 145.011904
_cell_angle_gamma 90.000000
_cell_volume 1761.923722
_symmetry_space_group_name_H-M "C M"
_symmetry_group_IT_number 8
_symmetry_cell_setting 'monoclinic'
loop_
_space_group_symop_operation_xyz
x,y,z
x,-y,z
1/2+x,1/2+y,z
1/2+x,1/2-y,z
loop_
_atom_site_type_symbol
_atom_site_label
_atom_site_fract_x
_atom_site_fract_y
_atom_site_fract_z
Si Si1 0.116930 0.937129 0.605550
Si Si2 0.281718 0.743067 0.685773
Si Si3 0.605635 0.341860 0.990027
Si Si4 0.772420 0.561425 0.988415
Si Si5 0.980083 0.360388 0.843327
Si Si6 0.675325 0.123860 0.241383
Si Si7 0.297146 0.310863 0.926512
Si Si8 0.008331 0.720390 0.254479
O O1 0.186275 0.938346 0.791905
O O2 0.305922 0.908020 0.681207
O O3 0.907503 0.900684 0.433630
O O4 0.081117 0.000000 0.530754
O O5 0.474239 0.701118 0.805043
O O6 0.363264 0.803588 0.780601
O O7 0.178893 0.720962 0.726352
O O8 0.131402 0.747790 0.457658
O O9 0.610291 0.402614 0.937441
O O10 0.496537 0.345225 0.031165
O O11 0.843212 0.320319 0.186545
O O12 0.775376 0.500000 0.043864
O O13 0.010315 0.584501 0.178494
O O14 0.130652 0.353709 0.850082
O O15 0.124935 0.374816 0.066221
O O16 0.659662 0.185473 0.286207
O O17 0.386753 0.268584 0.091570
#
# Coordination Sequence:
#
# PCOD8053537 Si02
#       8
#     4   4   4   4   4   4   4   4
#     4  10  22  37  59  86 109 147 200 245 292 336
#     4  10  22  35  57  84 116 155 188 231 286 345
#     4   9  20  37  51  85 118 144 199 232 278 354
#     4   9  18  35  60  84 113 147 189 250 293 328
#     4  11  22  38  55  84 120 152 187 238 287 348
#     4  10  20  36  60  86 113 145 193 243 289 342
#     4  10  21  38  52  86 122 150 193 229 282 355
#     4  11  20  36  58  83 117 154 188 236 289 344
#
# _framework density 18.161968000000002
#
# number of rings (size 3 to 8) (size 9 to 14) (size 15 to 20)
#    0.750    1.250    2.500    1.125    1.750    2.500 
#    0.000    0.625    0.000    0.000    0.000    0.000 
#    0.000    0.000    0.000    0.000    0.000    0.000 
#
# Total GULP energy -198296.225608 kJ/mol
# GULP energy per Si atom -12393.514101 kJ/mol
# Density = 1.812063 g / cm^3
# Si number density = 18.161968 Si / 1000 Ang^3
#
#
#
# Elastic Constant Matrix: (Units=GPa)
#
#
# Indices 1 2 3 4 5 6 
#
# 1 113.4031 39.9149 25.9457 0.0000 14.8254 0.0000
# 2 39.9149 96.3531 19.4287 0.0000 12.6777 0.0000
# 3 25.9457 19.4287 79.9501 0.0000 5.2911 0.0000
# 4 0.0000 0.0000 0.0000 20.4927 0.0000 5.0782
# 5 14.8254 12.6777 5.2911 0.0000 23.4910 0.0000
# 6 0.0000 0.0000 0.0000 5.0782 0.0000 29.9374
#
#
#
# Elastic Compliance Matrix: (Units=1/GPa)
#
#
# Indices 1 2 3 4 5 6 
#
# 1 0.011238 -0.003548 -0.002479 0.000000 -0.004619 0.000000
# 2 -0.003548 0.012745 -0.001664 0.000000 -0.004264 0.000000
# 3 -0.002479 -0.001664 0.013759 0.000000 -0.000637 0.000000
# 4 0.000000 0.000000 0.000000 0.050939 0.000000 -0.008641
# 5 -0.004619 -0.004264 -0.000637 0.000000 0.047930 0.000000
# 6 0.000000 0.000000 0.000000 -0.008641 0.000000 0.034869
#
#
# Mechanical properties :
#
#
# Convention : Reuss Voigt Hill
#
# Bulk Modulus (GPa) = 44.72160 51.14274 47.93217
# Shear Modulus (GPa) = 25.73167 28.41201 27.07184
#
# Velocity S-wave (km/s) = 3.76811 3.95950 3.86499
# Velocity P-wave (km/s) = 6.60369 7.00885 6.80928
#
# Compressibility (1/GPa) = 0.02236056
#
# Stress axis : x y z
#
# Youngs Moduli (GPa) = 88.98465 78.46406 72.68108
#
# Poissons Ratio (x) = 0.27837 0.18019
# Poissons Ratio (y) = 0.31569 0.12091
# Poissons Ratio (z) = 0.22060 0.13053
#
# Static dielectric constant tensor:
#      x y z
#    x 3.303010 0.000000 0.101530 
#    y 0.000000 3.486680 0.000000 
#    z 0.101530 0.000000 3.197950 
# 
# 
# High freq. dielectric constant tensor:
#      x y z
#    x 1.694200 0.000000 0.009900 
#    y 0.000000 1.695040 0.000000 
#    z 0.009900 0.000000 1.696880 
# 
# From -- ./inp_files/20897.got.cif
#   From: 2010.03.12/outbox.cif.g09.slc.cpg/sg8_11_cif.got.tgz:20897.got - 2010.03.31 10:45:26.
