data_PCOD8053202
_publ_section_title
;
Structure prediction by ZEFSAII (Michael W. Deem and Ramdas Pophale) SiO2 
 PCOD8053202
Probable space group: C M
;
_chemical_formula_sum "Si O2"
_cell_formula_units_Z 32
_cell_length_a 24.050001
_cell_length_b 8.955406
_cell_length_c 19.711912
_cell_angle_alpha 90.000000
_cell_angle_beta 23.204765
_cell_angle_gamma 90.000000
_cell_volume 1672.805994
_symmetry_space_group_name_H-M "C M"
_symmetry_group_IT_number 8
_symmetry_cell_setting 'monoclinic'
loop_
_space_group_symop_operation_xyz
x,y,z
x,-y,z
1/2+x,1/2+y,z
1/2+x,1/2-y,z
loop_
_atom_site_type_symbol
_atom_site_label
_atom_site_fract_x
_atom_site_fract_y
_atom_site_fract_z
Si Si1 0.070390 0.171017 0.983900
Si Si2 0.573443 0.329235 0.481470
Si Si3 0.770824 0.823347 0.863006
Si Si4 0.125289 0.322223 0.161695
Si Si5 0.060798 0.826773 0.840883
Si Si6 0.746929 0.822146 0.168710
Si Si7 0.317513 0.822991 0.467574
Si Si8 0.808648 0.330274 0.322942
O O1 0.157219 0.278398 0.934792
O O2 0.114584 0.197055 0.856936
O O3 0.091814 0.000000 0.981815
O O4 0.907496 0.216837 0.171483
O O5 0.561412 0.500000 0.470007
O O6 0.421368 0.258491 0.670376
O O7 0.644546 0.236226 0.342030
O O8 0.657002 0.319949 0.458348
O O9 0.779748 0.000000 0.856728
O O10 0.723090 0.761631 0.990297
O O11 0.122525 0.500000 0.163026
O O12 0.188842 0.264477 0.161390
O O13 0.965591 0.260229 0.331018
O O14 0.183265 0.752474 0.657601
O O15 0.046523 0.000000 0.838844
O O16 0.905624 0.756360 0.000993
O O17 0.746097 0.000000 0.173766
O O18 0.298887 0.774898 0.410878
O O19 0.315630 0.000000 0.478293
O O20 0.867856 0.500000 0.253394
#
# Coordination Sequence:
#
# PCOD8053202 Si02
#       8
#     4   4   4   4   4   4   4   4
#     4  11  21  35  56  82 110 142 180 226 274 325
#     4  10  22  36  55  82 112 145 180 221 271 329
#     4  10  21  38  56  81 110 142 185 227 268 317
#     4   9  18  32  54  79 104 138 181 224 263 311
#     4   9  19  32  50  80 110 136 175 225 270 312
#     4  10  20  35  55  79 110 144 178 223 270 317
#     4   9  17  31  53  80 104 134 180 227 265 308
#     4  10  19  35  59  81 106 143 183 227 271 315
#
# _framework density 19.129536000000002
#
# number of rings (size 3 to 8) (size 9 to 14) (size 15 to 20)
#    0.000    2.250    2.500    0.375    3.500    0.500 
#    0.000    0.625    0.000    2.250    0.000    0.000 
#    0.000    0.000    0.000    0.000    0.000    0.000 
#
# Total GULP energy -198369.992939 kJ/mol
# GULP energy per Si atom -12398.124559 kJ/mol
# Density = 1.908600 g / cm^3
# Si number density = 19.129536 Si / 1000 Ang^3
#
#
#
# Elastic Constant Matrix: (Units=GPa)
#
#
# Indices 1 2 3 4 5 6 
#
# 1 116.6377 15.6605 53.0171 -0.0006 3.0891 -0.0001
# 2 15.6605 10.3729 18.2496 -0.0024 6.5046 0.0005
# 3 53.0171 18.2496 155.4755 -0.0016 7.5411 0.0001
# 4 -0.0006 -0.0024 -0.0016 21.8982 -0.0001 1.9186
# 5 3.0891 6.5046 7.5411 -0.0001 28.8851 0.0002
# 6 -0.0001 0.0005 0.0001 1.9186 0.0002 18.0437
#
#
#
# Elastic Compliance Matrix: (Units=1/GPa)
#
#
# Indices 1 2 3 4 5 6 
#
# 1 0.011585 -0.015183 -0.002303 -0.000002 0.002781 0.000001
# 2 -0.015183 0.160278 -0.012117 0.000017 -0.031306 -0.000006
# 3 -0.002303 -0.012117 0.008604 -0.000001 0.000729 0.000000
# 4 -0.000002 0.000017 -0.000001 0.046095 -0.000003 -0.004901
# 5 0.002781 -0.031306 0.000729 -0.000003 0.041182 0.000001
# 6 0.000001 -0.000006 0.000000 -0.004901 0.000001 0.055942
#
#
# Mechanical properties :
#
#
# Convention : Reuss Voigt Hill
#
# Bulk Modulus (GPa) = 8.24674 50.70449 29.47561
# Shear Modulus (GPa) = 11.81156 26.80267 19.30711
#
# Velocity S-wave (km/s) = 2.48755 3.74721 3.18037
# Velocity P-wave (km/s) = 3.54555 6.72945 5.37849
#
# Compressibility (1/GPa) = 0.12126010
#
# Stress axis : x y z
#
# Youngs Moduli (GPa) = 86.31527 6.23917 116.22055
#
# Poissons Ratio (x) = 0.09473 0.26770
# Poissons Ratio (y) = 1.31051 1.40830
# Poissons Ratio (z) = 0.19882 0.07560
#
# Static dielectric constant tensor:
#      x y z
#    x 3.591060 0.000000 -0.027100 
#    y 0.000000 3.027900 0.000000 
#    z -0.027100 0.000000 3.830370 
# 
# 
# High freq. dielectric constant tensor:
#      x y z
#    x 1.756370 0.000000 -0.000220 
#    y 0.000000 1.690810 0.000000 
#    z -0.000220 0.000000 1.757290 
# 
# From -- ./inp_files/15784.got.cif
#   From: 2010.03.12/outbox.cif.g09.slc.cpg/sg8_8_cif.got.tgz:15784.got - 2010.03.31 10:45:26.
