data_PCOD8053973
_publ_section_title
;
Structure prediction by ZEFSAII (Michael W. Deem and Ramdas Pophale) SiO2 
 PCOD8053973
Probable space group: C M
;
_chemical_formula_sum "Si O2"
_cell_formula_units_Z 32
_cell_length_a 24.150463
_cell_length_b 8.324201
_cell_length_c 19.777275
_cell_angle_alpha 90.000000
_cell_angle_beta 156.894416
_cell_angle_gamma 90.000000
_cell_volume 1560.246031
_symmetry_space_group_name_H-M "C M"
_symmetry_group_IT_number 8
_symmetry_cell_setting 'monoclinic'
loop_
_space_group_symop_operation_xyz
x,y,z
x,-y,z
1/2+x,1/2+y,z
1/2+x,1/2-y,z
loop_
_atom_site_type_symbol
_atom_site_label
_atom_site_fract_x
_atom_site_fract_y
_atom_site_fract_z
Si Si1 0.786370 0.809603 0.601710
Si Si2 0.956344 0.812946 0.926934
Si Si3 0.261164 0.685398 0.231880
Si Si4 0.485219 0.684293 0.232949
Si Si5 0.788309 0.685100 0.119824
Si Si6 0.342455 0.188086 0.939391
Si Si7 0.526701 0.308601 0.612095
Si Si8 0.005105 0.809851 0.736940
O O1 0.856755 0.760898 0.752382
O O2 0.649079 0.708321 0.431160
O O3 0.886084 0.748521 0.653547
O O4 0.757922 0.000000 0.566831
O O5 0.907783 0.719189 0.939103
O O6 0.939110 0.000000 0.922167
O O7 0.119306 0.779174 0.092346
O O8 0.237049 0.500000 0.223412
O O9 0.304107 0.704105 0.202561
O O10 0.398287 0.758483 0.423238
O O11 0.444603 0.500000 0.199644
O O12 0.415805 0.797277 0.211241
O O13 0.439841 0.731081 0.106010
O O14 0.773109 0.500000 0.125427
O O15 0.653118 0.753009 0.929832
O O16 0.181037 0.254841 0.761425
O O17 0.343813 0.000000 0.956024
O O18 0.529817 0.500000 0.613058
O O19 0.488636 0.240680 0.643347
O O20 0.005044 0.000000 0.734347
#
# Coordination Sequence:
#
# PCOD8053973 Si02
#       8
#     4   4   4   4   4   4   4   4
#     4  10  22  41  66  92 122 167 214 256 313 379
#     4  11  24  43  63  92 130 169 213 262 312 373
#     4  11  23  39  63  97 129 165 208 260 316 372
#     4  12  26  42  62  95 130 162 208 267 319 376
#     4  11  21  41  68  91 120 165 210 261 318 373
#     4  11  23  43  67  90 124 171 212 257 317 378
#     4   9  20  38  63  93 121 158 209 256 306 371
#     4   9  17  37  66  90 114 153 210 261 305 368
#
# _framework density 20.509585999999999
#
# number of rings (size 3 to 8) (size 9 to 14) (size 15 to 20)
#    0.000    1.500    2.500    2.625    3.500    1.000 
#    0.000    1.875    0.000    0.000    0.000    0.000 
#    0.000    0.000    0.000    0.000    0.000    0.000 
#
# Total GULP energy -198383.552565 kJ/mol
# GULP energy per Si atom -12398.972035 kJ/mol
# Density = 2.046291 g / cm^3
# Si number density = 20.509586 Si / 1000 Ang^3
#
#
#
# Elastic Constant Matrix: (Units=GPa)
#
#
# Indices 1 2 3 4 5 6 
#
# 1 147.0312 3.8888 64.4482 0.0000 -6.2838 0.0000
# 2 3.8888 43.8732 20.5144 0.0000 -0.7277 0.0000
# 3 64.4482 20.5144 174.3322 0.0000 -7.0204 0.0000
# 4 0.0000 0.0000 0.0000 23.2038 0.0000 -4.2217
# 5 -6.2838 -0.7277 -7.0204 0.0000 36.7168 0.0000
# 6 0.0000 0.0000 0.0000 -4.2217 0.0000 8.8066
#
#
#
# Elastic Compliance Matrix: (Units=1/GPa)
#
#
# Indices 1 2 3 4 5 6 
#
# 1 0.008163 0.000726 -0.003070 0.000000 0.000824 0.000000
# 2 0.000726 0.024185 -0.003114 0.000000 0.000008 0.000000
# 3 -0.003070 -0.003114 0.007270 0.000000 0.000803 0.000000
# 4 0.000000 0.000000 0.000000 0.047214 0.000000 0.022634
# 5 0.000824 0.000008 0.000803 0.000000 0.027530 0.000000
# 6 0.000000 0.000000 0.000000 0.022634 0.000000 0.124402
#
#
# Mechanical properties :
#
#
# Convention : Reuss Voigt Hill
#
# Bulk Modulus (GPa) = 34.84172 60.32657 47.58415
# Shear Modulus (GPa) = 19.28658 32.17113 25.72886
#
# Velocity S-wave (km/s) = 3.06987 3.96484 3.54571
# Velocity P-wave (km/s) = 5.43970 7.10195 6.32566
#
# Compressibility (1/GPa) = 0.02870122
#
# Stress axis : x y z
#
# Youngs Moduli (GPa) = 122.50468 41.34835 137.55478
#
# Poissons Ratio (x) = -0.03000 0.42228
# Poissons Ratio (y) = -0.08889 0.42832
# Poissons Ratio (z) = 0.37608 0.12875
#
# Static dielectric constant tensor:
#      x y z
#    x 3.838350 0.000000 -0.052410 
#    y 0.000000 3.521380 0.000000 
#    z -0.052410 0.000000 3.935950 
# 
# 
# High freq. dielectric constant tensor:
#      x y z
#    x 1.815140 0.000000 -0.001440 
#    y 0.000000 1.779700 0.000000 
#    z -0.001440 0.000000 1.815610 
# 
# From -- ./inp_files/24304.got.cif
#   From: 2010.03.12/outbox.cif.g09.slc.cpg/sg8_13_cif.got.tgz:24304.got - 2010.03.31 10:45:26.
