data_PCOD8053120
_publ_section_title
;
Structure prediction by ZEFSAII (Michael W. Deem and Ramdas Pophale) SiO2 
 PCOD8053120
Probable space group: C M
;
_chemical_formula_sum "Si O2"
_cell_formula_units_Z 32
_cell_length_a 24.540813
_cell_length_b 8.787576
_cell_length_c 23.301883
_cell_angle_alpha 90.000000
_cell_angle_beta 160.589359
_cell_angle_gamma 90.000000
_cell_volume 1670.039874
_symmetry_space_group_name_H-M "C M"
_symmetry_group_IT_number 8
_symmetry_cell_setting 'monoclinic'
loop_
_space_group_symop_operation_xyz
x,y,z
x,-y,z
1/2+x,1/2+y,z
1/2+x,1/2-y,z
loop_
_atom_site_type_symbol
_atom_site_label
_atom_site_fract_x
_atom_site_fract_y
_atom_site_fract_z
Si Si1 0.546310 0.821186 0.806810
Si Si2 0.224807 0.326046 0.498978
Si Si3 0.047308 0.822616 0.023608
Si Si4 0.893113 0.827174 0.554641
Si Si5 0.705734 0.323432 0.065909
Si Si6 0.862081 0.319882 0.402731
Si Si7 0.033488 0.179030 0.400864
Si Si8 0.184538 0.680979 0.655507
O O1 0.387238 0.760178 0.683575
O O2 0.547113 0.742149 0.744290
O O3 0.545523 0.000000 0.797129
O O4 0.693931 0.770339 0.994598
O O5 0.224347 0.500000 0.520280
O O6 0.231107 0.319655 0.435278
O O7 0.073214 0.234575 0.375306
O O8 0.863123 0.770534 0.859494
O O9 0.065122 0.000000 0.052379
O O10 0.066440 0.787464 0.974718
O O11 0.198298 0.748032 0.209952
O O12 0.857506 0.728157 0.464062
O O13 0.934967 0.000000 0.578965
O O14 0.713435 0.500000 0.057742
O O15 0.872196 0.267914 0.261420
O O16 0.859607 0.500000 0.396185
O O17 0.033846 0.261507 0.545715
O O18 0.174302 0.232702 0.584466
O O19 0.006418 0.000000 0.375153
O O20 0.179081 0.500000 0.640195
#
# Coordination Sequence:
#
# PCOD8053120 Si02
#       8
#     4   4   4   4   4   4   4   4
#     4  10  19  34  56  85 113 145 192 244 295 352
#     4   9  19  36  56  79 108 151 195 234 294 361
#     4   9  19  35  58  87 115 153 198 238 295 363
#     4   9  20  37  59  82 110 158 203 242 296 357
#     4  11  20  35  56  82 120 161 199 243 299 368
#     4  10  19  36  60  87 117 155 201 249 298 353
#     4  12  23  34  53  85 121 155 198 254 305 355
#     4  10  20  37  60  85 118 158 198 242 302 371
#
# _framework density 19.161218999999999
#
# number of rings (size 3 to 8) (size 9 to 14) (size 15 to 20)
#    0.750    1.250    1.250    3.750    0.000    1.500 
#    0.000    2.500    0.000    4.500    0.000    0.000 
#    0.000    0.000    0.000    0.000    0.000    0.000 
#
# Total GULP energy -198219.597331 kJ/mol
# GULP energy per Si atom -12388.724833 kJ/mol
# Density = 1.911761 g / cm^3
# Si number density = 19.161219 Si / 1000 Ang^3
#
#
#
# Elastic Constant Matrix: (Units=GPa)
#
#
# Indices 1 2 3 4 5 6 
#
# 1 85.1606 18.8238 50.6374 0.0066 -3.5907 0.0014
# 2 18.8238 57.0917 17.4640 0.0109 2.5207 0.0065
# 3 50.6374 17.4640 115.0212 0.0033 -2.2049 0.0042
# 4 0.0066 0.0109 0.0033 22.7928 -0.0021 -6.5716
# 5 -3.5907 2.5207 -2.2049 -0.0021 30.3397 -0.0004
# 6 0.0014 0.0065 0.0042 -6.5716 -0.0004 27.3010
#
#
#
# Elastic Compliance Matrix: (Units=1/GPa)
#
#
# Indices 1 2 3 4 5 6 
#
# 1 0.016598 -0.003487 -0.006744 -0.000002 0.001764 0.000001
# 2 -0.003487 0.019193 -0.001419 -0.000010 -0.002110 -0.000007
# 3 -0.006744 -0.001419 0.011882 0.000001 0.000183 -0.000001
# 4 -0.000002 -0.000010 0.000001 0.047146 0.000004 0.011348
# 5 0.001764 -0.002110 0.000183 0.000004 0.033358 0.000002
# 6 0.000001 -0.000007 -0.000001 0.011348 0.000002 0.039360
#
#
# Mechanical properties :
#
#
# Convention : Reuss Voigt Hill
#
# Bulk Modulus (GPa) = 41.03128 47.90266 44.46697
# Shear Modulus (GPa) = 25.13060 27.44324 26.28692
#
# Velocity S-wave (km/s) = 3.62544 3.78858 3.70791
# Velocity P-wave (km/s) = 6.24382 6.64770 6.44892
#
# Compressibility (1/GPa) = 0.02437165
#
# Stress axis : x y z
#
# Youngs Moduli (GPa) = 60.24950 52.10268 84.16143
#
# Poissons Ratio (x) = 0.18171 0.56756
# Poissons Ratio (y) = 0.21012 0.11944
# Poissons Ratio (z) = 0.40630 0.07395
#
# Static dielectric constant tensor:
#      x y z
#    x 3.302910 0.000000 0.060020 
#    y 0.000000 3.250350 0.000000 
#    z 0.060020 0.000000 3.572580 
# 
# 
# High freq. dielectric constant tensor:
#      x y z
#    x 1.731960 0.000000 -0.001700 
#    y 0.000000 1.733450 0.000000 
#    z -0.001700 0.000000 1.733860 
# 
# From -- ./inp_files/32438.got.cif
#   From: 2010.03.12/outbox.cif.g09.slc.cpg/sg8_17_cif.got.tgz:32438.got - 2010.03.31 10:45:26.
