data_PCOD8053495
_publ_section_title
;
Structure prediction by ZEFSAII (Michael W. Deem and Ramdas Pophale) SiO2 
 PCOD8053495
Probable space group: C M
;
_chemical_formula_sum "Si O2"
_cell_formula_units_Z 24
_cell_length_a 17.616150
_cell_length_b 12.844135
_cell_length_c 12.262418
_cell_angle_alpha 90.000000
_cell_angle_beta 153.722804
_cell_angle_gamma 90.000000
_cell_volume 1228.331464
_symmetry_space_group_name_H-M "C M"
_symmetry_group_IT_number 8
_symmetry_cell_setting 'monoclinic'
loop_
_space_group_symop_operation_xyz
x,y,z
x,-y,z
1/2+x,1/2+y,z
1/2+x,1/2-y,z
loop_
_atom_site_type_symbol
_atom_site_label
_atom_site_fract_x
_atom_site_fract_y
_atom_site_fract_z
Si Si1 0.859430 0.801750 0.493440
Si Si2 0.113775 0.878717 0.205430
Si Si3 0.295342 0.381288 0.645156
Si Si4 0.684689 0.615787 0.826676
Si Si5 0.878093 0.886722 0.293521
Si Si6 0.485645 0.255403 0.242265
O O1 0.791289 0.683163 0.412666
O O2 0.796289 0.867269 0.515854
O O3 0.781531 0.850238 0.280439
O O4 0.067059 0.811722 0.756151
O O5 0.034431 0.843342 0.218192
O O6 0.160216 0.000000 0.270915
O O7 0.977774 0.853912 0.934514
O O8 0.245621 0.500000 0.609339
O O9 0.151438 0.302703 0.507030
O O10 0.709923 0.500000 0.910981
O O11 0.582521 0.604581 0.581340
O O12 0.867123 0.666815 0.035444
O O13 0.863787 0.805445 0.177278
O O14 0.805005 0.000000 0.164858
#
# Coordination Sequence:
#
# PCOD8053495 Si02
#       6
#     4   4   4   4   4   4
#     4   9  20  36  58  77 105 144 191 224 268 312
#     4  10  22  38  55  79 113 150 181 221 275 326
#     4  10  20  36  56  80 109 146 184 224 268 325
#     4   9  19  35  56  84 109 140 181 226 272 319
#     4   9  19  35  55  79 108 142 179 223 272 317
#     4  11  20  34  58  83 114 140 180 224 277 329
#
# _framework density 19.538699999999999
#
# number of rings (size 3 to 8) (size 9 to 14) (size 15 to 20)
#    1.000    1.333    0.000    3.000    2.333    0.000 
#    0.000    2.500    0.000    7.000    0.000    0.000 
#    0.000    0.000    0.000    0.000    0.000    0.000 
#
# Total GULP energy -148657.095095 kJ/mol
# GULP energy per Si atom -12388.091258 kJ/mol
# Density = 1.949423 g / cm^3
# Si number density = 19.538700 Si / 1000 Ang^3
#
#
#
# Elastic Constant Matrix: (Units=GPa)
#
#
# Indices 1 2 3 4 5 6 
#
# 1 69.3040 38.0562 7.0207 0.0000 -8.9689 0.0000
# 2 38.0562 136.8037 41.5956 0.0000 7.0710 0.0000
# 3 7.0207 41.5956 44.5912 0.0000 3.1889 0.0000
# 4 0.0000 0.0000 0.0000 27.3986 0.0000 2.4436
# 5 -8.9689 7.0710 3.1889 0.0000 27.6586 0.0000
# 6 0.0000 0.0000 0.0000 2.4436 0.0000 28.7583
#
#
#
# Elastic Compliance Matrix: (Units=1/GPa)
#
#
# Indices 1 2 3 4 5 6 
#
# 1 0.018587 -0.006283 0.002409 0.000000 0.007356 0.000000
# 2 -0.006283 0.012392 -0.010283 0.000000 -0.004020 0.000000
# 3 0.002409 -0.010283 0.031656 0.000000 -0.000240 0.000000
# 4 0.000000 0.000000 0.000000 0.036777 0.000000 -0.003125
# 5 0.007356 -0.004020 -0.000240 0.000000 0.039596 0.000000
# 6 0.000000 0.000000 0.000000 -0.003125 0.000000 0.035038
#
#
# Mechanical properties :
#
#
# Convention : Reuss Voigt Hill
#
# Bulk Modulus (GPa) = 29.13721 47.11598 38.12659
# Shear Modulus (GPa) = 23.38630 27.69821 25.54225
#
# Velocity S-wave (km/s) = 3.46341 3.76920 3.61953
# Velocity P-wave (km/s) = 5.56224 6.56574 6.08472
#
# Compressibility (1/GPa) = 0.03432038
#
# Stress axis : x y z
#
# Youngs Moduli (GPa) = 53.80002 80.69827 31.58986
#
# Poissons Ratio (x) = 0.50704 -0.07608
# Poissons Ratio (y) = 0.33803 0.32483
# Poissons Ratio (z) = -0.12958 0.82979
#
# Static dielectric constant tensor:
#      x y z
#    x 3.299920 0.000000 -0.038690 
#    y 0.000000 3.539960 0.000000 
#    z -0.038690 0.000000 3.318810 
# 
# 
# High freq. dielectric constant tensor:
#      x y z
#    x 1.745410 0.000000 -0.003070 
#    y 0.000000 1.767250 0.000000 
#    z -0.003070 0.000000 1.738500 
# 
# From -- ./inp_files/12312.got.cif
#   From: 2010.03.12/outbox.cif.g09.slc.cpg/sg8_7_cif.got.tgz:12312.got - 2010.03.31 10:45:26.
