data_PCOD8053273
_publ_section_title
;
Structure prediction by ZEFSAII (Michael W. Deem and Ramdas Pophale) SiO2 
 PCOD8053273
Probable space group: C M
;
_chemical_formula_sum "Si O2"
_cell_formula_units_Z 32
_cell_length_a 8.683898
_cell_length_b 12.307351
_cell_length_c 15.127645
_cell_angle_alpha 90.000000
_cell_angle_beta 88.446552
_cell_angle_gamma 90.000000
_cell_volume 1616.184657
_symmetry_space_group_name_H-M "C M"
_symmetry_group_IT_number 8
_symmetry_cell_setting 'monoclinic'
loop_
_space_group_symop_operation_xyz
x,y,z
x,-y,z
1/2+x,1/2+y,z
1/2+x,1/2-y,z
loop_
_atom_site_type_symbol
_atom_site_label
_atom_site_fract_x
_atom_site_fract_y
_atom_site_fract_z
Si Si1 0.063370 0.673865 0.441150
Si Si2 0.180123 0.620844 0.253080
Si Si3 0.219258 0.125815 0.491804
Si Si4 0.141635 0.126029 0.049343
Si Si5 0.183596 0.696444 0.619997
Si Si6 0.908998 0.729813 0.154140
Si Si7 0.190813 0.124925 0.846383
Si Si8 0.930898 0.225167 0.742656
O O1 0.147192 0.619361 0.357796
O O2 0.090761 0.805571 0.437789
O O3 0.144788 0.628931 0.531054
O O4 0.884468 0.643327 0.442849
O O5 0.226364 0.500000 0.222878
O O6 0.321858 0.699304 0.229305
O O7 0.028053 0.653890 0.202624
O O8 0.220166 0.176867 0.590883
O O9 0.172664 0.000000 0.494361
O O10 0.290976 0.153092 0.104770
O O11 0.993266 0.192654 0.083082
O O12 0.101764 0.000000 0.060086
O O13 0.174538 0.158149 0.948312
O O14 0.040798 0.691987 0.688681
O O15 0.333447 0.654978 0.671471
O O16 0.026288 0.142431 0.801634
O O17 0.319428 0.202259 0.803779
O O18 0.241121 0.000000 0.835358
#
# Coordination Sequence:
#
# PCOD8053273 Si02
#       8
#     4   4   4   4   4   4   4   4
#     4  10  20  37  57  82 112 153 193 234 278 334
#     4  11  22  38  58  85 119 150 189 236 282 331
#     4  10  20  37  57  77 106 151 194 235 281 324
#     4  10  20  39  61  86 114 146 189 227 283 353
#     4   9  18  35  56  77 112 149 188 233 273 330
#     4  10  22  37  61  88 114 150 185 232 287 336
#     4  10  22  38  61  85 112 151 185 230 292 341
#     4  10  19  37  56  82 117 142 186 243 275 325
#
# _framework density 19.799717000000001
#
# number of rings (size 3 to 8) (size 9 to 14) (size 15 to 20)
#    0.750    1.250    1.250    2.625    0.000    2.000 
#    0.000    9.375    0.000   10.500    0.000    0.000 
#    0.000    0.000    0.000    0.000    0.000    0.000 
#
# Total GULP energy -198311.026745 kJ/mol
# GULP energy per Si atom -12394.439172 kJ/mol
# Density = 1.975465 g / cm^3
# Si number density = 19.799717 Si / 1000 Ang^3
#
#
#
# Elastic Constant Matrix: (Units=GPa)
#
#
# Indices 1 2 3 4 5 6 
#
# 1 52.2765 1.3611 11.4246 0.0000 -9.7924 0.0000
# 2 1.3611 69.1609 15.4262 0.0000 -6.0753 0.0000
# 3 11.4246 15.4262 100.3907 0.0000 -10.0957 0.0000
# 4 0.0000 0.0000 0.0000 13.9194 0.0000 5.3210
# 5 -9.7924 -6.0753 -10.0957 0.0000 29.0700 0.0000
# 6 0.0000 0.0000 0.0000 5.3210 0.0000 16.9840
#
#
#
# Elastic Compliance Matrix: (Units=1/GPa)
#
#
# Indices 1 2 3 4 5 6 
#
# 1 0.020719 0.000561 -0.001793 0.000000 0.006474 0.000000
# 2 0.000561 0.015153 -0.002129 0.000000 0.002616 0.000000
# 3 -0.001793 -0.002129 0.010763 0.000000 0.002689 0.000000
# 4 0.000000 0.000000 0.000000 0.081617 0.000000 -0.025570
# 5 0.006474 0.002616 0.002689 0.000000 0.038061 0.000000
# 6 0.000000 0.000000 0.000000 -0.025570 0.000000 0.066890
#
#
# Mechanical properties :
#
#
# Convention : Reuss Voigt Hill
#
# Bulk Modulus (GPa) = 25.05521 30.91688 27.98604
# Shear Modulus (GPa) = 19.74501 24.90243 22.32372
#
# Velocity S-wave (km/s) = 3.16133 3.55028 3.36143
# Velocity P-wave (km/s) = 5.09972 5.69690 5.40656
#
# Compressibility (1/GPa) = 0.03991187
#
# Stress axis : x y z
#
# Youngs Moduli (GPa) = 48.26496 65.99480 92.91361
#
# Poissons Ratio (x) = -0.03701 0.16659
# Poissons Ratio (y) = -0.02707 0.19782
# Poissons Ratio (z) = 0.08654 0.14051
#
# Static dielectric constant tensor:
#      x y z
#    x 3.653660 0.000000 -0.000560 
#    y 0.000000 3.309310 0.000000 
#    z -0.000560 0.000000 3.705370 
# 
# 
# High freq. dielectric constant tensor:
#      x y z
#    x 1.779340 0.000000 -0.004740 
#    y 0.000000 1.747630 0.000000 
#    z -0.004740 0.000000 1.781160 
# 
# From -- ./inp_files/25257.got.cif
#   From: 2010.03.12/outbox.cif.g09.slc.cpg/sg8_13_cif.got.tgz:25257.got - 2010.03.31 10:45:26.
