data_PCOD8053898
_publ_section_title
;
Structure prediction by ZEFSAII (Michael W. Deem and Ramdas Pophale) SiO2 
 PCOD8053898
Probable space group: C M
;
_chemical_formula_sum "Si O2"
_cell_formula_units_Z 26
_cell_length_a 14.482414
_cell_length_b 7.767175
_cell_length_c 12.003929
_cell_angle_alpha 90.000000
_cell_angle_beta 67.437313
_cell_angle_gamma 90.000000
_cell_volume 1246.940384
_symmetry_space_group_name_H-M "C M"
_symmetry_group_IT_number 8
_symmetry_cell_setting 'monoclinic'
loop_
_space_group_symop_operation_xyz
x,y,z
x,-y,z
1/2+x,1/2+y,z
1/2+x,1/2-y,z
loop_
_atom_site_type_symbol
_atom_site_label
_atom_site_fract_x
_atom_site_fract_y
_atom_site_fract_z
Si Si1 0.506410 0.811965 0.475640
Si Si2 0.824299 0.000000 0.870273
Si Si3 0.760679 0.303831 0.054702
Si Si4 0.336506 0.203526 0.257690
Si Si5 0.053184 0.702244 0.209204
Si Si6 0.475587 0.500000 0.621017
Si Si7 0.274503 0.190668 0.521588
Si Si8 0.758067 0.000000 0.665878
O O1 0.562694 0.756992 0.336293
O O2 0.535372 0.674029 0.559322
O O3 0.389010 0.825993 0.505732
O O4 0.543589 0.000000 0.499136
O O5 0.937606 0.000000 0.766961
O O6 0.742027 0.000000 0.807454
O O7 0.812457 0.175545 0.944087
O O8 0.797789 0.500000 0.015247
O O9 0.787722 0.235171 0.165453
O O10 0.640901 0.297664 0.101023
O O11 0.449028 0.278374 0.211144
O O12 0.270935 0.261712 0.395351
O O13 0.345145 0.000000 0.261511
O O14 0.063328 0.500000 0.181563
O O15 0.377584 0.500000 0.585991
O O16 0.214977 0.325961 0.628279
O O17 0.223990 0.000000 0.556347
#
# Coordination Sequence:
#
# PCOD8053898 Si02
#       8
#     4   2   4   4   4   2   4   2
#     4   8  14  25  47  76 100 127 169 220 274 319
#     4  10  22  35  47  78 115 151 190 231 259 334
#     4  11  22  36  52  82 119 151 186 225 281 334
#     4   8  17  33  55  82 113 145 179 230 291 331
#     4   9  17  34  56  81 115 142 177 230 286 334
#     4   8  16  28  46  72 101 131 180 226 258 312
#     4   8  13  26  47  74 101 126 171 221 273 322
#     4   8  16  27  45  74  98 134 178 223 257 312
#
# _framework density 20.851036000000001
#
# number of rings (size 3 to 8) (size 9 to 14) (size 15 to 20)
#    0.462    2.769    0.769    1.846    1.077    1.846 
#    2.769    0.000    0.000    0.000    4.000    0.000 
#    0.000    0.000    0.000    0.000    0.000    0.000 
#
# Total GULP energy -161069.264074 kJ/mol
# GULP energy per Si atom -12389.943390 kJ/mol
# Density = 2.080358 g / cm^3
# Si number density = 20.851036 Si / 1000 Ang^3
#
#
#
# Elastic Constant Matrix: (Units=GPa)
#
#
# Indices 1 2 3 4 5 6 
#
# 1 15.9222 6.2021 12.3365 0.0000 11.5512 0.0000
# 2 6.2021 125.0374 64.7285 0.0000 10.8308 0.0000
# 3 12.3365 64.7285 109.6507 0.0000 18.7817 0.0000
# 4 0.0000 0.0000 0.0000 41.4451 0.0000 2.4743
# 5 11.5512 10.8308 18.7817 0.0000 24.1004 0.0000
# 6 0.0000 0.0000 0.0000 2.4743 0.0000 14.4336
#
#
#
# Elastic Compliance Matrix: (Units=1/GPa)
#
#
# Indices 1 2 3 4 5 6 
#
# 1 0.097485 0.001083 -0.004063 0.000000 -0.044045 0.000000
# 2 0.001083 0.011530 -0.006868 0.000000 -0.000348 0.000000
# 3 -0.004063 -0.006868 0.014736 0.000000 -0.006450 0.000000
# 4 0.000000 0.000000 0.000000 0.024378 0.000000 -0.004179
# 5 -0.044045 -0.000348 -0.006450 0.000000 0.067786 0.000000
# 6 0.000000 0.000000 0.000000 -0.004179 0.000000 0.069999
#
#
# Mechanical properties :
#
#
# Convention : Reuss Voigt Hill
#
# Bulk Modulus (GPa) = 9.61035 46.34938 27.97986
# Shear Modulus (GPa) = 14.69312 27.15203 20.92258
#
# Velocity S-wave (km/s) = 2.65744 3.61250 3.17113
# Velocity P-wave (km/s) = 3.74634 6.29899 5.18230
#
# Compressibility (1/GPa) = 0.10405445
#
# Stress axis : x y z
#
# Youngs Moduli (GPa) = 10.25800 86.73346 67.85975
#
# Poissons Ratio (x) = -0.09393 0.27570
# Poissons Ratio (y) = -0.01111 0.46608
# Poissons Ratio (z) = 0.04168 0.59571
#
# Static dielectric constant tensor:
#      x y z
#    x 3.413990 0.000000 0.152210 
#    y 0.000000 3.961800 0.000000 
#    z 0.152210 0.000000 3.585500 
# 
# 
# High freq. dielectric constant tensor:
#      x y z
#    x 1.781580 0.000000 0.004810 
#    y 0.000000 1.819750 0.000000 
#    z 0.004810 0.000000 1.784980 
# 
# From -- ./inp_files/22610.got.cif
#   From: 2010.03.12/outbox.cif.g09.slc.cpg/sg8_12_cif.got.tgz:22610.got - 2010.03.31 10:45:26.
