data_PCOD8053604
_publ_section_title
;
Structure prediction by ZEFSAII (Michael W. Deem and Ramdas Pophale) SiO2 
 PCOD8053604
Probable space group: C M
;
_chemical_formula_sum "Si O2"
_cell_formula_units_Z 32
_cell_length_a 24.855370
_cell_length_b 8.583730
_cell_length_c 16.468287
_cell_angle_alpha 90.000000
_cell_angle_beta 26.582819
_cell_angle_gamma 90.000000
_cell_volume 1572.276622
_symmetry_space_group_name_H-M "C M"
_symmetry_group_IT_number 8
_symmetry_cell_setting 'monoclinic'
loop_
_space_group_symop_operation_xyz
x,y,z
x,-y,z
1/2+x,1/2+y,z
1/2+x,1/2-y,z
loop_
_atom_site_type_symbol
_atom_site_label
_atom_site_fract_x
_atom_site_fract_y
_atom_site_fract_z
Si Si1 0.413310 0.823250 0.070590
Si Si2 0.010266 0.818654 0.095179
Si Si3 0.597452 0.177400 0.681098
Si Si4 0.411868 0.318259 0.813631
Si Si5 0.274229 0.184910 0.699085
Si Si6 0.229932 0.816959 0.183442
Si Si7 0.822097 0.317373 0.454811
Si Si8 0.969913 0.316578 0.563978
O O1 0.429042 0.709339 0.125118
O O2 0.296715 0.769528 0.176861
O O3 0.397892 0.000000 0.123069
O O4 0.530531 0.807680 0.856859
O O5 0.955883 0.725498 0.244936
O O6 0.011223 0.000000 0.114763
O O7 0.143953 0.751243 0.901511
O O8 0.531829 0.281991 0.702596
O O9 0.731953 0.237102 0.512685
O O10 0.598042 0.000000 0.648992
O O11 0.407169 0.500000 0.800398
O O12 0.417504 0.224367 0.722394
O O13 0.291657 0.269549 0.024215
O O14 0.305648 0.250493 0.567515
O O15 0.373574 0.243286 0.628280
O O16 0.270297 0.000000 0.701848
O O17 0.092120 0.772279 0.378177
O O18 0.246101 0.000000 0.146316
O O19 0.798927 0.500000 0.484628
O O20 0.993003 0.500000 0.526524
#
# Coordination Sequence:
#
# PCOD8053604 Si02
#       8
#     4   4   4   4   4   4   4   4
#     4   9  19  36  59  87 123 157 195 250 307 360
#     4  11  22  38  60  89 121 159 205 248 304 367
#     4  10  20  37  61  91 125 160 201 252 309 365
#     4  11  23  40  62  92 126 164 207 253 311 369
#     4   9  22  43  63  86 122 163 205 255 306 362
#     4  10  22  41  62  91 127 162 207 257 309 366
#     4  11  22  39  61  89 122 160 203 251 308 366
#     4  11  23  42  66  91 124 165 211 258 308 367
#
# _framework density 20.352653
#
# number of rings (size 3 to 8) (size 9 to 14) (size 15 to 20)
#    0.000    1.750    1.250    3.750    1.750    3.500 
#    0.000    7.500    0.000    0.000    0.000    0.000 
#    0.000    0.000    0.000    0.000    0.000    0.000 
#
# Total GULP energy -198464.029295 kJ/mol
# GULP energy per Si atom -12404.001831 kJ/mol
# Density = 2.030633 g / cm^3
# Si number density = 20.352653 Si / 1000 Ang^3
#
#
#
# Elastic Constant Matrix: (Units=GPa)
#
#
# Indices 1 2 3 4 5 6 
#
# 1 108.4102 11.4292 61.8038 -0.0001 -8.8836 -0.0003
# 2 11.4292 49.7928 13.2595 -0.0015 -2.1262 0.0004
# 3 61.8038 13.2595 130.8759 -0.0005 -9.1652 0.0003
# 4 -0.0001 -0.0015 -0.0005 35.5375 0.0005 0.2321
# 5 -8.8836 -2.1262 -9.1652 0.0005 26.1467 -0.0002
# 6 -0.0003 0.0004 0.0003 0.2321 -0.0002 24.2687
#
#
#
# Elastic Compliance Matrix: (Units=1/GPa)
#
#
# Indices 1 2 3 4 5 6 
#
# 1 0.012836 -0.001314 -0.005772 0.000000 0.002231 0.000000
# 2 -0.001314 0.020799 -0.001435 0.000001 0.000742 0.000000
# 3 -0.005772 -0.001435 0.010627 0.000000 0.001647 0.000000
# 4 0.000000 0.000001 0.000000 0.028141 -0.000001 -0.000269
# 5 0.002231 0.000742 0.001647 -0.000001 0.039642 0.000000
# 6 0.000000 0.000000 0.000000 -0.000269 0.000000 0.041208
#
#
# Mechanical properties :
#
#
# Convention : Reuss Voigt Hill
#
# Bulk Modulus (GPa) = 36.73741 51.34044 44.03893
# Shear Modulus (GPa) = 27.87558 30.69634 29.28596
#
# Velocity S-wave (km/s) = 3.70486 3.88780 3.79743
# Velocity P-wave (km/s) = 6.03249 6.74044 6.39627
#
# Compressibility (1/GPa) = 0.02722021
#
# Stress axis : x y z
#
# Youngs Moduli (GPa) = 77.90363 48.08027 94.09595
#
# Poissons Ratio (x) = 0.06318 0.54316
# Poissons Ratio (y) = 0.10236 0.13500
# Poissons Ratio (z) = 0.44969 0.06898
#
# Static dielectric constant tensor:
#      x y z
#    x 3.716010 0.000000 0.001490 
#    y 0.000000 3.520880 0.000000 
#    z 0.001490 0.000000 3.763740 
# 
# 
# High freq. dielectric constant tensor:
#      x y z
#    x 1.789200 0.000000 0.001910 
#    y 0.000000 1.788550 0.000000 
#    z 0.001910 0.000000 1.805550 
# 
# From -- ./inp_files/28195.got.cif
#   From: 2010.03.12/outbox.cif.g09.slc.cpg/sg8_15_cif.got.tgz:28195.got - 2010.03.31 10:45:26.
