data_PCOD8053105
_publ_section_title
;
Structure prediction by ZEFSAII (Michael W. Deem and Ramdas Pophale) SiO2 
 PCOD8053105
Probable space group: C M
;
_chemical_formula_sum "Si O2"
_cell_formula_units_Z 32
_cell_length_a 28.733733
_cell_length_b 8.775250
_cell_length_c 14.357101
_cell_angle_alpha 90.000000
_cell_angle_beta 29.126344
_cell_angle_gamma 90.000000
_cell_volume 1762.027727
_symmetry_space_group_name_H-M "C M"
_symmetry_group_IT_number 8
_symmetry_cell_setting 'monoclinic'
loop_
_space_group_symop_operation_xyz
x,y,z
x,-y,z
1/2+x,1/2+y,z
1/2+x,1/2-y,z
loop_
_atom_site_type_symbol
_atom_site_label
_atom_site_fract_x
_atom_site_fract_y
_atom_site_fract_z
Si Si1 0.692230 0.818481 0.241380
Si Si2 0.174779 0.180656 0.638803
Si Si3 0.563327 0.670394 0.009967
Si Si4 0.972581 0.321177 0.329388
Si Si5 0.901818 0.179338 0.826005
Si Si6 0.591518 0.319342 0.590548
Si Si7 0.854603 0.169833 0.390840
Si Si8 0.017613 0.180409 0.446233
O O1 0.664346 0.759805 0.392160
O O2 0.619343 0.756502 0.291197
O O3 0.690128 0.000000 0.243667
O O4 0.797959 0.751849 0.032178
O O5 0.126742 0.244598 0.817596
O O6 0.117714 0.238171 0.648129
O O7 0.281642 0.245178 0.450152
O O8 0.176019 0.000000 0.638300
O O9 0.599389 0.500000 0.973061
O O10 0.562528 0.774512 0.104963
O O11 0.454817 0.660724 0.159808
O O12 0.970977 0.500000 0.349188
O O13 0.873518 0.264833 0.453768
O O14 0.980966 0.234529 0.411210
O O15 0.938244 0.232705 0.660578
O O16 0.982193 0.230591 0.760765
O O17 0.891534 0.000000 0.845605
O O18 0.603839 0.500000 0.557276
O O19 0.817759 0.000000 0.480153
O O20 0.031659 0.000000 0.423146
#
# Coordination Sequence:
#
# PCOD8053105 Si02
#       8
#     4   4   4   4   4   4   4   4
#     4  10  19  34  55  81 106 134 176 222 261 312
#     4  10  19  34  56  79 106 142 184 221 264 315
#     4   8  18  35  52  74 105 142 178 218 262 312
#     4  10  19  35  56  79 108 141 175 221 268 313
#     4   8  17  34  55  76 103 138 174 211 259 316
#     4   9  19  35  54  77 108 143 173 213 267 318
#     4   9  19  35  53  75 105 140 179 219 265 311
#     4  10  19  36  57  77 105 140 175 215 266 321
#
# _framework density 18.160895
#
# number of rings (size 3 to 8) (size 9 to 14) (size 15 to 20)
#    0.750    2.000    0.000    2.625    0.000    2.000 
#    2.250    8.750    0.000    0.000    0.000    0.000 
#    0.000    0.000    0.000    0.000    0.000    0.000 
#
# Total GULP energy -198272.029726 kJ/mol
# GULP energy per Si atom -12392.001858 kJ/mol
# Density = 1.811956 g / cm^3
# Si number density = 18.160895 Si / 1000 Ang^3
#
#
#
# Elastic Constant Matrix: (Units=GPa)
#
#
# Indices 1 2 3 4 5 6 
#
# 1 92.1446 26.4965 27.1301 0.0000 -1.5031 0.0000
# 2 26.4965 45.3065 24.1027 0.0000 0.4918 0.0000
# 3 27.1301 24.1027 92.4497 0.0000 -8.3395 0.0000
# 4 0.0000 0.0000 0.0000 23.9927 0.0000 -2.1294
# 5 -1.5031 0.4918 -8.3395 0.0000 22.5996 0.0000
# 6 0.0000 0.0000 0.0000 -2.1294 0.0000 29.5431
#
#
#
# Elastic Compliance Matrix: (Units=1/GPa)
#
#
# Indices 1 2 3 4 5 6 
#
# 1 0.013421 -0.006697 -0.002171 0.000000 0.000237 0.000000
# 2 -0.006697 0.029183 -0.005938 0.000000 -0.003272 0.000000
# 3 -0.002171 -0.005938 0.013448 0.000000 0.004947 0.000000
# 4 0.000000 0.000000 0.000000 0.041948 0.000000 0.003023
# 5 0.000237 -0.003272 0.004947 0.000000 0.046161 0.000000
# 6 0.000000 0.000000 0.000000 0.003023 0.000000 0.034067
#
#
# Mechanical properties :
#
#
# Convention : Reuss Voigt Hill
#
# Bulk Modulus (GPa) = 37.82129 42.81770 40.31950
# Shear Modulus (GPa) = 23.07829 25.37185 24.22507
#
# Velocity S-wave (km/s) = 3.56865 3.74178 3.65624
# Velocity P-wave (km/s) = 6.15234 6.50353 6.33037
#
# Compressibility (1/GPa) = 0.02644014
#
# Stress axis : x y z
#
# Youngs Moduli (GPa) = 74.50836 34.26671 74.35860
#
# Poissons Ratio (x) = 0.22947 0.16146
# Poissons Ratio (y) = 0.49895 0.44156
# Poissons Ratio (z) = 0.16178 0.20348
#
# Static dielectric constant tensor:
#      x y z
#    x 3.330470 0.000000 -0.015620 
#    y 0.000000 3.191510 0.000000 
#    z -0.015620 0.000000 3.414120 
# 
# 
# High freq. dielectric constant tensor:
#      x y z
#    x 1.698230 0.000000 -0.000960 
#    y 0.000000 1.695290 0.000000 
#    z -0.000960 0.000000 1.693870 
# 
# From -- ./inp_files/28320.got.cif
#   From: 2010.03.12/outbox.cif.g09.slc.cpg/sg8_15_cif.got.tgz:28320.got - 2010.03.31 10:45:26.
