data_PCOD8053400
_publ_section_title
;
Structure prediction by ZEFSAII (Michael W. Deem and Ramdas Pophale) SiO2 
 PCOD8053400
Probable space group: C M
;
_chemical_formula_sum "Si O2"
_cell_formula_units_Z 32
_cell_length_a 28.377743
_cell_length_b 9.360306
_cell_length_c 14.060948
_cell_angle_alpha 90.000000
_cell_angle_beta 150.320270
_cell_angle_gamma 90.000000
_cell_volume 1849.355716
_symmetry_space_group_name_H-M "C M"
_symmetry_group_IT_number 8
_symmetry_cell_setting 'monoclinic'
loop_
_space_group_symop_operation_xyz
x,y,z
x,-y,z
1/2+x,1/2+y,z
1/2+x,1/2-y,z
loop_
_atom_site_type_symbol
_atom_site_label
_atom_site_fract_x
_atom_site_fract_y
_atom_site_fract_z
Si Si1 0.676770 0.657919 0.884830
Si Si2 0.341252 0.665834 0.209261
Si Si3 0.041214 0.163255 0.484433
Si Si4 0.182433 0.833227 0.284589
Si Si5 0.755398 0.661161 0.212391
Si Si6 0.797395 0.666466 0.673074
Si Si7 0.630338 0.832856 0.471522
Si Si8 0.515982 0.166122 0.083280
O O1 0.715393 0.500000 0.924565
O O2 0.580484 0.688616 0.659981
O O3 0.755119 0.776138 0.992357
O O4 0.664909 0.664150 0.979703
O O5 0.331329 0.500000 0.213871
O O6 0.431547 0.701541 0.303091
O O7 0.339670 0.746791 0.309550
O O8 0.090260 0.270776 0.498604
O O9 0.056621 0.000000 0.476899
O O10 0.223908 0.773276 0.257932
O O11 0.262809 0.803419 0.504874
O O12 0.083637 0.752715 0.130718
O O13 0.157803 0.000000 0.234106
O O14 0.793152 0.500000 0.294253
O O15 0.786535 0.500000 0.680381
O O16 0.730714 0.757130 0.626136
O O17 0.906711 0.716596 0.878272
O O18 0.551246 0.802270 0.252159
O O19 0.650110 0.000000 0.517788
O O20 0.525756 0.000000 0.074871
#
# Coordination Sequence:
#
# PCOD8053400 Si02
#       8
#     4   4   4   4   4   4   4   4
#     4   8  17  34  51  67  98 135 164 199 243 294
#     4   9  18  32  50  73  99 128 168 210 242 282
#     4  10  20  35  53  72  98 136 170 200 248 300
#     4   9  17  32  54  76 100 131 168 204 241 289
#     4   8  16  33  52  71 102 137 164 199 246 293
#     4   9  18  35  55  74 100 133 165 200 247 303
#     4  10  21  34  51  75 102 129 164 210 250 290
#     4   9  19  35  52  74 103 131 161 202 253 301
#
# _framework density 17.303324
#
# number of rings (size 3 to 8) (size 9 to 14) (size 15 to 20)
#    0.750    2.250    0.000    0.375    0.000    4.000 
#    2.250    3.750    0.000    0.000    0.000    0.000 
#    0.000    0.000    0.000    0.000    0.000    0.000 
#
# Total GULP energy -198239.298377 kJ/mol
# GULP energy per Si atom -12389.956149 kJ/mol
# Density = 1.726394 g / cm^3
# Si number density = 17.303324 Si / 1000 Ang^3
#
#
#
# Elastic Constant Matrix: (Units=GPa)
#
#
# Indices 1 2 3 4 5 6 
#
# 1 88.5234 43.8040 23.7015 0.0000 1.5067 0.0000
# 2 43.8040 65.1072 27.1489 0.0000 8.9571 0.0000
# 3 23.7015 27.1489 78.9263 0.0000 12.5300 0.0000
# 4 0.0000 0.0000 0.0000 22.9999 0.0000 2.1132
# 5 1.5067 8.9571 12.5300 0.0000 22.9401 0.0000
# 6 0.0000 0.0000 0.0000 2.1132 0.0000 30.0723
#
#
#
# Elastic Compliance Matrix: (Units=1/GPa)
#
#
# Indices 1 2 3 4 5 6 
#
# 1 0.017456 -0.011529 -0.001981 0.000000 0.004437 0.000000
# 2 -0.011529 0.025883 -0.004333 0.000000 -0.006983 0.000000
# 3 -0.001981 -0.004333 0.015839 0.000000 -0.006830 0.000000
# 4 0.000000 0.000000 0.000000 0.043761 0.000000 -0.003075
# 5 0.004437 -0.006983 -0.006830 0.000000 0.049757 0.000000
# 6 0.000000 0.000000 0.000000 -0.003075 0.000000 0.033469
#
#
# Mechanical properties :
#
#
# Convention : Reuss Voigt Hill
#
# Bulk Modulus (GPa) = 42.56360 46.87395 44.71878
# Shear Modulus (GPa) = 21.76923 24.39597 23.08260
#
# Velocity S-wave (km/s) = 3.55081 3.75894 3.65636
# Velocity P-wave (km/s) = 6.43917 6.78143 6.61252
#
# Compressibility (1/GPa) = 0.02349425
#
# Stress axis : x y z
#
# Youngs Moduli (GPa) = 57.28662 38.63518 63.13347
#
# Poissons Ratio (x) = 0.44542 0.12505
# Poissons Ratio (y) = 0.66045 0.27353
# Poissons Ratio (z) = 0.11347 0.16739
#
# Static dielectric constant tensor:
#      x y z
#    x 3.094290 0.000000 -0.061250 
#    y 0.000000 3.227620 0.000000 
#    z -0.061250 0.000000 3.205250 
# 
# 
# High freq. dielectric constant tensor:
#      x y z
#    x 1.656720 0.000000 -0.005450 
#    y 0.000000 1.669870 0.000000 
#    z -0.005450 0.000000 1.657380 
# 
# From -- ./inp_files/26419.got.cif
#   From: 2010.03.12/outbox.cif.g09.slc.cpg/sg8_14_cif.got.tgz:26419.got - 2010.03.31 10:45:26.
