data_PCOD8053195
_publ_section_title
;
Structure prediction by ZEFSAII (Michael W. Deem and Ramdas Pophale) SiO2 
 PCOD8053195
Probable space group: C M
;
_chemical_formula_sum "Si O2"
_cell_formula_units_Z 32
_cell_length_a 15.483812
_cell_length_b 8.661531
_cell_length_c 22.923474
_cell_angle_alpha 90.000000
_cell_angle_beta 31.820319
_cell_angle_gamma 90.000000
_cell_volume 1620.971864
_symmetry_space_group_name_H-M "C M"
_symmetry_group_IT_number 8
_symmetry_cell_setting 'monoclinic'
loop_
_space_group_symop_operation_xyz
x,y,z
x,-y,z
1/2+x,1/2+y,z
1/2+x,1/2-y,z
loop_
_atom_site_type_symbol
_atom_site_label
_atom_site_fract_x
_atom_site_fract_y
_atom_site_fract_z
Si Si1 0.671800 0.316642 0.735820
Si Si2 0.990602 0.681966 0.348058
Si Si3 0.300152 0.179065 0.346699
Si Si4 0.324031 0.316987 0.887779
Si Si5 0.336328 0.672923 0.121678
Si Si6 0.971227 0.682452 0.488872
Si Si7 0.150952 0.184768 0.879449
Si Si8 0.534251 0.325398 0.124199
O O1 0.676523 0.500000 0.734035
O O2 0.504886 0.259862 0.801541
O O3 0.685570 0.256368 0.794386
O O4 0.824407 0.247138 0.612049
O O5 0.022993 0.500000 0.336171
O O6 0.837973 0.714814 0.393112
O O7 0.158494 0.756274 0.224658
O O8 0.955326 0.751634 0.432496
O O9 0.144227 0.277589 0.418122
O O10 0.462619 0.226255 0.218339
O O11 0.262550 0.000000 0.357760
O O12 0.309318 0.500000 0.895884
O O13 0.288105 0.252874 0.843794
O O14 0.201755 0.250871 0.006445
O O15 0.313894 0.500000 0.110975
O O16 0.398980 0.675116 0.151713
O O17 0.471980 0.751643 0.001754
O O18 0.953640 0.500000 0.497286
O O19 0.154088 0.000000 0.884088
O O20 0.570099 0.500000 0.124153
#
# Coordination Sequence:
#
# PCOD8053195 Si02
#       8
#     4   4   4   4   4   4   4   4
#     4   9  20  36  59  82 105 151 198 229 267 336
#     4   9  18  32  54  80 106 145 184 221 276 338
#     4  11  22  34  55  87 113 140 184 238 288 325
#     4  10  20  35  56  86 115 142 185 237 279 320
#     4   8  14  28  53  77 101 139 180 214 259 330
#     4  10  20  40  60  76 108 152 197 229 269 337
#     4   9  18  34  55  80 111 147 187 224 277 340
#     4  10  19  35  58  82 113 152 185 220 277 342
#
# _framework density 19.741244999999999
#
# number of rings (size 3 to 8) (size 9 to 14) (size 15 to 20)
#    0.000    2.500    1.250    1.875    1.750    1.000 
#    0.000    5.625    0.000    0.000    0.000    0.000 
#    0.000    0.000    0.000    0.000    0.000    0.000 
#
# Total GULP energy -198340.910840 kJ/mol
# GULP energy per Si atom -12396.306927 kJ/mol
# Density = 1.969631 g / cm^3
# Si number density = 19.741245 Si / 1000 Ang^3
#
#
#
# Elastic Constant Matrix: (Units=GPa)
#
#
# Indices 1 2 3 4 5 6 
#
# 1 130.8649 11.6606 78.2505 0.0003 8.1355 0.0000
# 2 11.6606 26.7933 10.4090 0.0003 1.0299 0.0001
# 3 78.2505 10.4090 139.3488 -0.0007 8.8591 0.0003
# 4 0.0003 0.0003 -0.0007 19.0839 0.0002 -3.7922
# 5 8.1355 1.0299 8.8591 0.0002 27.5490 0.0000
# 6 0.0000 0.0001 0.0003 -3.7922 0.0000 24.6646
#
#
#
# Elastic Compliance Matrix: (Units=1/GPa)
#
#
# Indices 1 2 3 4 5 6 
#
# 1 0.011727 -0.002603 -0.006306 0.000000 -0.001338 0.000000
# 2 -0.002603 0.039023 -0.001439 -0.000001 -0.000228 0.000000
# 3 -0.006306 -0.001439 0.010926 0.000001 -0.001598 0.000000
# 4 0.000000 -0.000001 0.000001 0.054052 -0.000001 0.008310
# 5 -0.001338 -0.000228 -0.001598 -0.000001 0.037216 0.000000
# 6 0.000000 0.000000 0.000000 0.008310 0.000000 0.041822
#
#
# Mechanical properties :
#
#
# Convention : Reuss Voigt Hill
#
# Bulk Modulus (GPa) = 24.40106 55.29413 39.84760
# Shear Modulus (GPa) = 21.82249 27.37197 24.59723
#
# Velocity S-wave (km/s) = 3.32840 3.72766 3.53368
# Velocity P-wave (km/s) = 5.21136 6.82624 6.07272
#
# Compressibility (1/GPa) = 0.04098183
#
# Stress axis : x y z
#
# Youngs Moduli (GPa) = 85.27257 25.62581 91.52233
#
# Poissons Ratio (x) = 0.06669 0.57712
# Poissons Ratio (y) = 0.22192 0.13170
# Poissons Ratio (z) = 0.53771 0.03688
#
# Static dielectric constant tensor:
#      x y z
#    x 3.646940 0.000000 0.122720 
#    y 0.000000 3.193930 0.000000 
#    z 0.122720 0.000000 3.822210 
# 
# 
# High freq. dielectric constant tensor:
#      x y z
#    x 1.774770 0.000000 0.002180 
#    y 0.000000 1.727710 0.000000 
#    z 0.002180 0.000000 1.773150 
# 
# From -- ./inp_files/24816.got.cif
#   From: 2010.03.12/outbox.cif.g09.slc.cpg/sg8_13_cif.got.tgz:24816.got - 2010.03.31 10:45:26.
