data_PCOD8053844
_publ_section_title
;
Structure prediction by ZEFSAII (Michael W. Deem and Ramdas Pophale) SiO2 
 PCOD8053844
Probable space group: C M
;
_chemical_formula_sum "Si O2"
_cell_formula_units_Z 28
_cell_length_a 10.164028
_cell_length_b 13.644980
_cell_length_c 9.034983
_cell_angle_alpha 90.000000
_cell_angle_beta 72.494282
_cell_angle_gamma 90.000000
_cell_volume 1195.011073
_symmetry_space_group_name_H-M "C M"
_symmetry_group_IT_number 8
_symmetry_cell_setting 'monoclinic'
loop_
_space_group_symop_operation_xyz
x,y,z
x,-y,z
1/2+x,1/2+y,z
1/2+x,1/2-y,z
loop_
_atom_site_type_symbol
_atom_site_label
_atom_site_fract_x
_atom_site_fract_y
_atom_site_fract_z
Si Si1 0.383470 0.884849 0.905850
Si Si2 0.850278 0.611380 0.242023
Si Si3 0.625446 0.385702 0.800617
Si Si4 0.624789 0.109850 0.311021
Si Si5 0.199398 0.384326 0.757984
Si Si6 0.837595 0.114248 0.009171
Si Si7 0.184348 0.755636 0.521962
O O1 0.271332 0.853046 0.821467
O O2 0.537285 0.852609 0.809258
O O3 0.383331 0.000000 0.928935
O O4 0.336506 0.841359 0.081781
O O5 0.789085 0.500000 0.270808
O O6 0.782804 0.679417 0.387616
O O7 0.012343 0.607511 0.220389
O O8 0.623994 0.500000 0.763775
O O9 0.499981 0.359080 0.954780
O O10 0.599601 0.329854 0.655049
O O11 0.586070 0.187878 0.451766
O O12 0.639421 0.000000 0.375179
O O13 0.767206 0.147892 0.186292
O O14 0.223346 0.500000 0.727255
O O15 0.266462 0.341845 0.885644
O O16 0.266297 0.323159 0.598748
O O17 0.810299 0.000000 0.006508
#
# Coordination Sequence:
#
# PCOD8053844 Si02
#       7
#     4   4   4   4   4   4   4
#     4   9  19  42  69  91 122 173 226 268 311 379
#     4  10  22  44  69  94 127 172 222 269 319 384
#     4  10  23  41  64  96 131 168 214 270 330 381
#     4  10  22  44  69  94 127 172 222 269 318 384
#     4  10  21  39  64  92 125 170 223 266 312 382
#     4   9  19  42  67  87 123 171 218 269 318 374
#     4  12  26  36  62  96 139 162 205 261 340 384
#
# _framework density 23.430744000000001
#
# number of rings (size 3 to 8) (size 9 to 14) (size 15 to 20)
#    0.000    2.000    1.429    0.857    4.000    2.286 
#    2.571    0.000    0.000    0.000    0.000    0.000 
#    0.000    0.000    0.000    0.000    0.000    0.000 
#
# Total GULP energy -173495.343971 kJ/mol
# GULP energy per Si atom -12392.524569 kJ/mol
# Density = 2.337741 g / cm^3
# Si number density = 23.430744 Si / 1000 Ang^3
#
#
#
# Elastic Constant Matrix: (Units=GPa)
#
#
# Indices 1 2 3 4 5 6 
#
# 1 88.7172 7.0305 17.5280 0.0000 6.9427 0.0000
# 2 7.0305 97.2286 45.7506 0.0000 1.5230 0.0000
# 3 17.5280 45.7506 118.9606 0.0000 12.1069 0.0000
# 4 0.0000 0.0000 0.0000 39.6580 0.0000 2.1503
# 5 6.9427 1.5230 12.1069 0.0000 31.5118 0.0000
# 6 0.0000 0.0000 0.0000 2.1503 0.0000 2.3612
#
#
#
# Elastic Compliance Matrix: (Units=1/GPa)
#
#
# Indices 1 2 3 4 5 6 
#
# 1 0.011731 -0.000122 -0.001477 0.000000 -0.002011 0.000000
# 2 -0.000122 0.012610 -0.004967 0.000000 0.001326 0.000000
# 3 -0.001477 -0.004967 0.010903 0.000000 -0.003623 0.000000
# 4 0.000000 0.000000 0.000000 0.026525 0.000000 -0.024157
# 5 -0.002011 0.001326 -0.003623 0.000000 0.033505 0.000000
# 6 0.000000 0.000000 0.000000 -0.024157 0.000000 0.445513
#
#
# Mechanical properties :
#
#
# Convention : Reuss Voigt Hill
#
# Bulk Modulus (GPa) = 45.22287 49.50273 47.36280
# Shear Modulus (GPa) = 8.90808 30.34601 19.62705
#
# Velocity S-wave (km/s) = 1.95196 3.60270 2.89738
# Velocity P-wave (km/s) = 4.94194 6.20315 5.60811
#
# Compressibility (1/GPa) = 0.02211270
#
# Stress axis : x y z
#
# Youngs Moduli (GPa) = 85.24706 79.30144 91.72113
#
# Poissons Ratio (x) = 0.00966 0.13546
# Poissons Ratio (y) = 0.01038 0.45555
# Poissons Ratio (z) = 0.12590 0.39386
#
# Static dielectric constant tensor:
#      x y z
#    x 4.003740 0.000000 0.078900 
#    y 0.000000 4.369560 0.000000 
#    z 0.078900 0.000000 4.298290 
# 
# 
# High freq. dielectric constant tensor:
#      x y z
#    x 1.898390 0.000000 0.007430 
#    y 0.000000 1.951100 0.000000 
#    z 0.007430 0.000000 1.926670 
# 
# From -- ./inp_files/10624.got.cif
#   From: 2010.03.12/outbox.cif.g09.slc.cpg/sg8_6_cif.got.tgz:10624.got - 2010.03.31 10:45:26.
