data_PCOD8053670
_publ_section_title
;
Structure prediction by ZEFSAII (Michael W. Deem and Ramdas Pophale) SiO2 
 PCOD8053670
Probable space group: C M
;
_chemical_formula_sum "Si O2"
_cell_formula_units_Z 32
_cell_length_a 23.613972
_cell_length_b 9.175618
_cell_length_c 19.221076
_cell_angle_alpha 90.000000
_cell_angle_beta 156.826872
_cell_angle_gamma 90.000000
_cell_volume 1638.848118
_symmetry_space_group_name_H-M "C M"
_symmetry_group_IT_number 8
_symmetry_cell_setting 'monoclinic'
loop_
_space_group_symop_operation_xyz
x,y,z
x,-y,z
1/2+x,1/2+y,z
1/2+x,1/2-y,z
loop_
_atom_site_type_symbol
_atom_site_label
_atom_site_fract_x
_atom_site_fract_y
_atom_site_fract_z
Si Si1 0.244370 0.330156 0.354100
Si Si2 0.824814 0.170669 0.067993
Si Si3 0.779373 0.163025 0.235890
Si Si4 0.482490 0.827412 0.371038
Si Si5 0.972709 0.661843 0.836735
Si Si6 0.964688 0.171125 0.078764
Si Si7 0.495722 0.168415 0.706362
Si Si8 0.304742 0.671842 0.760724
O O1 0.239529 0.500000 0.367023
O O2 0.221471 0.298716 0.246866
O O3 0.400367 0.266712 0.548363
O O4 0.118160 0.250946 0.253855
O O5 0.659910 0.223113 0.886266
O O6 0.837484 0.000000 0.099366
O O7 0.921637 0.255238 0.232729
O O8 0.881334 0.208646 0.055143
O O9 0.896058 0.278726 0.341981
O O10 0.846052 0.000000 0.309690
O O11 0.645022 0.173132 0.032314
O O12 0.644050 0.770667 0.566443
O O13 0.473365 0.000000 0.352859
O O14 0.923681 0.500000 0.805185
O O15 0.901464 0.779666 0.805544
O O16 0.929943 0.690878 0.708918
O O17 0.994434 0.000000 0.105163
O O18 0.868585 0.230821 0.905822
O O19 0.486114 0.000000 0.672346
O O20 0.305437 0.500000 0.763473
#
# Coordination Sequence:
#
# PCOD8053670 Si02
#       8
#     4   4   4   4   4   4   4   4
#     4  11  24  40  61  90 123 155 194 249 301 347
#     4  10  22  42  64  85 119 162 200 242 290 354
#     4  10  21  41  63  86 117 155 199 245 296 354
#     4  11  24  39  61  92 122 154 195 248 301 348
#     4  10  20  39  64  86 113 154 202 246 292 350
#     4  10  22  41  63  86 118 162 203 238 291 356
#     4  10  22  40  63  88 116 156 203 244 290 355
#     4  10  23  40  59  89 122 154 196 246 297 348
#
# _framework density 19.52591
#
# number of rings (size 3 to 8) (size 9 to 14) (size 15 to 20)
#    0.000    1.750    2.500    0.750    3.500    4.000 
#    0.000    0.000    0.000    0.000    0.000    0.000 
#    0.000    0.000    0.000    0.000    0.000    0.000 
#
# Total GULP energy -198456.928856 kJ/mol
# GULP energy per Si atom -12403.558053 kJ/mol
# Density = 1.948147 g / cm^3
# Si number density = 19.525910 Si / 1000 Ang^3
#
#
#
# Elastic Constant Matrix: (Units=GPa)
#
#
# Indices 1 2 3 4 5 6 
#
# 1 94.2157 33.4817 35.0732 0.0000 10.8668 0.0000
# 2 33.4817 50.6445 43.2636 0.0000 2.0460 0.0000
# 3 35.0732 43.2636 114.3756 0.0001 6.6291 0.0001
# 4 0.0000 0.0000 0.0001 32.7285 0.0001 0.4803
# 5 10.8668 2.0460 6.6291 0.0001 26.2222 0.0000
# 6 0.0000 0.0000 0.0001 0.4803 0.0000 34.3755
#
#
#
# Elastic Compliance Matrix: (Units=1/GPa)
#
#
# Indices 1 2 3 4 5 6 
#
# 1 0.014635 -0.008700 -0.000898 0.000000 -0.005159 0.000000
# 2 -0.008700 0.034351 -0.010534 0.000000 0.003588 0.000000
# 3 -0.000898 -0.010534 0.013126 0.000000 -0.002124 0.000000
# 4 0.000000 0.000000 0.000000 0.030561 0.000000 -0.000427
# 5 -0.005159 0.003588 -0.002124 0.000000 0.040531 0.000000
# 6 0.000000 0.000000 0.000000 -0.000427 0.000000 0.029096
#
#
# Mechanical properties :
#
#
# Convention : Reuss Voigt Hill
#
# Bulk Modulus (GPa) = 45.76922 53.65255 49.71089
# Shear Modulus (GPa) = 23.82710 28.49305 26.16007
#
# Velocity S-wave (km/s) = 3.49704 3.82415 3.66425
# Velocity P-wave (km/s) = 6.30848 6.85829 6.58912
#
# Compressibility (1/GPa) = 0.02184874
#
# Stress axis : x y z
#
# Youngs Moduli (GPa) = 68.32947 29.11166 76.18451
#
# Poissons Ratio (x) = 0.25327 0.06841
# Poissons Ratio (y) = 0.59445 0.80249
# Poissons Ratio (z) = 0.06136 0.30665
#
# Static dielectric constant tensor:
#      x y z
#    x 3.519000 0.000000 -0.064950 
#    y 0.000000 3.432980 0.000000 
#    z -0.064950 0.000000 3.670050 
# 
# 
# High freq. dielectric constant tensor:
#      x y z
#    x 1.768310 0.000000 -0.003270 
#    y 0.000000 1.751010 0.000000 
#    z -0.003270 0.000000 1.768220 
# 
# From -- ./inp_files/15813.got.cif
#   From: 2010.03.12/outbox.cif.g09.slc.cpg/sg8_8_cif.got.tgz:15813.got - 2010.03.31 10:45:26.
