data_PCOD8053438
_publ_section_title
;
Structure prediction by ZEFSAII (Michael W. Deem and Ramdas Pophale) SiO2 
 PCOD8053438
Probable space group: C M
;
_chemical_formula_sum "Si O2"
_cell_formula_units_Z 32
_cell_length_a 24.554572
_cell_length_b 8.892265
_cell_length_c 14.376114
_cell_angle_alpha 90.000000
_cell_angle_beta 31.599843
_cell_angle_gamma 90.000000
_cell_volume 1644.765336
_symmetry_space_group_name_H-M "C M"
_symmetry_group_IT_number 8
_symmetry_cell_setting 'monoclinic'
loop_
_space_group_symop_operation_xyz
x,y,z
x,-y,z
1/2+x,1/2+y,z
1/2+x,1/2-y,z
loop_
_atom_site_type_symbol
_atom_site_label
_atom_site_fract_x
_atom_site_fract_y
_atom_site_fract_z
Si Si1 0.282410 0.323269 0.317370
Si Si2 0.939067 0.833706 0.616709
Si Si3 0.123473 0.680752 0.023522
Si Si4 0.890776 0.675159 0.332955
Si Si5 0.369926 0.319665 0.995578
Si Si6 0.548414 0.178220 0.619785
Si Si7 0.813831 0.676268 0.648183
Si Si8 0.733696 0.836702 0.036265
O O1 0.287782 0.500000 0.319711
O O2 0.328537 0.253382 0.342294
O O3 0.164279 0.270429 0.476785
O O4 0.350786 0.271118 0.129345
O O5 0.911171 0.743477 0.563632
O O6 0.836543 0.852500 0.825633
O O7 0.023977 0.742733 0.552899
O O8 0.982556 0.000000 0.528214
O O9 0.134430 0.500000 0.007774
O O10 0.008912 0.736166 0.163650
O O11 0.203911 0.748339 0.832724
O O12 0.149511 0.743800 0.091017
O O13 0.892791 0.500000 0.309308
O O14 0.832979 0.711766 0.512708
O O15 0.377533 0.500000 0.971927
O O16 0.475741 0.245085 0.806435
O O17 0.270842 0.257098 0.078067
O O18 0.535116 0.000000 0.635996
O O19 0.808078 0.500000 0.677464
O O20 0.688459 0.000000 0.128802
#
# Coordination Sequence:
#
# PCOD8053438 Si02
#       8
#     4   4   4   4   4   4   4   4
#     4  10  23  39  55  77 108 146 189 230 271 319
#     4   9  17  32  55  83 112 144 176 213 267 331
#     4   9  18  35  57  80 106 142 179 216 270 332
#     4  10  23  39  55  77 108 146 189 230 271 319
#     4   9  18  35  57  80 106 142 179 216 270 332
#     4  10  20  35  56  84 112 140 177 226 275 321
#     4  10  20  35  56  84 112 140 177 226 275 321
#     4   7  12  26  51  77 100 126 164 207 253 313
#
# _framework density 19.455662
#
# number of rings (size 3 to 8) (size 9 to 14) (size 15 to 20)
#    0.000    2.750    0.000    2.625    0.000    5.000 
#    0.000    8.750    0.000    0.000    0.000    0.000 
#    0.000    0.000    0.000    0.000    0.000    0.000 
#
# Total GULP energy -198286.235920 kJ/mol
# GULP energy per Si atom -12392.889745 kJ/mol
# Density = 1.941138 g / cm^3
# Si number density = 19.455662 Si / 1000 Ang^3
#
#
#
# Elastic Constant Matrix: (Units=GPa)
#
#
# Indices 1 2 3 4 5 6 
#
# 1 106.3600 28.4384 11.4369 0.0003 -18.4973 -0.0001
# 2 28.4384 55.5808 22.1366 -0.0002 -5.8407 0.0001
# 3 11.4369 22.1366 44.7410 0.0001 -17.7024 -0.0001
# 4 0.0003 -0.0002 0.0001 25.5018 0.0001 0.4191
# 5 -18.4973 -5.8407 -17.7024 0.0001 28.1929 -0.0001
# 6 -0.0001 0.0001 -0.0001 0.4191 -0.0001 33.5326
#
#
#
# Elastic Compliance Matrix: (Units=1/GPa)
#
#
# Indices 1 2 3 4 5 6 
#
# 1 0.012434 -0.006945 0.003881 0.000000 0.009156 0.000000
# 2 -0.006945 0.026491 -0.014587 0.000000 -0.008228 0.000000
# 3 0.003881 -0.014587 0.037772 0.000000 0.023241 0.000000
# 4 0.000000 0.000000 0.000000 0.039221 -0.000001 -0.000490
# 5 0.009156 -0.008228 0.023241 -0.000001 0.054366 0.000000
# 6 0.000000 0.000000 0.000000 -0.000490 0.000000 0.029828
#
#
# Mechanical properties :
#
#
# Convention : Reuss Voigt Hill
#
# Bulk Modulus (GPa) = 24.15879 36.74508 30.45194
# Shear Modulus (GPa) = 20.06324 27.09013 23.57668
#
# Velocity S-wave (km/s) = 3.21476 3.73554 3.48489
# Velocity P-wave (km/s) = 5.12093 6.12644 5.64611
#
# Compressibility (1/GPa) = 0.04139280
#
# Stress axis : x y z
#
# Youngs Moduli (GPa) = 80.42383 37.74931 26.47480
#
# Poissons Ratio (x) = 0.26219 -0.10274
# Poissons Ratio (y) = 0.55858 0.38619
# Poissons Ratio (z) = -0.31209 0.55065
#
# Static dielectric constant tensor:
#      x y z
#    x 3.893610 0.000000 -0.049130 
#    y 0.000000 3.409870 0.000000 
#    z -0.049130 0.000000 3.433520 
# 
# 
# High freq. dielectric constant tensor:
#      x y z
#    x 1.767290 0.000000 0.000280 
#    y 0.000000 1.740150 0.000000 
#    z 0.000280 0.000000 1.747960 
# 
# From -- ./inp_files/28319.got.cif
#   From: 2010.03.12/outbox.cif.g09.slc.cpg/sg8_15_cif.got.tgz:28319.got - 2010.03.31 10:45:26.
