data_PCOD8053151
_publ_section_title
;
Structure prediction by ZEFSAII (Michael W. Deem and Ramdas Pophale) SiO2 
 PCOD8053151
Probable space group: C M
;
_chemical_formula_sum "Si O2"
_cell_formula_units_Z 32
_cell_length_a 16.493701
_cell_length_b 8.661940
_cell_length_c 10.944519
_cell_angle_alpha 90.000000
_cell_angle_beta 82.723439
_cell_angle_gamma 90.000000
_cell_volume 1551.022677
_symmetry_space_group_name_H-M "C M"
_symmetry_group_IT_number 8
_symmetry_cell_setting 'monoclinic'
loop_
_space_group_symop_operation_xyz
x,y,z
x,-y,z
1/2+x,1/2+y,z
1/2+x,1/2-y,z
loop_
_atom_site_type_symbol
_atom_site_label
_atom_site_fract_x
_atom_site_fract_y
_atom_site_fract_z
Si Si1 0.369800 0.181491 0.125000
Si Si2 0.059542 0.823050 0.710942
Si Si3 0.345022 0.320430 0.388675
Si Si4 0.796241 0.831810 0.782909
Si Si5 0.197978 0.666906 0.566080
Si Si6 0.420661 0.178112 0.610118
Si Si7 0.043795 0.683981 0.981972
Si Si8 0.709021 0.682342 0.011251
O O1 0.371346 0.226814 0.265078
O O2 0.368315 0.000000 0.110743
O O3 0.454971 0.241724 0.047880
O O4 0.285811 0.245974 0.078222
O O5 0.147540 0.809767 0.629475
O O6 0.058701 0.756845 0.846903
O O7 0.013602 0.713387 0.623463
O O8 0.029993 0.000000 0.717096
O O9 0.361239 0.500000 0.361865
O O10 0.248350 0.288027 0.433874
O O11 0.400982 0.264484 0.488857
O O12 0.767941 0.862204 0.651531
O O13 0.879787 0.738332 0.745621
O O14 0.731807 0.728556 0.868953
O O15 0.810283 0.000000 0.844049
O O16 0.151970 0.500000 0.557354
O O17 0.400532 0.000000 0.595506
O O18 0.047586 0.500000 0.972000
O O19 0.119651 0.740476 0.055168
O O20 0.698431 0.500000 0.026839
#
# Coordination Sequence:
#
# PCOD8053151 Si02
#       8
#     4   4   4   4   4   4   4   4
#     4  10  24  44  64  88 123 170 217 259 314 375
#     4  12  23  36  59  93 126 158 203 255 311 376
#     4  10  22  42  65  88 117 157 209 258 306 368
#     4  10  19  34  58  87 121 156 197 248 305 370
#     4   9  19  36  58  85 119 155 191 244 307 367
#     4  11  22  37  60  87 122 162 201 251 314 376
#     4  11  23  41  64  93 130 169 208 261 319 379
#     4  11  22  38  62  93 126 167 214 260 314 377
#
# _framework density 20.631547999999999
#
# number of rings (size 3 to 8) (size 9 to 14) (size 15 to 20)
#    0.000    1.500    1.250    5.250    0.000    5.500 
#    2.250    0.000    0.000    0.000    0.000    0.000 
#    0.000    0.000    0.000    0.000    0.000    0.000 
#
# Total GULP energy -198213.732029 kJ/mol
# GULP energy per Si atom -12388.358252 kJ/mol
# Density = 2.058459 g / cm^3
# Si number density = 20.631548 Si / 1000 Ang^3
#
#
#
# Elastic Constant Matrix: (Units=GPa)
#
#
# Indices 1 2 3 4 5 6 
#
# 1 121.6061 27.0189 49.7185 0.0000 -0.4504 0.0000
# 2 27.0189 47.5812 7.0211 0.0000 -4.3722 0.0000
# 3 49.7185 7.0211 73.5563 0.0000 -13.2685 0.0000
# 4 0.0000 0.0000 0.0000 25.8534 0.0000 2.6152
# 5 -0.4504 -4.3722 -13.2685 0.0000 27.6114 0.0000
# 6 0.0000 0.0000 0.0000 2.6152 0.0000 31.4167
#
#
#
# Elastic Compliance Matrix: (Units=1/GPa)
#
#
# Indices 1 2 3 4 5 6 
#
# 1 0.013618 -0.006826 -0.009535 0.000000 -0.005441 0.000000
# 2 -0.006826 0.024914 0.003205 0.000000 0.005374 0.000000
# 3 -0.009535 0.003205 0.021676 0.000000 0.010768 0.000000
# 4 0.000000 0.000000 0.000000 0.039008 0.000000 -0.003247
# 5 -0.005441 0.005374 0.010768 0.000000 0.042154 0.000000
# 6 0.000000 0.000000 0.000000 -0.003247 0.000000 0.032100
#
#
# Mechanical properties :
#
#
# Convention : Reuss Voigt Hill
#
# Bulk Modulus (GPa) = 29.50102 45.58450 37.54276
# Shear Modulus (GPa) = 23.68773 27.57532 25.63152
#
# Velocity S-wave (km/s) = 3.39208 3.65987 3.52852
# Velocity P-wave (km/s) = 5.44717 6.32472 5.90228
#
# Compressibility (1/GPa) = 0.03389713
#
# Stress axis : x y z
#
# Youngs Moduli (GPa) = 73.43270 40.13864 46.13355
#
# Poissons Ratio (x) = 0.27398 0.43986
# Poissons Ratio (y) = 0.50125 -0.14786
# Poissons Ratio (z) = 0.70015 -0.12865
#
# Static dielectric constant tensor:
#      x y z
#    x 4.099210 0.000000 -0.031730 
#    y 0.000000 3.782520 0.000000 
#    z -0.031730 0.000000 3.485180 
# 
# 
# High freq. dielectric constant tensor:
#      x y z
#    x 1.816030 0.000000 -0.006000 
#    y 0.000000 1.811260 0.000000 
#    z -0.006000 0.000000 1.783590 
# 
# From -- ./inp_files/22799.got.cif
#   From: 2010.03.12/outbox.cif.g09.slc.cpg/sg8_12_cif.got.tgz:22799.got - 2010.03.31 10:45:26.
