data_PCOD8053803
_publ_section_title
;
Structure prediction by ZEFSAII (Michael W. Deem and Ramdas Pophale) SiO2 
 PCOD8053803
Probable space group: C M
;
_chemical_formula_sum "Si O2"
_cell_formula_units_Z 28
_cell_length_a 4.978191
_cell_length_b 30.964928
_cell_length_c 8.090163
_cell_angle_alpha 90.000000
_cell_angle_beta 95.186327
_cell_angle_gamma 90.000000
_cell_volume 1241.987572
_symmetry_space_group_name_H-M "C M"
_symmetry_group_IT_number 8
_symmetry_cell_setting 'monoclinic'
loop_
_space_group_symop_operation_xyz
x,y,z
x,-y,z
1/2+x,1/2+y,z
1/2+x,1/2-y,z
loop_
_atom_site_type_symbol
_atom_site_label
_atom_site_fract_x
_atom_site_fract_y
_atom_site_fract_z
Si Si1 0.731140 0.130087 0.656110
Si Si2 0.637542 0.222489 0.146251
Si Si3 0.973758 0.000000 0.947625
Si Si4 0.076454 0.083826 0.149919
Si Si5 0.582976 0.130375 0.021887
Si Si6 0.434287 0.000000 0.727109
Si Si7 0.737222 0.416463 0.527189
Si Si8 0.685228 0.222384 0.532165
O O1 0.659089 0.117955 0.839526
O O2 0.471286 0.119452 0.529226
O O3 0.786116 0.180930 0.639726
O O4 0.987598 0.101784 0.618104
O O5 0.427596 0.261164 0.101313
O O6 0.660689 0.209592 0.339159
O O7 0.534461 0.181399 0.037517
O O8 0.944710 0.042070 0.058607
O O9 0.750755 0.000000 0.789977
O O10 0.271183 0.000000 0.887984
O O11 0.160402 0.070930 0.338009
O O12 0.837789 0.118851 0.151502
O O13 0.320390 0.103361 0.057099
O O14 0.363482 0.041725 0.617678
O O15 0.396638 0.239206 0.577789
#
# Coordination Sequence:
#
# PCOD8053803 Si02
#       8
#     4   4   2   4   4   2   4   4
#     4  12  25  42  66  97 132 170 215 269 325 377
#     4  10  21  38  61  90 126 168 213 262 318 380
#     4  12  25  44  69  98 133 166 209 266 325 378
#     4  12  25  44  68  96 130 172 218 261 316 386
#     4  12  25  42  66  97 132 170 215 269 325 377
#     4  12  25  44  69  98 133 166 209 266 325 378
#     4  12  25  44  68  96 130 172 218 261 316 386
#     4  10  21  38  61  90 126 168 213 262 318 380
#
# _framework density 22.544509999999999
#
# number of rings (size 3 to 8) (size 9 to 14) (size 15 to 20)
#    0.000    0.571    0.000    9.857    0.000    3.429 
#    0.000    4.286    0.000    0.000    0.000    0.000 
#    0.000    0.000    0.000    0.000    0.000    0.000 
#
# Total GULP energy -173707.470167 kJ/mol
# GULP energy per Si atom -12407.676441 kJ/mol
# Density = 2.249320 g / cm^3
# Si number density = 22.544510 Si / 1000 Ang^3
#
#
#
# Elastic Constant Matrix: (Units=GPa)
#
#
# Indices 1 2 3 4 5 6 
#
# 1 132.2210 43.1896 24.2107 0.0000 6.6136 0.0000
# 2 43.1896 123.3707 55.4502 0.0000 1.5685 0.0000
# 3 24.2107 55.4502 83.5786 0.0000 11.9935 0.0000
# 4 0.0000 0.0000 0.0000 28.5489 0.0000 3.2046
# 5 6.6136 1.5685 11.9935 0.0000 32.9824 0.0000
# 6 0.0000 0.0000 0.0000 3.2046 0.0000 30.1314
#
#
#
# Elastic Compliance Matrix: (Units=1/GPa)
#
#
# Indices 1 2 3 4 5 6 
#
# 1 0.008632 -0.002811 -0.000429 0.000000 -0.001441 0.000000
# 2 -0.002811 0.012642 -0.007984 0.000000 0.002866 0.000000
# 3 -0.000429 -0.007984 0.018273 0.000000 -0.006179 0.000000
# 4 0.000000 0.000000 0.000000 0.035451 0.000000 -0.003770
# 5 -0.001441 0.002866 -0.006179 0.000000 0.032719 0.000000
# 6 0.000000 0.000000 0.000000 -0.003770 0.000000 0.033589
#
#
# Mechanical properties :
#
#
# Convention : Reuss Voigt Hill
#
# Bulk Modulus (GPa) = 58.48350 64.98569 61.73459
# Shear Modulus (GPa) = 29.50683 32.75385 31.13034
#
# Velocity S-wave (km/s) = 3.62169 3.81577 3.72000
# Velocity P-wave (km/s) = 6.59443 6.94993 6.77451
#
# Compressibility (1/GPa) = 0.01709884
#
# Stress axis : x y z
#
# Youngs Moduli (GPa) = 115.85019 79.10267 54.72615
#
# Poissons Ratio (x) = 0.22234 0.02347
# Poissons Ratio (y) = 0.32563 0.43695
# Poissons Ratio (z) = 0.04968 0.63157
#
# Static dielectric constant tensor:
#      x y z
#    x 4.172450 0.000000 0.052890 
#    y 0.000000 4.015310 0.000000 
#    z 0.052890 0.000000 3.960910 
# 
# 
# High freq. dielectric constant tensor:
#      x y z
#    x 1.903940 0.000000 0.004080 
#    y 0.000000 1.900310 0.000000 
#    z 0.004080 0.000000 1.885080 
# 
# From -- ./inp_files/6993.got.cif
#   From: 2010.03.12/outbox.cif.g09.slc.cpg/sg8_4_cif.got.tgz:6993.got - 2010.03.31 10:45:26.
