data_PCOD8053554
_publ_section_title
;
Structure prediction by ZEFSAII (Michael W. Deem and Ramdas Pophale) SiO2 
 PCOD8053554
Probable space group: C M
;
_chemical_formula_sum "Si O2"
_cell_formula_units_Z 32
_cell_length_a 17.127114
_cell_length_b 17.029798
_cell_length_c 11.164515
_cell_angle_alpha 90.000000
_cell_angle_beta 29.472227
_cell_angle_gamma 90.000000
_cell_volume 1602.138565
_symmetry_space_group_name_H-M "C M"
_symmetry_group_IT_number 8
_symmetry_cell_setting 'monoclinic'
loop_
_space_group_symop_operation_xyz
x,y,z
x,-y,z
1/2+x,1/2+y,z
1/2+x,1/2-y,z
loop_
_atom_site_type_symbol
_atom_site_label
_atom_site_fract_x
_atom_site_fract_y
_atom_site_fract_z
Si Si1 0.552190 0.661397 0.715610
Si Si2 0.838040 0.407516 0.192524
Si Si3 0.425949 0.909528 0.608680
Si Si4 0.235799 0.591722 0.042166
Si Si5 0.104350 0.907462 0.903158
Si Si6 0.160227 0.406970 0.881458
Si Si7 0.308265 0.408936 0.444703
Si Si8 0.003947 0.341509 0.750511
O O1 0.668814 0.618800 0.467460
O O2 0.373166 0.636598 0.927753
O O3 0.599047 0.638296 0.786467
O O4 0.567492 0.753940 0.681293
O O5 0.836307 0.500000 0.169145
O O6 0.976582 0.384643 0.101797
O O7 0.868363 0.362535 0.027592
O O8 0.269870 0.887894 0.743541
O O9 0.430612 0.854103 0.717861
O O10 0.423096 0.000000 0.653849
O O11 0.573656 0.891360 0.326960
O O12 0.276847 0.500000 0.984724
O O13 0.217414 0.626809 0.932341
O O14 0.083005 0.000000 0.905872
O O15 0.965487 0.872878 0.174346
O O16 0.174279 0.500000 0.865620
O O17 0.270780 0.372277 0.626500
O O18 0.340067 0.500000 0.419120
O O19 0.156635 0.397549 0.561616
#
# Coordination Sequence:
#
# PCOD8053554 Si02
#       8
#     4   4   4   4   4   4   4   4
#     4  12  25  37  58  91 127 158 202 257 309 363
#     4  10  21  40  64  86 118 167 213 250 297 373
#     4  10  21  40  65  89 118 161 207 251 299 366
#     4  10  20  36  62  88 120 159 199 247 299 361
#     4  10  21  39  65  93 118 157 208 254 299 364
#     4   8  16  34  60  91 115 151 202 245 293 356
#     4   9  18  37  66  89 117 156 201 248 296 365
#     4  11  24  39  58  89 126 161 200 250 315 366
#
# _framework density 19.973303999999999
#
# number of rings (size 3 to 8) (size 9 to 14) (size 15 to 20)
#    0.000    2.000    0.000    4.500    3.500    5.000 
#    4.500    3.750    0.000    0.000    0.000    0.000 
#    0.000    0.000    0.000    0.000    0.000    0.000 
#
# Total GULP energy -198430.010406 kJ/mol
# GULP energy per Si atom -12401.875650 kJ/mol
# Density = 1.992784 g / cm^3
# Si number density = 19.973304 Si / 1000 Ang^3
#
#
#
# Elastic Constant Matrix: (Units=GPa)
#
#
# Indices 1 2 3 4 5 6 
#
# 1 147.4920 33.2309 54.5943 -0.0003 12.3918 0.0013
# 2 33.2309 45.8145 18.2284 -0.0006 8.8336 0.0010
# 3 54.5943 18.2284 129.4941 -0.0033 -3.1965 0.0029
# 4 -0.0003 -0.0006 -0.0033 15.7455 0.0010 3.6632
# 5 12.3918 8.8336 -3.1965 0.0010 27.2935 -0.0013
# 6 0.0013 0.0010 0.0029 3.6632 -0.0013 17.0394
#
#
#
# Elastic Compliance Matrix: (Units=1/GPa)
#
#
# Indices 1 2 3 4 5 6 
#
# 1 0.009374 -0.004878 -0.003341 0.000000 -0.003068 0.000000
# 2 -0.004878 0.027488 -0.001983 0.000001 -0.006914 -0.000002
# 3 -0.003341 -0.001983 0.009491 0.000002 0.003270 -0.000001
# 4 0.000000 0.000001 0.000002 0.066854 -0.000003 -0.014373
# 5 -0.003068 -0.006914 0.003270 -0.000003 0.040652 0.000004
# 6 0.000000 -0.000002 -0.000001 -0.014373 0.000004 0.061777
#
#
# Mechanical properties :
#
#
# Convention : Reuss Voigt Hill
#
# Bulk Modulus (GPa) = 38.53993 59.43422 48.98708
# Shear Modulus (GPa) = 20.43402 26.46548 23.44975
#
# Velocity S-wave (km/s) = 3.20201 3.64406 3.43017
# Velocity P-wave (km/s) = 5.74527 6.89398 6.34567
#
# Compressibility (1/GPa) = 0.02594711
#
# Stress axis : x y z
#
# Youngs Moduli (GPa) = 106.68341 36.37997 105.36522
#
# Poissons Ratio (x) = 0.17747 0.35202
# Poissons Ratio (y) = 0.52041 0.20898
# Poissons Ratio (z) = 0.35642 0.07216
#
# Static dielectric constant tensor:
#      x y z
#    x 3.760690 0.000000 0.171020 
#    y 0.000000 3.360450 0.000000 
#    z 0.171020 0.000000 3.859630 
# 
# 
# High freq. dielectric constant tensor:
#      x y z
#    x 1.783610 0.000000 0.006290 
#    y 0.000000 1.751980 0.000000 
#    z 0.006290 0.000000 1.792470 
# 
# From -- ./inp_files/23320.got.cif
#   From: 2010.03.12/outbox.cif.g09.slc.cpg/sg8_12_cif.got.tgz:23320.got - 2010.03.31 10:45:26.
