data_PCOD8053860
_publ_section_title
;
Structure prediction by ZEFSAII (Michael W. Deem and Ramdas Pophale) SiO2 
 PCOD8053860
Probable space group: C M
;
_chemical_formula_sum "Si O2"
_cell_formula_units_Z 32
_cell_length_a 15.350276
_cell_length_b 8.470796
_cell_length_c 11.899037
_cell_angle_alpha 90.000000
_cell_angle_beta 88.580707
_cell_angle_gamma 90.000000
_cell_volume 1546.745877
_symmetry_space_group_name_H-M "C M"
_symmetry_group_IT_number 8
_symmetry_cell_setting 'monoclinic'
loop_
_space_group_symop_operation_xyz
x,y,z
x,-y,z
1/2+x,1/2+y,z
1/2+x,1/2-y,z
loop_
_atom_site_type_symbol
_atom_site_label
_atom_site_fract_x
_atom_site_fract_y
_atom_site_fract_z
Si Si1 0.018430 0.185030 0.003880
Si Si2 0.675957 0.312775 0.845234
Si Si3 0.337532 0.186579 0.983363
Si Si4 0.579806 0.816905 0.227730
Si Si5 0.813882 0.181158 0.456343
Si Si6 0.155039 0.184495 0.593567
Si Si7 0.995864 0.317054 0.464566
Si Si8 0.267721 0.817465 0.227923
O O1 0.022426 0.280394 0.120330
O O2 0.926312 0.223751 0.948937
O O3 0.029020 0.000000 0.027032
O O4 0.093551 0.248919 0.918852
O O5 0.676187 0.500000 0.846419
O O6 0.670504 0.249396 0.718533
O O7 0.764573 0.250149 0.899361
O O8 0.309415 0.235140 0.109408
O O9 0.350645 0.000000 0.971850
O O10 0.522867 0.771414 0.337486
O O11 0.664660 0.708403 0.224649
O O12 0.607327 0.000000 0.230725
O O13 0.741340 0.287294 0.518362
O O14 0.811884 0.214176 0.323431
O O15 0.909400 0.220888 0.501118
O O16 0.791577 0.000000 0.480949
O O17 0.073126 0.276758 0.546820
O O18 0.133236 0.000000 0.593958
O O19 0.973040 0.500000 0.475155
O O20 0.286535 0.000000 0.252936
#
# Coordination Sequence:
#
# PCOD8053860 Si02
#       8
#     4   4   4   4   4   4   4   4
#     4  11  22  39  62  91 124 159 201 248 302 363
#     4   9  21  42  63  86 120 161 204 252 304 358
#     4  10  21  40  62  89 124 160 198 246 303 362
#     4  11  22  37  61  92 126 159 199 248 303 366
#     4  12  25  41  62  92 128 162 204 253 307 370
#     4  11  23  42  67  90 120 162 209 258 310 363
#     4  11  24  42  63  91 126 162 205 254 307 366
#     4  11  21  37  64  91 124 163 200 245 306 366
#
# _framework density 20.688594999999999
#
# number of rings (size 3 to 8) (size 9 to 14) (size 15 to 20)
#    0.000    1.250    2.500    3.750    0.000    6.500 
#    0.000    6.250    0.000    0.000    0.000    0.000 
#    0.000    0.000    0.000    0.000    0.000    0.000 
#
# Total GULP energy -198506.111388 kJ/mol
# GULP energy per Si atom -12406.631962 kJ/mol
# Density = 2.064151 g / cm^3
# Si number density = 20.688595 Si / 1000 Ang^3
#
#
#
# Elastic Constant Matrix: (Units=GPa)
#
#
# Indices 1 2 3 4 5 6 
#
# 1 139.1912 8.5188 43.5240 0.0000 19.5142 0.0000
# 2 8.5188 39.8551 14.7691 0.0000 0.2388 0.0000
# 3 43.5240 14.7691 122.1604 0.0000 23.1410 0.0000
# 4 0.0000 0.0000 0.0000 7.1241 0.0000 7.7918
# 5 19.5142 0.2388 23.1410 0.0000 15.1604 0.0000
# 6 0.0000 0.0000 0.0000 7.7918 0.0000 35.7169
#
#
#
# Elastic Compliance Matrix: (Units=1/GPa)
#
#
# Indices 1 2 3 4 5 6 
#
# 1 0.009012 -0.001427 -0.001189 0.000000 -0.009763 0.000000
# 2 -0.001427 0.026920 -0.004240 0.000000 0.007884 0.000000
# 3 -0.001189 -0.004240 0.012407 0.000000 -0.017341 0.000000
# 4 0.000000 0.000000 0.000000 0.184357 0.000000 -0.040218
# 5 -0.009763 0.007884 -0.017341 0.000000 0.104873 0.000000
# 6 0.000000 0.000000 0.000000 -0.040218 0.000000 0.036772
#
#
# Mechanical properties :
#
#
# Convention : Reuss Voigt Hill
#
# Bulk Modulus (GPa) = 28.87882 48.31450 38.59666
# Shear Modulus (GPa) = 12.51266 27.22661 19.86963
#
# Velocity S-wave (km/s) = 2.46196 3.63163 3.10242
# Velocity P-wave (km/s) = 4.69795 6.40226 5.61514
#
# Compressibility (1/GPa) = 0.03462746
#
# Stress axis : x y z
#
# Youngs Moduli (GPa) = 110.96032 37.14745 80.59933
#
# Poissons Ratio (x) = 0.05302 0.09583
# Poissons Ratio (y) = 0.15836 0.34171
# Poissons Ratio (z) = 0.13193 0.15749
#
# Static dielectric constant tensor:
#      x y z
#    x 3.827020 0.000000 0.052780 
#    y 0.000000 3.555120 0.000000 
#    z 0.052780 0.000000 3.869730 
# 
# 
# High freq. dielectric constant tensor:
#      x y z
#    x 1.823780 0.000000 0.004670 
#    y 0.000000 1.799090 0.000000 
#    z 0.004670 0.000000 1.806180 
# 
# From -- ./inp_files/21543.got.cif
#   From: 2010.03.12/outbox.cif.g09.slc.cpg/sg8_11_cif.got.tgz:21543.got - 2010.03.31 10:45:26.
