data_PCOD8053582
_publ_section_title
;
Structure prediction by ZEFSAII (Michael W. Deem and Ramdas Pophale) SiO2 
 PCOD8053582
Probable space group: C M
;
_chemical_formula_sum "Si O2"
_cell_formula_units_Z 32
_cell_length_a 14.436329
_cell_length_b 8.491293
_cell_length_c 28.745690
_cell_angle_alpha 90.000000
_cell_angle_beta 151.020576
_cell_angle_gamma 90.000000
_cell_volume 1707.234113
_symmetry_space_group_name_H-M "C M"
_symmetry_group_IT_number 8
_symmetry_cell_setting 'monoclinic'
loop_
_space_group_symop_operation_xyz
x,y,z
x,-y,z
1/2+x,1/2+y,z
1/2+x,1/2-y,z
loop_
_atom_site_type_symbol
_atom_site_label
_atom_site_fract_x
_atom_site_fract_y
_atom_site_fract_z
Si Si1 0.464090 0.315948 0.460440
Si Si2 0.836222 0.817967 0.666115
Si Si3 0.431801 0.173945 0.801450
Si Si4 0.362557 0.814334 0.319580
Si Si5 0.074211 0.185300 0.322559
Si Si6 0.110084 0.183472 0.962811
Si Si7 0.228859 0.175098 0.801321
Si Si8 0.470669 0.813862 0.179306
O O1 0.421822 0.500000 0.436446
O O2 0.659487 0.289057 0.573785
O O3 0.482739 0.239408 0.417560
O O4 0.294147 0.239112 0.415767
O O5 0.881423 0.799553 0.740217
O O6 0.023463 0.750439 0.722200
O O7 0.793753 0.000000 0.635700
O O8 0.610252 0.232703 0.911944
O O9 0.245040 0.165954 0.752479
O O10 0.478324 0.000000 0.801506
O O11 0.473703 0.769285 0.321756
O O12 0.156073 0.731079 0.230520
O O13 0.332019 0.000000 0.308117
O O14 0.967622 0.230423 0.228047
O O15 0.064615 0.000000 0.326362
O O16 0.907886 0.222883 0.900066
O O17 0.132041 0.000000 0.964360
O O18 0.285216 0.248091 0.070231
O O19 0.240242 0.000000 0.828552
O O20 0.465367 0.000000 0.184926
#
# Coordination Sequence:
#
# PCOD8053582 Si02
#       8
#     4   4   4   4   4   4   4   4
#     4  11  23  39  59  85 117 149 186 235 285 339
#     4  11  21  37  58  83 112 149 191 233 281 333
#     4   9  19  36  54  78 110 147 188 231 277 328
#     4  11  22  39  61  86 115 148 187 235 284 339
#     4  11  22  39  61  86 114 149 189 233 283 340
#     4   9  18  35  58  82 113 149 186 232 281 329
#     4   8  19  36  54  76 110 147 184 229 276 326
#     4  10  20  37  59  86 117 150 189 234 283 338
#
# _framework density 18.743766999999998
#
# number of rings (size 3 to 8) (size 9 to 14) (size 15 to 20)
#    0.750    1.250    0.000    6.000    0.000    4.000 
#    2.250    3.750    0.000    0.000    0.000    0.000 
#    0.000    0.000    0.000    0.000    0.000    0.000 
#
# Total GULP energy -198318.187609 kJ/mol
# GULP energy per Si atom -12394.886726 kJ/mol
# Density = 1.870111 g / cm^3
# Si number density = 18.743767 Si / 1000 Ang^3
#
#
#
# Elastic Constant Matrix: (Units=GPa)
#
#
# Indices 1 2 3 4 5 6 
#
# 1 112.7581 9.7865 82.4191 0.0000 1.5773 0.0000
# 2 9.7865 67.6270 21.0816 -0.0001 0.2116 0.0001
# 3 82.4191 21.0816 235.3362 0.0002 7.1593 -0.0001
# 4 0.0000 -0.0001 0.0002 31.8117 -0.0002 -1.5102
# 5 1.5773 0.2116 7.1593 -0.0002 20.3861 0.0000
# 6 0.0000 0.0001 -0.0001 -1.5102 0.0000 29.7267
#
#
#
# Elastic Compliance Matrix: (Units=1/GPa)
#
#
# Indices 1 2 3 4 5 6 
#
# 1 0.011938 -0.000433 -0.004159 0.000000 0.000541 0.000000
# 2 -0.000433 0.015230 -0.001222 0.000000 0.000305 0.000000
# 3 -0.004159 -0.001222 0.005868 0.000000 -0.001726 0.000000
# 4 0.000000 0.000000 0.000000 0.031511 0.000000 0.001601
# 5 0.000541 0.000305 -0.001726 0.000000 0.049614 0.000000
# 6 0.000000 0.000000 0.000000 0.001601 0.000000 0.033721
#
#
# Mechanical properties :
#
#
# Convention : Reuss Voigt Hill
#
# Bulk Modulus (GPa) = 46.71045 71.36619 59.03832
# Shear Modulus (GPa) = 30.00388 36.54717 33.27553
#
# Velocity S-wave (km/s) = 4.00526 4.42048 4.21798
# Velocity P-wave (km/s) = 6.80912 8.01321 7.43558
#
# Compressibility (1/GPa) = 0.02140849
#
# Stress axis : x y z
#
# Youngs Moduli (GPa) = 83.76405 65.66155 170.42543
#
# Poissons Ratio (x) = 0.02843 0.70875
# Poissons Ratio (y) = 0.03626 0.20825
# Poissons Ratio (z) = 0.34835 0.08023
#
# Static dielectric constant tensor:
#      x y z
#    x 3.326340 0.000000 0.050300 
#    y 0.000000 3.462970 0.000000 
#    z 0.050300 0.000000 3.418370 
# 
# 
# High freq. dielectric constant tensor:
#      x y z
#    x 1.717450 0.000000 0.001060 
#    y 0.000000 1.741140 0.000000 
#    z 0.001060 0.000000 1.722040 
# 
# From -- ./inp_files/33297.got.cif
#   From: 2010.03.12/outbox.cif.g09.slc.cpg/sg8_17_cif.got.tgz:33297.got - 2010.03.31 10:45:26.
