data_PCOD8053219
_publ_section_title
;
Structure prediction by ZEFSAII (Michael W. Deem and Ramdas Pophale) SiO2 
 PCOD8053219
Probable space group: C M
;
_chemical_formula_sum "Si O2"
_cell_formula_units_Z 32
_cell_length_a 15.289051
_cell_length_b 9.156444
_cell_length_c 22.753287
_cell_angle_alpha 90.000000
_cell_angle_beta 30.853796
_cell_angle_gamma 90.000000
_cell_volume 1633.582763
_symmetry_space_group_name_H-M "C M"
_symmetry_group_IT_number 8
_symmetry_cell_setting 'monoclinic'
loop_
_space_group_symop_operation_xyz
x,y,z
x,-y,z
1/2+x,1/2+y,z
1/2+x,1/2-y,z
loop_
_atom_site_type_symbol
_atom_site_label
_atom_site_fract_x
_atom_site_fract_y
_atom_site_fract_z
Si Si1 0.880810 0.828286 0.166690
Si Si2 0.060853 0.167490 0.559293
Si Si3 0.670848 0.834242 0.802217
Si Si4 0.061229 0.832875 0.302785
Si Si5 0.732435 0.830063 0.564736
Si Si6 0.551969 0.669941 0.766211
Si Si7 0.319416 0.329346 0.336173
Si Si8 0.181167 0.330151 0.930759
O O1 0.724223 0.767290 0.219120
O O2 0.867992 0.784617 0.242367
O O3 0.883256 0.000000 0.156773
O O4 0.056604 0.763553 0.042487
O O5 0.107374 0.256594 0.590312
O O6 0.152655 0.236773 0.449654
O O7 0.859703 0.177821 0.666675
O O8 0.119485 0.000000 0.533514
O O9 0.548516 0.729884 0.834797
O O10 0.662343 0.781249 0.874203
O O11 0.604468 0.000000 0.835732
O O12 0.927912 0.807137 0.432589
O O13 0.974954 0.789788 0.290351
O O14 0.122867 0.000000 0.265635
O O15 0.701595 0.753998 0.644998
O O16 0.686631 0.000000 0.595403
O O17 0.595266 0.500000 0.741161
O O18 0.372257 0.704376 0.840217
O O19 0.274227 0.500000 0.368443
O O20 0.138230 0.500000 0.963744
#
# Coordination Sequence:
#
# PCOD8053219 Si02
#       8
#     4   4   4   4   4   4   4   4
#     4  11  24  40  62  90 118 153 205 253 293 351
#     4  10  19  35  60  89 123 158 200 246 297 357
#     4  10  22  40  60  87 121 159 200 245 303 362
#     4   9  20  39  60  84 118 160 198 236 297 360
#     4  10  20  36  60  89 125 162 197 241 302 362
#     4  11  23  39  61  91 121 156 202 250 299 356
#     4   9  21  40  58  85 122 159 196 242 302 359
#     4  10  23  45  63  81 120 163 200 245 301 359
#
# _framework density 19.588844999999999
#
# number of rings (size 3 to 8) (size 9 to 14) (size 15 to 20)
#    0.000    2.000    1.250    2.250    1.750    7.000 
#    0.000    3.750    0.000    0.000    0.000    0.000 
#    0.000    0.000    0.000    0.000    0.000    0.000 
#
# Total GULP energy -198455.215438 kJ/mol
# GULP energy per Si atom -12403.450965 kJ/mol
# Density = 1.954426 g / cm^3
# Si number density = 19.588845 Si / 1000 Ang^3
#
#
#
# Elastic Constant Matrix: (Units=GPa)
#
#
# Indices 1 2 3 4 5 6 
#
# 1 99.6493 43.9318 30.5479 -0.0004 21.1685 0.0003
# 2 43.9318 93.0713 44.7219 -0.0011 10.2181 0.0005
# 3 30.5479 44.7219 77.2812 -0.0017 22.6680 0.0006
# 4 -0.0004 -0.0011 -0.0017 35.8103 0.0003 2.4955
# 5 21.1685 10.2181 22.6680 0.0003 23.6719 -0.0001
# 6 0.0003 0.0005 0.0006 2.4955 -0.0001 33.2160
#
#
#
# Elastic Compliance Matrix: (Units=1/GPa)
#
#
# Indices 1 2 3 4 5 6 
#
# 1 0.014974 -0.006361 0.001230 0.000000 -0.011822 0.000000
# 2 -0.006361 0.017695 -0.009948 0.000000 0.007576 0.000000
# 3 0.001230 -0.009948 0.024020 0.000001 -0.019807 0.000000
# 4 0.000000 0.000000 0.000001 0.028072 -0.000001 -0.002109
# 5 -0.011822 0.007576 -0.019807 -0.000001 0.068513 0.000001
# 6 0.000000 0.000000 0.000000 -0.002109 0.000001 0.030264
#
#
# Mechanical properties :
#
#
# Convention : Reuss Voigt Hill
#
# Bulk Modulus (GPa) = 37.69147 56.48942 47.09045
# Shear Modulus (GPa) = 22.46780 28.59298 25.53039
#
# Velocity S-wave (km/s) = 3.39037 3.82469 3.61406
# Velocity P-wave (km/s) = 5.88296 6.95733 6.44258
#
# Compressibility (1/GPa) = 0.02653120
#
# Stress axis : x y z
#
# Youngs Moduli (GPa) = 66.78271 56.51205 41.63165
#
# Poissons Ratio (x) = 0.35948 -0.05120
# Poissons Ratio (y) = 0.42481 0.41415
# Poissons Ratio (z) = -0.08213 0.56218
#
# Static dielectric constant tensor:
#      x y z
#    x 3.564350 0.000000 0.128680 
#    y 0.000000 3.606370 0.000000 
#    z 0.128680 0.000000 3.497460 
# 
# 
# High freq. dielectric constant tensor:
#      x y z
#    x 1.769060 0.000000 0.006180 
#    y 0.000000 1.766600 0.000000 
#    z 0.006180 0.000000 1.755760 
# 
# From -- ./inp_files/28136.got.cif
#   From: 2010.03.12/outbox.cif.g09.slc.cpg/sg8_15_cif.got.tgz:28136.got - 2010.03.31 10:45:26.
