data_PCOD8053529
_publ_section_title
;
Structure prediction by ZEFSAII (Michael W. Deem and Ramdas Pophale) SiO2 
 PCOD8053529
Probable space group: C M
;
_chemical_formula_sum "Si O2"
_cell_formula_units_Z 32
_cell_length_a 21.965172
_cell_length_b 8.814210
_cell_length_c 27.284419
_cell_angle_alpha 90.000000
_cell_angle_beta 18.039316
_cell_angle_gamma 90.000000
_cell_volume 1635.803706
_symmetry_space_group_name_H-M "C M"
_symmetry_group_IT_number 8
_symmetry_cell_setting 'monoclinic'
loop_
_space_group_symop_operation_xyz
x,y,z
x,-y,z
1/2+x,1/2+y,z
1/2+x,1/2-y,z
loop_
_atom_site_type_symbol
_atom_site_label
_atom_site_fract_x
_atom_site_fract_y
_atom_site_fract_z
Si Si1 0.201830 0.320828 0.023740
Si Si2 0.912708 0.321275 0.420559
Si Si3 0.916340 0.823899 0.572452
Si Si4 0.450148 0.178218 0.648589
Si Si5 0.202399 0.673877 0.284260
Si Si6 0.645123 0.676488 0.963630
Si Si7 0.391580 0.679996 0.333289
Si Si8 0.114159 0.321436 0.719434
O O1 0.216468 0.500000 0.019144
O O2 0.168824 0.279883 0.992727
O O3 0.020561 0.256896 0.192946
O O4 0.399141 0.244314 0.893051
O O5 0.891157 0.500000 0.428654
O O6 0.959797 0.238854 0.333825
O O7 0.710863 0.257398 0.597957
O O8 0.095210 0.278931 0.316045
O O9 0.873687 0.746866 0.656626
O O10 0.738235 0.781393 0.672703
O O11 0.121361 0.768841 0.392170
O O12 0.933778 0.000000 0.568378
O O13 0.668760 0.232814 0.494216
O O14 0.440299 0.000000 0.650350
O O15 0.306369 0.233163 0.801624
O O16 0.156463 0.500000 0.331888
O O17 0.432936 0.704117 0.101638
O O18 0.674783 0.500000 0.955281
O O19 0.416163 0.500000 0.311841
O O20 0.104953 0.500000 0.716185
#
# Coordination Sequence:
#
# PCOD8053529 Si02
#       8
#     4   4   4   4   4   4   4   4
#     4  12  25  39  58  85 113 146 190 244 292 335
#     4  10  20  36  59  89 119 150 191 237 279 328
#     4  10  21  36  58  86 115 147 187 232 277 329
#     4  10  22  38  58  82 112 151 191 230 279 337
#     4   9  19  36  59  85 116 152 187 225 278 337
#     4  10  21  39  60  83 113 150 189 231 281 344
#     4  11  23  39  58  82 115 157 195 232 283 343
#     4  10  21  39  60  84 115 153 190 229 285 349
#
# _framework density 19.562249000000001
#
# number of rings (size 3 to 8) (size 9 to 14) (size 15 to 20)
#    0.000    1.750    0.000    4.125    0.000    9.000 
#    0.000    1.250    0.000    0.000    0.000    0.000 
#    0.000    0.000    0.000    0.000    0.000    0.000 
#
# Total GULP energy -198496.289000 kJ/mol
# GULP energy per Si atom -12406.018063 kJ/mol
# Density = 1.951772 g / cm^3
# Si number density = 19.562249 Si / 1000 Ang^3
#
#
#
# Elastic Constant Matrix: (Units=GPa)
#
#
# Indices 1 2 3 4 5 6 
#
# 1 115.7149 11.8359 39.9774 -0.0184 12.4568 0.0050
# 2 11.8359 -70.5562 -53.3642 -0.0548 -22.5177 -0.0186
# 3 39.9774 -53.3642 79.0396 -0.0632 -11.4229 -0.0005
# 4 -0.0184 -0.0548 -0.0632 28.6184 -0.0208 4.6834
# 5 12.4568 -22.5177 -11.4229 -0.0208 27.2406 -0.0049
# 6 0.0050 -0.0186 -0.0005 4.6834 -0.0049 38.5963
#
#
#
# Elastic Compliance Matrix: (Units=1/GPa)
#
#
# Indices 1 2 3 4 5 6 
#
# 1 0.009250 0.003924 -0.002312 0.000007 -0.001955 0.000000
# 2 0.003924 -0.005363 -0.006925 -0.000030 -0.009131 -0.000001
# 3 -0.002312 -0.006925 0.009017 0.000005 -0.000886 -0.000004
# 4 0.000007 -0.000030 0.000005 0.035650 0.000001 -0.004326
# 5 -0.001955 -0.009131 -0.000886 0.000001 0.029684 -0.000001
# 6 0.000000 -0.000001 -0.000004 -0.004326 -0.000001 0.026434
#
#
# Mechanical properties :
#
#
# Convention : Reuss Voigt Hill
#
# Bulk Modulus (GPa) = 438.82251 13.45517 226.13884
# Shear Modulus (GPa) = 43.08178 27.27433 35.17805
#
# Velocity S-wave (km/s) = 4.69795 3.73799 4.24519
# Velocity P-wave (km/s) = 15.94477 5.05205 11.82706
#
# Compressibility (1/GPa) = 0.00227883
#
# Stress axis : x y z
#
# Youngs Moduli (GPa) = 108.11179 -186.47015 110.89625
#
# Poissons Ratio (x) = 0.73172 0.25635
# Poissons Ratio (y) = -0.42424 0.76798
# Poissons Ratio (z) = 0.24991 -1.29134
#
# Static dielectric constant tensor:
#      x y z
#    x 3.658470 0.000000 0.038260 
#    y 0.000000 3.582190 0.000060 
#    z 0.038260 0.000060 3.863560 
# 
# 
# High freq. dielectric constant tensor:
#      x y z
#    x 1.770080 0.000000 -0.002940 
#    y 0.000000 1.765550 0.000010 
#    z -0.002940 0.000010 1.768060 
# 
# From -- ./inp_files/33051.got.cif
#   From: 2010.03.12/outbox.cif.g09.slc.cpg/sg8_17_cif.got.tgz:33051.got - 2010.03.31 10:45:26.
