data_PCOD8053280
_publ_section_title
;
Structure prediction by ZEFSAII (Michael W. Deem and Ramdas Pophale) SiO2 
 PCOD8053280
Probable space group: C M
;
_chemical_formula_sum "Si O2"
_cell_formula_units_Z 32
_cell_length_a 19.464939
_cell_length_b 8.761819
_cell_length_c 12.073416
_cell_angle_alpha 90.000000
_cell_angle_beta 52.725073
_cell_angle_gamma 90.000000
_cell_volume 1638.505520
_symmetry_space_group_name_H-M "C M"
_symmetry_group_IT_number 8
_symmetry_cell_setting 'monoclinic'
loop_
_space_group_symop_operation_xyz
x,y,z
x,-y,z
1/2+x,1/2+y,z
1/2+x,1/2-y,z
loop_
_atom_site_type_symbol
_atom_site_label
_atom_site_fract_x
_atom_site_fract_y
_atom_site_fract_z
Si Si1 0.821480 0.827858 0.214230
Si Si2 0.330483 0.179227 0.665608
Si Si3 0.642468 0.682186 0.905283
Si Si4 0.077188 0.818685 0.199434
Si Si5 0.886211 0.827864 0.397543
Si Si6 0.990510 0.681461 0.657534
Si Si7 0.985085 0.819059 0.906323
Si Si8 0.641698 0.678998 0.369825
O O1 0.844544 0.824286 0.319371
O O2 0.742138 0.713024 0.284960
O O3 0.795154 0.000000 0.205266
O O4 0.901186 0.771430 0.060489
O O5 0.237817 0.248033 0.790160
O O6 0.336582 0.220919 0.531185
O O7 0.409959 0.244533 0.662069
O O8 0.329132 0.000000 0.682169
O O9 0.640656 0.500000 0.906308
O O10 0.571447 0.739539 0.885259
O O11 0.621648 0.749170 0.046877
O O12 0.121839 0.758401 0.266724
O O13 0.980647 0.757215 0.295243
O O14 0.079353 0.000000 0.190671
O O15 0.888292 0.000000 0.443184
O O16 0.991737 0.500000 0.657950
O O17 0.979252 0.740600 0.792962
O O18 0.081203 0.738431 0.518772
O O19 0.988260 0.000000 0.887525
O O20 0.624509 0.500000 0.398752
#
# Coordination Sequence:
#
# PCOD8053280 Si02
#       8
#     4   4   4   4   4   4   4   4
#     4  10  22  39  60  88 121 155 190 240 298 344
#     4  10  22  37  58  86 116 151 190 240 291 337
#     4   9  18  36  60  85 112 146 193 238 284 341
#     4   9  17  34  61  85 107 143 192 241 285 339
#     4  10  19  37  62  84 112 149 192 239 286 343
#     4  11  24  40  57  83 124 159 191 242 297 342
#     4  10  21  39  62  85 116 157 197 235 286 354
#     4  11  23  38  62  88 114 154 201 243 287 350
#
# _framework density 19.529992
#
# number of rings (size 3 to 8) (size 9 to 14) (size 15 to 20)
#    0.000    2.000    2.500    0.750    3.500    1.500 
#    0.000    0.000    0.000    2.250    0.000    0.000 
#    0.000    0.000    0.000    0.000    0.000    0.000 
#
# Total GULP energy -198352.646091 kJ/mol
# GULP energy per Si atom -12397.040381 kJ/mol
# Density = 1.948554 g / cm^3
# Si number density = 19.529992 Si / 1000 Ang^3
#
#
#
# Elastic Constant Matrix: (Units=GPa)
#
#
# Indices 1 2 3 4 5 6 
#
# 1 115.3346 29.4624 70.0364 0.0000 -10.0273 0.0000
# 2 29.4624 33.5847 32.1314 0.0000 -0.8637 0.0000
# 3 70.0364 32.1314 168.9896 0.0000 -3.0900 0.0000
# 4 0.0000 0.0000 0.0000 26.5259 0.0000 4.5070
# 5 -10.0273 -0.8637 -3.0900 0.0000 41.2546 0.0000
# 6 0.0000 0.0000 0.0000 4.5070 0.0000 16.2894
#
#
#
# Elastic Compliance Matrix: (Units=1/GPa)
#
#
# Indices 1 2 3 4 5 6 
#
# 1 0.013328 -0.007804 -0.003989 0.000000 0.002777 0.000000
# 2 -0.007804 0.040968 -0.004581 0.000000 -0.001382 0.000000
# 3 -0.003989 -0.004581 0.008434 0.000000 -0.000434 0.000000
# 4 0.000000 0.000000 0.000000 0.039559 0.000000 -0.010945
# 5 0.002777 -0.001382 -0.000434 0.000000 0.024853 0.000000
# 6 0.000000 0.000000 0.000000 -0.010945 0.000000 0.064418
#
#
# Mechanical properties :
#
#
# Convention : Reuss Voigt Hill
#
# Bulk Modulus (GPa) = 33.35258 64.57435 48.96346
# Shear Modulus (GPa) = 21.34005 29.23257 25.28631
#
# Velocity S-wave (km/s) = 3.30916 3.87305 3.60216
# Velocity P-wave (km/s) = 5.63164 7.28949 6.51353
#
# Compressibility (1/GPa) = 0.02998269
#
# Stress axis : x y z
#
# Youngs Moduli (GPa) = 75.03180 24.40900 118.57159
#
# Poissons Ratio (x) = 0.19049 0.47297
# Poissons Ratio (y) = 0.58555 0.54313
# Poissons Ratio (z) = 0.29930 0.11181
#
# Static dielectric constant tensor:
#      x y z
#    x 3.727110 0.000000 -0.070330 
#    y 0.000000 3.253420 0.000000 
#    z -0.070330 0.000000 3.754110 
# 
# 
# High freq. dielectric constant tensor:
#      x y z
#    x 1.772380 0.000000 -0.000140 
#    y 0.000000 1.726450 0.000000 
#    z -0.000140 0.000000 1.776990 
# 
# From -- ./inp_files/23872.got.cif
#   From: 2010.03.12/outbox.cif.g09.slc.cpg/sg8_12_cif.got.tgz:23872.got - 2010.03.31 10:45:26.
