data_PCOD8053127
_publ_section_title
;
Structure prediction by ZEFSAII (Michael W. Deem and Ramdas Pophale) SiO2 
 PCOD8053127
Probable space group: C M
;
_chemical_formula_sum "Si O2"
_cell_formula_units_Z 32
_cell_length_a 28.391927
_cell_length_b 9.061620
_cell_length_c 21.487370
_cell_angle_alpha 90.000000
_cell_angle_beta 17.534374
_cell_angle_gamma 90.000000
_cell_volume 1665.525472
_symmetry_space_group_name_H-M "C M"
_symmetry_group_IT_number 8
_symmetry_cell_setting 'monoclinic'
loop_
_space_group_symop_operation_xyz
x,y,z
x,-y,z
1/2+x,1/2+y,z
1/2+x,1/2-y,z
loop_
_atom_site_type_symbol
_atom_site_label
_atom_site_fract_x
_atom_site_fract_y
_atom_site_fract_z
Si Si1 0.212450 0.663056 0.662040
Si Si2 0.932062 0.324767 0.936296
Si Si3 0.723139 0.327692 0.834030
Si Si4 0.889761 0.668386 0.750861
Si Si5 0.299129 0.674574 0.987829
Si Si6 0.946404 0.326941 0.442791
Si Si7 0.975119 0.334169 0.075124
Si Si8 0.751461 0.170692 0.272781
O O1 0.281113 0.500000 0.565028
O O2 0.359145 0.767819 0.490845
O O3 0.093408 0.664842 0.869071
O O4 0.111247 0.713910 0.729806
O O5 0.904496 0.500000 0.972587
O O6 0.911498 0.259694 0.893700
O O7 0.809360 0.250051 0.137504
O O8 0.692488 0.500000 0.862345
O O9 0.777265 0.291489 0.835242
O O10 0.858245 0.273223 0.616160
O O11 0.560406 0.242914 0.026246
O O12 0.861501 0.500000 0.808650
O O13 0.850493 0.783064 0.854094
O O14 0.066485 0.689115 0.506353
O O15 0.315518 0.500000 0.976732
O O16 0.123098 0.731562 0.221902
O O17 0.946970 0.500000 0.436082
O O18 0.925327 0.500000 0.156565
O O19 0.822270 0.243389 0.246283
O O20 0.802387 0.000000 0.206234
#
# Coordination Sequence:
#
# PCOD8053127 Si02
#       8
#     4   4   4   4   4   4   4   4
#     4   8  16  30  50  78 106 131 164 209 258 308
#     4  10  20  35  56  82 109 137 174 217 262 314
#     4   9  17  33  56  78 102 135 173 214 263 315
#     4  10  22  38  54  75 106 142 180 221 264 312
#     4  11  23  37  53  76 107 142 180 219 262 313
#     4   9  18  33  54  79 104 132 170 214 258 309
#     4   9  17  30  50  80 111 134 166 214 263 312
#     4  10  19  34  57  82 107 137 175 218 264 313
#
# _framework density 19.213155
#
# number of rings (size 3 to 8) (size 9 to 14) (size 15 to 20)
#    0.000    2.500    0.000    3.000    0.000    8.000 
#    0.000    3.750    0.000    1.500    0.000    0.000 
#    0.000    0.000    0.000    0.000    0.000    0.000 
#
# Total GULP energy -198396.363321 kJ/mol
# GULP energy per Si atom -12399.772708 kJ/mol
# Density = 1.916943 g / cm^3
# Si number density = 19.213155 Si / 1000 Ang^3
#
#
#
# Elastic Constant Matrix: (Units=GPa)
#
#
# Indices 1 2 3 4 5 6 
#
# 1 128.4128 48.7235 29.9726 0.0003 -21.8587 -0.0001
# 2 48.7235 79.8934 20.1019 -0.0007 -8.3696 0.0000
# 3 29.9726 20.1019 17.8035 0.0006 -7.1530 -0.0004
# 4 0.0003 -0.0007 0.0006 22.3327 -0.0005 -3.2914
# 5 -21.8587 -8.3696 -7.1530 -0.0005 28.1073 0.0002
# 6 -0.0001 0.0000 -0.0004 -3.2914 0.0002 34.9686
#
#
#
# Elastic Compliance Matrix: (Units=1/GPa)
#
#
# Indices 1 2 3 4 5 6 
#
# 1 0.014220 -0.003672 -0.017589 0.000000 0.005489 0.000000
# 2 -0.003672 0.018433 -0.015119 0.000001 -0.001214 0.000000
# 3 -0.017589 -0.015119 0.106428 -0.000003 0.008904 0.000001
# 4 0.000000 0.000001 -0.000003 0.045407 0.000001 0.004274
# 5 0.005489 -0.001214 0.008904 0.000001 0.041751 0.000000
# 6 0.000000 0.000000 0.000001 0.004274 0.000000 0.028999
#
#
# Mechanical properties :
#
#
# Convention : Reuss Voigt Hill
#
# Bulk Modulus (GPa) = 15.07792 47.07841 31.07816
# Shear Modulus (GPa) = 14.28141 25.56918 19.92529
#
# Velocity S-wave (km/s) = 2.72934 3.65199 3.22384
# Velocity P-wave (km/s) = 4.21866 6.50685 5.48344
#
# Compressibility (1/GPa) = 0.06632217
#
# Stress axis : x y z
#
# Youngs Moduli (GPa) = 70.32155 54.25132 9.39602
#
# Poissons Ratio (x) = 0.19920 0.16527
# Poissons Ratio (y) = 0.25820 0.14206
# Poissons Ratio (z) = 1.23688 0.82021
#
# Static dielectric constant tensor:
#      x y z
#    x 3.608520 0.000000 -0.351540 
#    y 0.000000 3.607340 0.000000 
#    z -0.351540 0.000000 3.371130 
# 
# 
# High freq. dielectric constant tensor:
#      x y z
#    x 1.748570 0.000000 -0.027480 
#    y 0.000000 1.749720 0.000000 
#    z -0.027480 0.000000 1.724330 
# 
# From -- ./inp_files/31060.got.cif
#   From: 2010.03.12/outbox.cif.g09.slc.cpg/sg8_16_cif.got.tgz:31060.got - 2010.03.31 10:45:26.
