data_PCOD8053848
_publ_section_title
;
Structure prediction by ZEFSAII (Michael W. Deem and Ramdas Pophale) SiO2 
 PCOD8053848
Probable space group: C M
;
_chemical_formula_sum "Si O2"
_cell_formula_units_Z 24
_cell_length_a 13.286237
_cell_length_b 13.779207
_cell_length_c 11.755437
_cell_angle_alpha 90.000000
_cell_angle_beta 148.613780
_cell_angle_gamma 90.000000
_cell_volume 1120.829586
_symmetry_space_group_name_H-M "C M"
_symmetry_group_IT_number 8
_symmetry_cell_setting 'monoclinic'
loop_
_space_group_symop_operation_xyz
x,y,z
x,-y,z
1/2+x,1/2+y,z
1/2+x,1/2-y,z
loop_
_atom_site_type_symbol
_atom_site_label
_atom_site_fract_x
_atom_site_fract_y
_atom_site_fract_z
Si Si1 0.170720 0.110473 0.091320
Si Si2 0.687738 0.707215 0.443884
Si Si3 0.381321 0.722188 0.965661
Si Si4 0.185126 0.110921 0.680678
Si Si5 0.982563 0.387711 0.562721
Si Si6 0.940992 0.891187 0.658432
O O1 0.383030 0.140327 0.344249
O O2 0.137415 0.000000 0.097561
O O3 0.138718 0.124343 0.924699
O O4 0.002811 0.172191 0.985354
O O5 0.638221 0.665140 0.518754
O O6 0.829464 0.634070 0.514655
O O7 0.777404 0.815039 0.536169
O O8 0.480518 0.712345 0.183212
O O9 0.364301 0.835465 0.914863
O O10 0.167205 0.678044 0.762504
O O11 0.996367 0.119465 0.579504
O O12 0.244369 0.000000 0.716426
O O13 0.043854 0.500000 0.626632
O O14 0.860257 0.000000 0.604462
#
# Coordination Sequence:
#
# PCOD8053848 Si02
#       6
#     4   4   4   4   4   4
#     4   9  19  38  66  94 126 165 216 270 320 387
#     4  11  23  43  67  94 131 175 220 268 323 394
#     4  11  22  39  67  95 129 172 222 267 324 389
#     4  11  24  43  65  97 135 171 215 272 331 389
#     4  10  21  39  65  98 130 168 217 271 327 384
#     4  10  21  42  68  96 131 171 216 268 329 391
#
# _framework density 21.412710000000001
#
# number of rings (size 3 to 8) (size 9 to 14) (size 15 to 20)
#    0.000    1.667    3.333    1.000    0.000    4.000 
#    3.000    0.000    0.000    0.000    0.000    0.000 
#    0.000    0.000    0.000    0.000    0.000    0.000 
#
# Total GULP energy -148768.168863 kJ/mol
# GULP energy per Si atom -12397.347405 kJ/mol
# Density = 2.136397 g / cm^3
# Si number density = 21.412710 Si / 1000 Ang^3
#
#
#
# Elastic Constant Matrix: (Units=GPa)
#
#
# Indices 1 2 3 4 5 6 
#
# 1 81.8886 48.3792 68.0141 0.0000 -24.1011 0.0000
# 2 48.3792 138.4868 74.6189 0.0000 -6.6666 0.0000
# 3 68.0141 74.6189 156.7325 0.0000 -4.9896 0.0000
# 4 0.0000 0.0000 0.0000 27.9095 0.0000 0.6465
# 5 -24.1011 -6.6666 -4.9896 0.0000 34.7695 0.0000
# 6 0.0000 0.0000 0.0000 0.6465 0.0000 29.6195
#
#
#
# Elastic Compliance Matrix: (Units=1/GPa)
#
#
# Indices 1 2 3 4 5 6 
#
# 1 0.027211 -0.003528 -0.009594 0.000000 0.016809 0.000000
# 2 -0.003528 0.010220 -0.003366 0.000000 -0.000969 0.000000
# 3 -0.009594 -0.003366 0.011968 0.000000 -0.005578 0.000000
# 4 0.000000 0.000000 0.000000 0.035848 0.000000 -0.000783
# 5 0.016809 -0.000969 -0.005578 0.000000 0.039426 0.000000
# 6 0.000000 0.000000 0.000000 -0.000783 0.000000 0.033779
#
#
# Mechanical properties :
#
#
# Convention : Reuss Voigt Hill
#
# Bulk Modulus (GPa) = 60.88101 84.34804 72.61453
# Shear Modulus (GPa) = 25.39337 30.86606 28.12971
#
# Velocity S-wave (km/s) = 3.44743 3.80081 3.62842
# Velocity P-wave (km/s) = 6.65885 7.66411 7.17910
#
# Compressibility (1/GPa) = 0.01642548
#
# Stress axis : x y z
#
# Youngs Moduli (GPa) = 36.74967 97.84611 83.55385
#
# Poissons Ratio (x) = 0.34516 0.80159
# Poissons Ratio (y) = 0.12964 0.28122
# Poissons Ratio (z) = 0.35257 0.32933
#
# Static dielectric constant tensor:
#      x y z
#    x 3.650300 0.000000 -0.305620 
#    y 0.000000 4.193970 0.000000 
#    z -0.305620 0.000000 4.001230 
# 
# 
# High freq. dielectric constant tensor:
#      x y z
#    x 1.827590 0.000000 -0.019300 
#    y 0.000000 1.856900 0.000000 
#    z -0.019300 0.000000 1.838990 
# 
# From -- ./inp_files/3891.got.cif
#   From: 2010.03.12/outbox.cif.g09.slc.cpg/sg8_2_cif.got.tgz:3891.got - 2010.03.31 10:45:26.
