data_PCOD8053301
_publ_section_title
;
Structure prediction by ZEFSAII (Michael W. Deem and Ramdas Pophale) SiO2 
 PCOD8053301
Probable space group: C M
;
_chemical_formula_sum "Si O2"
_cell_formula_units_Z 22
_cell_length_a 11.094165
_cell_length_b 14.070599
_cell_length_c 13.245521
_cell_angle_alpha 90.000000
_cell_angle_beta 146.912404
_cell_angle_gamma 90.000000
_cell_volume 1128.770698
_symmetry_space_group_name_H-M "C M"
_symmetry_group_IT_number 8
_symmetry_cell_setting 'monoclinic'
loop_
_space_group_symop_operation_xyz
x,y,z
x,-y,z
1/2+x,1/2+y,z
1/2+x,1/2-y,z
loop_
_atom_site_type_symbol
_atom_site_label
_atom_site_fract_x
_atom_site_fract_y
_atom_site_fract_z
Si Si1 0.758910 0.500000 0.506740
Si Si2 0.547822 0.333179 0.716012
Si Si3 0.814722 0.319220 0.422373
Si Si4 0.672512 0.000000 0.914748
Si Si5 0.783294 0.106893 0.717210
Si Si6 0.738600 0.500000 0.716565
Si Si7 0.399720 0.684463 0.006648
O O1 0.699900 0.404872 0.404276
O O2 0.637345 0.500000 0.531168
O O3 0.024147 0.500000 0.708991
O O4 0.368824 0.267586 0.534363
O O5 0.418722 0.391316 0.709455
O O6 0.661551 0.405066 0.718119
O O7 0.731221 0.271276 0.903029
O O8 0.039655 0.351523 0.525765
O O9 0.641836 0.285787 0.215640
O O10 0.819787 0.094473 0.016728
O O11 0.507704 0.000000 0.896700
O O12 0.910397 0.163530 0.894593
O O13 0.763827 0.000000 0.740761
#
# Coordination Sequence:
#
# PCOD8053301 Si02
#       7
#     2   4   4   2   4   2   4
#     4  10  19  40  63  89 119 159 203 243 299 350
#     4  11  24  41  63  88 126 160 201 243 308 358
#     4  11  23  40  65  92 118 158 206 250 296 357
#     4  10  19  40  63  89 119 159 203 243 299 350
#     4  11  21  41  63  89 121 160 198 254 303 353
#     4  10  22  42  64  82 124 170 190 252 300 352
#     4  11  23  40  65  92 118 158 206 250 296 357
#
# _framework density 19.490231000000001
#
# number of rings (size 3 to 8) (size 9 to 14) (size 15 to 20)
#    0.545    0.727    6.364    0.545   10.182    1.455 
#    0.000    2.727    0.000    0.000    0.000    0.000 
#    0.000    0.000    0.000    0.000    0.000    0.000 
#
# Total GULP energy -136375.644218 kJ/mol
# GULP energy per Si atom -12397.785838 kJ/mol
# Density = 1.944587 g / cm^3
# Si number density = 19.490231 Si / 1000 Ang^3
#
#
#
# Elastic Constant Matrix: (Units=GPa)
#
#
# Indices 1 2 3 4 5 6 
#
# 1 126.2544 30.8582 24.5204 0.0074 5.2006 0.0024
# 2 30.8582 98.1680 29.7907 0.0250 -0.0029 0.0118
# 3 24.5204 29.7907 142.5431 0.0472 -7.1675 0.0154
# 4 0.0074 0.0250 0.0472 7.7508 0.0269 2.0581
# 5 5.2006 -0.0029 -7.1675 0.0269 10.9311 0.0093
# 6 0.0024 0.0118 0.0154 2.0581 0.0093 31.2171
#
#
#
# Elastic Compliance Matrix: (Units=1/GPa)
#
#
# Indices 1 2 3 4 5 6 
#
# 1 0.008976 -0.002429 -0.001294 0.000025 -0.005120 0.000001
# 2 -0.002429 0.011559 -0.002006 -0.000022 -0.000156 -0.000002
# 3 -0.001294 -0.002006 0.007950 -0.000061 0.005828 -0.000001
# 4 0.000025 -0.000022 -0.000061 0.131319 -0.000367 -0.008658
# 5 -0.005120 -0.000156 0.005828 -0.000367 0.097741 -0.000007
# 6 0.000001 -0.000002 -0.000001 -0.008658 -0.000007 0.032605
#
#
# Mechanical properties :
#
#
# Convention : Reuss Voigt Hill
#
# Bulk Modulus (GPa) = 58.72684 59.70046 59.21365
# Shear Modulus (GPa) = 16.27161 28.76620 22.51890
#
# Velocity S-wave (km/s) = 2.89253 3.84595 3.40280
# Velocity P-wave (km/s) = 6.43059 7.10065 6.77391
#
# Compressibility (1/GPa) = 0.01702799
#
# Stress axis : x y z
#
# Youngs Moduli (GPa) = 111.40302 86.51367 125.78195
#
# Poissons Ratio (x) = 0.21015 0.16275
# Poissons Ratio (y) = 0.27061 0.25228
# Poissons Ratio (z) = 0.14414 0.17352
#
# Static dielectric constant tensor:
#      x y z
#    x 3.384790 0.000020 -0.057100 
#    y 0.000020 3.507170 -0.000120 
#    z -0.057100 -0.000120 3.522950 
# 
# 
# High freq. dielectric constant tensor:
#      x y z
#    x 1.756360 0.000000 0.001000 
#    y 0.000000 1.762520 0.000000 
#    z 0.001000 0.000000 1.743640 
# 
# From -- ./inp_files/26108.got.cif
#   From: 2010.03.12/outbox.cif.g09.slc.cpg/sg8_14_cif.got.tgz:26108.got - 2010.03.31 10:45:26.
