data_PCOD8053571
_publ_section_title
;
Structure prediction by ZEFSAII (Michael W. Deem and Ramdas Pophale) SiO2 
 PCOD8053571
Probable space group: C M
;
_chemical_formula_sum "Si O2"
_cell_formula_units_Z 24
_cell_length_a 26.404988
_cell_length_b 7.816687
_cell_length_c 17.681686
_cell_angle_alpha 90.000000
_cell_angle_beta 160.384350
_cell_angle_gamma 90.000000
_cell_volume 1225.166724
_symmetry_space_group_name_H-M "C M"
_symmetry_group_IT_number 8
_symmetry_cell_setting 'monoclinic'
loop_
_space_group_symop_operation_xyz
x,y,z
x,-y,z
1/2+x,1/2+y,z
1/2+x,1/2-y,z
loop_
_atom_site_type_symbol
_atom_site_label
_atom_site_fract_x
_atom_site_fract_y
_atom_site_fract_z
Si Si1 0.694940 0.189897 0.444770
Si Si2 0.274620 0.500000 0.028039
Si Si3 0.815529 0.000000 0.836963
Si Si4 0.271917 0.813779 0.137432
Si Si5 0.521399 0.805102 0.896154
Si Si6 0.047008 0.500000 0.567785
Si Si7 0.043118 0.000000 0.296089
Si Si8 0.470205 0.189626 0.993487
O O1 0.650098 0.331608 0.444674
O O2 0.598608 0.221124 0.234865
O O3 0.866439 0.208894 0.659370
O O4 0.666271 0.000000 0.438211
O O5 0.258249 0.669005 0.055184
O O6 0.442117 0.500000 0.229011
O O7 0.143689 0.500000 0.780650
O O8 0.649340 0.000000 0.636944
O O9 0.838738 0.830977 0.817990
O O10 0.933721 0.000000 0.071015
O O11 0.233099 0.000000 0.045570
O O12 0.440291 0.829875 0.411673
O O13 0.158555 0.782414 0.046532
O O14 0.507300 0.000000 0.849203
O O15 0.552536 0.790041 0.029181
O O16 0.397314 0.000000 0.899271
#
# Coordination Sequence:
#
# PCOD8053571 Si02
#       8
#     4   2   2   4   4   2   2   4
#     4  10  20  37  58  90 124 156 198 251 308 377
#     4  11  22  47  68  88 135 173 205 278 313 360
#     4   9  18  39  61  86 127 157 198 258 300 376
#     4  10  24  44  61  94 126 163 229 262 302 392
#     4  11  21  39  60  86 125 160 202 260 313 367
#     4   9  24  45  64  96 125 169 223 254 321 376
#     4   9  20  37  61  92 123 161 204 244 314 378
#     4   9  21  36  57  89 122 157 197 244 316 375
#
# _framework density 19.589172999999999
#
# number of rings (size 3 to 8) (size 9 to 14) (size 15 to 20)
#    0.500    1.667    1.667    0.500    2.333    3.333 
#    3.000    3.333    0.000    0.000    0.000    0.000 
#    0.000    0.000    0.000    0.000    0.000    0.000 
#
# Total GULP energy -148744.897885 kJ/mol
# GULP energy per Si atom -12395.408157 kJ/mol
# Density = 1.954459 g / cm^3
# Si number density = 19.589173 Si / 1000 Ang^3
#
#
#
# Elastic Constant Matrix: (Units=GPa)
#
#
# Indices 1 2 3 4 5 6 
#
# 1 107.0767 77.9645 50.4182 0.0000 26.0451 0.0000
# 2 77.9645 163.6083 58.7172 0.0000 12.1395 0.0000
# 3 50.4182 58.7172 104.7610 0.0000 24.6160 0.0000
# 4 0.0000 0.0000 0.0000 30.4455 0.0000 3.6332
# 5 26.0451 12.1395 24.6160 0.0000 38.8133 0.0000
# 6 0.0000 0.0000 0.0000 3.6332 0.0000 30.5924
#
#
#
# Elastic Compliance Matrix: (Units=1/GPa)
#
#
# Indices 1 2 3 4 5 6 
#
# 1 0.017468 -0.006743 -0.002784 0.000000 -0.007847 0.000000
# 2 -0.006743 0.010259 -0.003307 0.000000 0.003413 0.000000
# 3 -0.002784 -0.003307 0.014168 0.000000 -0.006083 0.000000
# 4 0.000000 0.000000 0.000000 0.033318 0.000000 -0.003957
# 5 -0.007847 0.003413 -0.006083 0.000000 0.033821 0.000000
# 6 0.000000 0.000000 0.000000 -0.003957 0.000000 0.033158
#
#
# Mechanical properties :
#
#
# Convention : Reuss Voigt Hill
#
# Bulk Modulus (GPa) = 61.62048 83.29397 72.45723
# Shear Modulus (GPa) = 28.85701 32.52663 30.69182
#
# Velocity S-wave (km/s) = 3.84228 4.07927 3.96254
# Velocity P-wave (km/s) = 7.15603 8.04984 7.61606
#
# Compressibility (1/GPa) = 0.01622837
#
# Stress axis : x y z
#
# Youngs Moduli (GPa) = 57.24684 97.47652 70.58084
#
# Poissons Ratio (x) = 0.65727 0.19648
# Poissons Ratio (y) = 0.38601 0.23340
# Poissons Ratio (z) = 0.15936 0.32234
#
# Static dielectric constant tensor:
#      x y z
#    x 3.488980 0.000000 0.107630 
#    y 0.000000 3.879450 0.000000 
#    z 0.107630 0.000000 3.580080 
# 
# 
# High freq. dielectric constant tensor:
#      x y z
#    x 1.754960 0.000000 0.001420 
#    y 0.000000 1.777360 0.000000 
#    z 0.001420 0.000000 1.761080 
# 
# From -- ./inp_files/30091.got.cif
#   From: 2010.03.12/outbox.cif.g09.slc.cpg/sg8_16_cif.got.tgz:30091.got - 2010.03.31 10:45:26.
