data_PCOD8053297
_publ_section_title
;
Structure prediction by ZEFSAII (Michael W. Deem and Ramdas Pophale) SiO2 
 PCOD8053297
Probable space group: C M
;
_chemical_formula_sum "Si O2"
_cell_formula_units_Z 26
_cell_length_a 10.509032
_cell_length_b 18.870817
_cell_length_c 10.530376
_cell_angle_alpha 90.000000
_cell_angle_beta 142.206886
_cell_angle_gamma 90.000000
_cell_volume 1279.748466
_symmetry_space_group_name_H-M "C M"
_symmetry_group_IT_number 8
_symmetry_cell_setting 'monoclinic'
loop_
_space_group_symop_operation_xyz
x,y,z
x,-y,z
1/2+x,1/2+y,z
1/2+x,1/2-y,z
loop_
_atom_site_type_symbol
_atom_site_label
_atom_site_fract_x
_atom_site_fract_y
_atom_site_fract_z
Si Si1 0.324130 0.100333 0.060260
Si Si2 0.338308 0.800725 0.447519
Si Si3 0.606978 0.422062 0.144790
Si Si4 0.139761 0.000000 0.718028
Si Si5 0.669891 0.000000 0.267384
Si Si6 0.695133 0.858666 0.889963
Si Si7 0.919845 0.249861 0.229937
Si Si8 0.528004 0.000000 0.874190
O O1 0.210630 0.067831 0.091335
O O2 0.334537 0.184879 0.078157
O O3 0.557563 0.069607 0.235282
O O4 0.193524 0.072268 0.836710
O O5 0.260882 0.880297 0.359337
O O6 0.546928 0.806186 0.694378
O O7 0.389388 0.761058 0.355826
O O8 0.163228 0.759487 0.389819
O O9 0.565503 0.500000 0.171346
O O10 0.391896 0.379310 0.957960
O O11 0.280980 0.000000 0.703797
O O12 0.903431 0.000000 0.495278
O O13 0.660259 0.000000 0.107827
O O14 0.576580 0.929503 0.834741
O O15 0.781517 0.817853 0.082207
#
# Coordination Sequence:
#
# PCOD8053297 Si02
#       8
#     4   4   4   2   2   4   4   2
#     4   9  20  41  61  92 128 163 215 270 313 374
#     4  10  25  41  67  96 122 179 214 263 331 384
#     4  10  19  39  63  93 127 158 209 269 319 377
#     4  10  22  37  64  98 120 181 216 258 328 375
#     4  10  22  39  61  91 129 172 212 270 319 374
#     4  11  24  43  67  93 131 170 213 270 324 382
#     4  10  24  44  63  96 134 168 221 267 321 390
#     4  10  24  42  59  95 129 163 218 270 317 381
#
# _framework density 20.316493999999999
#
# number of rings (size 3 to 8) (size 9 to 14) (size 15 to 20)
#    0.000    2.154    2.308    0.000    5.385    9.846 
#    0.000    0.000    0.000    0.000    0.000    0.000 
#    0.000    0.000    0.000    0.000    0.000    0.000 
#
# Total GULP energy -161177.670745 kJ/mol
# GULP energy per Si atom -12398.282365 kJ/mol
# Density = 2.027025 g / cm^3
# Si number density = 20.316494 Si / 1000 Ang^3
#
#
#
# Elastic Constant Matrix: (Units=GPa)
#
#
# Indices 1 2 3 4 5 6 
#
# 1 107.3938 27.9105 67.4958 0.0000 8.0981 0.0000
# 2 27.9105 91.2612 27.1139 0.0000 0.1922 0.0000
# 3 67.4958 27.1139 123.9430 0.0000 23.1266 0.0000
# 4 0.0000 0.0000 0.0000 11.3629 0.0000 7.5603
# 5 8.0981 0.1922 23.1266 0.0000 32.1618 0.0000
# 6 0.0000 0.0000 0.0000 7.5603 0.0000 28.3307
#
#
#
# Elastic Compliance Matrix: (Units=1/GPa)
#
#
# Indices 1 2 3 4 5 6 
#
# 1 0.014684 -0.002148 -0.007899 0.000000 0.001995 0.000000
# 2 -0.002148 0.012152 -0.001820 0.000000 0.001777 0.000000
# 3 -0.007899 -0.001820 0.014315 0.000000 -0.008294 0.000000
# 4 0.000000 0.000000 0.000000 0.107005 0.000000 -0.028555
# 5 0.001995 0.001777 -0.008294 0.000000 0.036544 0.000000
# 6 0.000000 0.000000 0.000000 -0.028555 0.000000 0.042918
#
#
# Mechanical properties :
#
#
# Convention : Reuss Voigt Hill
#
# Bulk Modulus (GPa) = 57.41586 63.07092 60.24339
# Shear Modulus (GPa) = 19.44346 27.70960 23.57653
#
# Velocity S-wave (km/s) = 3.09694 3.69710 3.41025
# Velocity P-wave (km/s) = 6.41172 7.02398 6.72482
#
# Compressibility (1/GPa) = 0.01741679
#
# Stress axis : x y z
#
# Youngs Moduli (GPa) = 68.10338 82.29423 69.85514
#
# Poissons Ratio (x) = 0.17678 0.55176
# Poissons Ratio (y) = 0.14630 0.12714
# Poissons Ratio (z) = 0.53792 0.14978
#
# Static dielectric constant tensor:
#      x y z
#    x 3.810150 0.000000 0.120780 
#    y 0.000000 3.721880 0.000000 
#    z 0.120780 0.000000 3.363970 
# 
# 
# High freq. dielectric constant tensor:
#      x y z
#    x 1.807430 0.000000 0.009340 
#    y 0.000000 1.801460 0.000000 
#    z 0.009340 0.000000 1.774300 
# 
# From -- ./inp_files/8834.got.cif
#   From: 2010.03.12/outbox.cif.g09.slc.cpg/sg8_5_cif.got.tgz:8834.got - 2010.03.31 10:45:26.
