data_PCOD8053730
_publ_section_title
;
Structure prediction by ZEFSAII (Michael W. Deem and Ramdas Pophale) SiO2 
 PCOD8053730
Probable space group: C M
;
_chemical_formula_sum "Si O2"
_cell_formula_units_Z 32
_cell_length_a 15.427319
_cell_length_b 8.919342
_cell_length_c 22.825510
_cell_angle_alpha 90.000000
_cell_angle_beta 147.974204
_cell_angle_gamma 90.000000
_cell_volume 1665.582815
_symmetry_space_group_name_H-M "C M"
_symmetry_group_IT_number 8
_symmetry_cell_setting 'monoclinic'
loop_
_space_group_symop_operation_xyz
x,y,z
x,-y,z
1/2+x,1/2+y,z
1/2+x,1/2-y,z
loop_
_atom_site_type_symbol
_atom_site_label
_atom_site_fract_x
_atom_site_fract_y
_atom_site_fract_z
Si Si1 0.452120 0.177717 0.566480
Si Si2 0.276427 0.678276 0.816873
Si Si3 0.808744 0.177955 0.967175
Si Si4 0.931002 0.826084 0.430305
Si Si5 0.097173 0.679412 0.953533
Si Si6 0.114345 0.176598 0.422695
Si Si7 0.889779 0.831703 0.196057
Si Si8 0.113894 0.169292 0.212946
O O1 0.608681 0.235484 0.691968
O O2 0.463146 0.231661 0.506411
O O3 0.290635 0.243862 0.505818
O O4 0.448298 0.000000 0.563637
O O5 0.292398 0.500000 0.824767
O O6 0.278670 0.740234 0.884743
O O7 0.421928 0.747940 0.862464
O O8 0.665381 0.232276 0.929070
O O9 0.809308 0.000000 0.968563
O O10 0.986787 0.232302 0.091619
O O11 0.766870 0.779874 0.302372
O O12 0.080451 0.791584 0.471467
O O13 0.921652 0.000000 0.441489
O O14 0.085248 0.500000 0.949211
O O15 0.223119 0.742917 0.075559
O O16 0.969388 0.248580 0.298875
O O17 0.116142 0.000000 0.410562
O O18 0.029543 0.830239 0.227462
O O19 0.841001 0.000000 0.184786
O O20 0.171372 0.000000 0.230759
#
# Coordination Sequence:
#
# PCOD8053730 Si02
#       8
#     4   4   4   4   4   4   4   4
#     4  10  21  40  59  72 102 152 189 213 258 325
#     4  10  21  36  56  81 107 140 183 225 263 311
#     4   8  17  34  55  80 108 142 183 217 252 317
#     4  11  22  33  53  85 111 132 174 234 276 305
#     4   9  18  33  56  82 107 141 177 217 265 316
#     4   9  18  33  54  78 104 140 181 217 258 318
#     4   8  14  29  54  78 104 140 179 206 246 324
#     4   9  16  32  57  78 107 147 178 209 260 326
#
# _framework density 19.212495000000001
#
# number of rings (size 3 to 8) (size 9 to 14) (size 15 to 20)
#    0.000    2.750    1.250    1.875    1.750    1.500 
#    0.000    6.875    0.000    0.000    0.000    0.000 
#    0.000    0.000    0.000    0.000    0.000    0.000 
#
# Total GULP energy -198309.684255 kJ/mol
# GULP energy per Si atom -12394.355266 kJ/mol
# Density = 1.916877 g / cm^3
# Si number density = 19.212495 Si / 1000 Ang^3
#
#
#
# Elastic Constant Matrix: (Units=GPa)
#
#
# Indices 1 2 3 4 5 6 
#
# 1 109.9701 9.5870 70.8730 0.0000 -3.9150 0.0000
# 2 9.5870 10.1664 16.1658 -0.0001 4.9904 0.0000
# 3 70.8730 16.1658 141.7083 0.0005 -2.7903 0.0000
# 4 0.0000 -0.0001 0.0005 21.6510 0.0000 4.6404
# 5 -3.9150 4.9904 -2.7903 0.0000 25.0248 0.0000
# 6 0.0000 0.0000 0.0000 4.6404 0.0000 22.8142
#
#
#
# Elastic Compliance Matrix: (Units=1/GPa)
#
#
# Indices 1 2 3 4 5 6 
#
# 1 0.013570 -0.003844 -0.006305 0.000000 0.002186 0.000000
# 2 -0.003844 0.140102 -0.014654 0.000001 -0.030174 0.000000
# 3 -0.006305 -0.014654 0.011946 0.000000 0.003268 0.000000
# 4 0.000000 0.000001 0.000000 0.048293 0.000000 -0.009823
# 5 0.002186 -0.030174 0.003268 0.000000 0.046684 0.000000
# 6 0.000000 0.000000 0.000000 -0.009823 0.000000 0.045830
#
#
# Mechanical properties :
#
#
# Convention : Reuss Voigt Hill
#
# Bulk Modulus (GPa) = 8.61983 50.56627 29.59305
# Shear Modulus (GPa) = 12.66779 24.91260 18.79019
#
# Velocity S-wave (km/s) = 2.57057 3.60486 3.13072
# Velocity P-wave (km/s) = 3.64784 6.61085 5.33901
#
# Compressibility (1/GPa) = 0.11601163
#
# Stress axis : x y z
#
# Youngs Moduli (GPa) = 73.69283 7.13766 83.70807
#
# Poissons Ratio (x) = 0.02743 0.52780
# Poissons Ratio (y) = 0.28325 1.22669
# Poissons Ratio (z) = 0.46465 0.10460
#
# Static dielectric constant tensor:
#      x y z
#    x 3.581820 0.000000 -0.067540 
#    y 0.000000 3.029040 0.000000 
#    z -0.067540 0.000000 3.774630 
# 
# 
# High freq. dielectric constant tensor:
#      x y z
#    x 1.753090 0.000000 -0.002350 
#    y 0.000000 1.696860 0.000000 
#    z -0.002350 0.000000 1.753160 
# 
# From -- ./inp_files/21852.got.cif
#   From: 2010.03.12/outbox.cif.g09.slc.cpg/sg8_11_cif.got.tgz:21852.got - 2010.03.31 10:45:26.
