data_PCOD8053668
_publ_section_title
;
Structure prediction by ZEFSAII (Michael W. Deem and Ramdas Pophale) SiO2 
 PCOD8053668
Probable space group: C M
;
_chemical_formula_sum "Si O2"
_cell_formula_units_Z 32
_cell_length_a 19.263696
_cell_length_b 8.844194
_cell_length_c 11.970661
_cell_angle_alpha 90.000000
_cell_angle_beta 52.333343
_cell_angle_gamma 90.000000
_cell_volume 1614.397302
_symmetry_space_group_name_H-M "C M"
_symmetry_group_IT_number 8
_symmetry_cell_setting 'monoclinic'
loop_
_space_group_symop_operation_xyz
x,y,z
x,-y,z
1/2+x,1/2+y,z
1/2+x,1/2-y,z
loop_
_atom_site_type_symbol
_atom_site_label
_atom_site_fract_x
_atom_site_fract_y
_atom_site_fract_z
Si Si1 0.407960 0.176588 0.032250
Si Si2 0.724794 0.180599 0.191422
Si Si3 0.894493 0.823011 0.493636
Si Si4 0.059399 0.822223 0.473228
Si Si5 0.201468 0.318997 0.740773
Si Si6 0.464320 0.169276 0.220267
Si Si7 0.050429 0.822648 0.743227
Si Si8 0.663024 0.172144 0.020738
O O1 0.314413 0.251016 0.148539
O O2 0.461821 0.207298 0.092128
O O3 0.397814 0.000000 0.015616
O O4 0.460431 0.255019 0.880602
O O5 0.645136 0.238159 0.344809
O O6 0.725905 0.000000 0.195720
O O7 0.718214 0.240442 0.069409
O O8 0.799665 0.759970 0.621638
O O9 0.907420 0.781616 0.351206
O O10 0.972541 0.758171 0.495285
O O11 0.893287 0.000000 0.508817
O O12 0.049826 0.785577 0.612961
O O13 0.070800 0.000000 0.439821
O O14 0.191517 0.500000 0.744902
O O15 0.135874 0.251479 0.714117
O O16 0.178813 0.249720 0.885524
O O17 0.429211 0.000000 0.276393
O O18 0.563976 0.186815 0.159971
O O19 0.051947 0.000000 0.765189
O O20 0.691643 0.000000 0.975227
#
# Coordination Sequence:
#
# PCOD8053668 Si02
#       8
#     4   4   4   4   4   4   4   4
#     4  11  24  42  63  88 122 160 196 244 305 359
#     4  11  23  39  64  92 119 156 203 248 294 356
#     4  10  22  38  62  90 118 156 200 246 293 351
#     4  10  23  42  60  85 125 164 198 244 301 352
#     4  10  21  40  63  87 119 159 199 242 300 355
#     4  10  20  39  63  84 115 156 196 244 300 353
#     4  11  24  41  62  88 121 160 202 247 295 353
#     4   9  18  37  63  86 113 153 198 245 296 349
#
# _framework density 19.821636999999999
#
# number of rings (size 3 to 8) (size 9 to 14) (size 15 to 20)
#    0.000    1.750    2.500    1.125    3.500    2.500 
#    0.000    1.250    0.000    0.000    0.000    0.000 
#    0.000    0.000    0.000    0.000    0.000    0.000 
#
# Total GULP energy -198389.457033 kJ/mol
# GULP energy per Si atom -12399.341065 kJ/mol
# Density = 1.977652 g / cm^3
# Si number density = 19.821637 Si / 1000 Ang^3
#
#
#
# Elastic Constant Matrix: (Units=GPa)
#
#
# Indices 1 2 3 4 5 6 
#
# 1 81.2424 34.5791 40.2775 0.0000 -13.7236 0.0000
# 2 34.5791 55.1849 41.7884 0.0000 -2.1880 0.0000
# 3 40.2775 41.7884 127.9722 0.0000 -4.8320 0.0000
# 4 0.0000 0.0000 0.0000 33.8442 0.0000 0.2112
# 5 -13.7236 -2.1880 -4.8320 0.0000 32.0076 0.0000
# 6 0.0000 0.0000 0.0000 0.2112 0.0000 24.8247
#
#
#
# Elastic Compliance Matrix: (Units=1/GPa)
#
#
# Indices 1 2 3 4 5 6 
#
# 1 0.018843 -0.009616 -0.002525 0.000000 0.007040 0.000000
# 2 -0.009616 0.028988 -0.006557 0.000000 -0.003131 0.000000
# 3 -0.002525 -0.006557 0.010754 0.000000 0.000093 0.000000
# 4 0.000000 0.000000 0.000000 0.029549 0.000000 -0.000251
# 5 0.007040 -0.003131 0.000093 0.000000 0.034061 0.000000
# 6 0.000000 0.000000 0.000000 -0.000251 0.000000 0.040285
#
#
# Mechanical properties :
#
#
# Convention : Reuss Voigt Hill
#
# Bulk Modulus (GPa) = 47.19686 55.29882 51.24784
# Shear Modulus (GPa) = 24.16193 27.98560 26.07377
#
# Velocity S-wave (km/s) = 3.49516 3.76156 3.63081
# Velocity P-wave (km/s) = 6.33645 6.84285 6.59451
#
# Compressibility (1/GPa) = 0.02118785
#
# Stress axis : x y z
#
# Youngs Moduli (GPa) = 53.07134 34.49735 92.99234
#
# Poissons Ratio (x) = 0.33172 0.23477
# Poissons Ratio (y) = 0.51033 0.60980
# Poissons Ratio (z) = 0.13398 0.22622
#
# Static dielectric constant tensor:
#      x y z
#    x 3.790690 0.000000 0.027390 
#    y 0.000000 3.436350 0.000000 
#    z 0.027390 0.000000 3.665700 
# 
# 
# High freq. dielectric constant tensor:
#      x y z
#    x 1.785180 0.000000 0.002000 
#    y 0.000000 1.752940 0.000000 
#    z 0.002000 0.000000 1.784380 
# 
# From -- ./inp_files/23833.got.cif
#   From: 2010.03.12/outbox.cif.g09.slc.cpg/sg8_12_cif.got.tgz:23833.got - 2010.03.31 10:45:26.
