data_PCOD8053675
_publ_section_title
;
Structure prediction by ZEFSAII (Michael W. Deem and Ramdas Pophale) SiO2 
 PCOD8053675
Probable space group: C M
;
_chemical_formula_sum "Si O2"
_cell_formula_units_Z 32
_cell_length_a 9.649801
_cell_length_b 17.672661
_cell_length_c 14.847015
_cell_angle_alpha 90.000000
_cell_angle_beta 36.719302
_cell_angle_gamma 90.000000
_cell_volume 1513.855878
_symmetry_space_group_name_H-M "C M"
_symmetry_group_IT_number 8
_symmetry_cell_setting 'monoclinic'
loop_
_space_group_symop_operation_xyz
x,y,z
x,-y,z
1/2+x,1/2+y,z
1/2+x,1/2-y,z
loop_
_atom_site_type_symbol
_atom_site_label
_atom_site_fract_x
_atom_site_fract_y
_atom_site_fract_z
Si Si1 0.034460 0.667827 0.756160
Si Si2 0.012634 0.328948 0.294559
Si Si3 0.725009 0.086297 0.831766
Si Si4 0.978706 0.157179 0.285957
Si Si5 0.037018 0.806885 0.064746
Si Si6 0.705179 0.665391 0.625127
Si Si7 0.934716 0.364578 0.144311
Si Si8 0.532079 0.086588 0.581457
O O1 0.105286 0.638847 0.818222
O O2 0.162369 0.745825 0.663670
O O3 0.105670 0.606509 0.644962
O O4 0.756773 0.675288 0.888253
O O5 0.908890 0.245078 0.333349
O O6 0.291645 0.330785 0.151254
O O7 0.951321 0.384594 0.242338
O O8 0.891931 0.354911 0.449627
O O9 0.974031 0.120970 0.721970
O O10 0.748835 0.000000 0.784789
O O11 0.577226 0.082760 0.001611
O O12 0.086116 0.147379 0.130976
O O13 0.163178 0.131090 0.263806
O O14 0.754780 0.104720 0.404982
O O15 0.042951 0.717915 0.077319
O O16 0.811642 0.634369 0.662519
O O17 0.463673 0.000000 0.608930
#
# Coordination Sequence:
#
# PCOD8053675 Si02
#       8
#     4   4   4   4   4   4   4   4
#     4  12  25  43  73 101 128 181 233 276 326 401
#     4  10  22  39  69 101 126 166 228 285 322 381
#     4  12  27  45  64 101 146 179 216 279 348 403
#     4  10  20  39  64  94 130 168 222 279 322 385
#     4  10  20  40  66  99 125 164 231 282 312 381
#     4  12  25  44  71 101 132 179 229 276 330 404
#     4  10  22  38  67  97 131 169 219 282 331 387
#     4  12  27  44  64  98 140 180 218 277 345 400
#
# _framework density 21.138075000000001
#
# number of rings (size 3 to 8) (size 9 to 14) (size 15 to 20)
#    0.000    1.000    5.000    1.500    3.500    0.500 
#    0.000    1.250    0.000    0.000    0.000    0.000 
#    0.000    0.000    0.000    0.000    0.000    0.000 
#
# Total GULP energy -198365.508711 kJ/mol
# GULP energy per Si atom -12397.844294 kJ/mol
# Density = 2.108996 g / cm^3
# Si number density = 21.138075 Si / 1000 Ang^3
#
#
#
# Elastic Constant Matrix: (Units=GPa)
#
#
# Indices 1 2 3 4 5 6 
#
# 1 121.7571 40.2643 40.6453 -0.0033 3.3365 -0.0074
# 2 40.2643 80.0372 34.5441 0.0016 -4.1582 -0.0028
# 3 40.6453 34.5441 92.9435 -0.0120 -4.6738 -0.0072
# 4 -0.0033 0.0016 -0.0120 17.9785 -0.0001 1.0333
# 5 3.3365 -4.1582 -4.6738 -0.0001 36.1710 0.0047
# 6 -0.0074 -0.0028 -0.0072 1.0333 0.0047 23.1577
#
#
#
# Elastic Compliance Matrix: (Units=1/GPa)
#
#
# Indices 1 2 3 4 5 6 
#
# 1 0.010700 -0.004073 -0.003260 0.000000 -0.001876 0.000002
# 2 -0.004073 0.016468 -0.004253 -0.000005 0.001719 -0.000001
# 3 -0.003260 -0.004253 0.013846 0.000009 0.001601 0.000002
# 4 0.000000 -0.000005 0.000009 0.055765 0.000001 -0.002488
# 5 -0.001876 0.001719 0.001601 0.000001 0.028224 -0.000006
# 6 0.000002 -0.000001 0.000002 -0.002488 -0.000006 0.043293
#
#
# Mechanical properties :
#
#
# Convention : Reuss Voigt Hill
#
# Bulk Modulus (GPa) = 56.04708 58.40504 57.22606
# Shear Modulus (GPa) = 25.32737 27.41371 26.37054
#
# Velocity S-wave (km/s) = 3.46524 3.60514 3.53588
# Velocity P-wave (km/s) = 6.52555 6.70967 6.61825
#
# Compressibility (1/GPa) = 0.01784214
#
# Stress axis : x y z
#
# Youngs Moduli (GPa) = 93.46129 60.72281 72.22386
#
# Poissons Ratio (x) = 0.24734 0.23541
# Poissons Ratio (y) = 0.38070 0.30716
# Poissons Ratio (z) = 0.30464 0.25825
#
# Static dielectric constant tensor:
#      x y z
#    x 4.002500 0.000000 0.107290 
#    y 0.000000 3.505120 0.000010 
#    z 0.107290 0.000010 3.871840 
# 
# 
# High freq. dielectric constant tensor:
#      x y z
#    x 1.843630 0.000000 -0.000160 
#    y 0.000000 1.793320 0.000000 
#    z -0.000160 0.000000 1.837310 
# 
# From -- ./inp_files/25591.got.cif
#   From: 2010.03.12/outbox.cif.g09.slc.cpg/sg8_13_cif.got.tgz:25591.got - 2010.03.31 10:45:26.
