data_PCOD8053291
_publ_section_title
;
Structure prediction by ZEFSAII (Michael W. Deem and Ramdas Pophale) SiO2 
 PCOD8053291
Probable space group: C M
;
_chemical_formula_sum "Si O2"
_cell_formula_units_Z 32
_cell_length_a 24.061033
_cell_length_b 8.853225
_cell_length_c 19.581824
_cell_angle_alpha 90.000000
_cell_angle_beta 156.871121
_cell_angle_gamma 90.000000
_cell_volume 1638.480031
_symmetry_space_group_name_H-M "C M"
_symmetry_group_IT_number 8
_symmetry_cell_setting 'monoclinic'
loop_
_space_group_symop_operation_xyz
x,y,z
x,-y,z
1/2+x,1/2+y,z
1/2+x,1/2-y,z
loop_
_atom_site_type_symbol
_atom_site_label
_atom_site_fract_x
_atom_site_fract_y
_atom_site_fract_z
Si Si1 0.936960 0.319378 0.200900
Si Si2 0.813729 0.178660 0.198780
Si Si3 0.753767 0.826579 0.535441
Si Si4 0.254831 0.672129 0.383949
Si Si5 0.995784 0.825686 0.038952
Si Si6 0.265554 0.676041 0.883818
Si Si7 0.023828 0.818646 0.918762
Si Si8 0.472078 0.322547 0.517104
O O1 0.932175 0.500000 0.196896
O O2 0.882932 0.254685 0.211290
O O3 0.097274 0.255744 0.370272
O O4 0.834865 0.265296 0.024844
O O5 0.912822 0.218210 0.375479
O O6 0.801608 0.000000 0.174497
O O7 0.657621 0.245689 0.032641
O O8 0.813404 0.807085 0.526215
O O9 0.877794 0.755183 0.721363
O O10 0.737339 0.000000 0.537100
O O11 0.221280 0.500000 0.328399
O O12 0.361306 0.736893 0.448176
O O13 0.108429 0.759365 0.218163
O O14 0.844825 0.791980 0.901930
O O15 0.014072 0.754754 0.984680
O O16 0.025666 0.000000 0.064945
O O17 0.267297 0.500000 0.905080
O O18 0.109730 0.729889 0.691147
O O19 0.034777 0.000000 0.925289
O O20 0.502800 0.500000 0.559402
#
# Coordination Sequence:
#
# PCOD8053291 Si02
#       8
#     4   4   4   4   4   4   4   4
#     4  11  23  41  65  88 119 163 204 246 303 366
#     4  11  24  42  60  88 126 161 201 252 302 354
#     4   9  20  37  62  90 115 152 202 249 292 353
#     4  10  19  38  63  86 115 152 200 252 297 355
#     4  10  21  37  60  88 120 153 194 252 305 353
#     4  11  24  40  61  91 125 158 201 254 302 355
#     4  10  21  39  62  89 118 157 204 247 298 359
#     4  10  23  40  61  88 122 162 204 248 301 359
#
# _framework density 19.530296
#
# number of rings (size 3 to 8) (size 9 to 14) (size 15 to 20)
#    0.000    1.750    2.500    1.125    3.500    2.000 
#    0.000    1.875    0.000    0.000    0.000    0.000 
#    0.000    0.000    0.000    0.000    0.000    0.000 
#
# Total GULP energy -198369.895713 kJ/mol
# GULP energy per Si atom -12398.118482 kJ/mol
# Density = 1.948584 g / cm^3
# Si number density = 19.530296 Si / 1000 Ang^3
#
#
#
# Elastic Constant Matrix: (Units=GPa)
#
#
# Indices 1 2 3 4 5 6 
#
# 1 158.9602 23.3115 48.3960 0.0000 11.5001 0.0000
# 2 23.3115 76.9092 51.2299 0.0000 -3.8533 0.0000
# 3 48.3960 51.2299 150.2154 0.0000 1.5138 0.0000
# 4 0.0000 0.0000 0.0000 30.6903 0.0000 -1.2425
# 5 11.5001 -3.8533 1.5138 0.0000 26.6034 0.0000
# 6 0.0000 0.0000 0.0000 -1.2425 0.0000 18.6347
#
#
#
# Elastic Compliance Matrix: (Units=1/GPa)
#
#
# Indices 1 2 3 4 5 6 
#
# 1 0.007270 -0.001067 -0.001946 0.000000 -0.003187 0.000000
# 2 -0.001067 0.017187 -0.005551 0.000000 0.003266 0.000000
# 3 -0.001946 -0.005551 0.009182 0.000000 -0.000485 0.000000
# 4 0.000000 0.000000 0.000000 0.032672 0.000000 0.002179
# 5 -0.003187 0.003266 -0.000485 0.000000 0.039467 0.000000
# 6 0.000000 0.000000 0.000000 0.002179 0.000000 0.053809
#
#
# Mechanical properties :
#
#
# Convention : Reuss Voigt Hill
#
# Bulk Modulus (GPa) = 60.56389 70.21774 65.39082
# Shear Modulus (GPa) = 27.43955 32.72883 30.08419
#
# Velocity S-wave (km/s) = 3.75236 4.09809 3.92903
# Velocity P-wave (km/s) = 7.06054 7.64354 7.35782
#
# Compressibility (1/GPa) = 0.01651149
#
# Stress axis : x y z
#
# Youngs Moduli (GPa) = 137.54263 58.18470 108.90784
#
# Poissons Ratio (x) = 0.06207 0.21198
# Poissons Ratio (y) = 0.14674 0.60450
# Poissons Ratio (z) = 0.26772 0.32296
#
# Static dielectric constant tensor:
#      x y z
#    x 3.820960 0.000000 -0.000080 
#    y 0.000000 3.421830 0.000000 
#    z -0.000080 0.000000 3.651890 
# 
# 
# High freq. dielectric constant tensor:
#      x y z
#    x 1.778430 0.000000 -0.000140 
#    y 0.000000 1.744000 0.000000 
#    z -0.000140 0.000000 1.769300 
# 
# From -- ./inp_files/16871.got.cif
#   From: 2010.03.12/outbox.cif.g09.slc.cpg/sg8_9_cif.got.tgz:16871.got - 2010.03.31 10:45:26.
