data_PCOD8053199
_publ_section_title
;
Structure prediction by ZEFSAII (Michael W. Deem and Ramdas Pophale) SiO2 
 PCOD8053199
Probable space group: C M
;
_chemical_formula_sum "Si O2"
_cell_formula_units_Z 32
_cell_length_a 20.358879
_cell_length_b 8.457598
_cell_length_c 25.087240
_cell_angle_alpha 90.000000
_cell_angle_beta 22.561105
_cell_angle_gamma 90.000000
_cell_volume 1657.333648
_symmetry_space_group_name_H-M "C M"
_symmetry_group_IT_number 8
_symmetry_cell_setting 'monoclinic'
loop_
_space_group_symop_operation_xyz
x,y,z
x,-y,z
1/2+x,1/2+y,z
1/2+x,1/2-y,z
loop_
_atom_site_type_symbol
_atom_site_label
_atom_site_fract_x
_atom_site_fract_y
_atom_site_fract_z
Si Si1 0.419140 0.314537 0.065990
Si Si2 0.085068 0.682612 0.248575
Si Si3 0.007550 0.811921 0.801846
Si Si4 0.840719 0.183763 0.511563
Si Si5 0.667296 0.313911 0.791258
Si Si6 0.515137 0.184550 0.483721
Si Si7 0.378600 0.818618 0.211513
Si Si8 0.148669 0.182707 0.086319
O O1 0.427872 0.500000 0.073312
O O2 0.414561 0.214757 0.122880
O O3 0.254995 0.273442 0.153646
O O4 0.585441 0.254902 0.907980
O O5 0.038745 0.500000 0.289725
O O6 0.926276 0.784533 0.390008
O O7 0.114020 0.718021 0.165211
O O8 0.145089 0.745114 0.656350
O O9 0.063682 0.747110 0.818088
O O10 0.002682 0.000000 0.801871
O O11 0.821861 0.741884 0.927890
O O12 0.949622 0.281019 0.473347
O O13 0.846350 0.000000 0.521656
O O14 0.645205 0.500000 0.804590
O O15 0.867407 0.267173 0.636951
O O16 0.681298 0.285168 0.373497
O O17 0.561168 0.000000 0.452271
O O18 0.495443 0.707234 0.159877
O O19 0.420455 0.000000 0.192747
O O20 0.162914 0.000000 0.090632
#
# Coordination Sequence:
#
# PCOD8053199 Si02
#       8
#     4   4   4   4   4   4   4   4
#     4  10  19  36  61  88 117 152 195 242 296 353
#     4  11  21  37  62  89 120 157 199 248 299 351
#     4  10  19  37  60  86 119 157 197 240 299 358
#     4  11  21  34  56  90 123 154 197 248 297 347
#     4   8  16  32  58  87 114 146 187 236 289 347
#     4  10  19  35  58  85 117 155 196 243 301 353
#     4  12  25  40  58  84 120 160 201 244 296 359
#     4  12  25  41  61  87 120 157 200 249 303 362
#
# _framework density 19.308121
#
# number of rings (size 3 to 8) (size 9 to 14) (size 15 to 20)
#    0.000    1.500    2.500    5.250    0.000    0.500 
#    0.000    2.500    0.000    1.500    0.000    0.000 
#    0.000    0.000    0.000    0.000    0.000    0.000 
#
# Total GULP energy -198444.183572 kJ/mol
# GULP energy per Si atom -12402.761473 kJ/mol
# Density = 1.926417 g / cm^3
# Si number density = 19.308121 Si / 1000 Ang^3
#
#
#
# Elastic Constant Matrix: (Units=GPa)
#
#
# Indices 1 2 3 4 5 6 
#
# 1 68.4141 14.7211 38.6056 0.0058 0.9126 -0.0003
# 2 14.7211 68.8841 28.0767 0.0051 3.1913 -0.0019
# 3 38.6056 28.0767 146.0008 0.0381 12.5734 0.0055
# 4 0.0058 0.0051 0.0381 29.6529 -0.0043 -1.7010
# 5 0.9126 3.1913 12.5734 -0.0043 21.0852 -0.0007
# 6 -0.0003 -0.0019 0.0055 -1.7010 -0.0007 24.2131
#
#
#
# Elastic Compliance Matrix: (Units=1/GPa)
#
#
# Indices 1 2 3 4 5 6 
#
# 1 0.017527 -0.002041 -0.004431 0.000003 0.002192 0.000001
# 2 -0.002041 0.015997 -0.002462 0.000001 -0.000865 0.000002
# 3 -0.004431 -0.002462 0.008903 -0.000011 -0.004745 -0.000003
# 4 0.000003 0.000001 -0.000011 0.033860 0.000013 0.002379
# 5 0.002192 -0.000865 -0.004745 0.000013 0.050292 0.000003
# 6 0.000001 0.000002 -0.000003 0.002379 0.000003 0.041467
#
#
# Mechanical properties :
#
#
# Convention : Reuss Voigt Hill
#
# Bulk Modulus (GPa) = 40.71878 49.56730 45.14304
# Shear Modulus (GPa) = 25.75988 28.44997 27.10493
#
# Velocity S-wave (km/s) = 3.65656 3.84275 3.75081
# Velocity P-wave (km/s) = 6.24195 6.73917 6.49532
#
# Compressibility (1/GPa) = 0.02455869
#
# Stress axis : x y z
#
# Youngs Moduli (GPa) = 57.05446 62.51191 112.32254
#
# Poissons Ratio (x) = 0.12761 0.49768
# Poissons Ratio (y) = 0.11646 0.27655
# Poissons Ratio (z) = 0.25280 0.15391
#
# Static dielectric constant tensor:
#      x y z
#    x 3.407970 0.000010 0.169820 
#    y 0.000010 3.373400 0.000010 
#    z 0.169820 0.000010 3.915420 
# 
# 
# High freq. dielectric constant tensor:
#      x y z
#    x 1.716380 0.000000 0.010390 
#    y 0.000000 1.749560 0.000000 
#    z 0.010390 0.000000 1.770640 
# 
# From -- ./inp_files/33042.got.cif
#   From: 2010.03.12/outbox.cif.g09.slc.cpg/sg8_17_cif.got.tgz:33042.got - 2010.03.31 10:45:26.
