data_PCOD8053214
_publ_section_title
;
Structure prediction by ZEFSAII (Michael W. Deem and Ramdas Pophale) SiO2 
 PCOD8053214
Probable space group: C M
;
_chemical_formula_sum "Si O2"
_cell_formula_units_Z 28
_cell_length_a 23.703773
_cell_length_b 9.673561
_cell_length_c 16.864066
_cell_angle_alpha 90.000000
_cell_angle_beta 22.101512
_cell_angle_gamma 90.000000
_cell_volume 1454.926891
_symmetry_space_group_name_H-M "C M"
_symmetry_group_IT_number 8
_symmetry_cell_setting 'monoclinic'
loop_
_space_group_symop_operation_xyz
x,y,z
x,-y,z
1/2+x,1/2+y,z
1/2+x,1/2-y,z
loop_
_atom_site_type_symbol
_atom_site_label
_atom_site_fract_x
_atom_site_fract_y
_atom_site_fract_z
Si Si1 0.371490 0.662934 0.728060
Si Si2 0.543223 0.154034 0.097622
Si Si3 0.032891 0.844875 0.963312
Si Si4 0.524134 0.154331 0.839170
Si Si5 0.816327 0.257535 0.517881
Si Si6 0.538932 0.657774 0.355888
Si Si7 0.863640 0.663019 0.888578
O O1 0.395908 0.500000 0.711835
O O2 0.198049 0.696507 0.937100
O O3 0.468032 0.721062 0.528234
O O4 0.424122 0.750864 0.735150
O O5 0.501507 0.264650 0.085301
O O6 0.557718 0.000000 0.041183
O O7 0.413211 0.149309 0.332542
O O8 0.951048 0.761153 0.998108
O O9 0.211739 0.852054 0.711238
O O10 0.968176 0.000000 0.054337
O O11 0.705719 0.158416 0.610711
O O12 0.477475 0.196469 0.811547
O O13 0.465582 0.000000 0.934327
O O14 0.925605 0.167805 0.430108
O O15 0.569810 0.500000 0.334652
O O16 0.699851 0.723888 0.125577
O O17 0.858796 0.500000 0.873955
#
# Coordination Sequence:
#
# PCOD8053214 Si02
#       7
#     4   4   4   4   4   4   4
#     4  10  20  36  56  84 115 147 186 229 280 335
#     4  11  21  36  59  87 117 148 186 234 288 337
#     4  10  22  37  57  84 114 145 191 238 277 331
#     4   9  20  39  60  79 115 156 187 230 285 337
#     4  10  20  36  60  83 113 144 194 230 283 330
#     4  10  19  35  60  85 109 145 190 234 277 333
#     4  10  21  39  58  82 113 149 190 231 278 333
#
# _framework density 19.244954
#
# number of rings (size 3 to 8) (size 9 to 14) (size 15 to 20)
#    0.857    1.143    2.857    1.286    0.000    2.286 
#    2.571    0.714    0.000    0.000    0.000    0.000 
#    0.000    0.000    0.000    0.000    0.000    0.000 
#
# Total GULP energy -173508.920657 kJ/mol
# GULP energy per Si atom -12393.494333 kJ/mol
# Density = 1.920115 g / cm^3
# Si number density = 19.244954 Si / 1000 Ang^3
#
#
#
# Elastic Constant Matrix: (Units=GPa)
#
#
# Indices 1 2 3 4 5 6 
#
# 1 147.8434 51.7689 37.2662 0.0000 5.7777 0.0000
# 2 51.7689 89.6159 7.9351 0.0000 13.9385 0.0000
# 3 37.2662 7.9351 76.3231 0.0000 13.4425 0.0000
# 4 0.0000 0.0000 0.0000 21.2511 0.0000 6.2468
# 5 5.7777 13.9385 13.4425 0.0000 30.8446 0.0000
# 6 0.0000 0.0000 0.0000 6.2468 0.0000 33.8227
#
#
#
# Elastic Compliance Matrix: (Units=1/GPa)
#
#
# Indices 1 2 3 4 5 6 
#
# 1 0.009835 -0.005698 -0.004699 0.000000 0.002781 0.000000
# 2 -0.005698 0.015310 0.002405 0.000000 -0.006900 0.000000
# 3 -0.004699 0.002405 0.016445 0.000000 -0.007374 0.000000
# 4 0.000000 0.000000 0.000000 0.049758 0.000000 -0.009190
# 5 0.002781 -0.006900 -0.007374 0.000000 0.038231 0.000000
# 6 0.000000 0.000000 0.000000 -0.009190 0.000000 0.031263
#
#
# Mechanical properties :
#
#
# Convention : Reuss Voigt Hill
#
# Bulk Modulus (GPa) = 39.05143 56.41362 47.73252
# Shear Modulus (GPa) = 26.97419 31.63783 29.30601
#
# Velocity S-wave (km/s) = 3.74789 4.05897 3.90653
# Velocity P-wave (km/s) = 6.25018 7.16548 6.72342
#
# Compressibility (1/GPa) = 0.02560726
#
# Stress axis : x y z
#
# Youngs Moduli (GPa) = 101.67813 65.31522 60.80715
#
# Poissons Ratio (x) = 0.37215 0.28576
# Poissons Ratio (y) = 0.57934 -0.14627
# Poissons Ratio (z) = 0.47783 -0.15712
#
# Static dielectric constant tensor:
#      x y z
#    x 3.408650 0.000000 0.079140 
#    y 0.000000 3.230610 0.000000 
#    z 0.079140 0.000000 3.486220 
# 
# 
# High freq. dielectric constant tensor:
#      x y z
#    x 1.747080 0.000000 0.010390 
#    y 0.000000 1.731230 0.000000 
#    z 0.010390 0.000000 1.736610 
# 
# From -- ./inp_files/27822.got.cif
#   From: 2010.03.12/outbox.cif.g09.slc.cpg/sg8_14_cif.got.tgz:27822.got - 2010.03.31 10:45:26.
