data_PCOD8053780
_publ_section_title
;
Structure prediction by ZEFSAII (Michael W. Deem and Ramdas Pophale) SiO2 
 PCOD8053780
Probable space group: C M
;
_chemical_formula_sum "Si O2"
_cell_formula_units_Z 28
_cell_length_a 13.737312
_cell_length_b 9.766365
_cell_length_c 11.810905
_cell_angle_alpha 90.000000
_cell_angle_beta 54.534141
_cell_angle_gamma 90.000000
_cell_volume 1290.590296
_symmetry_space_group_name_H-M "C M"
_symmetry_group_IT_number 8
_symmetry_cell_setting 'monoclinic'
loop_
_space_group_symop_operation_xyz
x,y,z
x,-y,z
1/2+x,1/2+y,z
1/2+x,1/2-y,z
loop_
_atom_site_type_symbol
_atom_site_label
_atom_site_fract_x
_atom_site_fract_y
_atom_site_fract_z
Si Si1 0.600240 0.846061 0.881330
Si Si2 0.336972 0.843994 0.086955
Si Si3 0.329948 0.645020 0.285389
Si Si4 0.063837 0.655642 0.534335
Si Si5 0.924163 0.289447 0.414785
Si Si6 0.641103 0.850030 0.113670
Si Si7 0.665629 0.347321 0.648927
O O1 0.676015 0.733569 0.761164
O O2 0.649531 0.000000 0.824378
O O3 0.461470 0.839599 0.934553
O O4 0.606963 0.809738 0.009246
O O5 0.367548 0.774882 0.186658
O O6 0.233203 0.763786 0.093210
O O7 0.294564 0.000000 0.135923
O O8 0.371283 0.500000 0.203117
O O9 0.187854 0.644046 0.386059
O O10 0.390933 0.650385 0.369380
O O11 0.021614 0.500000 0.596306
O O12 0.076079 0.755489 0.633344
O O13 0.970900 0.728504 0.511190
O O14 0.797042 0.368318 0.506372
O O15 0.024354 0.364173 0.271882
O O16 0.702693 0.000000 0.074571
O O17 0.611125 0.500000 0.702066
#
# Coordination Sequence:
#
# PCOD8053780 Si02
#       7
#     4   4   4   4   4   4   4
#     4  10  24  46  66  86 127 177 212 257 323 386
#     4  11  23  39  62  93 127 166 212 262 316 376
#     4  10  21  37  60  93 128 165 205 254 312 374
#     4  10  21  39  63  89 127 170 205 250 318 384
#     4  11  22  40  66  98 130 165 208 259 325 380
#     4  11  22  41  68  97 128 166 211 263 325 385
#     4  11  25  42  65  94 127 167 217 269 309 373
#
# _framework density 21.695499000000002
#
# number of rings (size 3 to 8) (size 9 to 14) (size 15 to 20)
#    0.000    1.429    2.857    2.143    0.000    7.429 
#    0.000    2.857    0.000    0.000    0.000    0.000 
#    0.000    0.000    0.000    0.000    0.000    0.000 
#
# Total GULP energy -173446.651914 kJ/mol
# GULP energy per Si atom -12389.046565 kJ/mol
# Density = 2.164612 g / cm^3
# Si number density = 21.695499 Si / 1000 Ang^3
#
#
#
# Elastic Constant Matrix: (Units=GPa)
#
#
# Indices 1 2 3 4 5 6 
#
# 1 123.0750 63.2484 29.0122 0.0000 19.4429 0.0000
# 2 63.2484 174.6005 55.4089 0.0000 13.1605 0.0000
# 3 29.0122 55.4089 85.9274 0.0000 15.6415 0.0000
# 4 0.0000 0.0000 0.0000 28.5648 0.0000 9.8528
# 5 19.4429 13.1605 15.6415 0.0000 29.5637 0.0000
# 6 0.0000 0.0000 0.0000 9.8528 0.0000 11.4389
#
#
#
# Elastic Compliance Matrix: (Units=1/GPa)
#
#
# Indices 1 2 3 4 5 6 
#
# 1 0.010813 -0.003350 -0.000518 0.000000 -0.005346 0.000000
# 2 -0.003350 0.008257 -0.004344 0.000000 0.000825 0.000000
# 3 -0.000518 -0.004344 0.015713 0.000000 -0.006039 0.000000
# 4 0.000000 0.000000 0.000000 0.049805 0.000000 -0.042899
# 5 -0.005346 0.000825 -0.006039 0.000000 0.040169 0.000000
# 6 0.000000 0.000000 0.000000 -0.042899 0.000000 0.124372
#
#
# Mechanical properties :
#
#
# Convention : Reuss Voigt Hill
#
# Bulk Modulus (GPa) = 54.46391 75.43800 64.95096
# Shear Modulus (GPa) = 18.40459 29.64240 24.02350
#
# Velocity S-wave (km/s) = 2.91574 3.70035 3.33123
# Velocity P-wave (km/s) = 6.04100 7.28722 6.69318
#
# Compressibility (1/GPa) = 0.01836078
#
# Stress axis : x y z
#
# Youngs Moduli (GPa) = 92.47944 121.10882 63.64249
#
# Poissons Ratio (x) = 0.40569 0.03295
# Poissons Ratio (y) = 0.30979 0.27644
# Poissons Ratio (z) = 0.04787 0.52606
#
# Static dielectric constant tensor:
#      x y z
#    x 3.906750 0.000000 0.082240 
#    y 0.000000 3.971950 0.000000 
#    z 0.082240 0.000000 3.669580 
# 
# 
# High freq. dielectric constant tensor:
#      x y z
#    x 1.854020 0.000000 0.009750 
#    y 0.000000 1.852230 0.000000 
#    z 0.009750 0.000000 1.833040 
# 
# From -- ./inp_files/21466.got.cif
#   From: 2010.03.12/outbox.cif.g09.slc.cpg/sg8_11_cif.got.tgz:21466.got - 2010.03.31 10:45:26.
