data_PCOD8053945
_publ_section_title
;
Structure prediction by ZEFSAII (Michael W. Deem and Ramdas Pophale) SiO2 
 PCOD8053945
Probable space group: C M
;
_chemical_formula_sum "Si O2"
_cell_formula_units_Z 28
_cell_length_a 13.801989
_cell_length_b 9.714308
_cell_length_c 12.331024
_cell_angle_alpha 90.000000
_cell_angle_beta 126.262874
_cell_angle_gamma 90.000000
_cell_volume 1333.078308
_symmetry_space_group_name_H-M "C M"
_symmetry_group_IT_number 8
_symmetry_cell_setting 'monoclinic'
loop_
_space_group_symop_operation_xyz
x,y,z
x,-y,z
1/2+x,1/2+y,z
1/2+x,1/2-y,z
loop_
_atom_site_type_symbol
_atom_site_label
_atom_site_fract_x
_atom_site_fract_y
_atom_site_fract_z
Si Si1 0.539970 0.750622 0.783130
Si Si2 0.399940 0.346290 0.305779
Si Si3 0.287842 0.846038 0.907098
Si Si4 0.304537 0.343858 0.719780
Si Si5 0.036874 0.349595 0.545251
Si Si6 0.968668 0.159779 0.122540
Si Si7 0.128719 0.342879 0.073659
O O1 0.644903 0.639857 0.828601
O O2 0.410334 0.675691 0.701956
O O3 0.538723 0.849713 0.677674
O O4 0.575824 0.828410 0.917382
O O5 0.398918 0.500000 0.351785
O O6 0.440205 0.254019 0.432851
O O7 0.495577 0.335080 0.269381
O O8 0.268908 0.306276 0.174093
O O9 0.329450 0.773632 0.823955
O O10 0.342996 0.000000 0.946495
O O11 0.343715 0.744652 0.033438
O O12 0.311813 0.500000 0.772031
O O13 0.170279 0.319068 0.584777
O O14 0.995360 0.500000 0.480218
O O15 0.067349 0.236105 0.115744
O O16 0.955202 0.000000 0.075644
O O17 0.105312 0.500000 0.095266
#
# Coordination Sequence:
#
# PCOD8053945 Si02
#       7
#     4   4   4   4   4   4   4
#     4  11  22  39  66  98 130 164 212 260 325 377
#     4  10  24  46  66  88 128 175 212 263 320 381
#     4  11  22  35  58  94 128 162 208 258 312 375
#     4  10  22  40  62  90 128 168 209 259 321 375
#     4  10  24  43  65  93 127 172 216 262 315 382
#     4  11  23  40  62  91 128 167 210 260 322 379
#     4  11  23  41  67  98 127 164 213 266 325 383
#
# _framework density 21.004017000000001
#
# number of rings (size 3 to 8) (size 9 to 14) (size 15 to 20)
#    0.000    1.429    2.857    1.714    0.000    8.000 
#    0.000    4.286    0.000    0.000    0.000    0.000 
#    0.000    0.000    0.000    0.000    0.000    0.000 
#
# Total GULP energy -173451.583125 kJ/mol
# GULP energy per Si atom -12389.398795 kJ/mol
# Density = 2.095621 g / cm^3
# Si number density = 21.004017 Si / 1000 Ang^3
#
#
#
# Elastic Constant Matrix: (Units=GPa)
#
#
# Indices 1 2 3 4 5 6 
#
# 1 123.6687 50.6643 42.1241 0.0000 10.9919 0.0000
# 2 50.6643 155.8248 53.9658 0.0000 5.1977 0.0000
# 3 42.1241 53.9658 105.2215 0.0000 3.9781 0.0000
# 4 0.0000 0.0000 0.0000 29.8705 0.0000 4.5710
# 5 10.9919 5.1977 3.9781 0.0000 24.2221 0.0000
# 6 0.0000 0.0000 0.0000 4.5710 0.0000 19.8161
#
#
#
# Elastic Compliance Matrix: (Units=1/GPa)
#
#
# Indices 1 2 3 4 5 6 
#
# 1 0.010302 -0.002244 -0.002832 0.000000 -0.003728 0.000000
# 2 -0.002244 0.008318 -0.003359 0.000000 -0.000215 0.000000
# 3 -0.002832 -0.003359 0.012361 0.000000 -0.000024 0.000000
# 4 0.000000 0.000000 0.000000 0.034703 0.000000 -0.008005
# 5 -0.003728 -0.000215 -0.000024 0.000000 0.043027 0.000000
# 6 0.000000 0.000000 0.000000 -0.008005 0.000000 0.052311
#
#
# Mechanical properties :
#
#
# Convention : Reuss Voigt Hill
#
# Bulk Modulus (GPa) = 70.87573 75.35815 73.11694
# Shear Modulus (GPa) = 27.38294 30.64578 29.01436
#
# Velocity S-wave (km/s) = 3.61460 3.82389 3.72071
# Velocity P-wave (km/s) = 7.15804 7.44661 7.30375
#
# Compressibility (1/GPa) = 0.01410920
#
# Stress axis : x y z
#
# Youngs Moduli (GPa) = 97.07251 120.22483 80.89651
#
# Poissons Ratio (x) = 0.26981 0.22911
# Poissons Ratio (y) = 0.21785 0.27177
# Poissons Ratio (z) = 0.27492 0.40389
#
# Static dielectric constant tensor:
#      x y z
#    x 3.863260 0.000000 0.172870 
#    y 0.000000 3.705970 0.000000 
#    z 0.172870 0.000000 3.561390 
# 
# 
# High freq. dielectric constant tensor:
#      x y z
#    x 1.832180 0.000000 0.009100 
#    y 0.000000 1.825270 0.000000 
#    z 0.009100 0.000000 1.800520 
# 
# From -- ./inp_files/26589.got.cif
#   From: 2010.03.12/outbox.cif.g09.slc.cpg/sg8_14_cif.got.tgz:26589.got - 2010.03.31 10:45:26.
