data_PCOD8053061
_publ_section_title
;
Structure prediction by ZEFSAII (Michael W. Deem and Ramdas Pophale) SiO2 
 PCOD8053061
Probable space group: C M
;
_chemical_formula_sum "Si O2"
_cell_formula_units_Z 32
_cell_length_a 14.371645
_cell_length_b 9.201534
_cell_length_c 22.672042
_cell_angle_alpha 90.000000
_cell_angle_beta 144.196488
_cell_angle_gamma 90.000000
_cell_volume 1753.956043
_symmetry_space_group_name_H-M "C M"
_symmetry_group_IT_number 8
_symmetry_cell_setting 'monoclinic'
loop_
_space_group_symop_operation_xyz
x,y,z
x,-y,z
1/2+x,1/2+y,z
1/2+x,1/2-y,z
loop_
_atom_site_type_symbol
_atom_site_label
_atom_site_fract_x
_atom_site_fract_y
_atom_site_fract_z
Si Si1 0.722600 0.332259 0.000000
Si Si2 0.363643 0.830927 0.363543
Si Si3 0.673446 0.332916 0.844112
Si Si4 0.542249 0.831288 0.336727
Si Si5 0.001106 0.168911 0.197290
Si Si6 0.920016 0.162591 0.914030
Si Si7 0.596855 0.163099 0.698628
Si Si8 0.405840 0.669777 0.503799
O O1 0.773719 0.500000 0.032518
O O2 0.635346 0.306444 0.892722
O O3 0.592144 0.286535 0.981061
O O4 0.877342 0.233545 0.086881
O O5 0.453299 0.779507 0.350360
O O6 0.431126 0.738077 0.452384
O O7 0.175764 0.800802 0.260689
O O8 0.397766 0.000000 0.393936
O O9 0.658887 0.500000 0.818077
O O10 0.856739 0.277339 0.929875
O O11 0.555482 0.239898 0.740809
O O12 0.472851 0.743263 0.246007
O O13 0.729998 0.800299 0.439043
O O14 0.507896 0.000000 0.306975
O O15 0.968917 0.000000 0.189114
O O16 0.790007 0.159683 0.793377
O O17 0.930845 0.000000 0.946946
O O18 0.530672 0.255986 0.611105
O O19 0.525007 0.000000 0.660501
O O20 0.442838 0.500000 0.518646
#
# Coordination Sequence:
#
# PCOD8053061 Si02
#       8
#     4   4   4   4   4   4   4   4
#     4  10  20  36  55  75 103 142 178 209 256 314
#     4   9  19  37  56  76 104 139 173 208 257 317
#     4   9  18  33  53  76 102 132 173 221 256 292
#     4   9  19  37  57  77 103 139 175 208 255 317
#     4  10  21  34  53  80 107 134 171 219 262 301
#     4   8  18  35  52  71 100 140 175 206 252 308
#     4   9  18  35  55  74 105 143 173 208 258 308
#     4  10  19  33  55  81 106 133 172 217 258 301
#
# _framework density 18.244471999999998
#
# number of rings (size 3 to 8) (size 9 to 14) (size 15 to 20)
#    0.750    2.000    0.000    1.125    0.000    4.000 
#    2.250    3.750    0.000    0.000    0.000    0.000 
#    0.000    0.000    0.000    0.000    0.000    0.000 
#
# Total GULP energy -198296.896430 kJ/mol
# GULP energy per Si atom -12393.556027 kJ/mol
# Density = 1.820295 g / cm^3
# Si number density = 18.244472 Si / 1000 Ang^3
#
#
#
# Elastic Constant Matrix: (Units=GPa)
#
#
# Indices 1 2 3 4 5 6 
#
# 1 83.6412 30.2437 12.2362 0.0000 -11.8990 0.0000
# 2 30.2437 82.8704 32.9729 0.0000 -10.6263 0.0000
# 3 12.2362 32.9729 61.6835 0.0000 -7.8078 0.0000
# 4 0.0000 0.0000 0.0000 36.8948 0.0000 -3.6691
# 5 -11.8990 -10.6263 -7.8078 0.0000 20.2657 0.0000
# 6 0.0000 0.0000 0.0000 -3.6691 0.0000 24.5171
#
#
#
# Elastic Compliance Matrix: (Units=1/GPa)
#
#
# Indices 1 2 3 4 5 6 
#
# 1 0.014458 -0.004638 0.000397 0.000000 0.006210 0.000000
# 2 -0.004638 0.017340 -0.007929 0.000000 0.003314 0.000000
# 3 0.000397 -0.007929 0.020894 0.000000 0.004125 0.000000
# 4 0.000000 0.000000 0.000000 0.027514 0.000000 0.004117
# 5 0.006210 0.003314 0.004125 0.000000 0.056318 0.000000
# 6 0.000000 0.000000 0.000000 0.004117 0.000000 0.041404
#
#
# Mechanical properties :
#
#
# Convention : Reuss Voigt Hill
#
# Bulk Modulus (GPa) = 35.27198 42.12230 38.69714
# Shear Modulus (GPa) = 23.61629 26.51835 25.06732
#
# Velocity S-wave (km/s) = 3.60173 3.81662 3.71073
# Velocity P-wave (km/s) = 6.05570 6.52380 6.29410
#
# Compressibility (1/GPa) = 0.02835111
#
# Stress axis : x y z
#
# Youngs Moduli (GPa) = 69.16412 57.67102 47.86111
#
# Poissons Ratio (x) = 0.26750 -0.01902
# Poissons Ratio (y) = 0.32081 0.37951
# Poissons Ratio (z) = -0.02749 0.45730
#
# Static dielectric constant tensor:
#      x y z
#    x 3.229500 0.000000 -0.004990 
#    y 0.000000 3.416250 0.000000 
#    z -0.004990 0.000000 3.164590 
# 
# 
# High freq. dielectric constant tensor:
#      x y z
#    x 1.691110 0.000000 -0.004670 
#    y 0.000000 1.714080 0.000000 
#    z -0.004670 0.000000 1.696950 
# 
# From -- ./inp_files/30708.got.cif
#   From: 2010.03.12/outbox.cif.g09.slc.cpg/sg8_16_cif.got.tgz:30708.got - 2010.03.31 10:45:26.
