data_PCOD8053808
_publ_section_title
;
Structure prediction by ZEFSAII (Michael W. Deem and Ramdas Pophale) SiO2 
 PCOD8053808
Probable space group: C M
;
_chemical_formula_sum "Si O2"
_cell_formula_units_Z 32
_cell_length_a 10.105983
_cell_length_b 15.846383
_cell_length_c 22.568059
_cell_angle_alpha 90.000000
_cell_angle_beta 152.488978
_cell_angle_gamma 90.000000
_cell_volume 1669.432913
_symmetry_space_group_name_H-M "C M"
_symmetry_group_IT_number 8
_symmetry_cell_setting 'monoclinic'
loop_
_space_group_symop_operation_xyz
x,y,z
x,-y,z
1/2+x,1/2+y,z
1/2+x,1/2-y,z
loop_
_atom_site_type_symbol
_atom_site_label
_atom_site_fract_x
_atom_site_fract_y
_atom_site_fract_z
Si Si1 0.954290 0.748633 0.044190
Si Si2 0.910603 0.840723 0.641040
Si Si3 0.860115 0.093517 0.498062
Si Si4 0.840582 0.339426 0.607585
Si Si5 0.205826 0.097634 0.217708
Si Si6 0.859728 0.766789 0.870016
Si Si7 0.898022 0.098172 0.220611
Si Si8 0.891231 0.594690 0.502569
O O1 0.085618 0.833778 0.124249
O O2 0.139621 0.663720 0.123945
O O3 0.903906 0.772618 0.956843
O O4 0.659014 0.722932 0.956817
O O5 0.930857 0.908287 0.596609
O O6 0.807925 0.754501 0.567429
O O7 0.686919 0.860010 0.604265
O O8 0.216323 0.823864 0.794806
O O9 0.535575 0.122242 0.358856
O O10 0.078633 0.150449 0.548616
O O11 0.906951 0.000000 0.492472
O O12 0.834237 0.403366 0.550306
O O13 0.142950 0.342587 0.763859
O O14 0.038594 0.107591 0.212428
O O15 0.175375 0.000000 0.182658
O O16 0.121443 0.130106 0.359090
O O17 0.800482 0.000000 0.192328
O O18 0.932323 0.500000 0.497425
#
# Coordination Sequence:
#
# PCOD8053808 Si02
#       8
#     4   4   4   4   4   4   4   4
#     4  12  22  42  68  88 120 180 204 250 312 350
#     4  10  21  38  63  82 121 162 200 252 290 364
#     4  11  21  38  62  95 125 153 196 256 320 366
#     4  10  23  38  61  86 131 154 194 258 306 354
#     4  10  23  41  64  95 126 158 209 258 302 377
#     4  10  24  40  60  90 124 160 218 248 282 380
#     4  10  23  41  64  95 126 158 209 258 302 377
#     4  11  21  38  62  95 125 153 196 256 320 366
#
# _framework density 19.168185000000001
#
# number of rings (size 3 to 8) (size 9 to 14) (size 15 to 20)
#    0.750    0.750    2.500    3.000    3.500    1.000 
#    0.000    9.375    0.000    0.000    0.000    0.000 
#    0.000    0.000    0.000    0.000    0.000    0.000 
#
# Total GULP energy -198283.926424 kJ/mol
# GULP energy per Si atom -12392.745401 kJ/mol
# Density = 1.912456 g / cm^3
# Si number density = 19.168185 Si / 1000 Ang^3
#
#
#
# Elastic Constant Matrix: (Units=GPa)
#
#
# Indices 1 2 3 4 5 6 
#
# 1 135.3590 32.5156 71.0547 0.0040 4.0993 0.0001
# 2 32.5156 79.7341 55.7272 -0.0022 3.6949 0.0006
# 3 71.0547 55.7272 140.9818 0.0273 7.8958 0.0024
# 4 0.0040 -0.0022 0.0273 14.1111 -0.0027 -1.9516
# 5 4.0993 3.6949 7.8958 -0.0027 44.3151 -0.0004
# 6 0.0001 0.0006 0.0024 -1.9516 -0.0004 32.1355
#
#
#
# Elastic Compliance Matrix: (Units=1/GPa)
#
#
# Indices 1 2 3 4 5 6 
#
# 1 0.010080 -0.000773 -0.004774 0.000006 -0.000017 0.000001
# 2 -0.000773 0.017391 -0.006472 0.000016 -0.000225 0.000001
# 3 -0.004774 -0.006472 0.012123 -0.000024 -0.001179 -0.000002
# 4 0.000006 0.000016 -0.000024 0.071467 0.000007 0.004340
# 5 -0.000017 -0.000225 -0.001179 0.000007 0.022796 0.000001
# 6 0.000001 0.000001 -0.000002 0.004340 0.000001 0.031382
#
#
# Mechanical properties :
#
#
# Convention : Reuss Voigt Hill
#
# Bulk Modulus (GPa) = 64.28290 74.96332 69.62311
# Shear Modulus (GPa) = 25.71204 31.23082 28.47143
#
# Velocity S-wave (km/s) = 3.66647 4.04084 3.85820
# Velocity P-wave (km/s) = 7.17866 7.80797 7.49991
#
# Compressibility (1/GPa) = 0.01555624
#
# Stress axis : x y z
#
# Youngs Moduli (GPa) = 99.20747 57.50183 82.48679
#
# Poissons Ratio (x) = 0.04448 0.39375
# Poissons Ratio (y) = 0.07674 0.53383
# Poissons Ratio (z) = 0.47357 0.37214
#
# Static dielectric constant tensor:
#      x y z
#    x 3.319040 0.000000 0.015980 
#    y 0.000000 3.415210 -0.000050 
#    z 0.015980 -0.000050 3.544950 
# 
# 
# High freq. dielectric constant tensor:
#      x y z
#    x 1.753380 0.000000 0.004950 
#    y 0.000000 1.740280 0.000000 
#    z 0.004950 0.000000 1.745920 
# 
# From -- ./inp_files/31774.got.cif
#   From: 2010.03.12/outbox.cif.g09.slc.cpg/sg8_16_cif.got.tgz:31774.got - 2010.03.31 10:45:26.
