data_PCOD8053625
_publ_section_title
;
Structure prediction by ZEFSAII (Michael W. Deem and Ramdas Pophale) SiO2 
 PCOD8053625
Probable space group: C M
;
_chemical_formula_sum "Si O2"
_cell_formula_units_Z 26
_cell_length_a 27.422814
_cell_length_b 7.568865
_cell_length_c 17.056834
_cell_angle_alpha 90.000000
_cell_angle_beta 156.668024
_cell_angle_gamma 90.000000
_cell_volume 1402.167849
_symmetry_space_group_name_H-M "C M"
_symmetry_group_IT_number 8
_symmetry_cell_setting 'monoclinic'
loop_
_space_group_symop_operation_xyz
x,y,z
x,-y,z
1/2+x,1/2+y,z
1/2+x,1/2-y,z
loop_
_atom_site_type_symbol
_atom_site_label
_atom_site_fract_x
_atom_site_fract_y
_atom_site_fract_z
Si Si1 0.158340 0.702698 0.197660
Si Si2 0.278179 0.000000 0.273284
Si Si3 0.912622 0.793110 0.033432
Si Si4 0.261546 0.302999 0.956002
Si Si5 0.530758 0.000000 0.580821
Si Si6 0.384547 0.205833 0.821302
Si Si7 0.313014 0.000000 0.152337
Si Si8 0.184827 0.210778 0.407619
O O1 0.161576 0.500000 0.173104
O O2 0.221008 0.716153 0.375621
O O3 0.230888 0.821791 0.243450
O O4 0.019833 0.781461 0.001163
O O5 0.427814 0.000000 0.497793
O O6 0.235118 0.000000 0.118554
O O7 0.051053 0.715414 0.236232
O O8 0.914665 0.000000 0.047571
O O9 0.836298 0.714723 0.993830
O O10 0.845348 0.746568 0.852563
O O11 0.312719 0.500000 0.053682
O O12 0.117529 0.325356 0.717772
O O13 0.276305 0.175884 0.051621
O O14 0.459662 0.000000 0.391390
O O15 0.283682 0.289952 0.614482
O O16 0.388687 0.000000 0.812854
O O17 0.183889 0.000000 0.404398
#
# Coordination Sequence:
#
# PCOD8053625 Si02
#       8
#     4   2   4   4   2   4   2   4
#     4  10  20  38  57  81 115 155 191 242 300 346
#     4  10  22  44  57  82 117 152 203 258 305 345
#     4   9  18  32  56  79 119 156 185 236 292 346
#     4   9  20  42  60  89 124 156 205 257 302 361
#     4   8  22  44  58  88 122 146 210 262 298 355
#     4   9  19  32  52  86 120 150 191 233 282 362
#     4  10  22  42  65  86 117 166 201 258 319 348
#     4   9  17  34  54  83 121 154 186 233 287 356
#
# _framework density 18.542715000000001
#
# number of rings (size 3 to 8) (size 9 to 14) (size 15 to 20)
#    0.923    1.846    0.769    0.000    2.154    2.462 
#    5.538    0.000    0.000    0.000    0.000    0.000 
#    0.000    0.000    0.000    0.000    0.000    0.000 
#
# Total GULP energy -161099.113606 kJ/mol
# GULP energy per Si atom -12392.239508 kJ/mol
# Density = 1.850051 g / cm^3
# Si number density = 18.542715 Si / 1000 Ang^3
#
#
#
# Elastic Constant Matrix: (Units=GPa)
#
#
# Indices 1 2 3 4 5 6 
#
# 1 149.6979 43.7446 63.3454 0.0000 -3.8180 0.0000
# 2 43.7446 70.3831 32.4458 0.0000 -3.6313 0.0000
# 3 63.3454 32.4458 122.7831 0.0000 -17.2318 0.0000
# 4 0.0000 0.0000 0.0000 22.7772 0.0000 -8.8652
# 5 -3.8180 -3.6313 -17.2318 0.0000 29.0223 0.0000
# 6 0.0000 0.0000 0.0000 -8.8652 0.0000 18.0125
#
#
#
# Elastic Compliance Matrix: (Units=1/GPa)
#
#
# Indices 1 2 3 4 5 6 
#
# 1 0.009579 -0.004160 -0.004079 0.000000 -0.001682 0.000000
# 2 -0.004160 0.017994 -0.002585 0.000000 0.000169 0.000000
# 3 -0.004079 -0.002585 0.011794 0.000000 0.006142 0.000000
# 4 0.000000 0.000000 0.000000 0.054306 0.000000 0.026728
# 5 -0.001682 0.000169 0.006142 0.000000 0.037903 0.000000
# 6 0.000000 0.000000 0.000000 0.026728 0.000000 0.068672
#
#
# Mechanical properties :
#
#
# Convention : Reuss Voigt Hill
#
# Bulk Modulus (GPa) = 56.43563 69.10396 62.76979
# Shear Modulus (GPa) = 21.94896 27.51763 24.73330
#
# Velocity S-wave (km/s) = 3.44422 3.85647 3.65616
# Velocity P-wave (km/s) = 6.80577 7.56162 7.19363
#
# Compressibility (1/GPa) = 0.01771930
#
# Stress axis : x y z
#
# Youngs Moduli (GPa) = 104.39825 55.57453 84.79056
#
# Poissons Ratio (x) = 0.23119 0.34582
# Poissons Ratio (y) = 0.43429 0.21918
# Poissons Ratio (z) = 0.42579 0.14366
#
# Static dielectric constant tensor:
#      x y z
#    x 3.395180 0.000000 0.047650 
#    y 0.000000 3.165200 0.000000 
#    z 0.047650 0.000000 3.578370 
# 
# 
# High freq. dielectric constant tensor:
#      x y z
#    x 1.711280 0.000000 -0.004110 
#    y 0.000000 1.711360 0.000000 
#    z -0.004110 0.000000 1.710880 
# 
# From -- ./inp_files/28085.got.cif
#   From: 2010.03.12/outbox.cif.g09.slc.cpg/sg8_15_cif.got.tgz:28085.got - 2010.03.31 10:45:26.
