data_PCOD8053743
_publ_section_title
;
Structure prediction by ZEFSAII (Michael W. Deem and Ramdas Pophale) SiO2 
 PCOD8053743
Probable space group: C M
;
_chemical_formula_sum "Si O2"
_cell_formula_units_Z 32
_cell_length_a 15.083772
_cell_length_b 8.995384
_cell_length_c 22.565207
_cell_angle_alpha 90.000000
_cell_angle_beta 31.401267
_cell_angle_gamma 90.000000
_cell_volume 1595.256319
_symmetry_space_group_name_H-M "C M"
_symmetry_group_IT_number 8
_symmetry_cell_setting 'monoclinic'
loop_
_space_group_symop_operation_xyz
x,y,z
x,-y,z
1/2+x,1/2+y,z
1/2+x,1/2-y,z
loop_
_atom_site_type_symbol
_atom_site_label
_atom_site_fract_x
_atom_site_fract_y
_atom_site_fract_z
Si Si1 0.379620 0.831209 0.622640
Si Si2 0.493166 0.676256 0.350750
Si Si3 0.283978 0.671829 0.986993
Si Si4 0.335313 0.324495 0.825019
Si Si5 0.115591 0.670355 0.598198
Si Si6 0.637273 0.825428 0.376850
Si Si7 0.958248 0.673480 0.249162
Si Si8 0.106708 0.675112 0.847325
O O1 0.526860 0.801385 0.586126
O O2 0.460856 0.795987 0.512510
O O3 0.218254 0.725990 0.726918
O O4 0.313748 0.000000 0.663705
O O5 0.511093 0.500000 0.331666
O O6 0.308694 0.723316 0.480507
O O7 0.631530 0.735547 0.318679
O O8 0.532608 0.759324 0.267179
O O9 0.335868 0.500000 0.959120
O O10 0.096786 0.698405 0.119036
O O11 0.283977 0.732254 0.919511
O O12 0.418578 0.758713 0.950709
O O13 0.343416 0.500000 0.817630
O O14 0.522858 0.264333 0.702250
O O15 0.196165 0.265812 0.856743
O O16 0.106444 0.500000 0.622961
O O17 0.791339 0.764125 0.327638
O O18 0.665024 0.000000 0.349725
O O19 0.914811 0.500000 0.282274
O O20 0.092193 0.500000 0.855367
#
# Coordination Sequence:
#
# PCOD8053743 Si02
#       8
#     4   4   4   4   4   4   4   4
#     4   9  18  36  59  84 121 161 194 242 303 360
#     4  11  23  40  61  90 125 161 203 256 309 366
#     4  10  23  42  62  85 118 160 203 246 299 360
#     4   9  20  38  58  84 118 155 193 240 296 355
#     4   9  18  35  58  86 120 155 193 242 299 356
#     4  11  23  40  62  91 123 162 207 252 308 368
#     4  11  24  43  64  88 121 164 212 259 306 363
#     4  10  21  36  58  90 120 154 199 245 296 356
#
# _framework density 20.059473000000001
#
# number of rings (size 3 to 8) (size 9 to 14) (size 15 to 20)
#    0.000    2.000    1.250    1.500    1.750    5.000 
#    0.000    1.250    0.000    0.000    0.000    0.000 
#    0.000    0.000    0.000    0.000    0.000    0.000 
#
# Total GULP energy -198457.044708 kJ/mol
# GULP energy per Si atom -12403.565294 kJ/mol
# Density = 2.001382 g / cm^3
# Si number density = 20.059473 Si / 1000 Ang^3
#
#
#
# Elastic Constant Matrix: (Units=GPa)
#
#
# Indices 1 2 3 4 5 6 
#
# 1 80.6806 27.0164 24.8797 0.0002 17.6114 0.0001
# 2 27.0164 65.0767 34.1196 -0.0003 5.5466 0.0001
# 3 24.8797 34.1196 71.7723 -0.0012 13.1322 0.0002
# 4 0.0002 -0.0003 -0.0012 32.8306 -0.0002 -2.8450
# 5 17.6114 5.5466 13.1322 -0.0002 32.1067 -0.0001
# 6 0.0001 0.0001 0.0002 -2.8450 -0.0001 32.4746
#
#
#
# Elastic Compliance Matrix: (Units=1/GPa)
#
#
# Indices 1 2 3 4 5 6 
#
# 1 0.016287 -0.005167 -0.001857 0.000000 -0.007282 0.000000
# 2 -0.005167 0.022114 -0.009232 0.000000 0.002790 0.000000
# 3 -0.001857 -0.009232 0.019983 0.000001 -0.005560 0.000000
# 4 0.000000 0.000000 0.000001 0.030692 0.000000 0.002689
# 5 -0.007282 0.002790 -0.005560 0.000000 0.036932 0.000000
# 6 0.000000 0.000000 0.000000 0.002689 0.000000 0.031029
#
#
# Mechanical properties :
#
#
# Convention : Reuss Voigt Hill
#
# Bulk Modulus (GPa) = 38.65307 43.28456 40.96881
# Shear Modulus (GPa) = 25.23033 28.24996 26.74015
#
# Velocity S-wave (km/s) = 3.55036 3.75682 3.65505
# Velocity P-wave (km/s) = 6.00981 6.35950 6.18712
#
# Compressibility (1/GPa) = 0.02587117
#
# Stress axis : x y z
#
# Youngs Moduli (GPa) = 61.39876 45.21981 50.04303
#
# Poissons Ratio (x) = 0.23366 0.09294
# Poissons Ratio (y) = 0.31726 0.46200
# Poissons Ratio (z) = 0.11402 0.41747
#
# Static dielectric constant tensor:
#      x y z
#    x 3.735290 0.000000 0.112930 
#    y 0.000000 3.564080 0.000000 
#    z 0.112930 0.000000 3.578690 
# 
# 
# High freq. dielectric constant tensor:
#      x y z
#    x 1.788040 0.000000 0.002980 
#    y 0.000000 1.781030 0.000000 
#    z 0.002980 0.000000 1.775660 
# 
# From -- ./inp_files/28181.got.cif
#   From: 2010.03.12/outbox.cif.g09.slc.cpg/sg8_15_cif.got.tgz:28181.got - 2010.03.31 10:45:26.
