data_PCOD8053077
_publ_section_title
;
Structure prediction by ZEFSAII (Michael W. Deem and Ramdas Pophale) SiO2 
 PCOD8053077
Probable space group: C M
;
_chemical_formula_sum "Si O2"
_cell_formula_units_Z 32
_cell_length_a 28.408138
_cell_length_b 8.838227
_cell_length_c 21.501439
_cell_angle_alpha 90.000000
_cell_angle_beta 162.348069
_cell_angle_gamma 90.000000
_cell_volume 1637.015992
_symmetry_space_group_name_H-M "C M"
_symmetry_group_IT_number 8
_symmetry_cell_setting 'monoclinic'
loop_
_space_group_symop_operation_xyz
x,y,z
x,-y,z
1/2+x,1/2+y,z
1/2+x,1/2-y,z
loop_
_atom_site_type_symbol
_atom_site_label
_atom_site_fract_x
_atom_site_fract_y
_atom_site_fract_z
Si Si1 0.265220 0.323761 0.588530
Si Si2 0.837291 0.329804 0.234899
Si Si3 0.596684 0.179195 0.015045
Si Si4 0.806620 0.322894 0.862564
Si Si5 0.088990 0.820472 0.475726
Si Si6 0.570809 0.166901 0.643396
Si Si7 0.792312 0.321271 0.369370
Si Si8 0.653457 0.176020 0.309092
O O1 0.298391 0.500000 0.643031
O O2 0.418574 0.226973 0.792542
O O3 0.131440 0.263264 0.465650
O O4 0.203984 0.295204 0.442641
O O5 0.800019 0.500000 0.164942
O O6 0.951243 0.333279 0.436316
O O7 0.917823 0.235029 0.280878
O O8 0.678209 0.250405 0.056643
O O9 0.610820 0.000000 0.028901
O O10 0.671787 0.234107 0.173823
O O11 0.815751 0.500000 0.877664
O O12 0.716369 0.269107 0.687351
O O13 0.716906 0.272170 0.812186
O O14 0.980266 0.257288 0.080918
O O15 0.086874 0.000000 0.463998
O O16 0.470735 0.223004 0.576759
O O17 0.638136 0.000000 0.739824
O O18 0.767089 0.500000 0.328466
O O19 0.768008 0.270902 0.409481
O O20 0.662620 0.000000 0.302544
#
# Coordination Sequence:
#
# PCOD8053077 Si02
#       8
#     4   4   4   4   4   4   4   4
#     4  11  23  38  54  75 108 149 189 228 273 323
#     4   9  17  32  54  81 111 139 173 220 273 326
#     4  11  21  35  57  83 110 140 180 229 277 325
#     4   9  18  33  54  79 104 133 172 216 262 314
#     4  10  19  33  56  84 110 139 178 224 274 325
#     4   8  16  30  50  79 108 132 164 210 261 314
#     4  10  20  35  57  83 109 139 178 221 269 327
#     4  10  22  38  54  76 108 145 184 224 267 318
#
# _framework density 19.547761999999999
#
# number of rings (size 3 to 8) (size 9 to 14) (size 15 to 20)
#    0.000    2.250    0.000    4.125    0.000    6.500 
#    0.000    1.250    0.000    4.500    0.000    0.000 
#    0.000    0.000    0.000    0.000    0.000    0.000 
#
# Total GULP energy -198401.877518 kJ/mol
# GULP energy per Si atom -12400.117345 kJ/mol
# Density = 1.950327 g / cm^3
# Si number density = 19.547762 Si / 1000 Ang^3
#
#
#
# Elastic Constant Matrix: (Units=GPa)
#
#
# Indices 1 2 3 4 5 6 
#
# 1 137.2446 48.0369 36.7116 0.0000 28.1310 0.0000
# 2 48.0369 84.6926 17.7251 0.0000 2.5658 0.0000
# 3 36.7116 17.7251 21.2213 0.0000 9.5594 0.0000
# 4 0.0000 0.0000 0.0000 24.4337 0.0000 10.8566
# 5 28.1310 2.5658 9.5594 0.0000 26.3746 0.0000
# 6 0.0000 0.0000 0.0000 10.8566 0.0000 34.8537
#
#
#
# Elastic Compliance Matrix: (Units=1/GPa)
#
#
# Indices 1 2 3 4 5 6 
#
# 1 0.016212 -0.004782 -0.019687 0.000000 -0.009691 0.000000
# 2 -0.004782 0.015997 -0.007990 0.000000 0.006440 0.000000
# 3 -0.019687 -0.007990 0.093273 0.000000 -0.012031 0.000000
# 4 0.000000 0.000000 0.000000 0.047501 0.000000 -0.014796
# 5 -0.009691 0.006440 -0.012031 0.000000 0.051986 0.000000
# 6 0.000000 0.000000 0.000000 -0.014796 0.000000 0.033300
#
#
# Mechanical properties :
#
#
# Convention : Reuss Voigt Hill
#
# Bulk Modulus (GPa) = 16.51132 49.78951 33.15042
# Shear Modulus (GPa) = 14.56132 26.51140 20.53636
#
# Velocity S-wave (km/s) = 2.73226 3.68671 3.24477
# Velocity P-wave (km/s) = 4.29170 6.60669 5.57078
#
# Compressibility (1/GPa) = 0.06056449
#
# Stress axis : x y z
#
# Youngs Moduli (GPa) = 61.68101 62.51299 10.72124
#
# Poissons Ratio (x) = 0.29892 0.21107
# Poissons Ratio (y) = 0.29494 0.08566
# Poissons Ratio (z) = 1.21431 0.49948
#
# Static dielectric constant tensor:
#      x y z
#    x 3.723160 0.000000 0.354030 
#    y 0.000000 3.606420 0.000000 
#    z 0.354030 0.000000 3.489520 
# 
# 
# High freq. dielectric constant tensor:
#      x y z
#    x 1.764190 0.000000 0.029490 
#    y 0.000000 1.765090 0.000000 
#    z 0.029490 0.000000 1.738030 
# 
# From -- ./inp_files/31634.got.cif
#   From: 2010.03.12/outbox.cif.g09.slc.cpg/sg8_16_cif.got.tgz:31634.got - 2010.03.31 10:45:26.
