data_PCOD8053226
_publ_section_title
;
Structure prediction by ZEFSAII (Michael W. Deem and Ramdas Pophale) SiO2 
 PCOD8053226
Probable space group: C M
;
_chemical_formula_sum "Si O2"
_cell_formula_units_Z 28
_cell_length_a 5.188954
_cell_length_b 30.036172
_cell_length_c 9.749115
_cell_angle_alpha 90.000000
_cell_angle_beta 121.370165
_cell_angle_gamma 90.000000
_cell_volume 1297.349318
_symmetry_space_group_name_H-M "C M"
_symmetry_group_IT_number 8
_symmetry_cell_setting 'monoclinic'
loop_
_space_group_symop_operation_xyz
x,y,z
x,-y,z
1/2+x,1/2+y,z
1/2+x,1/2-y,z
loop_
_atom_site_type_symbol
_atom_site_label
_atom_site_fract_x
_atom_site_fract_y
_atom_site_fract_z
Si Si1 0.627500 0.402702 0.346120
Si Si2 0.298014 0.369286 0.508680
Si Si3 0.184110 0.271845 0.920834
Si Si4 0.211057 0.000000 0.478517
Si Si5 0.798088 0.125953 0.990567
Si Si6 0.333866 0.266909 0.561107
Si Si7 0.149744 0.909699 0.835736
Si Si8 0.427814 0.500000 0.701328
O O1 0.382683 0.376822 0.373170
O O2 0.612925 0.456031 0.365602
O O3 0.968494 0.385876 0.462239
O O4 0.545783 0.388060 0.170289
O O5 0.344780 0.319488 0.575045
O O6 0.551362 0.397665 0.654967
O O7 0.525060 0.254018 0.002426
O O8 0.183096 0.323481 0.959319
O O9 0.004729 0.259953 0.731070
O O10 0.567115 0.000000 0.602544
O O11 0.040606 0.000000 0.576060
O O12 0.508732 0.095552 0.942548
O O13 0.959700 0.119440 0.889991
O O14 0.489336 0.250276 0.463680
O O15 0.060046 0.960571 0.830310
#
# Coordination Sequence:
#
# PCOD8053226 Si02
#       8
#     4   4   4   2   4   4   4   2
#     4  12  26  44  69  99 143 186 223 281 346 423
#     4  12  23  43  69  99 130 182 237 278 334 412
#     4  10  20  39  63  91 130 176 217 271 338 398
#     4  12  22  48  66  98 142 186 222 274 358 406
#     4  12  26  44  68 105 139 180 228 282 356 402
#     4  10  19  35  61  93 124 165 223 279 330 383
#     4  12  23  42  70  99 134 172 233 292 328 411
#     4  12  24  42  70 106 130 172 236 288 342 384
#
# _framework density 21.582467999999999
#
# number of rings (size 3 to 8) (size 9 to 14) (size 15 to 20)
#    0.000    0.571    2.857    7.714    0.000    1.143 
#    0.000    4.286    0.000    0.000    0.000    0.000 
#    0.000    0.000    0.000    0.000    0.000    0.000 
#
# Total GULP energy -173558.107076 kJ/mol
# GULP energy per Si atom -12397.007648 kJ/mol
# Density = 2.153334 g / cm^3
# Si number density = 21.582468 Si / 1000 Ang^3
#
#
#
# Elastic Constant Matrix: (Units=GPa)
#
#
# Indices 1 2 3 4 5 6 
#
# 1 137.5002 7.4644 5.6532 0.0000 -8.3864 0.0000
# 2 7.4644 112.2535 29.6165 0.0000 6.3914 0.0000
# 3 5.6532 29.6165 57.5652 0.0000 2.8212 0.0000
# 4 0.0000 0.0000 0.0000 25.5723 0.0000 4.3052
# 5 -8.3864 6.3914 2.8212 0.0000 19.8890 0.0000
# 6 0.0000 0.0000 0.0000 4.3052 0.0000 31.0641
#
#
#
# Elastic Compliance Matrix: (Units=1/GPa)
#
#
# Indices 1 2 3 4 5 6 
#
# 1 0.007537 -0.000529 -0.000637 0.000000 0.003438 0.000000
# 2 -0.000529 0.010478 -0.005199 0.000000 -0.002853 0.000000
# 3 -0.000637 -0.005199 0.020180 0.000000 -0.001460 0.000000
# 4 0.000000 0.000000 0.000000 0.040039 0.000000 -0.005549
# 5 0.003438 -0.002853 -0.001460 0.000000 0.052853 0.000000
# 6 0.000000 0.000000 0.000000 -0.005549 0.000000 0.032961
#
#
# Mechanical properties :
#
#
# Convention : Reuss Voigt Hill
#
# Bulk Modulus (GPa) = 39.26721 43.64302 41.45512
# Shear Modulus (GPa) = 26.98832 32.94406 29.96619
#
# Velocity S-wave (km/s) = 3.54004 3.91119 3.73023
# Velocity P-wave (km/s) = 5.91124 6.37667 6.14836
#
# Compressibility (1/GPa) = 0.02546654
#
# Stress axis : x y z
#
# Youngs Moduli (GPa) = 132.67301 95.44114 49.55300
#
# Poissons Ratio (x) = 0.05049 0.03154
# Poissons Ratio (y) = 0.07019 0.25762
# Poissons Ratio (z) = 0.08445 0.49618
#
# Static dielectric constant tensor:
#      x y z
#    x 5.439630 0.000000 -0.196890 
#    y 0.000000 4.188810 0.000000 
#    z -0.196890 0.000000 3.500860 
# 
# 
# High freq. dielectric constant tensor:
#      x y z
#    x 1.881330 0.000000 -0.005730 
#    y 0.000000 1.862810 0.000000 
#    z -0.005730 0.000000 1.809780 
# 
# From -- ./inp_files/7079.got.cif
#   From: 2010.03.12/outbox.cif.g09.slc.cpg/sg8_4_cif.got.tgz:7079.got - 2010.03.31 10:45:26.
