data_PCOD8053511
_publ_section_title
;
Structure prediction by ZEFSAII (Michael W. Deem and Ramdas Pophale) SiO2 
 PCOD8053511
Probable space group: C M
;
_chemical_formula_sum "Si O2"
_cell_formula_units_Z 32
_cell_length_a 19.834089
_cell_length_b 8.635377
_cell_length_c 24.750539
_cell_angle_alpha 90.000000
_cell_angle_beta 156.569315
_cell_angle_gamma 90.000000
_cell_volume 1685.650629
_symmetry_space_group_name_H-M "C M"
_symmetry_group_IT_number 8
_symmetry_cell_setting 'monoclinic'
loop_
_space_group_symop_operation_xyz
x,y,z
x,-y,z
1/2+x,1/2+y,z
1/2+x,1/2-y,z
loop_
_atom_site_type_symbol
_atom_site_label
_atom_site_fract_x
_atom_site_fract_y
_atom_site_fract_z
Si Si1 0.865400 0.319680 0.352540
Si Si2 0.567591 0.820301 0.068209
Si Si3 0.894798 0.819615 0.597004
Si Si4 0.754328 0.181032 0.376934
Si Si5 0.865160 0.319916 0.078694
Si Si6 0.250364 0.680052 0.884403
Si Si7 0.088257 0.180603 0.428500
Si Si8 0.280431 0.678200 0.124403
O O1 0.899648 0.500000 0.370485
O O2 0.682315 0.276987 0.193651
O O3 0.866732 0.274305 0.416445
O O4 0.015996 0.227177 0.433812
O O5 0.618243 0.787843 0.043298
O O6 0.597554 0.000000 0.104296
O O7 0.373550 0.773877 0.934669
O O8 0.820436 0.772913 0.484339
O O9 0.757182 0.777644 0.541323
O O10 0.060244 0.719100 0.728469
O O11 0.939585 0.000000 0.633946
O O12 0.559038 0.232377 0.228787
O O13 0.774421 0.000000 0.380291
O O14 0.849276 0.500000 0.053213
O O15 0.764077 0.283798 0.059494
O O16 0.781096 0.224149 0.968990
O O17 0.284552 0.500000 0.901403
O O18 0.948812 0.223711 0.281077
O O19 0.131834 0.000000 0.460277
O O20 0.286311 0.500000 0.110723
#
# Coordination Sequence:
#
# PCOD8053511 Si02
#       8
#     4   4   4   4   4   4   4   4
#     4  11  21  33  57  89 119 152 194 244 289 340
#     4  10  20  37  58  84 118 155 193 239 294 346
#     4  11  23  41  62  86 118 156 195 240 293 351
#     4  10  21  37  59  87 118 152 194 244 294 342
#     4  11  21  36  60  88 118 152 194 244 290 342
#     4  12  25  40  59  86 119 158 197 238 290 352
#     4  10  20  36  58  85 120 156 192 238 290 347
#     4   9  19  34  57  87 118 149 189 241 292 342
#
# _framework density 18.983767
#
# number of rings (size 3 to 8) (size 9 to 14) (size 15 to 20)
#    0.000    1.500    2.500    4.500    0.000    4.000 
#    0.000    1.250    0.000    4.500    0.000    0.000 
#    0.000    0.000    0.000    0.000    0.000    0.000 
#
# Total GULP energy -198488.819387 kJ/mol
# GULP energy per Si atom -12405.551212 kJ/mol
# Density = 1.894056 g / cm^3
# Si number density = 18.983767 Si / 1000 Ang^3
#
#
#
# Elastic Constant Matrix: (Units=GPa)
#
#
# Indices 1 2 3 4 5 6 
#
# 1 120.8445 30.8335 36.9395 0.0042 12.8632 -0.0001
# 2 30.8335 64.4045 15.5908 0.0071 -5.3860 -0.0006
# 3 36.9395 15.5908 75.0284 0.0153 5.2560 -0.0006
# 4 0.0042 0.0071 0.0153 26.4784 0.0014 4.1897
# 5 12.8632 -5.3860 5.2560 0.0014 26.2704 -0.0011
# 6 -0.0001 -0.0006 -0.0006 4.1897 -0.0011 36.0095
#
#
#
# Elastic Compliance Matrix: (Units=1/GPa)
#
#
# Indices 1 2 3 4 5 6 
#
# 1 0.011433 -0.004940 -0.004198 0.000002 -0.005771 -0.000001
# 2 -0.004940 0.018929 -0.001970 -0.000004 0.006694 0.000001
# 3 -0.004198 -0.001970 0.015912 -0.000008 -0.001532 0.000001
# 4 0.000002 -0.000004 -0.000008 0.038475 -0.000003 -0.004477
# 5 -0.005771 0.006694 -0.001532 -0.000003 0.042570 0.000002
# 6 -0.000001 0.000001 0.000001 -0.004477 0.000002 0.028291
#
#
# Mechanical properties :
#
#
# Convention : Reuss Voigt Hill
#
# Bulk Modulus (GPa) = 41.56773 47.44499 44.50636
# Shear Modulus (GPa) = 26.90408 29.54593 28.22500
#
# Velocity S-wave (km/s) = 3.76868 3.94938 3.86008
# Velocity P-wave (km/s) = 6.39384 6.77078 6.58501
#
# Compressibility (1/GPa) = 0.02405712
#
# Stress axis : x y z
#
# Youngs Moduli (GPa) = 87.46541 52.83025 62.84599
#
# Poissons Ratio (x) = 0.26098 0.26384
# Poissons Ratio (y) = 0.43207 0.12381
# Poissons Ratio (z) = 0.36720 0.10408
#
# Static dielectric constant tensor:
#      x y z
#    x 3.608610 0.000000 0.094780 
#    y 0.000000 3.448010 0.000000 
#    z 0.094780 0.000000 3.225520 
# 
# 
# High freq. dielectric constant tensor:
#      x y z
#    x 1.751430 0.000000 0.011620 
#    y 0.000000 1.745070 0.000000 
#    z 0.011620 0.000000 1.708160 
# 
# From -- ./inp_files/24301.got.cif
#   From: 2010.03.12/outbox.cif.g09.slc.cpg/sg8_13_cif.got.tgz:24301.got - 2010.03.31 10:45:26.
