data_PCOD8053221
_publ_section_title
;
Structure prediction by ZEFSAII (Michael W. Deem and Ramdas Pophale) SiO2 
 PCOD8053221
Probable space group: C M
;
_chemical_formula_sum "Si O2"
_cell_formula_units_Z 24
_cell_length_a 21.119470
_cell_length_b 7.585125
_cell_length_c 10.575042
_cell_angle_alpha 90.000000
_cell_angle_beta 50.426051
_cell_angle_gamma 90.000000
_cell_volume 1305.783708
_symmetry_space_group_name_H-M "C M"
_symmetry_group_IT_number 8
_symmetry_cell_setting 'monoclinic'
loop_
_space_group_symop_operation_xyz
x,y,z
x,-y,z
1/2+x,1/2+y,z
1/2+x,1/2-y,z
loop_
_atom_site_type_symbol
_atom_site_label
_atom_site_fract_x
_atom_site_fract_y
_atom_site_fract_z
Si Si1 0.970960 0.795495 0.579600
Si Si2 0.889848 0.806212 0.427386
Si Si3 0.438268 0.000000 0.819898
Si Si4 0.567410 0.695929 0.076356
Si Si5 0.642338 0.797434 0.236318
Si Si6 0.518172 0.000000 0.976606
Si Si7 0.762138 0.500000 0.171299
Si Si8 0.840773 0.500000 0.330610
O O1 0.904514 0.752700 0.554721
O O2 0.948688 0.677444 0.727238
O O3 0.061498 0.750553 0.416916
O O4 0.966840 0.000000 0.624542
O O5 0.829291 0.670510 0.435034
O O6 0.977652 0.808130 0.249568
O O7 0.849379 0.000000 0.470011
O O8 0.508289 0.000000 0.838699
O O9 0.349384 0.000000 0.993764
O O10 0.593203 0.500000 0.998402
O O11 0.630406 0.763793 0.102490
O O12 0.569133 0.826738 0.954297
O O13 0.715964 0.677238 0.191415
O O14 0.666446 0.000000 0.228910
O O15 0.430639 0.000000 0.156242
O O16 0.771673 0.500000 0.311145
#
# Coordination Sequence:
#
# PCOD8053221 Si02
#       8
#     4   4   2   4   4   2   2   2
#     4  10  19  35  61  86 108 143 193 235 270 323
#     4   8  15  27  51  81 101 132 185 230 263 310
#     4  11  23  36  54  84 124 148 177 225 289 337
#     4   9  15  28  52  80 105 131 184 241 267 307
#     4  11  19  34  60  85 107 144 192 233 272 325
#     4   9  18  30  48  78 107 144 179 221 279 325
#     4  11  24  36  50  90 120 144 179 225 290 339
#     4   9  17  30  48  72 117 140 165 223 282 325
#
# _framework density 18.379767000000001
#
# number of rings (size 3 to 8) (size 9 to 14) (size 15 to 20)
#    0.000    2.333    3.333    1.500    2.333    2.000 
#    0.000    3.333    0.000    4.000    0.000    0.000 
#    0.000    0.000    0.000    0.000    0.000    0.000 
#
# Total GULP energy -148774.202971 kJ/mol
# GULP energy per Si atom -12397.850248 kJ/mol
# Density = 1.833793 g / cm^3
# Si number density = 18.379767 Si / 1000 Ang^3
#
#
#
# Elastic Constant Matrix: (Units=GPa)
#
#
# Indices 1 2 3 4 5 6 
#
# 1 118.9954 78.1528 45.5663 0.0000 34.8215 0.0000
# 2 78.1528 182.8462 55.6648 0.0000 34.2846 0.0000
# 3 45.5663 55.6648 64.2425 0.0000 28.6213 0.0000
# 4 0.0000 0.0000 0.0000 24.4844 0.0000 10.1808
# 5 34.8215 34.2846 28.6213 0.0000 32.1334 0.0000
# 6 0.0000 0.0000 0.0000 10.1808 0.0000 44.8409
#
#
#
# Elastic Compliance Matrix: (Units=1/GPa)
#
#
# Indices 1 2 3 4 5 6 
#
# 1 0.014678 -0.003565 -0.003200 0.000000 -0.009252 0.000000
# 2 -0.003565 0.008560 -0.004212 0.000000 -0.001518 0.000000
# 3 -0.003200 -0.004212 0.029740 0.000000 -0.018527 0.000000
# 4 0.000000 0.000000 0.000000 0.045100 0.000000 -0.010240
# 5 -0.009252 -0.001518 -0.018527 0.000000 0.059268 0.000000
# 6 0.000000 0.000000 0.000000 -0.010240 0.000000 0.024626
#
#
# Mechanical properties :
#
#
# Convention : Reuss Voigt Hill
#
# Bulk Modulus (GPa) = 32.23352 80.53909 56.38631
# Shear Modulus (GPa) = 23.33549 32.73841 28.03695
#
# Velocity S-wave (km/s) = 3.56705 4.22503 3.90991
# Velocity P-wave (km/s) = 5.87714 8.22896 7.15040
#
# Compressibility (1/GPa) = 0.03102360
#
# Stress axis : x y z
#
# Youngs Moduli (GPa) = 68.13135 116.82761 33.62494
#
# Poissons Ratio (x) = 0.41644 0.10760
# Poissons Ratio (y) = 0.24286 0.14163
# Poissons Ratio (z) = 0.21803 0.49209
#
# Static dielectric constant tensor:
#      x y z
#    x 3.334360 0.000000 0.337580 
#    y 0.000000 3.662480 0.000000 
#    z 0.337580 0.000000 3.052280 
# 
# 
# High freq. dielectric constant tensor:
#      x y z
#    x 1.697120 0.000000 0.027950 
#    y 0.000000 1.734690 0.000000 
#    z 0.027950 0.000000 1.671930 
# 
# From -- ./inp_files/15590.got.cif
#   From: 2010.03.12/outbox.cif.g09.slc.cpg/sg8_8_cif.got.tgz:15590.got - 2010.03.31 10:45:26.
