data_PCOD8053139
_publ_section_title
;
Structure prediction by ZEFSAII (Michael W. Deem and Ramdas Pophale) SiO2 
 PCOD8053139
Probable space group: C M
;
_chemical_formula_sum "Si O2"
_cell_formula_units_Z 32
_cell_length_a 33.130800
_cell_length_b 9.240899
_cell_length_c 12.587483
_cell_angle_alpha 90.000000
_cell_angle_beta 154.608498
_cell_angle_gamma 90.000000
_cell_volume 1652.498152
_symmetry_space_group_name_H-M "C M"
_symmetry_group_IT_number 8
_symmetry_cell_setting 'monoclinic'
loop_
_space_group_symop_operation_xyz
x,y,z
x,-y,z
1/2+x,1/2+y,z
1/2+x,1/2-y,z
loop_
_atom_site_type_symbol
_atom_site_label
_atom_site_fract_x
_atom_site_fract_y
_atom_site_fract_z
Si Si1 0.232270 0.664011 0.895810
Si Si2 0.669087 0.668585 0.149655
Si Si3 0.283611 0.831850 0.215912
Si Si4 0.427165 0.833883 0.083295
Si Si5 0.446207 0.334324 0.337680
Si Si6 0.227554 0.168820 0.522700
Si Si7 0.992937 0.328617 0.653038
Si Si8 0.113863 0.665417 0.417889
O O1 0.204355 0.500000 0.856750
O O2 0.163646 0.728082 0.642459
O O3 0.221499 0.753756 0.978304
O O4 0.336339 0.677045 0.098116
O O5 0.641075 0.500000 0.075193
O O6 0.742895 0.712463 0.233447
O O7 0.720521 0.705414 0.381932
O O8 0.575052 0.764447 0.921501
O O9 0.393371 0.786637 0.470707
O O10 0.272736 0.000000 0.167454
O O11 0.327973 0.774498 0.804107
O O12 0.418605 0.000000 0.101844
O O13 0.466025 0.737172 0.271460
O O14 0.501548 0.821729 0.163860
O O15 0.481555 0.500000 0.421996
O O16 0.502838 0.245677 0.561412
O O17 0.143279 0.246175 0.384376
O O18 0.217221 0.000000 0.519106
O O19 0.004582 0.500000 0.668760
O O20 0.146161 0.500000 0.478509
#
# Coordination Sequence:
#
# PCOD8053139 Si02
#       8
#     4   4   4   4   4   4   4   4
#     4   9  18  33  54  82 117 149 180 229 284 333
#     4  10  22  40  59  82 114 153 194 235 284 336
#     4   9  20  37  57  82 113 149 187 230 280 339
#     4  10  21  36  57  85 114 150 191 235 283 335
#     4  10  19  34  57  84 118 153 183 230 288 340
#     4  10  22  40  59  81 115 154 193 237 281 336
#     4  10  21  37  58  86 114 147 191 236 281 337
#     4  10  21  37  57  84 115 149 189 236 285 336
#
# _framework density 19.364621
#
# number of rings (size 3 to 8) (size 9 to 14) (size 15 to 20)
#    0.000    2.250    1.250    0.750    1.750    4.000 
#    0.000    2.500    0.000    0.000    0.000    0.000 
#    0.000    0.000    0.000    0.000    0.000    0.000 
#
# Total GULP energy -198451.036868 kJ/mol
# GULP energy per Si atom -12403.189804 kJ/mol
# Density = 1.932055 g / cm^3
# Si number density = 19.364621 Si / 1000 Ang^3
#
#
#
# Elastic Constant Matrix: (Units=GPa)
#
#
# Indices 1 2 3 4 5 6 
#
# 1 127.4258 47.4994 34.9670 0.0000 -10.5458 0.0000
# 2 47.4994 65.4992 30.6538 0.0000 -5.2808 0.0000
# 3 34.9670 30.6538 65.8263 0.0000 -5.7586 0.0000
# 4 0.0000 0.0000 0.0000 29.0030 0.0000 -2.5705
# 5 -10.5458 -5.2808 -5.7586 0.0000 25.4101 0.0000
# 6 0.0000 0.0000 0.0000 -2.5705 0.0000 31.8940
#
#
#
# Elastic Compliance Matrix: (Units=1/GPa)
#
#
# Indices 1 2 3 4 5 6 
#
# 1 0.011309 -0.006755 -0.002626 0.000000 0.002695 0.000000
# 2 -0.006755 0.023661 -0.007392 0.000000 0.000439 0.000000
# 3 -0.002626 -0.007392 0.020199 0.000000 0.001952 0.000000
# 4 0.000000 0.000000 0.000000 0.034727 0.000000 0.002799
# 5 0.002695 0.000439 0.001952 0.000000 0.041006 0.000000
# 6 0.000000 0.000000 0.000000 0.002799 0.000000 0.031579
#
#
# Mechanical properties :
#
#
# Convention : Reuss Voigt Hill
#
# Bulk Modulus (GPa) = 46.24533 53.88797 50.06665
# Shear Modulus (GPa) = 24.60194 26.97017 25.78605
#
# Velocity S-wave (km/s) = 3.56822 3.73601 3.65308
# Velocity P-wave (km/s) = 6.39605 6.81901 6.61091
#
# Compressibility (1/GPa) = 0.02162380
#
# Stress axis : x y z
#
# Youngs Moduli (GPa) = 88.42182 42.26403 49.50671
#
# Poissons Ratio (x) = 0.28550 0.13001
# Poissons Ratio (y) = 0.59731 0.36593
# Poissons Ratio (z) = 0.23221 0.31240
#
# Static dielectric constant tensor:
#      x y z
#    x 3.472530 0.000000 0.033780 
#    y 0.000000 3.487510 0.000000 
#    z 0.033780 0.000000 3.546460 
# 
# 
# High freq. dielectric constant tensor:
#      x y z
#    x 1.750980 0.000000 0.004880 
#    y 0.000000 1.747100 0.000000 
#    z 0.004880 0.000000 1.753400 
# 
# From -- ./inp_files/21610.got.cif
#   From: 2010.03.12/outbox.cif.g09.slc.cpg/sg8_11_cif.got.tgz:21610.got - 2010.03.31 10:45:26.
