data_PCOD8053233
_publ_section_title
;
Structure prediction by ZEFSAII (Michael W. Deem and Ramdas Pophale) SiO2 
 PCOD8053233
Probable space group: C M
;
_chemical_formula_sum "Si O2"
_cell_formula_units_Z 28
_cell_length_a 12.554822
_cell_length_b 13.135127
_cell_length_c 14.942448
_cell_angle_alpha 90.000000
_cell_angle_beta 35.399737
_cell_angle_gamma 90.000000
_cell_volume 1427.424667
_symmetry_space_group_name_H-M "C M"
_symmetry_group_IT_number 8
_symmetry_cell_setting 'monoclinic'
loop_
_space_group_symop_operation_xyz
x,y,z
x,-y,z
1/2+x,1/2+y,z
1/2+x,1/2-y,z
loop_
_atom_site_type_symbol
_atom_site_label
_atom_site_fract_x
_atom_site_fract_y
_atom_site_fract_z
Si Si1 0.060010 0.886855 0.049060
Si Si2 0.960561 0.191384 0.674117
Si Si3 0.203259 0.618592 0.200025
Si Si4 0.812130 0.303048 0.521710
Si Si5 0.698153 0.881740 0.704213
Si Si6 0.315044 0.112430 0.708837
Si Si7 0.337903 0.751015 0.947616
O O1 0.841582 0.867938 0.189311
O O2 0.099889 0.000000 0.056443
O O3 0.142357 0.872862 0.892672
O O4 0.149703 0.813302 0.060410
O O5 0.836554 0.121399 0.694738
O O6 0.969673 0.307058 0.631049
O O7 0.880652 0.188488 0.828742
O O8 0.175612 0.159648 0.535241
O O9 0.164926 0.500000 0.206198
O O10 0.018397 0.676205 0.352129
O O11 0.298237 0.669125 0.050008
O O12 0.787911 0.182140 0.560636
O O13 0.750122 0.365555 0.652460
O O14 0.501962 0.829445 0.862261
O O15 0.669713 0.000000 0.696477
O O16 0.401035 0.000000 0.657010
#
# Coordination Sequence:
#
# PCOD8053233 Si02
#       7
#     4   4   4   4   4   4   4
#     4   9  18  34  57  80 104 138 182 230 274 314
#     4   9  19  34  54  80 108 140 180 227 269 315
#     4  11  23  37  54  80 114 149 181 217 266 324
#     4  10  21  36  53  79 114 146 180 221 264 321
#     4  10  21  38  60  83 107 139 182 229 274 319
#     4   9  17  33  58  81 100 135 187 234 272 312
#     4  10  19  36  58  83 109 139 180 228 271 321
#
# _framework density 19.615746000000001
#
# number of rings (size 3 to 8) (size 9 to 14) (size 15 to 20)
#    0.000    2.286    0.000    4.286    0.000    7.429 
#    0.000    3.571    0.000    0.000    0.000    0.000 
#    0.000    0.000    0.000    0.000    0.000    0.000 
#
# Total GULP energy -173493.771254 kJ/mol
# GULP energy per Si atom -12392.412232 kJ/mol
# Density = 1.957110 g / cm^3
# Si number density = 19.615746 Si / 1000 Ang^3
#
#
#
# Elastic Constant Matrix: (Units=GPa)
#
#
# Indices 1 2 3 4 5 6 
#
# 1 102.1434 20.5458 33.4568 -0.0007 -21.8786 0.0003
# 2 20.5458 109.4612 42.9401 -0.0001 -5.6996 0.0000
# 3 33.4568 42.9401 58.2436 -0.0003 -24.6027 -0.0002
# 4 -0.0007 -0.0001 -0.0003 26.2837 0.0009 -1.0426
# 5 -21.8786 -5.6996 -24.6027 0.0009 30.2868 -0.0004
# 6 0.0003 0.0000 -0.0002 -1.0426 -0.0004 19.3723
#
#
#
# Elastic Compliance Matrix: (Units=1/GPa)
#
#
# Indices 1 2 3 4 5 6 
#
# 1 0.012515 -0.000129 -0.005001 0.000000 0.004954 0.000000
# 2 -0.000129 0.014282 -0.014248 0.000000 -0.008980 0.000000
# 3 -0.005001 -0.014248 0.042456 -0.000001 0.028194 0.000001
# 4 0.000000 0.000000 -0.000001 0.038128 -0.000002 0.002052
# 5 0.004954 -0.008980 0.028194 -0.000002 0.057809 0.000001
# 6 0.000000 0.000000 0.000001 0.002052 0.000001 0.051731
#
#
# Mechanical properties :
#
#
# Convention : Reuss Voigt Hill
#
# Bulk Modulus (GPa) = 32.79166 51.52598 42.15882
# Shear Modulus (GPa) = 18.80812 26.71558 22.76185
#
# Velocity S-wave (km/s) = 3.09985 3.69446 3.41014
# Velocity P-wave (km/s) = 5.43741 6.67258 6.08641
#
# Compressibility (1/GPa) = 0.03049555
#
# Stress axis : x y z
#
# Youngs Moduli (GPa) = 79.90135 70.01983 23.55384
#
# Poissons Ratio (x) = 0.00905 0.11780
# Poissons Ratio (y) = 0.01032 0.33560
# Poissons Ratio (z) = 0.39962 0.99765
#
# Static dielectric constant tensor:
#      x y z
#    x 3.786030 0.000000 -0.179300 
#    y 0.000000 3.608600 0.000000 
#    z -0.179300 0.000000 3.373770 
# 
# 
# High freq. dielectric constant tensor:
#      x y z
#    x 1.776080 0.000000 -0.017320 
#    y 0.000000 1.758760 0.000000 
#    z -0.017320 0.000000 1.734790 
# 
# From -- ./inp_files/26079.got.cif
#   From: 2010.03.12/outbox.cif.g09.slc.cpg/sg8_14_cif.got.tgz:26079.got - 2010.03.31 10:45:26.
