data_PCOD8053188
_publ_section_title
;
Structure prediction by ZEFSAII (Michael W. Deem and Ramdas Pophale) SiO2 
 PCOD8053188
Probable space group: C M
;
_chemical_formula_sum "Si O2"
_cell_formula_units_Z 32
_cell_length_a 14.750796
_cell_length_b 8.564263
_cell_length_c 14.264585
_cell_angle_alpha 90.000000
_cell_angle_beta 74.188804
_cell_angle_gamma 90.000000
_cell_volume 1733.860068
_symmetry_space_group_name_H-M "C M"
_symmetry_group_IT_number 8
_symmetry_cell_setting 'monoclinic'
loop_
_space_group_symop_operation_xyz
x,y,z
x,-y,z
1/2+x,1/2+y,z
1/2+x,1/2-y,z
loop_
_atom_site_type_symbol
_atom_site_label
_atom_site_fract_x
_atom_site_fract_y
_atom_site_fract_z
Si Si1 0.591470 0.681835 0.026740
Si Si2 0.266041 0.184244 0.501823
Si Si3 0.150387 0.182292 0.358420
Si Si4 0.548196 0.824007 0.854566
Si Si5 0.907046 0.323035 0.045706
Si Si6 0.075162 0.183444 0.647207
Si Si7 0.471397 0.184467 0.501957
Si Si8 0.213567 0.320642 0.149029
O O1 0.614946 0.500000 0.034830
O O2 0.483592 0.723772 0.083058
O O3 0.647420 0.791394 0.080365
O O4 0.613966 0.734324 0.912755
O O5 0.231730 0.239966 0.407980
O O6 0.182852 0.238338 0.596518
O O7 0.368285 0.255615 0.501556
O O8 0.276584 0.000000 0.500713
O O9 0.184527 0.215394 0.244642
O O10 0.050230 0.264885 0.404666
O O11 0.132766 0.000000 0.377897
O O12 0.546817 0.730401 0.759161
O O13 0.586007 0.000000 0.828179
O O14 0.441646 0.828335 0.926996
O O15 0.896308 0.500000 0.087637
O O16 0.813723 0.226575 0.081650
O O17 0.000311 0.258830 0.597127
O O18 0.066907 0.000000 0.636329
O O19 0.465217 0.000000 0.504821
O O20 0.210688 0.500000 0.180658
#
# Coordination Sequence:
#
# PCOD8053188 Si02
#       8
#     4   4   4   4   4   4   4   4
#     4  10  20  37  58  81 111 149 189 234 283 334
#     4   8  18  36  57  80 108 143 181 223 276 336
#     4  10  21  38  57  80 112 146 184 232 285 340
#     4   9  19  37  58  82 114 150 186 234 285 332
#     4   9  20  38  57  80 113 148 187 235 284 333
#     4  10  19  35  57  82 112 148 186 226 278 338
#     4  10  19  36  58  82 110 143 184 232 283 339
#     4  12  23  37  58  85 114 151 195 234 282 342
#
# _framework density 18.455929999999999
#
# number of rings (size 3 to 8) (size 9 to 14) (size 15 to 20)
#    0.750    1.500    0.000    4.500    0.000    1.000 
#    2.250   11.250    0.000    0.000    0.000    0.000 
#    0.000    0.000    0.000    0.000    0.000    0.000 
#
# Total GULP energy -198272.667323 kJ/mol
# GULP energy per Si atom -12392.041708 kJ/mol
# Density = 1.841392 g / cm^3
# Si number density = 18.455930 Si / 1000 Ang^3
#
#
#
# Elastic Constant Matrix: (Units=GPa)
#
#
# Indices 1 2 3 4 5 6 
#
# 1 138.6681 23.3060 49.2589 0.0000 1.4407 0.0000
# 2 23.3060 74.1616 15.1753 0.0000 -0.1790 0.0000
# 3 49.2589 15.1753 109.1062 0.0000 6.6544 0.0000
# 4 0.0000 0.0000 0.0000 30.8350 0.0000 1.2785
# 5 1.4407 -0.1790 6.6544 0.0000 19.0301 0.0000
# 6 0.0000 0.0000 0.0000 1.2785 0.0000 27.3054
#
#
#
# Elastic Compliance Matrix: (Units=1/GPa)
#
#
# Indices 1 2 3 4 5 6 
#
# 1 0.008883 -0.002019 -0.003768 0.000000 0.000626 0.000000
# 2 -0.002019 0.014351 -0.001126 0.000000 0.000682 0.000000
# 3 -0.003768 -0.001126 0.011246 0.000000 -0.003658 0.000000
# 4 0.000000 0.000000 0.000000 0.032494 0.000000 -0.001521
# 5 0.000626 0.000682 -0.003658 0.000000 0.053787 0.000000
# 6 0.000000 0.000000 0.000000 -0.001521 0.000000 0.036694
#
#
# Mechanical properties :
#
#
# Convention : Reuss Voigt Hill
#
# Bulk Modulus (GPa) = 48.41679 55.26848 51.84264
# Shear Modulus (GPa) = 28.06406 31.04714 29.55560
#
# Velocity S-wave (km/s) = 3.90372 4.10595 4.00611
# Velocity P-wave (km/s) = 6.82710 7.24497 7.03914
#
# Compressibility (1/GPa) = 0.02065399
#
# Stress axis : x y z
#
# Youngs Moduli (GPa) = 112.57852 69.68340 88.91950
#
# Poissons Ratio (x) = 0.14069 0.33502
# Poissons Ratio (y) = 0.22730 0.10013
# Poissons Ratio (z) = 0.42416 0.07847
#
# Static dielectric constant tensor:
#      x y z
#    x 3.490950 0.000000 0.021600 
#    y 0.000000 3.326620 0.000000 
#    z 0.021600 0.000000 3.280480 
# 
# 
# High freq. dielectric constant tensor:
#      x y z
#    x 1.710460 0.000000 0.002060 
#    y 0.000000 1.719960 0.000000 
#    z 0.002060 0.000000 1.709010 
# 
# From -- ./inp_files/26430.got.cif
#   From: 2010.03.12/outbox.cif.g09.slc.cpg/sg8_14_cif.got.tgz:26430.got - 2010.03.31 10:45:26.
