data_PCOD8053869
_publ_section_title
;
Structure prediction by ZEFSAII (Michael W. Deem and Ramdas Pophale) SiO2 
 PCOD8053869
Probable space group: C M
;
_chemical_formula_sum "Si O2"
_cell_formula_units_Z 32
_cell_length_a 8.947237
_cell_length_b 25.473669
_cell_length_c 11.126984
_cell_angle_alpha 90.000000
_cell_angle_beta 141.878556
_cell_angle_gamma 90.000000
_cell_volume 1565.580992
_symmetry_space_group_name_H-M "C M"
_symmetry_group_IT_number 8
_symmetry_cell_setting 'monoclinic'
loop_
_space_group_symop_operation_xyz
x,y,z
x,-y,z
1/2+x,1/2+y,z
1/2+x,1/2-y,z
loop_
_atom_site_type_symbol
_atom_site_label
_atom_site_fract_x
_atom_site_fract_y
_atom_site_fract_z
Si Si1 0.513190 0.297778 0.003620
Si Si2 0.392520 0.618030 0.741863
Si Si3 0.813080 0.558954 0.877597
Si Si4 0.590306 0.195650 0.918851
Si Si5 0.249666 0.109632 0.596290
Si Si6 0.693321 0.127258 0.214182
Si Si7 0.477095 0.850424 0.327597
Si Si8 0.436914 0.939154 0.471927
O O1 0.787686 0.302549 0.230130
O O2 0.478618 0.353414 0.915900
O O3 0.473380 0.250621 0.884867
O O4 0.328921 0.291377 0.995191
O O5 0.619278 0.599802 0.807124
O O6 0.226547 0.658915 0.559382
O O7 0.227267 0.567759 0.675029
O O8 0.741451 0.500000 0.865549
O O9 0.821836 0.565756 0.739404
O O10 0.077933 0.571667 0.099572
O O11 0.400127 0.162923 0.718044
O O12 0.671303 0.167031 0.090717
O O13 0.299136 0.086700 0.496678
O O14 0.966584 0.121073 0.428823
O O15 0.533066 0.148300 0.222312
O O16 0.363684 0.906233 0.305240
O O17 0.366850 0.000000 0.411892
#
# Coordination Sequence:
#
# PCOD8053869 Si02
#       8
#     4   4   4   4   4   4   4   4
#     4  12  23  45  65  97 128 167 218 276 326 393
#     4  10  22  41  65  90 132 167 221 265 323 393
#     4  11  23  39  65  97 128 174 219 263 325 385
#     4  11  26  40  71  93 129 172 218 269 338 387
#     4  11  22  44  63  95 136 170 216 276 315 398
#     4  11  23  41  64  94 133 169 217 270 322 386
#     4  10  22  40  63  91 131 165 213 270 313 390
#     4  10  21  40  66  93 129 176 212 263 328 384
#
# _framework density 20.439698
#
# number of rings (size 3 to 8) (size 9 to 14) (size 15 to 20)
#    0.750    0.500    3.750    2.250    1.750    2.500 
#    0.000    1.250    0.000    0.000    0.000    0.000 
#    0.000    0.000    0.000    0.000    0.000    0.000 
#
# Total GULP energy -198333.555924 kJ/mol
# GULP energy per Si atom -12395.847245 kJ/mol
# Density = 2.039318 g / cm^3
# Si number density = 20.439698 Si / 1000 Ang^3
#
#
#
# Elastic Constant Matrix: (Units=GPa)
#
#
# Indices 1 2 3 4 5 6 
#
# 1 145.9340 35.6689 28.1816 0.0000 -1.9232 0.0000
# 2 35.6689 89.5753 20.8122 0.0000 5.5344 0.0000
# 3 28.1816 20.8122 86.6897 0.0000 15.9368 0.0000
# 4 0.0000 0.0000 0.0000 18.9150 0.0000 -2.2535
# 5 -1.9232 5.5344 15.9368 0.0000 28.7811 0.0000
# 6 0.0000 0.0000 0.0000 -2.2535 0.0000 28.1929
#
#
#
# Elastic Compliance Matrix: (Units=1/GPa)
#
#
# Indices 1 2 3 4 5 6 
#
# 1 0.008025 -0.002791 -0.002378 0.000000 0.002390 0.000000
# 2 -0.002791 0.012810 -0.001871 0.000000 -0.001613 0.000000
# 3 -0.002378 -0.001871 0.014163 0.000000 -0.007641 0.000000
# 4 0.000000 0.000000 0.000000 0.053376 0.000000 0.004267
# 5 0.002390 -0.001613 -0.007641 0.000000 0.039446 0.000000
# 6 0.000000 0.000000 0.000000 0.004267 0.000000 0.035811
#
#
# Mechanical properties :
#
#
# Convention : Reuss Voigt Hill
#
# Bulk Modulus (GPa) = 47.80910 54.61382 51.21146
# Shear Modulus (GPa) = 27.07330 31.01356 29.04343
#
# Velocity S-wave (km/s) = 3.64338 3.89950 3.77362
# Velocity P-wave (km/s) = 6.41405 6.85947 6.64050
#
# Compressibility (1/GPa) = 0.02091652
#
# Stress axis : x y z
#
# Youngs Moduli (GPa) = 124.60618 78.06668 70.60867
#
# Poissons Ratio (x) = 0.21786 0.16792
# Poissons Ratio (y) = 0.34774 0.13214
# Poissons Ratio (z) = 0.29634 0.14610
#
# Static dielectric constant tensor:
#      x y z
#    x 3.786540 0.000000 0.064960 
#    y 0.000000 3.463640 0.000000 
#    z 0.064960 0.000000 3.705180 
# 
# 
# High freq. dielectric constant tensor:
#      x y z
#    x 1.817250 0.000000 0.000870 
#    y 0.000000 1.777520 0.000000 
#    z 0.000870 0.000000 1.798140 
# 
# From -- ./inp_files/19418.got.cif
#   From: 2010.03.12/outbox.cif.g09.slc.cpg/sg8_10_cif.got.tgz:19418.got - 2010.03.31 10:45:26.
