data_PCOD8053666
_publ_section_title
;
Structure prediction by ZEFSAII (Michael W. Deem and Ramdas Pophale) SiO2 
 PCOD8053666
Probable space group: C M
;
_chemical_formula_sum "Si O2"
_cell_formula_units_Z 32
_cell_length_a 8.022983
_cell_length_b 23.205324
_cell_length_c 13.996750
_cell_angle_alpha 90.000000
_cell_angle_beta 142.439277
_cell_angle_gamma 90.000000
_cell_volume 1588.535860
_symmetry_space_group_name_H-M "C M"
_symmetry_group_IT_number 8
_symmetry_cell_setting 'monoclinic'
loop_
_space_group_symop_operation_xyz
x,y,z
x,-y,z
1/2+x,1/2+y,z
1/2+x,1/2-y,z
loop_
_atom_site_type_symbol
_atom_site_label
_atom_site_fract_x
_atom_site_fract_y
_atom_site_fract_z
Si Si1 0.661040 0.825018 0.921410
Si Si2 0.939130 0.933736 0.786026
Si Si3 0.352930 0.931787 0.139826
Si Si4 0.167953 0.673750 0.589529
Si Si5 0.918211 0.561720 0.865015
Si Si6 0.188440 0.132363 0.255286
Si Si7 0.665677 0.256687 0.752369
Si Si8 0.827497 0.936421 0.226165
O O1 0.521943 0.887903 0.842440
O O2 0.685777 0.797691 0.830019
O O3 0.464834 0.784677 0.894680
O O4 0.951165 0.826823 0.106615
O O5 0.116315 0.929397 0.769482
O O6 0.696053 0.887378 0.659068
O O7 0.831894 0.000000 0.749238
O O8 0.109323 0.913525 0.956993
O O9 0.288349 0.910196 0.216765
O O10 0.650500 0.909513 0.234834
O O11 0.369405 0.000000 0.149913
O O12 0.460881 0.691432 0.680397
O O13 0.078395 0.727998 0.613052
O O14 0.947102 0.669853 0.404680
O O15 0.932923 0.500000 0.816377
O O16 0.117883 0.558841 0.044901
O O17 0.082732 0.101051 0.304505
O O18 0.937653 0.000000 0.303887
#
# Coordination Sequence:
#
# PCOD8053666 Si02
#       8
#     4   4   4   4   4   4   4   4
#     4  10  20  39  62  88 108 157 210 246 292 361
#     4   9  17  33  60  90 121 157 196 241 298 362
#     4   9  18  35  60  89 123 165 204 241 292 365
#     4  11  23  41  58  89 121 160 195 252 316 356
#     4   8  14  29  57  87 115 147 192 242 288 347
#     4  11  22  35  60  93 118 153 202 260 304 354
#     4  10  23  42  62  76 120 163 205 250 295 363
#     4   8  16  32  53  84 124 158 189 236 297 356
#
# _framework density 20.144337
#
# number of rings (size 3 to 8) (size 9 to 14) (size 15 to 20)
#    0.000    2.500    1.250    2.625    0.000    2.500 
#    4.500    0.625    0.000    0.000    0.000    0.000 
#    0.000    0.000    0.000    0.000    0.000    0.000 
#
# Total GULP energy -198246.794729 kJ/mol
# GULP energy per Si atom -12390.424671 kJ/mol
# Density = 2.009849 g / cm^3
# Si number density = 20.144337 Si / 1000 Ang^3
#
#
#
# Elastic Constant Matrix: (Units=GPa)
#
#
# Indices 1 2 3 4 5 6 
#
# 1 98.2017 28.7889 28.9038 0.0000 -0.0341 0.0000
# 2 28.7889 95.5158 32.1364 0.0000 -0.7562 0.0000
# 3 28.9038 32.1364 81.6008 0.0000 1.0902 0.0000
# 4 0.0000 0.0000 0.0000 21.7342 0.0000 -7.2793
# 5 -0.0341 -0.7562 1.0902 0.0000 11.4736 0.0000
# 6 0.0000 0.0000 0.0000 -7.2793 0.0000 5.1164
#
#
#
# Elastic Compliance Matrix: (Units=1/GPa)
#
#
# Indices 1 2 3 4 5 6 
#
# 1 0.011862 -0.002489 -0.003224 0.000000 0.000178 0.000000
# 2 -0.002489 0.012609 -0.004100 0.000000 0.001213 0.000000
# 3 -0.003224 -0.004100 0.015034 0.000000 -0.001708 0.000000
# 4 0.000000 0.000000 0.000000 0.087893 0.000000 0.125050
# 5 0.000178 0.001213 -0.001708 0.000000 0.087400 0.000000
# 6 0.000000 0.000000 0.000000 0.125050 0.000000 0.373367
#
#
# Mechanical properties :
#
#
# Convention : Reuss Voigt Hill
#
# Bulk Modulus (GPa) = 50.30485 50.55294 50.42889
# Shear Modulus (GPa) = 8.13780 20.03076 14.08428
#
# Velocity S-wave (km/s) = 2.01209 3.15677 2.64705
# Velocity P-wave (km/s) = 5.51583 6.19974 5.86776
#
# Compressibility (1/GPa) = 0.01987880
#
# Stress axis : x y z
#
# Youngs Moduli (GPa) = 84.30473 79.30940 66.51501
#
# Poissons Ratio (x) = 0.19742 0.21442
# Poissons Ratio (y) = 0.20985 0.27272
# Poissons Ratio (z) = 0.27177 0.32518
#
# Static dielectric constant tensor:
#      x y z
#    x 4.009380 0.000000 0.138230 
#    y 0.000000 4.201110 0.000000 
#    z 0.138230 0.000000 3.278530 
# 
# 
# High freq. dielectric constant tensor:
#      x y z
#    x 1.790470 0.000000 0.009660 
#    y 0.000000 1.786790 0.000000 
#    z 0.009660 0.000000 1.746300 
# 
# From -- ./inp_files/25590.got.cif
#   From: 2010.03.12/outbox.cif.g09.slc.cpg/sg8_13_cif.got.tgz:25590.got - 2010.03.31 10:45:26.
