data_PCOD8053850
_publ_section_title
;
Structure prediction by ZEFSAII (Michael W. Deem and Ramdas Pophale) SiO2 
 PCOD8053850
Probable space group: C M
;
_chemical_formula_sum "Si O2"
_cell_formula_units_Z 24
_cell_length_a 4.949458
_cell_length_b 25.045117
_cell_length_c 10.026888
_cell_angle_alpha 90.000000
_cell_angle_beta 59.843134
_cell_angle_gamma 90.000000
_cell_volume 1074.703957
_symmetry_space_group_name_H-M "C M"
_symmetry_group_IT_number 8
_symmetry_cell_setting 'monoclinic'
loop_
_space_group_symop_operation_xyz
x,y,z
x,-y,z
1/2+x,1/2+y,z
1/2+x,1/2-y,z
loop_
_atom_site_type_symbol
_atom_site_label
_atom_site_fract_x
_atom_site_fract_y
_atom_site_fract_z
Si Si1 0.212080 0.283750 0.263870
Si Si2 0.941906 0.603792 0.353675
Si Si3 0.777524 0.060633 0.517400
Si Si4 0.760432 0.599319 0.846994
Si Si5 0.563892 0.715729 0.903870
Si Si6 0.078213 0.438138 0.027213
O O1 0.469904 0.265096 0.306139
O O2 0.033327 0.335292 0.361933
O O3 0.381529 0.298418 0.084153
O O4 0.574327 0.598028 0.472687
O O5 0.145574 0.567311 0.401202
O O6 0.013392 0.587705 0.185431
O O7 0.515520 0.073073 0.690027
O O8 0.890446 0.000000 0.505831
O O9 0.721716 0.661211 0.815129
O O10 0.440336 0.567830 0.900381
O O11 0.864893 0.593767 0.974771
O O12 0.318621 0.737513 0.857082
O O13 0.980835 0.500000 0.050340
#
# Coordination Sequence:
#
# PCOD8053850 Si02
#       6
#     4   4   4   4   4   4
#     4  10  21  39  66  97 128 166 213 272 330 381
#     4  12  25  44  67  99 131 175 222 268 330 388
#     4  12  26  45  66  94 140 182 211 263 339 396
#     4  12  25  44  67  99 131 174 222 269 330 388
#     4  10  21  39  66  97 128 166 213 272 330 381
#     4  12  24  41  68  98 128 167 231 282 313 380
#
# _framework density 22.331733
#
# number of rings (size 3 to 8) (size 9 to 14) (size 15 to 20)
#    0.000    0.667    1.667    7.000    4.667    0.000 
#    0.000    5.000    0.000    0.000    0.000    0.000 
#    0.000    0.000    0.000    0.000    0.000    0.000 
#
# Total GULP energy -148895.574861 kJ/mol
# GULP energy per Si atom -12407.964572 kJ/mol
# Density = 2.228091 g / cm^3
# Si number density = 22.331733 Si / 1000 Ang^3
#
#
#
# Elastic Constant Matrix: (Units=GPa)
#
#
# Indices 1 2 3 4 5 6 
#
# 1 101.0712 18.0716 5.0231 0.0000 -13.0379 0.0000
# 2 18.0716 102.9143 29.6898 0.0000 -3.6821 0.0000
# 3 5.0231 29.6898 46.7571 0.0000 -6.3726 0.0000
# 4 0.0000 0.0000 0.0000 19.4009 0.0000 -9.6069
# 5 -13.0379 -3.6821 -6.3726 0.0000 35.6414 0.0000
# 6 0.0000 0.0000 0.0000 -9.6069 0.0000 34.6153
#
#
#
# Elastic Compliance Matrix: (Units=1/GPa)
#
#
# Indices 1 2 3 4 5 6 
#
# 1 0.010700 -0.001911 0.000585 0.000000 0.003821 0.000000
# 2 -0.001911 0.012238 -0.007675 0.000000 -0.000807 0.000000
# 3 0.000585 -0.007675 0.026772 0.000000 0.004208 0.000000
# 4 0.000000 0.000000 0.000000 0.059756 0.000000 0.016584
# 5 0.003821 -0.000807 0.004208 0.000000 0.030124 0.000000
# 6 0.000000 0.000000 0.000000 0.016584 0.000000 0.033492
#
#
# Mechanical properties :
#
#
# Convention : Reuss Voigt Hill
#
# Bulk Modulus (GPa) = 31.54012 39.59017 35.56514
# Shear Modulus (GPa) = 24.79516 31.12876 27.96196
#
# Velocity S-wave (km/s) = 3.33575 3.73758 3.54237
# Velocity P-wave (km/s) = 5.38427 6.03264 5.71765
#
# Compressibility (1/GPa) = 0.03170565
#
# Stress axis : x y z
#
# Youngs Moduli (GPa) = 93.46222 81.71421 37.35313
#
# Poissons Ratio (x) = 0.15614 -0.02184
# Poissons Ratio (y) = 0.17858 0.28670
# Poissons Ratio (z) = -0.05464 0.62719
#
# Static dielectric constant tensor:
#      x y z
#    x 4.307840 0.000000 -0.133330 
#    y 0.000000 4.248060 0.000000 
#    z -0.133330 0.000000 3.808450 
# 
# 
# High freq. dielectric constant tensor:
#      x y z
#    x 1.898620 0.000000 -0.013010 
#    y 0.000000 1.889960 0.000000 
#    z -0.013010 0.000000 1.861300 
# 
# From -- ./inp_files/18150.got.cif
#   From: 2010.03.12/outbox.cif.g09.slc.cpg/sg8_10_cif.got.tgz:18150.got - 2010.03.31 10:45:26.
