data_PCOD8053784
_publ_section_title
;
Structure prediction by ZEFSAII (Michael W. Deem and Ramdas Pophale) SiO2 
 PCOD8053784
Probable space group: C M
;
_chemical_formula_sum "Si O2"
_cell_formula_units_Z 32
_cell_length_a 10.864050
_cell_length_b 17.231179
_cell_length_c 14.178563
_cell_angle_alpha 90.000000
_cell_angle_beta 148.331478
_cell_angle_gamma 90.000000
_cell_volume 1393.483067
_symmetry_space_group_name_H-M "C M"
_symmetry_group_IT_number 8
_symmetry_cell_setting 'monoclinic'
loop_
_space_group_symop_operation_xyz
x,y,z
x,-y,z
1/2+x,1/2+y,z
1/2+x,1/2-y,z
loop_
_atom_site_type_symbol
_atom_site_label
_atom_site_fract_x
_atom_site_fract_y
_atom_site_fract_z
Si Si1 0.381810 0.303761 0.583900
Si Si2 0.077397 0.316483 0.000855
Si Si3 0.753562 0.219294 0.918176
Si Si4 0.916099 0.088778 0.776604
Si Si5 0.378478 0.913090 0.438378
Si Si6 0.159382 0.907195 0.637289
Si Si7 0.555636 0.412827 0.065906
Si Si8 0.080661 0.831123 0.391858
O O1 0.552771 0.228802 0.706950
O O2 0.480442 0.357413 0.732111
O O3 0.431665 0.356492 0.524385
O O4 0.124054 0.264023 0.426901
O O5 0.153585 0.263689 0.959205
O O6 0.972995 0.269113 0.021499
O O7 0.892798 0.382637 0.847038
O O8 0.310350 0.352874 0.199431
O O9 0.845941 0.131476 0.982376
O O10 0.648227 0.105564 0.628458
O O11 0.078803 0.112536 0.971399
O O12 0.954751 0.000000 0.770059
O O13 0.220596 0.852280 0.389458
O O14 0.319650 0.000000 0.434818
O O15 0.307681 0.904289 0.281252
O O16 0.186065 0.880795 0.546764
O O17 0.118016 0.000000 0.619080
O O18 0.461348 0.500000 0.005923
#
# Coordination Sequence:
#
# PCOD8053784 Si02
#       8
#     4   4   4   4   4   4   4   4
#     4  11  25  43  69  97 137 177 229 278 340 418
#     4  11  26  42  71  98 139 181 232 292 345 421
#     4  11  22  44  63  99 134 176 225 282 347 406
#     4  10  22  41  66  94 129 172 213 273 339 401
#     4  10  22  39  63  98 129 164 221 276 331 400
#     4  11  27  49  69  99 142 187 230 285 350 419
#     4  10  21  37  63  92 127 164 211 273 335 392
#     4  12  25  41  70 101 133 179 231 283 343 407
#
# _framework density 22.964039
#
# number of rings (size 3 to 8) (size 9 to 14) (size 15 to 20)
#    0.000    1.250    2.500    2.250    7.000    1.500 
#    0.000    0.000    0.000    3.000    0.000    0.000 
#    0.000    0.000    0.000    0.000    0.000    0.000 
#
# Total GULP energy -198234.699145 kJ/mol
# GULP energy per Si atom -12389.668697 kJ/mol
# Density = 2.291177 g / cm^3
# Si number density = 22.964039 Si / 1000 Ang^3
#
#
#
# Elastic Constant Matrix: (Units=GPa)
#
#
# Indices 1 2 3 4 5 6 
#
# 1 79.9667 30.4499 11.1539 0.0062 -12.8303 0.0007
# 2 30.4499 89.2728 25.5446 0.0056 -5.9864 0.0003
# 3 11.1539 25.5446 95.9389 0.0040 -12.9256 0.0073
# 4 0.0062 0.0056 0.0040 18.1540 0.0050 -3.0114
# 5 -12.8303 -5.9864 -12.9256 0.0050 27.8485 0.0065
# 6 0.0007 0.0003 0.0073 -3.0114 0.0065 31.9915
#
#
#
# Elastic Compliance Matrix: (Units=1/GPa)
#
#
# Indices 1 2 3 4 5 6 
#
# 1 0.015315 -0.004913 0.000358 -0.000006 0.006166 -0.000002
# 2 -0.004913 0.013738 -0.003193 -0.000001 -0.000793 0.000001
# 3 0.000358 -0.003193 0.011906 -0.000004 0.005005 -0.000004
# 4 -0.000006 -0.000001 -0.000004 0.055958 -0.000016 0.005267
# 5 0.006166 -0.000793 0.005005 -0.000016 0.040902 -0.000011
# 6 -0.000002 0.000001 -0.000004 0.005267 -0.000011 0.031754
#
#
# Mechanical properties :
#
#
# Convention : Reuss Voigt Hill
#
# Bulk Modulus (GPa) = 39.27211 44.38616 41.82913
# Shear Modulus (GPa) = 25.83211 28.80081 27.31646
#
# Velocity S-wave (km/s) = 3.35758 3.54527 3.45270
# Velocity P-wave (km/s) = 5.67185 6.01075 5.84375
#
# Compressibility (1/GPa) = 0.02546337
#
# Stress axis : x y z
#
# Youngs Moduli (GPa) = 65.29409 72.79082 83.98979
#
# Poissons Ratio (x) = 0.35762 -0.03009
# Poissons Ratio (y) = 0.32078 0.26822
# Poissons Ratio (z) = -0.02340 0.23246
#
# Static dielectric constant tensor:
#      x y z
#    x 4.033490 0.000000 -0.169880 
#    y 0.000000 4.232840 -0.000010 
#    z -0.169880 -0.000010 4.290030 
# 
# 
# High freq. dielectric constant tensor:
#      x y z
#    x 1.897440 0.000000 -0.012330 
#    y 0.000000 1.906480 0.000000 
#    z -0.012330 0.000000 1.907780 
# 
# From -- ./inp_files/26284.got.cif
#   From: 2010.03.12/outbox.cif.g09.slc.cpg/sg8_14_cif.got.tgz:26284.got - 2010.03.31 10:45:26.
