data_PCOD8053205
_publ_section_title
;
Structure prediction by ZEFSAII (Michael W. Deem and Ramdas Pophale) SiO2 
 PCOD8053205
Probable space group: C M
;
_chemical_formula_sum "Si O2"
_cell_formula_units_Z 32
_cell_length_a 16.120594
_cell_length_b 9.210239
_cell_length_c 20.591639
_cell_angle_alpha 90.000000
_cell_angle_beta 147.942518
_cell_angle_gamma 90.000000
_cell_volume 1622.740450
_symmetry_space_group_name_H-M "C M"
_symmetry_group_IT_number 8
_symmetry_cell_setting 'monoclinic'
loop_
_space_group_symop_operation_xyz
x,y,z
x,-y,z
1/2+x,1/2+y,z
1/2+x,1/2-y,z
loop_
_atom_site_type_symbol
_atom_site_label
_atom_site_fract_x
_atom_site_fract_y
_atom_site_fract_z
Si Si1 0.992740 0.328261 0.513800
Si Si2 0.277530 0.157424 0.658448
Si Si3 0.953408 0.164574 0.608648
Si Si4 0.682124 0.654931 0.455685
Si Si5 0.870275 0.330725 0.100464
Si Si6 0.058854 0.164572 0.824577
Si Si7 0.699753 0.172510 0.256802
Si Si8 0.830665 0.833441 0.207851
O O1 0.979762 0.500000 0.500445
O O2 0.039948 0.274002 0.617319
O O3 0.831863 0.256460 0.384030
O O4 0.137712 0.271942 0.568989
O O5 0.283133 0.124666 0.586398
O O6 0.441202 0.232271 0.787335
O O7 0.256767 0.000000 0.681169
O O8 0.769318 0.209938 0.479974
O O9 0.034545 0.182468 0.731775
O O10 0.964753 0.000000 0.591391
O O11 0.690547 0.500000 0.421357
O O12 0.503085 0.692876 0.351585
O O13 0.882446 0.500000 0.122981
O O14 0.819075 0.257520 0.134114
O O15 0.033606 0.276398 0.177123
O O16 0.736440 0.293629 0.959229
O O17 0.022391 0.000000 0.821728
O O18 0.712222 0.213806 0.187701
O O19 0.726106 0.000000 0.281495
O O20 0.799863 0.000000 0.168731
#
# Coordination Sequence:
#
# PCOD8053205 Si02
#       8
#     4   4   4   4   4   4   4   4
#     4  12  23  35  55  87 122 150 186 242 302 356
#     4  10  19  35  59  83 111 148 187 233 288 348
#     4  10  20  34  55  81 112 151 193 237 292 356
#     4   9  17  32  54  80 111 143 181 235 292 348
#     4  10  22  40  62  85 118 160 204 247 294 350
#     4   9  20  40  59  81 114 153 197 243 288 344
#     4  10  21  40  62  87 120 161 201 244 295 359
#     4  10  20  36  58  86 120 154 197 247 297 351
#
# _framework density 19.719726999999999
#
# number of rings (size 3 to 8) (size 9 to 14) (size 15 to 20)
#    0.000    2.000    1.250    2.625    0.000    5.000 
#    2.250    0.000    0.000    0.000    0.000    0.000 
#    0.000    0.000    0.000    0.000    0.000    0.000 
#
# Total GULP energy -198209.957966 kJ/mol
# GULP energy per Si atom -12388.122373 kJ/mol
# Density = 1.967484 g / cm^3
# Si number density = 19.719727 Si / 1000 Ang^3
#
#
#
# Elastic Constant Matrix: (Units=GPa)
#
#
# Indices 1 2 3 4 5 6 
#
# 1 96.1646 50.8957 41.8774 0.0003 0.7440 0.0000
# 2 50.8957 108.6940 54.7002 -0.0014 6.1710 -0.0002
# 3 41.8774 54.7002 106.6734 -0.0025 15.2375 -0.0005
# 4 0.0003 -0.0014 -0.0025 20.2926 0.0002 -1.5484
# 5 0.7440 6.1710 15.2375 0.0002 21.3917 0.0001
# 6 0.0000 -0.0002 -0.0005 -1.5484 0.0001 31.9539
#
#
#
# Elastic Compliance Matrix: (Units=1/GPa)
#
#
# Indices 1 2 3 4 5 6 
#
# 1 0.014734 -0.005303 -0.003574 -0.000001 0.003563 0.000000
# 2 -0.005303 0.014330 -0.005235 0.000000 -0.000221 0.000000
# 3 -0.003574 -0.005235 0.014727 0.000002 -0.008856 0.000000
# 4 -0.000001 0.000000 0.000002 0.049462 -0.000002 0.002397
# 5 0.003563 -0.000221 -0.008856 -0.000002 0.052995 0.000000
# 6 0.000000 0.000000 0.000000 0.002397 0.000000 0.031411
#
#
# Mechanical properties :
#
#
# Convention : Reuss Voigt Hill
#
# Bulk Modulus (GPa) = 64.23656 67.38652 65.81154
# Shear Modulus (GPa) = 23.68856 25.66489 24.67672
#
# Velocity S-wave (km/s) = 3.46968 3.61152 3.54131
# Velocity P-wave (km/s) = 6.97833 7.18590 7.08287
#
# Compressibility (1/GPa) = 0.01556746
#
# Stress axis : x y z
#
# Youngs Moduli (GPa) = 67.86886 69.78244 67.90324
#
# Poissons Ratio (x) = 0.37005 0.24269
# Poissons Ratio (y) = 0.35991 0.35547
# Poissons Ratio (z) = 0.24257 0.36531
#
# Static dielectric constant tensor:
#      x y z
#    x 3.687760 0.000000 0.068830 
#    y 0.000000 3.905910 0.000000 
#    z 0.068830 0.000000 3.458360 
# 
# 
# High freq. dielectric constant tensor:
#      x y z
#    x 1.764820 0.000000 0.005230 
#    y 0.000000 1.771760 0.000000 
#    z 0.005230 0.000000 1.749820 
# 
# From -- ./inp_files/32122.got.cif
#   From: 2010.03.12/outbox.cif.g09.slc.cpg/sg8_17_cif.got.tgz:32122.got - 2010.03.31 10:45:26.
