data_PCOD8053261
_publ_section_title
;
Structure prediction by ZEFSAII (Michael W. Deem and Ramdas Pophale) SiO2 
 PCOD8053261
Probable space group: C M
;
_chemical_formula_sum "Si O2"
_cell_formula_units_Z 32
_cell_length_a 8.992228
_cell_length_b 18.746118
_cell_length_c 14.256942
_cell_angle_alpha 90.000000
_cell_angle_beta 139.454318
_cell_angle_gamma 90.000000
_cell_volume 1562.264452
_symmetry_space_group_name_H-M "C M"
_symmetry_group_IT_number 8
_symmetry_cell_setting 'monoclinic'
loop_
_space_group_symop_operation_xyz
x,y,z
x,-y,z
1/2+x,1/2+y,z
1/2+x,1/2-y,z
loop_
_atom_site_type_symbol
_atom_site_label
_atom_site_fract_x
_atom_site_fract_y
_atom_site_fract_z
Si Si1 0.602240 0.174565 0.671860
Si Si2 0.697963 0.580668 0.177467
Si Si3 0.739408 0.839450 0.172402
Si Si4 0.532285 0.693510 0.768598
Si Si5 0.871319 0.417463 0.875348
Si Si6 0.206890 0.084225 0.394825
Si Si7 0.342912 0.202076 0.101785
Si Si8 0.210032 0.578916 0.881461
O O1 0.542566 0.248266 0.692318
O O2 0.380563 0.128520 0.541824
O O3 0.758199 0.131257 0.819520
O O4 0.763208 0.186169 0.659484
O O5 0.773085 0.500000 0.184555
O O6 0.779294 0.598897 0.321509
O O7 0.786533 0.635077 0.141585
O O8 0.422487 0.584895 0.054475
O O9 0.609713 0.805453 0.200330
O O10 0.820573 0.775921 0.144845
O O11 0.956291 0.887462 0.303407
O O12 0.549138 0.890350 0.037035
O O13 0.628355 0.621286 0.768415
O O14 0.676481 0.710744 0.931786
O O15 0.826548 0.500000 0.870832
O O16 0.976384 0.401358 0.823357
O O17 0.219443 0.000000 0.423680
O O18 0.191861 0.500000 0.830627
#
# Coordination Sequence:
#
# PCOD8053261 Si02
#       8
#     4   4   4   4   4   4   4   4
#     4  12  24  42  63  92 132 171 211 259 319 379
#     4  10  21  39  64  95 128 163 212 264 314 375
#     4  11  22  37  62  93 129 166 213 262 321 376
#     4  11  24  39  63  94 131 165 218 268 316 377
#     4  10  21  37  63  95 126 162 210 273 325 368
#     4  11  25  44  65  93 133 173 210 256 320 393
#     4  11  22  38  65  98 127 164 213 277 317 369
#     4  10  19  36  63  90 122 164 211 259 312 371
#
# _framework density 20.483089
#
# number of rings (size 3 to 8) (size 9 to 14) (size 15 to 20)
#    0.000    1.250    2.500    4.500    0.000    5.500 
#    0.000    1.250    0.000    1.500    0.000    0.000 
#    0.000    0.000    0.000    0.000    0.000    0.000 
#
# Total GULP energy -198375.009963 kJ/mol
# GULP energy per Si atom -12398.438123 kJ/mol
# Density = 2.043647 g / cm^3
# Si number density = 20.483089 Si / 1000 Ang^3
#
#
#
# Elastic Constant Matrix: (Units=GPa)
#
#
# Indices 1 2 3 4 5 6 
#
# 1 125.7353 73.8471 27.9857 0.0004 18.3783 -0.0021
# 2 73.8471 142.8205 47.7897 0.0001 6.3034 -0.0009
# 3 27.9857 47.7897 68.1901 -0.0024 9.9986 0.0033
# 4 0.0004 0.0001 -0.0024 26.8959 -0.0016 5.6419
# 5 18.3783 6.3034 9.9986 -0.0016 27.8282 0.0014
# 6 -0.0021 -0.0009 0.0033 5.6419 0.0014 32.8059
#
#
#
# Elastic Compliance Matrix: (Units=1/GPa)
#
#
# Indices 1 2 3 4 5 6 
#
# 1 0.012621 -0.006306 0.000266 -0.000001 -0.007003 0.000001
# 2 -0.006306 0.012299 -0.006580 0.000000 0.003743 0.000001
# 3 0.000266 -0.006580 0.020030 0.000002 -0.005882 -0.000002
# 4 -0.000001 0.000000 0.000002 0.038572 0.000002 -0.006633
# 5 -0.007003 0.003743 -0.005882 0.000002 0.041825 -0.000002
# 6 0.000001 0.000001 -0.000002 -0.006633 -0.000002 0.031623
#
#
# Mechanical properties :
#
#
# Convention : Reuss Voigt Hill
#
# Bulk Modulus (GPa) = 50.73554 70.66565 60.70060
# Shear Modulus (GPa) = 26.48585 29.98088 28.23337
#
# Velocity S-wave (km/s) = 3.59981 3.82997 3.71667
# Velocity P-wave (km/s) = 6.48856 7.35749 6.93665
#
# Compressibility (1/GPa) = 0.01971005
#
# Stress axis : x y z
#
# Youngs Moduli (GPa) = 79.23234 81.30686 49.92564
#
# Poissons Ratio (x) = 0.51272 -0.01330
# Poissons Ratio (y) = 0.49964 0.32853
# Poissons Ratio (z) = -0.02111 0.53503
#
# Static dielectric constant tensor:
#      x y z
#    x 3.885750 0.000000 0.083930 
#    y 0.000000 3.908890 0.000000 
#    z 0.083930 0.000000 3.413470 
# 
# 
# High freq. dielectric constant tensor:
#      x y z
#    x 1.808180 0.000000 0.003850 
#    y 0.000000 1.821050 0.000000 
#    z 0.003850 0.000000 1.769370 
# 
# From -- ./inp_files/25601.got.cif
#   From: 2010.03.12/outbox.cif.g09.slc.cpg/sg8_13_cif.got.tgz:25601.got - 2010.03.31 10:45:26.
