data_PCOD8053775
_publ_section_title
;
Structure prediction by ZEFSAII (Michael W. Deem and Ramdas Pophale) SiO2 
 PCOD8053775
Probable space group: C M
;
_chemical_formula_sum "Si O2"
_cell_formula_units_Z 32
_cell_length_a 23.888557
_cell_length_b 9.135648
_cell_length_c 24.986896
_cell_angle_alpha 90.000000
_cell_angle_beta 16.901642
_cell_angle_gamma 90.000000
_cell_volume 1585.370802
_symmetry_space_group_name_H-M "C M"
_symmetry_group_IT_number 8
_symmetry_cell_setting 'monoclinic'
loop_
_space_group_symop_operation_xyz
x,y,z
x,-y,z
1/2+x,1/2+y,z
1/2+x,1/2-y,z
loop_
_atom_site_type_symbol
_atom_site_label
_atom_site_fract_x
_atom_site_fract_y
_atom_site_fract_z
Si Si1 0.447680 0.827458 0.308020
Si Si2 0.145246 0.170642 0.028801
Si Si3 0.532642 0.171735 0.911686
Si Si4 0.585208 0.837904 0.981167
Si Si5 0.671255 0.828262 0.210555
Si Si6 0.036025 0.161564 0.548730
Si Si7 0.468399 0.671270 0.492923
Si Si8 0.589582 0.830308 0.601446
O O1 0.554232 0.785078 0.264923
O O2 0.233450 0.759638 0.507941
O O3 0.433889 0.000000 0.312108
O O4 0.564992 0.757465 0.152242
O O5 0.041042 0.226603 0.069861
O O6 0.372947 0.202797 0.817838
O O7 0.100736 0.000000 0.075886
O O8 0.483896 0.211124 0.018465
O O9 0.746385 0.220666 0.699988
O O10 0.505185 0.000000 0.927435
O O11 0.383392 0.258874 0.011160
O O12 0.808896 0.843900 0.763313
O O13 0.513833 0.000000 0.063559
O O14 0.562722 0.765744 0.360843
O O15 0.692672 0.000000 0.197496
O O16 0.127872 0.278796 0.505203
O O17 0.079490 0.204322 0.447360
O O18 0.120820 0.000000 0.484045
O O19 0.484670 0.500000 0.464207
O O20 0.640840 0.000000 0.558065
#
# Coordination Sequence:
#
# PCOD8053775 Si02
#       8
#     4   4   4   4   4   4   4   4
#     4  11  25  42  57  76 107 150 196 233 270 327
#     4  10  21  37  59  87 115 143 179 228 283 330
#     4   9  19  37  61  86 112 146 185 224 271 328
#     4   8  15  31  56  85 115 146 180 217 265 331
#     4  11  25  40  55  80 111 146 190 235 278 325
#     4   8  15  31  56  85 115 146 180 217 265 331
#     4   9  19  37  61  86 112 146 185 224 271 328
#     4  10  21  37  59  87 115 143 179 228 283 330
#
# _framework density 20.184552
#
# number of rings (size 3 to 8) (size 9 to 14) (size 15 to 20)
#    0.000    2.500    0.000    3.000    0.000    7.000 
#    0.000    8.750    0.000    0.000    0.000    0.000 
#    0.000    0.000    0.000    0.000    0.000    0.000 
#
# Total GULP energy -198391.869668 kJ/mol
# GULP energy per Si atom -12399.491854 kJ/mol
# Density = 2.013861 g / cm^3
# Si number density = 20.184552 Si / 1000 Ang^3
#
#
#
# Elastic Constant Matrix: (Units=GPa)
#
#
# Indices 1 2 3 4 5 6 
#
# 1 73.6633 30.5876 -6.1372 -0.0183 -10.0981 0.0056
# 2 30.5876 69.7688 5.2749 0.0025 -8.1530 0.0061
# 3 -6.1372 5.2749 25.7993 -0.0250 -0.2383 0.0306
# 4 -0.0183 0.0025 -0.0250 28.2297 0.0023 -1.0405
# 5 -10.0981 -8.1530 -0.2383 0.0023 31.0887 -0.0074
# 6 0.0056 0.0061 0.0306 -1.0405 -0.0074 34.9452
#
#
#
# Elastic Compliance Matrix: (Units=1/GPa)
#
#
# Indices 1 2 3 4 5 6 
#
# 1 0.017830 -0.007819 0.005875 0.000017 0.003786 -0.000005
# 2 -0.007819 0.018449 -0.005611 -0.000012 0.002256 0.000003
# 3 0.005875 -0.005611 0.041313 0.000040 0.000753 -0.000035
# 4 0.000017 -0.000012 0.000040 0.035463 0.000000 0.001056
# 5 0.003786 0.002256 0.000753 0.000000 0.033993 0.000006
# 6 -0.000005 0.000003 -0.000035 0.001056 0.000006 0.028648
#
#
# Mechanical properties :
#
#
# Convention : Reuss Voigt Hill
#
# Bulk Modulus (GPa) = 16.00456 25.40911 20.70683
# Shear Modulus (GPa) = 23.62586 28.15314 25.88950
#
# Velocity S-wave (km/s) = 3.42496 3.73874 3.58528
# Velocity P-wave (km/s) = 4.85662 5.59046 5.23641
#
# Compressibility (1/GPa) = 0.06248221
#
# Stress axis : x y z
#
# Youngs Moduli (GPa) = 56.08378 54.20412 24.20563
#
# Poissons Ratio (x) = 0.42382 -0.14221
# Poissons Ratio (y) = 0.43851 0.13582
# Poissons Ratio (z) = -0.32950 0.30415
#
# Static dielectric constant tensor:
#      x y z
#    x 3.864250 -0.000010 -0.130380 
#    y -0.000010 3.644270 0.000020 
#    z -0.130380 0.000020 3.636270 
# 
# 
# High freq. dielectric constant tensor:
#      x y z
#    x 1.786660 0.000000 -0.007010 
#    y 0.000000 1.782230 0.000000 
#    z -0.007010 0.000000 1.792740 
# 
# From -- ./inp_files/32363.got.cif
#   From: 2010.03.12/outbox.cif.g09.slc.cpg/sg8_17_cif.got.tgz:32363.got - 2010.03.31 10:45:26.
