data_PCOD8053064
_publ_section_title
;
Structure prediction by ZEFSAII (Michael W. Deem and Ramdas Pophale) SiO2 
 PCOD8053064
Probable space group: C M
;
_chemical_formula_sum "Si O2"
_cell_formula_units_Z 32
_cell_length_a 28.718741
_cell_length_b 9.109281
_cell_length_c 12.212457
_cell_angle_alpha 90.000000
_cell_angle_beta 148.964472
_cell_angle_gamma 90.000000
_cell_volume 1647.175036
_symmetry_space_group_name_H-M "C M"
_symmetry_group_IT_number 8
_symmetry_cell_setting 'monoclinic'
loop_
_space_group_symop_operation_xyz
x,y,z
x,-y,z
1/2+x,1/2+y,z
1/2+x,1/2-y,z
loop_
_atom_site_type_symbol
_atom_site_label
_atom_site_fract_x
_atom_site_fract_y
_atom_site_fract_z
Si Si1 0.217310 0.674092 0.478110
Si Si2 0.496002 0.671013 0.460823
Si Si3 0.216831 0.337954 0.717683
Si Si4 0.028519 0.826511 0.097929
Si Si5 0.503312 0.164368 0.261685
Si Si6 0.870195 0.827173 0.623979
Si Si7 0.703727 0.328518 0.902358
Si Si8 0.345376 0.673330 0.329872
O O1 0.198908 0.500000 0.432605
O O2 0.255720 0.710893 0.677629
O O3 0.125338 0.758536 0.267730
O O4 0.289528 0.734852 0.536823
O O5 0.489864 0.500000 0.420295
O O6 0.461373 0.757866 0.284102
O O7 0.432002 0.716557 0.431967
O O8 0.598296 0.713329 0.699534
O O9 0.252579 0.500000 0.822928
O O10 0.110028 0.341265 0.489241
O O11 0.245068 0.225258 0.869469
O O12 0.980303 0.758442 0.107759
O O13 0.037246 0.000000 0.133888
O O14 0.966709 0.785482 0.869424
O O15 0.463472 0.000000 0.170653
O O16 0.863444 0.763606 0.487832
O O17 0.859167 0.000000 0.598375
O O18 0.720710 0.500000 0.946216
O O19 0.754625 0.248385 0.103346
O O20 0.329710 0.500000 0.298542
#
# Coordination Sequence:
#
# PCOD8053064 Si02
#       8
#     4   4   4   4   4   4   4   4
#     4   9  18  35  56  78 106 139 174 213 259 311
#     4   9  19  35  55  78 106 139 173 213 262 313
#     4   8  15  29  51  77 104 135 168 203 252 317
#     4  10  19  33  55  82 109 137 172 215 262 310
#     4   9  17  31  53  81 110 137 169 211 260 314
#     4   9  20  37  55  75 102 140 183 218 253 310
#     4  10  20  34  53  79 108 134 167 218 268 307
#     4  10  21  38  56  74 101 141 184 217 254 312
#
# _framework density 19.427201
#
# number of rings (size 3 to 8) (size 9 to 14) (size 15 to 20)
#    0.000    2.750    0.000    1.875    0.000    6.000 
#    0.000    6.875    0.000    0.000    0.000    0.000 
#    0.000    0.000    0.000    0.000    0.000    0.000 
#
# Total GULP energy -198382.985584 kJ/mol
# GULP energy per Si atom -12398.936599 kJ/mol
# Density = 1.938298 g / cm^3
# Si number density = 19.427201 Si / 1000 Ang^3
#
#
#
# Elastic Constant Matrix: (Units=GPa)
#
#
# Indices 1 2 3 4 5 6 
#
# 1 104.8848 17.6688 18.6164 0.0000 -10.5861 0.0000
# 2 17.6688 52.6722 17.2776 0.0000 -2.0118 0.0000
# 3 18.6164 17.2776 64.4639 0.0000 -12.2621 0.0000
# 4 0.0000 0.0000 0.0000 29.2187 0.0000 -1.6726
# 5 -10.5861 -2.0118 -12.2621 0.0000 30.0831 0.0000
# 6 0.0000 0.0000 0.0000 -1.6726 0.0000 20.0634
#
#
#
# Elastic Compliance Matrix: (Units=1/GPa)
#
#
# Indices 1 2 3 4 5 6 
#
# 1 0.010616 -0.002877 -0.001757 0.000000 0.002827 0.000000
# 2 -0.002877 0.021620 -0.005292 0.000000 -0.001723 0.000000
# 3 -0.001757 -0.005292 0.018703 0.000000 0.006652 0.000000
# 4 0.000000 0.000000 0.000000 0.034389 0.000000 0.002867
# 5 0.002827 -0.001723 0.006652 0.000000 0.036832 0.000000
# 6 0.000000 0.000000 0.000000 0.002867 0.000000 0.050081
#
#
# Mechanical properties :
#
#
# Convention : Reuss Voigt Hill
#
# Bulk Modulus (GPa) = 32.16586 36.57184 34.36885
# Shear Modulus (GPa) = 24.69674 27.10357 25.90015
#
# Velocity S-wave (km/s) = 3.56932 3.73920 3.65525
# Velocity P-wave (km/s) = 5.79481 6.12439 5.96188
#
# Compressibility (1/GPa) = 0.03108887
#
# Stress axis : x y z
#
# Youngs Moduli (GPa) = 94.19652 46.25268 53.46604
#
# Poissons Ratio (x) = 0.13306 0.09394
# Poissons Ratio (y) = 0.27099 0.28293
# Poissons Ratio (z) = 0.16550 0.24476
#
# Static dielectric constant tensor:
#      x y z
#    x 3.786480 0.000000 -0.190690 
#    y 0.000000 3.458800 0.000000 
#    z -0.190690 0.000000 3.483910 
# 
# 
# High freq. dielectric constant tensor:
#      x y z
#    x 1.756200 0.000000 -0.004010 
#    y 0.000000 1.741800 0.000000 
#    z -0.004010 0.000000 1.751180 
# 
# From -- ./inp_files/22776.got.cif
#   From: 2010.03.12/outbox.cif.g09.slc.cpg/sg8_12_cif.got.tgz:22776.got - 2010.03.31 10:45:26.
