data_PCOD8053334
_publ_section_title
;
Structure prediction by ZEFSAII (Michael W. Deem and Ramdas Pophale) SiO2 
 PCOD8053334
Probable space group: C M
;
_chemical_formula_sum "Si O2"
_cell_formula_units_Z 32
_cell_length_a 28.390154
_cell_length_b 8.936447
_cell_length_c 21.655020
_cell_angle_alpha 90.000000
_cell_angle_beta 18.520367
_cell_angle_gamma 90.000000
_cell_volume 1745.134022
_symmetry_space_group_name_H-M "C M"
_symmetry_group_IT_number 8
_symmetry_cell_setting 'monoclinic'
loop_
_space_group_symop_operation_xyz
x,y,z
x,-y,z
1/2+x,1/2+y,z
1/2+x,1/2-y,z
loop_
_atom_site_type_symbol
_atom_site_label
_atom_site_fract_x
_atom_site_fract_y
_atom_site_fract_z
Si Si1 0.289110 0.823260 0.673280
Si Si2 0.452941 0.322429 0.101237
Si Si3 0.823370 0.322243 0.383298
Si Si4 0.491979 0.328749 0.823391
Si Si5 0.039920 0.172227 0.424118
Si Si6 0.821225 0.323718 0.146164
Si Si7 0.707724 0.169260 0.111870
Si Si8 0.454243 0.171913 0.346209
O O1 0.385464 0.763342 0.612042
O O2 0.359320 0.761512 0.521665
O O3 0.294958 0.000000 0.668791
O O4 0.121765 0.764244 0.885961
O O5 0.444519 0.500000 0.108717
O O6 0.387670 0.265191 0.246024
O O7 0.356172 0.255548 0.166627
O O8 0.841278 0.500000 0.351038
O O9 0.652769 0.273591 0.603236
O O10 0.910943 0.257404 0.334384
O O11 0.499013 0.500000 0.837437
O O12 0.430733 0.234124 0.956620
O O13 0.385648 0.312437 0.894607
O O14 0.147490 0.213574 0.347931
O O15 0.137429 0.207085 0.242979
O O16 0.996026 0.000000 0.480046
O O17 0.845787 0.500000 0.121589
O O18 0.631991 0.193324 0.138486
O O19 0.663946 0.000000 0.188630
O O20 0.408585 0.000000 0.397292
#
# Coordination Sequence:
#
# PCOD8053334 Si02
#       8
#     4   4   4   4   4   4   4   4
#     4   9  18  34  55  76  99 131 172 212 251 303
#     4  11  23  37  52  72 102 140 180 217 256 304
#     4  10  20  34  50  70 101 137 172 211 254 299
#     4   9  17  31  53  77 101 133 170 207 250 302
#     4   9  17  29  49  79 107 128 158 206 259 305
#     4  10  20  34  54  80 107 134 169 213 258 306
#     4   8  14  27  48  73  99 128 164 203 245 297
#     4   8  14  28  51  73  92 121 161 203 247 296
#
# _framework density 18.3367
#
# number of rings (size 3 to 8) (size 9 to 14) (size 15 to 20)
#    0.000    2.750    0.000    2.625    0.000    5.000 
#    0.000    3.750    0.000    3.000    0.000    0.000 
#    0.000    0.000    0.000    0.000    0.000    0.000 
#
# Total GULP energy -198247.922132 kJ/mol
# GULP energy per Si atom -12390.495133 kJ/mol
# Density = 1.829496 g / cm^3
# Si number density = 18.336700 Si / 1000 Ang^3
#
#
#
# Elastic Constant Matrix: (Units=GPa)
#
#
# Indices 1 2 3 4 5 6 
#
# 1 155.8946 45.4824 92.2676 -0.0001 -25.8115 0.0000
# 2 45.4824 46.8390 30.3318 -0.0005 -6.1907 0.0004
# 3 92.2676 30.3318 72.0279 -0.0002 -16.0675 0.0003
# 4 -0.0001 -0.0005 -0.0002 22.5942 0.0000 0.1672
# 5 -25.8115 -6.1907 -16.0675 0.0000 30.9011 0.0000
# 6 0.0000 0.0004 0.0003 0.1672 0.0000 25.6082
#
#
#
# Elastic Compliance Matrix: (Units=1/GPa)
#
#
# Indices 1 2 3 4 5 6 
#
# 1 0.028276 -0.005594 -0.032632 0.000000 0.005530 0.000000
# 2 -0.005594 0.030472 -0.006048 0.000001 -0.001713 0.000000
# 3 -0.032632 -0.006048 0.058688 0.000000 0.002047 -0.000001
# 4 0.000000 0.000001 0.000000 0.044261 0.000000 -0.000289
# 5 0.005530 -0.001713 0.002047 0.000000 0.037702 0.000000
# 6 0.000000 0.000000 -0.000001 -0.000289 0.000000 0.039052
#
#
# Mechanical properties :
#
#
# Convention : Reuss Voigt Hill
#
# Bulk Modulus (GPa) = 34.61625 67.88056 51.24841
# Shear Modulus (GPa) = 14.85318 22.93267 18.89292
#
# Velocity S-wave (km/s) = 2.84918 3.54028 3.21336
# Velocity P-wave (km/s) = 5.45370 7.33558 6.46350
#
# Compressibility (1/GPa) = 0.02888817
#
# Stress axis : x y z
#
# Youngs Moduli (GPa) = 35.36608 32.81686 17.03928
#
# Poissons Ratio (x) = 0.18359 0.55602
# Poissons Ratio (y) = 0.19785 0.10305
# Poissons Ratio (z) = 1.15405 0.19847
#
# Static dielectric constant tensor:
#      x y z
#    x 3.608790 0.000000 -0.475500 
#    y 0.000000 3.235400 0.000000 
#    z -0.475500 0.000000 3.438180 
# 
# 
# High freq. dielectric constant tensor:
#      x y z
#    x 1.710220 0.000000 -0.038100 
#    y 0.000000 1.695420 0.000000 
#    z -0.038100 0.000000 1.695760 
# 
# From -- ./inp_files/22756.got.cif
#   From: 2010.03.12/outbox.cif.g09.slc.cpg/sg8_12_cif.got.tgz:22756.got - 2010.03.31 10:45:26.
