data_PCOD8053979
_publ_section_title
;
Structure prediction by ZEFSAII (Michael W. Deem and Ramdas Pophale) SiO2 
 PCOD8053979
Probable space group: C M
;
_chemical_formula_sum "Si O2"
_cell_formula_units_Z 24
_cell_length_a 14.699005
_cell_length_b 7.548673
_cell_length_c 11.913745
_cell_angle_alpha 90.000000
_cell_angle_beta 70.761612
_cell_angle_gamma 90.000000
_cell_volume 1248.103280
_symmetry_space_group_name_H-M "C M"
_symmetry_group_IT_number 8
_symmetry_cell_setting 'monoclinic'
loop_
_space_group_symop_operation_xyz
x,y,z
x,-y,z
1/2+x,1/2+y,z
1/2+x,1/2-y,z
loop_
_atom_site_type_symbol
_atom_site_label
_atom_site_fract_x
_atom_site_fract_y
_atom_site_fract_z
Si Si1 0.722410 0.705874 0.744720
Si Si2 0.607776 0.294439 0.575728
Si Si3 0.143346 0.688332 0.009179
Si Si4 0.211209 0.500000 0.399204
Si Si5 0.419181 0.204963 0.558673
Si Si6 0.924487 0.000000 0.384837
Si Si7 0.493016 0.500000 0.107698
Si Si8 0.770518 0.000000 0.120630
O O1 0.731687 0.500000 0.766477
O O2 0.640593 0.750793 0.687738
O O3 0.820506 0.777750 0.650180
O O4 0.700825 0.799300 0.869688
O O5 0.626895 0.500000 0.538385
O O6 0.657594 0.178507 0.458572
O O7 0.496503 0.239025 0.624532
O O8 0.087562 0.500000 0.032608
O O9 0.228031 0.675560 0.071985
O O10 0.059862 0.832696 0.052506
O O11 0.311469 0.500000 0.419867
O O12 0.222265 0.500000 0.261705
O O13 0.453350 0.321005 0.438362
O O14 0.412119 0.000000 0.523730
O O15 0.978104 0.000000 0.245676
O O16 0.389268 0.500000 0.083217
#
# Coordination Sequence:
#
# PCOD8053979 Si02
#       8
#     4   4   4   2   4   2   2   2
#     4  10  22  42  62  93 133 162 216 269 320 390
#     4  11  23  36  61  95 127 167 206 258 329 391
#     4  10  24  44  69  91 129 182 219 273 331 384
#     4  11  22  43  61  89 134 162 211 276 317 383
#     4  11  23  37  60  98 129 166 212 261 326 392
#     4  11  24  39  68  87 132 179 206 266 336 374
#     4  11  24  48  63  99 136 171 231 278 316 392
#     4   9  26  44  64 101 124 174 232 270 319 397
#
# _framework density 19.229178000000001
#
# number of rings (size 3 to 8) (size 9 to 14) (size 15 to 20)
#    0.500    1.000    4.167    0.000    4.667    2.000 
#    1.500    3.333    0.000    0.000    0.000    0.000 
#    0.000    0.000    0.000    0.000    0.000    0.000 
#
# Total GULP energy -148690.676802 kJ/mol
# GULP energy per Si atom -12390.889733 kJ/mol
# Density = 1.918541 g / cm^3
# Si number density = 19.229178 Si / 1000 Ang^3
#
#
#
# Elastic Constant Matrix: (Units=GPa)
#
#
# Indices 1 2 3 4 5 6 
#
# 1 88.1733 37.4232 33.7373 0.0000 10.3467 0.0000
# 2 37.4232 122.6511 52.8933 0.0000 -1.2512 0.0000
# 3 33.7373 52.8933 112.3460 0.0000 10.8731 0.0000
# 4 0.0000 0.0000 0.0000 29.8761 0.0000 5.2425
# 5 10.3467 -1.2512 10.8731 0.0000 22.8058 0.0000
# 6 0.0000 0.0000 0.0000 5.2425 0.0000 21.2733
#
#
#
# Elastic Compliance Matrix: (Units=1/GPa)
#
#
# Indices 1 2 3 4 5 6 
#
# 1 0.014302 -0.003522 -0.002086 0.000000 -0.005687 0.000000
# 2 -0.003522 0.011297 -0.004692 0.000000 0.004455 0.000000
# 3 -0.002086 -0.004692 0.012234 0.000000 -0.005144 0.000000
# 4 0.000000 0.000000 0.000000 0.034984 0.000000 -0.008621
# 5 -0.005687 0.004455 -0.005144 0.000000 0.049126 0.000000
# 6 0.000000 0.000000 0.000000 -0.008621 0.000000 0.049132
#
#
# Mechanical properties :
#
#
# Convention : Reuss Voigt Hill
#
# Bulk Modulus (GPa) = 58.03039 63.47531 60.75285
# Shear Modulus (GPa) = 25.32681 28.06549 26.69615
#
# Velocity S-wave (km/s) = 3.63313 3.82452 3.73005
# Velocity P-wave (km/s) = 6.91689 7.25149 7.08616
#
# Compressibility (1/GPa) = 0.01723235
#
# Stress axis : x y z
#
# Youngs Moduli (GPa) = 69.92153 88.52097 81.73657
#
# Poissons Ratio (x) = 0.31178 0.17051
# Poissons Ratio (y) = 0.24627 0.38351
# Poissons Ratio (z) = 0.14587 0.41534
#
# Static dielectric constant tensor:
#      x y z
#    x 3.795640 0.000000 0.028100 
#    y 0.000000 3.557930 0.000000 
#    z 0.028100 0.000000 3.510120 
# 
# 
# High freq. dielectric constant tensor:
#      x y z
#    x 1.758230 0.000000 0.004880 
#    y 0.000000 1.754250 0.000000 
#    z 0.004880 0.000000 1.742610 
# 
# From -- ./inp_files/21121.got.cif
#   From: 2010.03.12/outbox.cif.g09.slc.cpg/sg8_11_cif.got.tgz:21121.got - 2010.03.31 10:45:26.
