data_PCOD8053793
_publ_section_title
;
Structure prediction by ZEFSAII (Michael W. Deem and Ramdas Pophale) SiO2 
 PCOD8053793
Probable space group: C M
;
_chemical_formula_sum "Si O2"
_cell_formula_units_Z 32
_cell_length_a 10.004399
_cell_length_b 9.021473
_cell_length_c 17.519858
_cell_angle_alpha 90.000000
_cell_angle_beta 89.992125
_cell_angle_gamma 90.000000
_cell_volume 1581.244528
_symmetry_space_group_name_H-M "C M"
_symmetry_group_IT_number 8
_symmetry_cell_setting 'monoclinic'
loop_
_space_group_symop_operation_xyz
x,y,z
x,-y,z
1/2+x,1/2+y,z
1/2+x,1/2-y,z
loop_
_atom_site_type_symbol
_atom_site_label
_atom_site_fract_x
_atom_site_fract_y
_atom_site_fract_z
Si Si1 0.123680 0.326232 0.683870
Si Si2 0.359749 0.174335 0.601841
Si Si3 0.303660 0.828405 0.942265
Si Si4 0.064545 0.172350 0.185176
Si Si5 0.061496 0.672911 0.345431
Si Si6 0.291488 0.172653 0.431963
Si Si7 0.571709 0.828972 0.856184
Si Si8 0.796457 0.172451 0.097933
O O1 0.148193 0.500000 0.678858
O O2 0.258638 0.246006 0.661100
O O3 0.007953 0.275152 0.625673
O O4 0.083891 0.277399 0.768967
O O5 0.334455 0.227559 0.515719
O O6 0.344155 0.000000 0.609998
O O7 0.418910 0.802410 0.880127
O O8 0.164904 0.770243 0.909136
O O9 0.286793 0.000000 0.963369
O O10 0.343753 0.740543 0.018222
O O11 0.087326 0.241661 0.267590
O O12 0.161799 0.248563 0.124755
O O13 0.912531 0.198993 0.159751
O O14 0.100786 0.000000 0.189341
O O15 0.087303 0.500000 0.331928
O O16 0.164513 0.730841 0.408544
O O17 0.912144 0.703918 0.373953
O O18 0.252592 0.000000 0.432132
O O19 0.613360 0.000000 0.866791
O O20 0.765870 0.000000 0.086679
#
# Coordination Sequence:
#
# PCOD8053793 Si02
#       8
#     4   4   4   4   4   4   4   4
#     4  10  21  38  59  85 117 152 193 240 289 343
#     4  10  21  38  59  85 117 152 193 240 289 343
#     4  11  23  39  61  87 116 153 194 237 287 342
#     4  11  24  41  62  89 119 152 192 237 286 342
#     4  11  23  39  61  87 116 153 194 237 287 342
#     4  10  22  39  59  85 118 154 192 238 290 343
#     4  10  22  39  59  85 118 154 192 238 290 343
#     4  11  24  41  62  89 119 152 192 237 286 342
#
# _framework density 20.237224000000001
#
# number of rings (size 3 to 8) (size 9 to 14) (size 15 to 20)
#    0.000    1.500    0.000    4.500    0.000   11.500 
#    0.000    0.000    0.000    0.000    0.000    0.000 
#    0.000    0.000    0.000    0.000    0.000    0.000 
#
# Total GULP energy -198518.605813 kJ/mol
# GULP energy per Si atom -12407.412863 kJ/mol
# Density = 2.019116 g / cm^3
# Si number density = 20.237224 Si / 1000 Ang^3
#
#
#
# Elastic Constant Matrix: (Units=GPa)
#
#
# Indices 1 2 3 4 5 6 
#
# 1 68.4872 36.8748 2.7680 0.0000 1.5346 0.0000
# 2 36.8748 84.7867 31.2626 0.0000 2.3443 0.0000
# 3 2.7680 31.2626 92.4020 0.0000 0.9249 0.0000
# 4 0.0000 0.0000 0.0000 31.8308 0.0000 -3.3417
# 5 1.5346 2.3443 0.9249 0.0000 40.3006 0.0000
# 6 0.0000 0.0000 0.0000 -3.3417 0.0000 34.2719
#
#
#
# Elastic Compliance Matrix: (Units=1/GPa)
#
#
# Indices 1 2 3 4 5 6 
#
# 1 0.019610 -0.009490 0.002626 0.000000 -0.000255 0.000000
# 2 -0.009490 0.018086 -0.005829 0.000000 -0.000557 0.000000
# 3 0.002626 -0.005829 0.012716 0.000000 -0.000053 0.000000
# 4 0.000000 0.000000 0.000000 0.031741 0.000000 0.003095
# 5 -0.000255 -0.000557 -0.000053 0.000000 0.024857 0.000000
# 6 0.000000 0.000000 0.000000 0.003095 0.000000 0.029480
#
#
# Mechanical properties :
#
#
# Convention : Reuss Voigt Hill
#
# Bulk Modulus (GPa) = 39.95797 43.05408 41.50603
# Shear Modulus (GPa) = 29.37368 32.93203 31.15285
#
# Velocity S-wave (km/s) = 3.81395 4.03836 3.92775
# Velocity P-wave (km/s) = 6.25960 6.56242 6.41279
#
# Compressibility (1/GPa) = 0.02502630
#
# Stress axis : x y z
#
# Youngs Moduli (GPa) = 50.99323 55.29002 78.63849
#
# Poissons Ratio (x) = 0.52470 -0.20649
# Poissons Ratio (y) = 0.48393 0.45841
# Poissons Ratio (z) = -0.13390 0.32231
#
# Static dielectric constant tensor:
#      x y z
#    x 3.642040 0.000000 0.033370 
#    y 0.000000 3.664640 0.000000 
#    z 0.033370 0.000000 3.810100 
# 
# 
# High freq. dielectric constant tensor:
#      x y z
#    x 1.799890 0.000000 0.000200 
#    y 0.000000 1.791320 0.000000 
#    z 0.000200 0.000000 1.805580 
# 
# From -- ./inp_files/25859.got.cif
#   From: 2010.03.12/outbox.cif.g09.slc.cpg/sg8_13_cif.got.tgz:25859.got - 2010.03.31 10:45:26.
