data_PCOD8053080
_publ_section_title
;
Structure prediction by ZEFSAII (Michael W. Deem and Ramdas Pophale) SiO2 
 PCOD8053080
Probable space group: C M
;
_chemical_formula_sum "Si O2"
_cell_formula_units_Z 32
_cell_length_a 24.743848
_cell_length_b 8.736662
_cell_length_c 16.684701
_cell_angle_alpha 90.000000
_cell_angle_beta 153.139776
_cell_angle_gamma 90.000000
_cell_volume 1629.642425
_symmetry_space_group_name_H-M "C M"
_symmetry_group_IT_number 8
_symmetry_cell_setting 'monoclinic'
loop_
_space_group_symop_operation_xyz
x,y,z
x,-y,z
1/2+x,1/2+y,z
1/2+x,1/2-y,z
loop_
_atom_site_type_symbol
_atom_site_label
_atom_site_fract_x
_atom_site_fract_y
_atom_site_fract_z
Si Si1 0.132980 0.820664 0.470250
Si Si2 0.914850 0.327110 0.239151
Si Si3 0.994311 0.680450 0.618637
Si Si4 0.067789 0.817649 0.885158
Si Si5 0.822321 0.180838 0.269117
Si Si6 0.786773 0.824002 0.796279
Si Si7 0.720626 0.327857 0.857182
Si Si8 0.360695 0.674968 0.727219
O O1 0.168703 0.763008 0.606795
O O2 0.235215 0.763807 0.542504
O O3 0.003491 0.742622 0.288473
O O4 0.119463 0.000000 0.444622
O O5 0.952410 0.500000 0.311122
O O6 0.910942 0.224710 0.313726
O O7 0.782987 0.325881 0.026171
O O8 0.984039 0.500000 0.618277
O O9 0.104233 0.720417 0.705205
O O10 0.872023 0.743210 0.416849
O O11 0.018457 0.762810 0.734790
O O12 0.190982 0.742394 0.075265
O O13 0.083393 0.000000 0.905080
O O14 0.970683 0.760199 0.822285
O O15 0.818136 0.000000 0.274580
O O16 0.815583 0.738126 0.917322
O O17 0.888227 0.808566 0.860224
O O18 0.758436 0.000000 0.776538
O O19 0.682262 0.500000 0.784021
O O20 0.337157 0.500000 0.672687
#
# Coordination Sequence:
#
# PCOD8053080 Si02
#       8
#     4   4   4   4   4   4   4   4
#     4  10  19  33  56  84 114 151 200 247 297 361
#     4  11  22  37  57  84 125 165 205 257 316 375
#     4  12  25  41  63  92 127 168 210 260 317 377
#     4  11  22  43  68  94 128 165 212 265 315 374
#     4  12  25  41  63  93 127 166 212 260 317 379
#     4   9  18  35  56  82 113 153 197 242 301 362
#     4  11  22  36  57  87 123 162 205 259 314 374
#     4   8  19  38  62  86 117 162 203 250 311 368
#
# _framework density 19.636208
#
# number of rings (size 3 to 8) (size 9 to 14) (size 15 to 20)
#    0.750    0.750    1.250    5.250    0.000    2.500 
#    0.000    1.250    0.000    3.000    0.000    0.000 
#    0.000    0.000    0.000    0.000    0.000    0.000 
#
# Total GULP energy -198268.073145 kJ/mol
# GULP energy per Si atom -12391.754572 kJ/mol
# Density = 1.959152 g / cm^3
# Si number density = 19.636208 Si / 1000 Ang^3
#
#
#
# Elastic Constant Matrix: (Units=GPa)
#
#
# Indices 1 2 3 4 5 6 
#
# 1 105.2561 34.3132 35.5843 0.0000 9.7542 0.0000
# 2 34.3132 116.6302 29.3306 0.0000 7.1110 0.0000
# 3 35.5843 29.3306 87.3150 0.0000 1.4405 0.0000
# 4 0.0000 0.0000 0.0000 29.9719 0.0000 -1.2722
# 5 9.7542 7.1110 1.4405 0.0000 30.3392 0.0000
# 6 0.0000 0.0000 0.0000 -1.2722 0.0000 30.5303
#
#
#
# Elastic Compliance Matrix: (Units=1/GPa)
#
#
# Indices 1 2 3 4 5 6 
#
# 1 0.011898 -0.002299 -0.004025 0.000000 -0.003095 0.000000
# 2 -0.002299 0.009938 -0.002377 0.000000 -0.001477 0.000000
# 3 -0.004025 -0.002377 0.013872 0.000000 0.001193 0.000000
# 4 0.000000 0.000000 0.000000 0.033424 0.000000 0.001393
# 5 -0.003095 -0.001477 0.001193 0.000000 0.034245 0.000000
# 6 0.000000 0.000000 0.000000 0.001393 0.000000 0.032812
#
#
# Mechanical properties :
#
#
# Convention : Reuss Voigt Hill
#
# Bulk Modulus (GPa) = 54.63038 56.40640 55.51839
# Shear Modulus (GPa) = 31.30964 32.16651 31.73808
#
# Velocity S-wave (km/s) = 3.99743 4.05176 4.02469
# Velocity P-wave (km/s) = 7.01339 7.11879 7.06628
#
# Compressibility (1/GPa) = 0.01830483
#
# Stress axis : x y z
#
# Youngs Moduli (GPa) = 84.04813 100.61923 72.08713
#
# Poissons Ratio (x) = 0.23136 0.29018
# Poissons Ratio (y) = 0.19326 0.17135
# Poissons Ratio (z) = 0.33833 0.23918
#
# Static dielectric constant tensor:
#      x y z
#    x 3.651410 0.000000 0.017220 
#    y 0.000000 3.562730 0.000000 
#    z 0.017220 0.000000 3.439670 
# 
# 
# High freq. dielectric constant tensor:
#      x y z
#    x 1.757310 0.000000 0.002490 
#    y 0.000000 1.777400 0.000000 
#    z 0.002490 0.000000 1.746200 
# 
# From -- ./inp_files/28217.got.cif
#   From: 2010.03.12/outbox.cif.g09.slc.cpg/sg8_15_cif.got.tgz:28217.got - 2010.03.31 10:45:26.
