data_PCOD8053173
_publ_section_title
;
Structure prediction by ZEFSAII (Michael W. Deem and Ramdas Pophale) SiO2 
 PCOD8053173
Probable space group: C M
;
_chemical_formula_sum "Si O2"
_cell_formula_units_Z 28
_cell_length_a 7.207536
_cell_length_b 33.153531
_cell_length_c 5.324268
_cell_angle_alpha 90.000000
_cell_angle_beta 56.722815
_cell_angle_gamma 90.000000
_cell_volume 1063.643908
_symmetry_space_group_name_H-M "C M"
_symmetry_group_IT_number 8
_symmetry_cell_setting 'monoclinic'
loop_
_space_group_symop_operation_xyz
x,y,z
x,-y,z
1/2+x,1/2+y,z
1/2+x,1/2-y,z
loop_
_atom_site_type_symbol
_atom_site_label
_atom_site_fract_x
_atom_site_fract_y
_atom_site_fract_z
Si Si1 0.340420 0.831653 0.480330
Si Si2 0.871073 0.170713 0.379593
Si Si3 0.293431 0.415262 0.578716
Si Si4 0.347932 0.299569 0.893488
Si Si5 0.522524 0.000000 0.174798
Si Si6 0.852987 0.705806 0.973137
Si Si7 0.796147 0.000000 0.473037
Si Si8 0.516297 0.915643 0.288211
O O1 0.459479 0.805719 0.166800
O O2 0.345578 0.878808 0.404216
O O3 0.083853 0.820168 0.661062
O O4 0.450610 0.820611 0.667671
O O5 0.933499 0.124662 0.403170
O O6 0.727827 0.192801 0.710051
O O7 0.091035 0.196523 0.165834
O O8 0.739261 0.174929 0.208590
O O9 0.428134 0.457888 0.438150
O O10 0.100659 0.416810 0.511940
O O11 0.204756 0.410979 0.930493
O O12 0.384796 0.252996 0.915362
O O13 0.388976 0.041710 0.327330
O O14 0.724140 0.000000 0.233086
O O15 0.595995 0.000000 0.828389
#
# Coordination Sequence:
#
# PCOD8053173 Si02
#       8
#     4   4   4   4   2   4   2   4
#     4  10  21  38  57  79 105 144 187 232 275 331
#     4  10  21  38  57  79 105 144 187 232 275 331
#     4  10  19  35  55  87 115 144 182 225 280 331
#     4  10  21  40  57  73 104 148 188 233 279 331
#     4   8  16  30  54  78 114 148 176 216 266 338
#     4  10  21  40  57  73 104 148 188 233 279 331
#     4   8  16  30  54  78 114 148 176 216 266 338
#     4  10  19  35  55  87 115 144 182 225 280 331
#
# _framework density 26.324597000000001
#
# number of rings (size 3 to 8) (size 9 to 14) (size 15 to 20)
#    0.000    2.286    0.000    2.571    0.000    0.000 
#   30.857    0.000    0.000    6.857    0.000    0.000 
#    0.000    0.000    0.000    0.000    0.000    0.000 
#
# Total GULP energy -173462.815615 kJ/mol
# GULP energy per Si atom -12390.201115 kJ/mol
# Density = 2.626468 g / cm^3
# Si number density = 26.324597 Si / 1000 Ang^3
#
#
#
# Elastic Constant Matrix: (Units=GPa)
#
#
# Indices 1 2 3 4 5 6 
#
# 1 75.2186 10.9629 49.0846 0.0000 31.9355 0.0000
# 2 10.9629 260.9749 53.7731 0.0000 9.3879 0.0000
# 3 49.0846 53.7731 186.2801 0.0000 40.7827 0.0000
# 4 0.0000 0.0000 0.0000 47.4616 0.0000 8.9304
# 5 31.9355 9.3879 40.7827 0.0000 50.5591 0.0000
# 6 0.0000 0.0000 0.0000 8.9304 0.0000 16.2564
#
#
#
# Elastic Compliance Matrix: (Units=1/GPa)
#
#
# Indices 1 2 3 4 5 6 
#
# 1 0.019424 0.000158 -0.003001 0.000000 -0.009877 0.000000
# 2 0.000158 0.004078 -0.001252 0.000000 0.000153 0.000000
# 3 -0.003001 -0.001252 0.007353 0.000000 -0.003803 0.000000
# 4 0.000000 0.000000 0.000000 0.023499 0.000000 -0.012909
# 5 -0.009877 0.000153 -0.003803 0.000000 0.029057 0.000000
# 6 0.000000 0.000000 0.000000 -0.012909 0.000000 0.068606
#
#
# Mechanical properties :
#
#
# Convention : Reuss Voigt Hill
#
# Bulk Modulus (GPa) = 44.12440 83.34609 63.73525
# Shear Modulus (GPa) = 29.80421 50.09896 39.95158
#
# Velocity S-wave (km/s) = 3.36844 4.36721 3.89993
# Velocity P-wave (km/s) = 5.65036 7.56040 6.67407
#
# Compressibility (1/GPa) = 0.02266320
#
# Stress axis : x y z
#
# Youngs Moduli (GPa) = 51.48361 245.23860 135.99576
#
# Poissons Ratio (x) = -0.03869 0.40815
# Poissons Ratio (y) = -0.00812 0.17030
# Poissons Ratio (z) = 0.15451 0.30709
#
# Static dielectric constant tensor:
#      x y z
#    x 5.133570 0.000000 1.065700 
#    y 0.000000 5.371380 0.000000 
#    z 1.065700 0.000000 5.906940 
# 
# 
# High freq. dielectric constant tensor:
#      x y z
#    x 2.060600 0.000000 0.035460 
#    y 0.000000 2.071320 0.000000 
#    z 0.035460 0.000000 2.093710 
# 
# From -- ./inp_files/1850.got.cif
#   From: 2010.03.12/outbox.cif.g09.slc.cpg/sg8_1_cif.got.tgz:1850.got - 2010.03.31 10:45:26.
