data_PCOD8053470
_publ_section_title
;
Structure prediction by ZEFSAII (Michael W. Deem and Ramdas Pophale) SiO2 
 PCOD8053470
Probable space group: C M
;
_chemical_formula_sum "Si O2"
_cell_formula_units_Z 32
_cell_length_a 24.891289
_cell_length_b 8.977465
_cell_length_c 23.669914
_cell_angle_alpha 90.000000
_cell_angle_beta 17.944373
_cell_angle_gamma 90.000000
_cell_volume 1629.597363
_symmetry_space_group_name_H-M "C M"
_symmetry_group_IT_number 8
_symmetry_cell_setting 'monoclinic'
loop_
_space_group_symop_operation_xyz
x,y,z
x,-y,z
1/2+x,1/2+y,z
1/2+x,1/2-y,z
loop_
_atom_site_type_symbol
_atom_site_label
_atom_site_fract_x
_atom_site_fract_y
_atom_site_fract_z
Si Si1 0.751910 0.325156 0.535850
Si Si2 0.977909 0.667605 0.617479
Si Si3 0.444507 0.177798 0.776962
Si Si4 0.080936 0.674847 0.129385
Si Si5 0.779558 0.823816 0.627143
Si Si6 0.074099 0.169219 0.020268
Si Si7 0.465377 0.168946 0.020412
Si Si8 0.079038 0.168489 0.409130
O O1 0.712089 0.500000 0.575243
O O2 0.581375 0.239306 0.684795
O O3 0.792220 0.269780 0.557926
O O4 0.920085 0.285380 0.330571
O O5 0.046672 0.500000 0.545478
O O6 0.006280 0.729128 0.652582
O O7 0.086905 0.759026 0.463093
O O8 0.776458 0.679699 0.802716
O O9 0.430906 0.000000 0.794474
O O10 0.252656 0.242946 0.981368
O O11 0.119236 0.500000 0.088811
O O12 0.027580 0.731494 0.120837
O O13 0.937467 0.762381 0.508207
O O14 0.794783 0.000000 0.599155
O O15 0.598397 0.781746 0.838727
O O16 0.971371 0.226819 0.068912
O O17 0.018453 0.000000 0.089286
O O18 0.270581 0.182048 0.189751
O O19 0.507581 0.000000 0.997224
O O20 0.022325 0.000000 0.476540
#
# Coordination Sequence:
#
# PCOD8053470 Si02
#       8
#     4   4   4   4   4   4   4   4
#     4  11  25  42  63  90 121 162 208 254 304 361
#     4   9  19  35  56  86 121 153 191 239 295 351
#     4  10  22  40  62  91 124 160 202 251 303 362
#     4  10  22  40  61  89 124 161 202 251 305 361
#     4  10  22  41  60  83 119 160 203 252 299 352
#     4  10  20  35  58  88 122 159 198 244 299 357
#     4  10  21  37  58  87 118 154 199 244 299 360
#     4  10  21  36  58  86 115 153 197 239 294 356
#
# _framework density 19.636751
#
# number of rings (size 3 to 8) (size 9 to 14) (size 15 to 20)
#    0.000    2.000    1.250    2.250    1.750    7.000 
#    0.000    1.250    0.000    0.000    0.000    0.000 
#    0.000    0.000    0.000    0.000    0.000    0.000 
#
# Total GULP energy -198430.332641 kJ/mol
# GULP energy per Si atom -12401.895790 kJ/mol
# Density = 1.959206 g / cm^3
# Si number density = 19.636751 Si / 1000 Ang^3
#
#
#
# Elastic Constant Matrix: (Units=GPa)
#
#
# Indices 1 2 3 4 5 6 
#
# 1 83.0811 31.8442 39.0585 0.0114 8.5436 -0.0011
# 2 31.8442 74.9879 40.9604 -0.0098 5.5798 0.0027
# 3 39.0585 40.9604 105.8098 0.0203 8.0440 -0.0053
# 4 0.0114 -0.0098 0.0203 15.9879 -0.0029 3.0497
# 5 8.5436 5.5798 8.0440 -0.0029 25.2946 0.0006
# 6 -0.0011 0.0027 -0.0053 3.0497 0.0006 35.9729
#
#
#
# Elastic Compliance Matrix: (Units=1/GPa)
#
#
# Indices 1 2 3 4 5 6 
#
# 1 0.015882 -0.004360 -0.003935 -0.000010 -0.003151 0.000001
# 2 -0.004360 0.018179 -0.005365 0.000022 -0.000831 -0.000004
# 3 -0.003935 -0.005365 0.013106 -0.000018 -0.001655 0.000004
# 4 -0.000010 0.000022 -0.000018 0.063576 0.000012 -0.005390
# 5 -0.003151 -0.000831 -0.001655 0.000012 0.041308 -0.000002
# 6 0.000001 -0.000004 0.000004 -0.005390 -0.000002 0.028256
#
#
# Mechanical properties :
#
#
# Convention : Reuss Voigt Hill
#
# Bulk Modulus (GPa) = 50.38566 54.17835 52.28201
# Shear Modulus (GPa) = 23.33803 25.58545 24.46174
#
# Velocity S-wave (km/s) = 3.45118 3.61354 3.53329
# Velocity P-wave (km/s) = 6.44945 6.71270 6.58239
#
# Compressibility (1/GPa) = 0.01984692
#
# Stress axis : x y z
#
# Youngs Moduli (GPa) = 62.96533 55.00734 76.30038
#
# Poissons Ratio (x) = 0.23986 0.30025
# Poissons Ratio (y) = 0.27456 0.40933
# Poissons Ratio (z) = 0.24777 0.29510
#
# Static dielectric constant tensor:
#      x y z
#    x 3.471270 -0.000020 -0.053580 
#    y -0.000020 3.562890 0.000020 
#    z -0.053580 0.000020 3.618170 
# 
# 
# High freq. dielectric constant tensor:
#      x y z
#    x 1.758740 0.000000 -0.005030 
#    y 0.000000 1.764210 0.000000 
#    z -0.005030 0.000000 1.773120 
# 
# From -- ./inp_files/32352.got.cif
#   From: 2010.03.12/outbox.cif.g09.slc.cpg/sg8_17_cif.got.tgz:32352.got - 2010.03.31 10:45:26.
