data_PCOD8053811
_publ_section_title
;
Structure prediction by ZEFSAII (Michael W. Deem and Ramdas Pophale) SiO2 
 PCOD8053811
Probable space group: C M
;
_chemical_formula_sum "Si O2"
_cell_formula_units_Z 32
_cell_length_a 15.058728
_cell_length_b 8.598481
_cell_length_c 11.692397
_cell_angle_alpha 90.000000
_cell_angle_beta 86.145559
_cell_angle_gamma 90.000000
_cell_volume 1510.532629
_symmetry_space_group_name_H-M "C M"
_symmetry_group_IT_number 8
_symmetry_cell_setting 'monoclinic'
loop_
_space_group_symop_operation_xyz
x,y,z
x,-y,z
1/2+x,1/2+y,z
1/2+x,1/2-y,z
loop_
_atom_site_type_symbol
_atom_site_label
_atom_site_fract_x
_atom_site_fract_y
_atom_site_fract_z
Si Si1 0.573480 0.321194 0.809040
Si Si2 0.278220 0.318844 0.357347
Si Si3 0.255718 0.682294 0.829411
Si Si4 0.599670 0.679709 0.318749
Si Si5 0.409193 0.817704 0.952387
Si Si6 0.012758 0.822414 0.565605
Si Si7 0.324533 0.181303 0.587801
Si Si8 0.939099 0.680571 0.211502
O O1 0.591689 0.500000 0.837716
O O2 0.651633 0.218297 0.857772
O O3 0.479199 0.271374 0.867550
O O4 0.572502 0.295210 0.672551
O O5 0.259531 0.500000 0.350645
O O6 0.201797 0.230167 0.292835
O O7 0.275341 0.267472 0.488992
O O8 0.373958 0.280479 0.296261
O O9 0.273271 0.500000 0.829607
O O10 0.310774 0.761400 0.927043
O O11 0.286549 0.753290 0.707819
O O12 0.588732 0.500000 0.288031
O O13 0.573275 0.715755 0.451631
O O14 0.539780 0.779086 0.237209
O O15 0.419359 0.000000 0.929547
O O16 0.425213 0.772558 0.081823
O O17 0.930059 0.706135 0.573037
O O18 0.976738 0.000000 0.564759
O O19 0.302667 0.000000 0.581045
O O20 0.919418 0.500000 0.234508
#
# Coordination Sequence:
#
# PCOD8053811 Si02
#       8
#     4   4   4   4   4   4   4   4
#     4  11  23  41  67  97 132 168 210 260 318 384
#     4  12  25  42  66  96 132 170 214 263 317 379
#     4  12  25  42  66  96 132 170 214 263 317 379
#     4  11  23  41  67  97 132 168 210 260 318 384
#     4  11  25  45  67  93 127 168 217 269 321 378
#     4  10  21  38  63  96 130 166 205 254 317 386
#     4  12  23  38  65  96 132 170 209 258 319 384
#     4  11  25  45  67  93 127 168 217 269 321 378
#
# _framework density 21.184578999999999
#
# number of rings (size 3 to 8) (size 9 to 14) (size 15 to 20)
#    0.000    0.750    2.500    5.625    0.000    5.000 
#    0.000    0.000    0.000    0.000    0.000    0.000 
#    0.000    0.000    0.000    0.000    0.000    0.000 
#
# Total GULP energy -198543.774965 kJ/mol
# GULP energy per Si atom -12408.985935 kJ/mol
# Density = 2.113636 g / cm^3
# Si number density = 21.184579 Si / 1000 Ang^3
#
#
#
# Elastic Constant Matrix: (Units=GPa)
#
#
# Indices 1 2 3 4 5 6 
#
# 1 96.2788 10.9736 14.7698 0.0000 26.8079 0.0000
# 2 10.9736 83.0234 42.8736 0.0000 5.8145 0.0000
# 3 14.7698 42.8736 98.1735 0.0000 33.2076 0.0000
# 4 0.0000 0.0000 0.0000 18.6146 0.0000 7.1796
# 5 26.8079 5.8145 33.2076 0.0000 31.1016 0.0000
# 6 0.0000 0.0000 0.0000 7.1796 0.0000 40.2098
#
#
#
# Elastic Compliance Matrix: (Units=1/GPa)
#
#
# Indices 1 2 3 4 5 6 
#
# 1 0.014960 -0.003477 0.005337 0.000000 -0.017943 0.000000
# 2 -0.003477 0.017337 -0.010903 0.000000 0.011397 0.000000
# 3 0.005337 -0.010903 0.023498 0.000000 -0.027651 0.000000
# 4 0.000000 0.000000 0.000000 0.057694 0.000000 -0.010301
# 5 -0.017943 0.011397 -0.027651 0.000000 0.075011 0.000000
# 6 0.000000 0.000000 0.000000 -0.010301 0.000000 0.026709
#
#
# Mechanical properties :
#
#
# Convention : Reuss Voigt Hill
#
# Bulk Modulus (GPa) = 26.51918 46.07885 36.29901
# Shear Modulus (GPa) = 20.33644 31.90912 26.12278
#
# Velocity S-wave (km/s) = 3.10169 3.88525 3.51537
# Velocity P-wave (km/s) = 5.03713 6.47497 5.80077
#
# Compressibility (1/GPa) = 0.03770856
#
# Stress axis : x y z
#
# Youngs Moduli (GPa) = 66.84413 57.68158 42.55763
#
# Poissons Ratio (x) = 0.20055 -0.22713
# Poissons Ratio (y) = 0.23240 0.46401
# Poissons Ratio (z) = -0.35675 0.62891
#
# Static dielectric constant tensor:
#      x y z
#    x 3.933800 0.000000 0.147790 
#    y 0.000000 3.848820 0.000000 
#    z 0.147790 0.000000 3.822490 
# 
# 
# High freq. dielectric constant tensor:
#      x y z
#    x 1.840840 0.000000 0.011000 
#    y 0.000000 1.839450 0.000000 
#    z 0.011000 0.000000 1.826690 
# 
# From -- ./inp_files/21384.got.cif
#   From: 2010.03.12/outbox.cif.g09.slc.cpg/sg8_11_cif.got.tgz:21384.got - 2010.03.31 10:45:26.
