data_PCOD8053030
_publ_section_title
;
Structure prediction by ZEFSAII (Michael W. Deem and Ramdas Pophale) SiO2 
 PCOD8053030
Probable space group: C M
;
_chemical_formula_sum "Si O2"
_cell_formula_units_Z 32
_cell_length_a 15.142354
_cell_length_b 8.521523
_cell_length_c 25.869045
_cell_angle_alpha 90.000000
_cell_angle_beta 28.525555
_cell_angle_gamma 90.000000
_cell_volume 1594.081352
_symmetry_space_group_name_H-M "C M"
_symmetry_group_IT_number 8
_symmetry_cell_setting 'monoclinic'
loop_
_space_group_symop_operation_xyz
x,y,z
x,-y,z
1/2+x,1/2+y,z
1/2+x,1/2-y,z
loop_
_atom_site_type_symbol
_atom_site_label
_atom_site_fract_x
_atom_site_fract_y
_atom_site_fract_z
Si Si1 0.505130 0.180607 0.730880
Si Si2 0.134311 0.812321 0.871429
Si Si3 0.257223 0.686355 0.113684
Si Si4 0.865033 0.180083 0.491647
Si Si5 0.157246 0.315123 0.278256
Si Si6 0.223183 0.814452 0.713017
Si Si7 0.880817 0.683065 0.258248
Si Si8 0.072687 0.319402 0.476576
O O1 0.306739 0.249835 0.816687
O O2 0.643519 0.199912 0.610083
O O3 0.577635 0.267508 0.744108
O O4 0.487557 0.000000 0.755279
O O5 0.155634 0.745404 0.802376
O O6 0.134578 0.000000 0.870205
O O7 0.946401 0.744183 0.992654
O O8 0.265648 0.500000 0.109847
O O9 0.234933 0.748025 0.183724
O O10 0.087881 0.741616 0.164397
O O11 0.956754 0.229451 0.389800
O O12 0.956197 0.302825 0.483992
O O13 0.920431 0.000000 0.476268
O O14 0.125408 0.500000 0.292771
O O15 0.304545 0.273885 0.247423
O O16 0.433971 0.755005 0.592707
O O17 0.230807 0.000000 0.710733
O O18 0.875336 0.500000 0.248795
O O19 0.759099 0.718412 0.372693
O O20 0.127272 0.500000 0.457835
#
# Coordination Sequence:
#
# PCOD8053030 Si02
#       8
#     4   4   4   4   4   4   4   4
#     4   9  18  32  53  76 100 129 163 200 245 294
#     4   9  18  35  53  71  97 133 170 203 240 294
#     4   9  20  35  51  71  99 133 170 203 242 294
#     4   9  16  28  48  76 103 128 158 198 245 296
#     4  10  19  33  52  75 100 131 165 201 244 293
#     4   9  18  32  53  76 100 129 163 200 245 294
#     4  10  19  33  52  75 100 131 165 201 244 293
#     4   9  16  28  48  76 103 128 158 198 245 296
#
# _framework density 20.074258
#
# number of rings (size 3 to 8) (size 9 to 14) (size 15 to 20)
#    0.000    2.750    0.000    3.000    0.000    3.000 
#    0.000    4.375    0.000    4.500    0.000    0.000 
#    0.000    0.000    0.000    0.000    0.000    0.000 
#
# Total GULP energy -198259.207517 kJ/mol
# GULP energy per Si atom -12391.200470 kJ/mol
# Density = 2.002857 g / cm^3
# Si number density = 20.074258 Si / 1000 Ang^3
#
#
#
# Elastic Constant Matrix: (Units=GPa)
#
#
# Indices 1 2 3 4 5 6 
#
# 1 53.9338 0.1169 29.8543 0.0007 5.9318 0.0007
# 2 0.1169 26.8309 7.9523 0.0000 1.5906 0.0004
# 3 29.8543 7.9523 135.6320 -0.0019 2.2010 0.0008
# 4 0.0007 0.0000 -0.0019 20.5969 -0.0007 0.0752
# 5 5.9318 1.5906 2.2010 -0.0007 39.2525 -0.0003
# 6 0.0007 0.0004 0.0008 0.0752 -0.0003 14.8475
#
#
#
# Elastic Compliance Matrix: (Units=1/GPa)
#
#
# Indices 1 2 3 4 5 6 
#
# 1 0.021516 0.001502 -0.004775 -0.000001 -0.003045 -0.000001
# 2 0.001502 0.038113 -0.002539 0.000000 -0.001629 -0.000001
# 3 -0.004775 -0.002539 0.008567 0.000001 0.000344 0.000000
# 4 -0.000001 0.000000 0.000001 0.048552 0.000001 -0.000246
# 5 -0.003045 -0.001629 0.000344 0.000001 0.025983 0.000001
# 6 -0.000001 -0.000001 0.000000 -0.000246 0.000001 0.067353
#
#
# Mechanical properties :
#
#
# Convention : Reuss Voigt Hill
#
# Bulk Modulus (GPa) = 17.67628 32.47150 25.07389
# Shear Modulus (GPa) = 20.78452 26.83759 23.81105
#
# Velocity S-wave (km/s) = 3.22123 3.66035 3.44779
# Velocity P-wave (km/s) = 4.76021 5.83738 5.32610
#
# Compressibility (1/GPa) = 0.05657298
#
# Stress axis : x y z
#
# Youngs Moduli (GPa) = 46.47766 26.23776 116.72569
#
# Poissons Ratio (x) = -0.03941 0.55731
# Poissons Ratio (y) = -0.06980 0.29634
# Poissons Ratio (z) = 0.22191 0.06661
#
# Static dielectric constant tensor:
#      x y z
#    x 3.513190 0.000000 0.113430 
#    y 0.000000 3.294400 0.000000 
#    z 0.113430 0.000000 4.248940 
# 
# 
# High freq. dielectric constant tensor:
#      x y z
#    x 1.765410 0.000000 0.001270 
#    y 0.000000 1.753960 0.000000 
#    z 0.001270 0.000000 1.794480 
# 
# From -- ./inp_files/32864.got.cif
#   From: 2010.03.12/outbox.cif.g09.slc.cpg/sg8_17_cif.got.tgz:32864.got - 2010.03.31 10:45:26.
