data_PCOD8053553
_publ_section_title
;
Structure prediction by ZEFSAII (Michael W. Deem and Ramdas Pophale) SiO2 
 PCOD8053553
Probable space group: C M
;
_chemical_formula_sum "Si O2"
_cell_formula_units_Z 32
_cell_length_a 32.503882
_cell_length_b 8.670442
_cell_length_c 12.378809
_cell_angle_alpha 90.000000
_cell_angle_beta 26.503482
_cell_angle_gamma 90.000000
_cell_volume 1556.810320
_symmetry_space_group_name_H-M "C M"
_symmetry_group_IT_number 8
_symmetry_cell_setting 'monoclinic'
loop_
_space_group_symop_operation_xyz
x,y,z
x,-y,z
1/2+x,1/2+y,z
1/2+x,1/2-y,z
loop_
_atom_site_type_symbol
_atom_site_label
_atom_site_fract_x
_atom_site_fract_y
_atom_site_fract_z
Si Si1 0.141550 0.678982 0.654220
Si Si2 0.809204 0.179954 0.862034
Si Si3 0.958985 0.820830 0.032533
Si Si4 0.768367 0.678953 0.534730
Si Si5 0.507127 0.319687 0.479195
Si Si6 0.701253 0.679115 0.928030
Si Si7 0.242155 0.176181 0.229482
Si Si8 0.947061 0.676190 0.832755
O O1 0.157409 0.500000 0.641341
O O2 0.201730 0.780270 0.593452
O O3 0.169962 0.719415 0.464525
O O4 0.034913 0.723736 0.920266
O O5 0.916591 0.227304 0.623030
O O6 0.775737 0.225984 0.821861
O O7 0.796150 0.000000 0.912208
O O8 0.745420 0.268615 0.098185
O O9 0.860432 0.778597 0.312730
O O10 0.978076 0.000000 0.005768
O O11 0.966537 0.784013 0.888312
O O12 0.795175 0.500000 0.462217
O O13 0.716493 0.718503 0.767343
O O14 0.505930 0.500000 0.508665
O O15 0.510615 0.228639 0.583924
O O16 0.596861 0.270669 0.200633
O O17 0.717134 0.500000 0.915397
O O18 0.208535 0.000000 0.311346
O O19 0.341122 0.197440 0.050974
O O20 0.969996 0.500000 0.809113
#
# Coordination Sequence:
#
# PCOD8053553 Si02
#       8
#     4   4   4   4   4   4   4   4
#     4  12  25  41  64  94 126 164 212 263 319 381
#     4  10  21  37  60  91 126 162 209 260 306 367
#     4  12  25  41  64  92 125 168 211 261 320 380
#     4  11  24  45  66  91 128 168 215 268 317 375
#     4   9  20  39  60  87 123 164 206 249 308 373
#     4  10  23  42  65  89 122 167 210 256 313 376
#     4  10  20  37  62  90 128 168 205 255 317 377
#     4  10  20  36  61  92 128 163 204 258 312 373
#
# _framework density 20.554849999999998
#
# number of rings (size 3 to 8) (size 9 to 14) (size 15 to 20)
#    0.000    1.500    1.250    3.750    1.750    4.000 
#    0.000    1.250    0.000    0.000    0.000    0.000 
#    0.000    0.000    0.000    0.000    0.000    0.000 
#
# Total GULP energy -198504.933032 kJ/mol
# GULP energy per Si atom -12406.558315 kJ/mol
# Density = 2.050807 g / cm^3
# Si number density = 20.554850 Si / 1000 Ang^3
#
#
#
# Elastic Constant Matrix: (Units=GPa)
#
#
# Indices 1 2 3 4 5 6 
#
# 1 50.6883 22.4725 41.4249 0.0000 7.7392 0.0000
# 2 22.4725 75.0417 25.7950 0.0000 6.5440 0.0000
# 3 41.4249 25.7950 121.9940 0.0000 6.2917 0.0000
# 4 0.0000 0.0000 0.0000 31.7910 0.0000 -0.8408
# 5 7.7392 6.5440 6.2917 0.0000 28.3744 0.0000
# 6 0.0000 0.0000 0.0000 -0.8408 0.0000 34.4285
#
#
#
# Elastic Compliance Matrix: (Units=1/GPa)
#
#
# Indices 1 2 3 4 5 6 
#
# 1 0.030155 -0.005569 -0.008805 0.000000 -0.004988 0.000000
# 2 -0.005569 0.015602 -0.001316 0.000000 -0.001788 0.000000
# 3 -0.008805 -0.001316 0.011457 0.000000 0.000165 0.000000
# 4 0.000000 0.000000 0.000000 0.031476 0.000000 0.000769
# 5 -0.004988 -0.001788 0.000165 0.000000 0.036979 0.000000
# 6 0.000000 0.000000 0.000000 0.000769 0.000000 0.029064
#
#
# Mechanical properties :
#
#
# Convention : Reuss Voigt Hill
#
# Bulk Modulus (GPa) = 38.70791 47.45651 43.08221
# Shear Modulus (GPa) = 25.67758 29.45421 27.56590
#
# Velocity S-wave (km/s) = 3.53827 3.78955 3.66606
# Velocity P-wave (km/s) = 5.96363 6.50273 6.23900
#
# Compressibility (1/GPa) = 0.02583452
#
# Stress axis : x y z
#
# Youngs Moduli (GPa) = 33.16253 64.09539 87.28591
#
# Poissons Ratio (x) = 0.35693 0.76852
# Poissons Ratio (y) = 0.18467 0.11485
# Poissons Ratio (z) = 0.29199 0.08433
#
# Static dielectric constant tensor:
#      x y z
#    x 3.659200 0.000000 -0.049820 
#    y 0.000000 3.696030 0.000000 
#    z -0.049820 0.000000 3.846470 
# 
# 
# High freq. dielectric constant tensor:
#      x y z
#    x 1.800670 0.000000 -0.006850 
#    y 0.000000 1.807560 0.000000 
#    z -0.006850 0.000000 1.808180 
# 
# From -- ./inp_files/24806.got.cif
#   From: 2010.03.12/outbox.cif.g09.slc.cpg/sg8_13_cif.got.tgz:24806.got - 2010.03.31 10:45:26.
