data_PCOD8053704
_publ_section_title
;
Structure prediction by ZEFSAII (Michael W. Deem and Ramdas Pophale) SiO2 
 PCOD8053704
Probable space group: C M
;
_chemical_formula_sum "Si O2"
_cell_formula_units_Z 20
_cell_length_a 6.952973
_cell_length_b 24.159865
_cell_length_c 7.953449
_cell_angle_alpha 90.000000
_cell_angle_beta 141.279744
_cell_angle_gamma 90.000000
_cell_volume 835.719861
_symmetry_space_group_name_H-M "C M"
_symmetry_group_IT_number 8
_symmetry_cell_setting 'monoclinic'
loop_
_space_group_symop_operation_xyz
x,y,z
x,-y,z
1/2+x,1/2+y,z
1/2+x,1/2-y,z
loop_
_atom_site_type_symbol
_atom_site_label
_atom_site_fract_x
_atom_site_fract_y
_atom_site_fract_z
Si Si1 0.764350 0.938798 0.189640
Si Si2 0.555147 0.439199 0.743507
Si Si3 0.772727 0.165306 0.696185
Si Si4 0.769613 0.172539 0.060909
Si Si5 0.917982 0.710523 0.142787
O O1 0.837322 0.935490 0.434449
O O2 0.931511 0.887547 0.206116
O O3 0.858564 0.000000 0.182530
O O4 0.401484 0.928370 0.919190
O O5 0.529652 0.500000 0.810330
O O6 0.433661 0.394697 0.793383
O O7 0.538226 0.176722 0.385743
O O8 0.607418 0.169063 0.765897
O O9 0.047716 0.210249 0.882448
O O10 0.011893 0.224250 0.223493
O O11 0.531385 0.182679 0.049040
#
# Coordination Sequence:
#
# PCOD8053704 Si02
#       5
#     4   4   4   4   4
#     4  10  22  41  69  99 133 175 222 279 333 395
#     4  10  20  41  68  96 134 175 221 281 336 392
#     4  12  26  44  68 101 134 181 226 279 335 405
#     4  12  26  45  72  97 142 179 229 275 341 401
#     4  12  28  43  65 103 137 174 230 280 335 397
#
# _framework density 23.931463000000001
#
# number of rings (size 3 to 8) (size 9 to 14) (size 15 to 20)
#    0.000    0.800    6.000    0.000    2.800    5.600 
#    0.000    0.000    0.000    7.200    0.000    0.000 
#    0.000    0.000    0.000    0.000    0.000    0.000 
#
# Total GULP energy -123921.228562 kJ/mol
# GULP energy per Si atom -12392.122856 kJ/mol
# Density = 2.387699 g / cm^3
# Si number density = 23.931463 Si / 1000 Ang^3
#
#
#
# Elastic Constant Matrix: (Units=GPa)
#
#
# Indices 1 2 3 4 5 6 
#
# 1 89.9200 32.7957 34.9070 0.0000 -45.4577 0.0000
# 2 32.7957 209.8441 21.7544 0.0000 -21.5974 0.0000
# 3 34.9070 21.7544 81.2683 0.0000 -17.5246 0.0000
# 4 0.0000 0.0000 0.0000 29.1797 0.0000 -4.8570
# 5 -45.4577 -21.5974 -17.5246 0.0000 36.9203 0.0000
# 6 0.0000 0.0000 0.0000 -4.8570 0.0000 38.7051
#
#
#
# Elastic Compliance Matrix: (Units=1/GPa)
#
#
# Indices 1 2 3 4 5 6 
#
# 1 0.031818 -0.000668 -0.005709 0.000000 0.036075 0.000000
# 2 -0.000668 0.005132 -0.000687 0.000000 0.001853 0.000000
# 3 -0.005709 -0.000687 0.014859 0.000000 -0.000378 0.000000
# 4 0.000000 0.000000 0.000000 0.035001 0.000000 0.004392
# 5 0.036075 0.001853 -0.000378 0.000000 0.072408 0.000000
# 6 0.000000 0.000000 0.000000 0.004392 0.000000 0.026388
#
#
# Mechanical properties :
#
#
# Convention : Reuss Voigt Hill
#
# Bulk Modulus (GPa) = 26.53810 62.21629 44.37720
# Shear Modulus (GPa) = 23.55223 40.39938 31.97581
#
# Velocity S-wave (km/s) = 3.14053 4.11314 3.65929
# Velocity P-wave (km/s) = 4.92583 6.97219 6.03636
#
# Compressibility (1/GPa) = 0.03768167
#
# Stress axis : x y z
#
# Youngs Moduli (GPa) = 31.42875 194.86242 67.29702
#
# Poissons Ratio (x) = 0.13017 0.38418
# Poissons Ratio (y) = 0.02099 0.04624
# Poissons Ratio (z) = 0.17942 0.13390
#
# Static dielectric constant tensor:
#      x y z
#    x 3.960680 0.000000 -0.210180 
#    y 0.000000 5.172500 0.000000 
#    z -0.210180 0.000000 4.014940 
# 
# 
# High freq. dielectric constant tensor:
#      x y z
#    x 1.914950 0.000000 -0.020630 
#    y 0.000000 1.985450 0.000000 
#    z -0.020630 0.000000 1.937050 
# 
# From -- ./inp_files/9133.got.cif
#   From: 2010.03.12/outbox.cif.g09.slc.cpg/sg8_5_cif.got.tgz:9133.got - 2010.03.31 10:45:26.
