data_PCOD8053186
_publ_section_title
;
Structure prediction by ZEFSAII (Michael W. Deem and Ramdas Pophale) SiO2 
 PCOD8053186
Probable space group: C M
;
_chemical_formula_sum "Si O2"
_cell_formula_units_Z 32
_cell_length_a 14.532359
_cell_length_b 8.637958
_cell_length_c 29.101479
_cell_angle_alpha 90.000000
_cell_angle_beta 151.410934
_cell_angle_gamma 90.000000
_cell_volume 1748.099964
_symmetry_space_group_name_H-M "C M"
_symmetry_group_IT_number 8
_symmetry_cell_setting 'monoclinic'
loop_
_space_group_symop_operation_xyz
x,y,z
x,-y,z
1/2+x,1/2+y,z
1/2+x,1/2-y,z
loop_
_atom_site_type_symbol
_atom_site_label
_atom_site_fract_x
_atom_site_fract_y
_atom_site_fract_z
Si Si1 0.398720 0.319885 0.962840
Si Si2 0.034792 0.317515 0.465022
Si Si3 0.156217 0.680487 0.256156
Si Si4 0.551957 0.318079 0.757002
Si Si5 0.273928 0.671865 0.096101
Si Si6 0.978631 0.172284 0.098025
Si Si7 0.147903 0.318010 0.615122
Si Si8 0.435173 0.816150 0.612571
O O1 0.342273 0.500000 0.935011
O O2 0.244428 0.217171 0.868906
O O3 0.608061 0.293522 0.033571
O O4 0.410070 0.256615 0.019889
O O5 0.014577 0.500000 0.450018
O O6 0.037014 0.269978 0.519808
O O7 0.227065 0.262693 0.523716
O O8 0.857446 0.233869 0.363994
O O9 0.132778 0.500000 0.252789
O O10 0.979814 0.765549 0.205768
O O11 0.141900 0.724202 0.195268
O O12 0.534720 0.500000 0.739124
O O13 0.368990 0.260347 0.706948
O O14 0.559729 0.229692 0.711773
O O15 0.232412 0.500000 0.098225
O O16 0.290201 0.663512 0.047827
O O17 0.064610 0.000000 0.127521
O O18 0.148652 0.500000 0.621122
O O19 0.044087 0.249182 0.614870
O O20 0.410162 0.000000 0.599375
#
# Coordination Sequence:
#
# PCOD8053186 Si02
#       8
#     4   4   4   4   4   4   4   4
#     4  11  21  36  57  83 109 143 186 231 272 322
#     4  10  19  36  57  80 111 146 178 220 275 330
#     4  10  19  35  57  82 110 146 185 227 270 320
#     4  10  21  37  55  79 111 147 179 219 274 333
#     4   9  19  37  55  77 108 145 180 224 274 323
#     4   8  19  37  54  75 109 144 180 226 274 318
#     4   8  18  36  57  79 106 140 180 220 268 326
#     4  10  19  36  58  83 108 137 180 231 271 322
#
# _framework density 18.305589000000001
#
# number of rings (size 3 to 8) (size 9 to 14) (size 15 to 20)
#    0.750    1.750    0.000    3.375    0.000    2.000 
#    2.250   10.000    0.000    0.000    0.000    0.000 
#    0.000    0.000    0.000    0.000    0.000    0.000 
#
# Total GULP energy -198283.514008 kJ/mol
# GULP energy per Si atom -12392.719625 kJ/mol
# Density = 1.826392 g / cm^3
# Si number density = 18.305589 Si / 1000 Ang^3
#
#
#
# Elastic Constant Matrix: (Units=GPa)
#
#
# Indices 1 2 3 4 5 6 
#
# 1 121.2721 20.1560 52.6738 -0.0001 -7.1689 0.0001
# 2 20.1560 63.2527 19.0818 0.0001 -4.7240 -0.0001
# 3 52.6738 19.0818 137.0353 0.0003 -8.6658 -0.0001
# 4 -0.0001 0.0001 0.0003 29.9585 -0.0001 4.9680
# 5 -7.1689 -4.7240 -8.6658 -0.0001 20.8782 0.0000
# 6 0.0001 -0.0001 -0.0001 4.9680 0.0000 22.0342
#
#
#
# Elastic Compliance Matrix: (Units=1/GPa)
#
#
# Indices 1 2 3 4 5 6 
#
# 1 0.010221 -0.002071 -0.003541 0.000000 0.001571 0.000000
# 2 -0.002071 0.017090 -0.001421 0.000000 0.002566 0.000000
# 3 -0.003541 -0.001421 0.008995 0.000000 0.002196 0.000000
# 4 0.000000 0.000000 0.000000 0.034676 0.000000 -0.007818
# 5 0.001571 0.002566 0.002196 0.000000 0.049928 0.000000
# 6 0.000000 0.000000 0.000000 -0.007818 0.000000 0.047147
#
#
# Mechanical properties :
#
#
# Convention : Reuss Voigt Hill
#
# Bulk Modulus (GPa) = 44.96607 56.15370 50.55989
# Shear Modulus (GPa) = 26.37994 29.88409 28.13202
#
# Velocity S-wave (km/s) = 3.80028 4.04482 3.92446
# Velocity P-wave (km/s) = 6.62372 7.24958 6.94370
#
# Compressibility (1/GPa) = 0.02223899
#
# Stress axis : x y z
#
# Youngs Moduli (GPa) = 97.83692 58.51347 111.16951
#
# Poissons Ratio (x) = 0.12121 0.39365
# Poissons Ratio (y) = 0.20267 0.15800
# Poissons Ratio (z) = 0.34644 0.08316
#
# Static dielectric constant tensor:
#      x y z
#    x 3.479300 0.000000 -0.039960 
#    y 0.000000 3.297930 0.000000 
#    z -0.039960 0.000000 3.261170 
# 
# 
# High freq. dielectric constant tensor:
#      x y z
#    x 1.701080 0.000000 -0.000760 
#    y 0.000000 1.709850 0.000000 
#    z -0.000760 0.000000 1.703430 
# 
# From -- ./inp_files/26457.got.cif
#   From: 2010.03.12/outbox.cif.g09.slc.cpg/sg8_14_cif.got.tgz:26457.got - 2010.03.31 10:45:26.
