data_PCOD8053939
_publ_section_title
;
Structure prediction by ZEFSAII (Michael W. Deem and Ramdas Pophale) SiO2 
 PCOD8053939
Probable space group: C M
;
_chemical_formula_sum "Si O2"
_cell_formula_units_Z 24
_cell_length_a 9.973585
_cell_length_b 9.009722
_cell_length_c 13.356943
_cell_angle_alpha 90.000000
_cell_angle_beta 79.068673
_cell_angle_gamma 90.000000
_cell_volume 1178.466362
_symmetry_space_group_name_H-M "C M"
_symmetry_group_IT_number 8
_symmetry_cell_setting 'monoclinic'
loop_
_space_group_symop_operation_xyz
x,y,z
x,-y,z
1/2+x,1/2+y,z
1/2+x,1/2-y,z
loop_
_atom_site_type_symbol
_atom_site_label
_atom_site_fract_x
_atom_site_fract_y
_atom_site_fract_z
Si Si1 0.919210 0.170033 0.412970
Si Si2 0.571716 0.327344 0.759478
Si Si3 0.679320 0.170870 0.297496
Si Si4 0.221377 0.827486 0.089686
Si Si5 0.830037 0.828263 0.644297
Si Si6 0.519089 0.172457 0.973259
O O1 0.774757 0.194851 0.379811
O O2 0.903016 0.216260 0.530675
O O3 0.028861 0.274780 0.345690
O O4 0.968302 0.000000 0.396148
O O5 0.590225 0.500000 0.780256
O O6 0.697487 0.272827 0.674962
O O7 0.432715 0.295117 0.720268
O O8 0.571468 0.240157 0.862919
O O9 0.742145 0.262302 0.196941
O O10 0.670721 0.000000 0.266528
O O11 0.186755 0.000000 0.103583
O O12 0.358026 0.799573 0.006611
O O13 0.094915 0.748071 0.054987
O O14 0.785306 0.000000 0.648331
O O15 0.556087 0.000000 0.968764
#
# Coordination Sequence:
#
# PCOD8053939 Si02
#       6
#     4   4   4   4   4   4
#     4  10  22  40  61  87 120 157 197 242 291 344
#     4  11  23  38  60  89 119 155 197 241 292 348
#     4  11  23  38  60  89 119 155 197 241 292 348
#     4  11  24  41  62  88 118 154 196 242 293 349
#     4  10  22  40  61  87 120 157 197 242 291 344
#     4  11  24  41  62  88 118 154 196 242 293 349
#
# _framework density 20.365449999999999
#
# number of rings (size 3 to 8) (size 9 to 14) (size 15 to 20)
#    0.000    1.333    0.000    5.000    0.000   11.333 
#    0.000    0.000    0.000    0.000    0.000    0.000 
#    0.000    0.000    0.000    0.000    0.000    0.000 
#
# Total GULP energy -148902.852804 kJ/mol
# GULP energy per Si atom -12408.571067 kJ/mol
# Density = 2.031910 g / cm^3
# Si number density = 20.365450 Si / 1000 Ang^3
#
#
#
# Elastic Constant Matrix: (Units=GPa)
#
#
# Indices 1 2 3 4 5 6 
#
# 1 76.1249 53.8116 13.7937 0.0000 -5.3640 0.0000
# 2 53.8116 116.0507 41.8965 0.0000 -4.6815 0.0000
# 3 13.7937 41.8965 98.8342 0.0000 1.1997 0.0000
# 4 0.0000 0.0000 0.0000 37.3789 0.0000 -2.5034
# 5 -5.3640 -4.6815 1.1997 0.0000 35.3634 0.0000
# 6 0.0000 0.0000 0.0000 -2.5034 0.0000 35.1042
#
#
#
# Elastic Compliance Matrix: (Units=1/GPa)
#
#
# Indices 1 2 3 4 5 6 
#
# 1 0.019787 -0.009567 0.001273 0.000000 0.001692 0.000000
# 2 -0.009567 0.014879 -0.004980 0.000000 0.000688 0.000000
# 3 0.001273 -0.004980 0.012062 0.000000 -0.000875 0.000000
# 4 0.000000 0.000000 0.000000 0.026881 0.000000 0.001917
# 5 0.001692 0.000688 -0.000875 0.000000 0.028655 0.000000
# 6 0.000000 0.000000 0.000000 0.001917 0.000000 0.028623
#
#
# Mechanical properties :
#
#
# Convention : Reuss Voigt Hill
#
# Bulk Modulus (GPa) = 49.55265 56.66813 53.11039
# Shear Modulus (GPa) = 30.45769 33.66983 32.06376
#
# Velocity S-wave (km/s) = 3.87144 4.07047 3.97220
# Velocity P-wave (km/s) = 6.66098 7.06949 6.86827
#
# Compressibility (1/GPa) = 0.02018056
#
# Stress axis : x y z
#
# Youngs Moduli (GPa) = 50.53754 67.21068 82.90438
#
# Poissons Ratio (x) = 0.64298 -0.10556
# Poissons Ratio (y) = 0.48347 0.41289
# Poissons Ratio (z) = -0.06435 0.33473
#
# Static dielectric constant tensor:
#      x y z
#    x 3.611420 0.000000 0.070290 
#    y 0.000000 3.783930 0.000000 
#    z 0.070290 0.000000 3.749490 
# 
# 
# High freq. dielectric constant tensor:
#      x y z
#    x 1.803490 0.000000 0.002370 
#    y 0.000000 1.803620 0.000000 
#    z 0.002370 0.000000 1.809840 
# 
# From -- ./inp_files/19703.got.cif
#   From: 2010.03.12/outbox.cif.g09.slc.cpg/sg8_10_cif.got.tgz:19703.got - 2010.03.31 10:45:26.
