data_PCOD8053819
_publ_section_title
;
Structure prediction by ZEFSAII (Michael W. Deem and Ramdas Pophale) SiO2 
 PCOD8053819
Probable space group: C M
;
_chemical_formula_sum "Si O2"
_cell_formula_units_Z 32
_cell_length_a 19.348085
_cell_length_b 8.788640
_cell_length_c 12.118060
_cell_angle_alpha 90.000000
_cell_angle_beta 51.932338
_cell_angle_gamma 90.000000
_cell_volume 1622.272175
_symmetry_space_group_name_H-M "C M"
_symmetry_group_IT_number 8
_symmetry_cell_setting 'monoclinic'
loop_
_space_group_symop_operation_xyz
x,y,z
x,-y,z
1/2+x,1/2+y,z
1/2+x,1/2-y,z
loop_
_atom_site_type_symbol
_atom_site_label
_atom_site_fract_x
_atom_site_fract_y
_atom_site_fract_z
Si Si1 0.806550 0.329309 0.630120
Si Si2 0.054847 0.179954 0.609916
Si Si3 0.750435 0.680966 0.457649
Si Si4 0.267264 0.818998 0.906455
Si Si5 0.919764 0.680355 0.161708
Si Si6 0.925636 0.319408 0.902305
Si Si7 0.007173 0.671060 0.433658
Si Si8 0.072721 0.179363 0.156809
O O1 0.770283 0.500000 0.680548
O O2 0.756976 0.250241 0.575809
O O3 0.790506 0.246770 0.763273
O O4 0.907167 0.331515 0.493717
O O5 0.156647 0.229795 0.502296
O O6 0.010967 0.241617 0.764757
O O7 0.007541 0.256581 0.553746
O O8 0.044153 0.000000 0.615217
O O9 0.759166 0.500000 0.456329
O O10 0.828884 0.744106 0.303338
O O11 0.337672 0.759708 0.927042
O O12 0.273868 0.000000 0.898057
O O13 0.169944 0.763350 0.031067
O O14 0.923907 0.500000 0.166960
O O15 0.003473 0.745103 0.143034
O O16 0.921614 0.733627 0.033029
O O17 0.935207 0.500000 0.882372
O O18 0.045586 0.500000 0.398592
O O19 0.060621 0.772938 0.295416
O O20 0.063330 0.000000 0.155441
#
# Coordination Sequence:
#
# PCOD8053819 Si02
#       8
#     4   4   4   4   4   4   4   4
#     4   9  16  33  61  82 101 146 204 239 271 339
#     4  11  23  37  60  90 120 149 193 249 296 338
#     4   9  19  35  58  84 111 153 200 237 281 350
#     4   9  19  35  58  84 111 153 200 237 281 350
#     4  10  21  39  61  83 115 159 202 236 283 354
#     4  10  21  39  61  83 115 159 202 236 283 354
#     4  11  21  39  65  84 113 154 198 241 289 353
#     4  11  23  37  60  90 120 149 193 249 296 338
#
# _framework density 19.72542
#
# number of rings (size 3 to 8) (size 9 to 14) (size 15 to 20)
#    0.000    2.000    2.500    1.125    3.500    0.500 
#    0.000    2.500    0.000    0.000    0.000    0.000 
#    0.000    0.000    0.000    0.000    0.000    0.000 
#
# Total GULP energy -198375.948366 kJ/mol
# GULP energy per Si atom -12398.496773 kJ/mol
# Density = 1.968052 g / cm^3
# Si number density = 19.725420 Si / 1000 Ang^3
#
#
#
# Elastic Constant Matrix: (Units=GPa)
#
#
# Indices 1 2 3 4 5 6 
#
# 1 92.4979 19.6098 44.6776 0.0000 1.5130 0.0000
# 2 19.6098 28.1897 17.2443 0.0000 1.3566 0.0000
# 3 44.6776 17.2443 131.4153 0.0000 3.6210 0.0000
# 4 0.0000 0.0000 0.0000 26.5014 0.0000 -1.2482
# 5 1.5130 1.3566 3.6210 0.0000 40.4357 0.0000
# 6 0.0000 0.0000 0.0000 -1.2482 0.0000 21.5190
#
#
#
# Elastic Compliance Matrix: (Units=1/GPa)
#
#
# Indices 1 2 3 4 5 6 
#
# 1 0.014282 -0.007575 -0.003863 0.000000 0.000066 0.000000
# 2 -0.007575 0.042616 -0.002993 0.000000 -0.000878 0.000000
# 3 -0.003863 -0.002993 0.009332 0.000000 -0.000591 0.000000
# 4 0.000000 0.000000 0.000000 0.037837 0.000000 0.002195
# 5 0.000066 -0.000878 -0.000591 0.000000 0.024811 0.000000
# 6 0.000000 0.000000 0.000000 0.002195 0.000000 0.046598
#
#
# Mechanical properties :
#
#
# Convention : Reuss Voigt Hill
#
# Bulk Modulus (GPa) = 26.76065 46.12962 36.44514
# Shear Modulus (GPa) = 23.06345 29.06265 26.06305
#
# Velocity S-wave (km/s) = 3.42310 3.84260 3.63890
# Velocity P-wave (km/s) = 5.40551 6.56689 6.01430
#
# Compressibility (1/GPa) = 0.03736830
#
# Stress axis : x y z
#
# Youngs Moduli (GPa) = 70.01873 23.46523 107.15997
#
# Poissons Ratio (x) = 0.17775 0.41399
# Poissons Ratio (y) = 0.53039 0.32069
# Poissons Ratio (z) = 0.27050 0.07022
#
# Static dielectric constant tensor:
#      x y z
#    x 3.686210 0.000000 0.055270 
#    y 0.000000 3.207610 0.000000 
#    z 0.055270 0.000000 3.787850 
# 
# 
# High freq. dielectric constant tensor:
#      x y z
#    x 1.779040 0.000000 0.005860 
#    y 0.000000 1.727230 0.000000 
#    z 0.005860 0.000000 1.784080 
# 
# From -- ./inp_files/23839.got.cif
#   From: 2010.03.12/outbox.cif.g09.slc.cpg/sg8_12_cif.got.tgz:23839.got - 2010.03.31 10:45:26.
