data_PCOD8053832
_publ_section_title
;
Structure prediction by ZEFSAII (Michael W. Deem and Ramdas Pophale) SiO2 
 PCOD8053832
Probable space group: C M
;
_chemical_formula_sum "Si O2"
_cell_formula_units_Z 32
_cell_length_a 27.972115
_cell_length_b 8.578738
_cell_length_c 11.871464
_cell_angle_alpha 90.000000
_cell_angle_beta 146.552709
_cell_angle_gamma 90.000000
_cell_volume 1570.139585
_symmetry_space_group_name_H-M "C M"
_symmetry_group_IT_number 8
_symmetry_cell_setting 'monoclinic'
loop_
_space_group_symop_operation_xyz
x,y,z
x,-y,z
1/2+x,1/2+y,z
1/2+x,1/2-y,z
loop_
_atom_site_type_symbol
_atom_site_label
_atom_site_fract_x
_atom_site_fract_y
_atom_site_fract_z
Si Si1 0.461490 0.180571 0.459960
Si Si2 0.623983 0.184843 0.166924
Si Si3 0.304875 0.179173 0.993696
Si Si4 0.378766 0.319100 0.926466
Si Si5 0.563195 0.182047 0.290636
Si Si6 0.315870 0.315903 0.559516
Si Si7 0.611118 0.678365 0.611053
Si Si8 0.474912 0.682308 0.728137
O O1 0.544497 0.211028 0.544913
O O2 0.467351 0.284637 0.581981
O O3 0.460172 0.000000 0.491368
O O4 0.373474 0.230250 0.223547
O O5 0.591413 0.246708 0.224055
O O6 0.721585 0.248334 0.336859
O O7 0.621785 0.000000 0.162620
O O8 0.563322 0.245033 0.948312
O O9 0.314419 0.288589 0.903436
O O10 0.207769 0.201556 0.851435
O O11 0.320852 0.000000 0.989878
O O12 0.406155 0.500000 0.976098
O O13 0.331507 0.267312 0.719219
O O14 0.461765 0.211282 0.108595
O O15 0.615393 0.276166 0.488059
O O16 0.584244 0.000000 0.344899
O O17 0.316062 0.500000 0.547259
O O18 0.391600 0.244745 0.629463
O O19 0.580321 0.500000 0.563378
O O20 0.479568 0.500000 0.759104
#
# Coordination Sequence:
#
# PCOD8053832 Si02
#       8
#     4   4   4   4   4   4   4   4
#     4  11  24  43  63  85 118 159 202 249 302 360
#     4  10  21  39  62  88 121 160 199 240 294 360
#     4  10  23  41  61  89 125 156 195 248 300 357
#     4  11  20  35  62  91 123 161 199 240 297 361
#     4  11  21  35  59  91 127 162 198 243 299 358
#     4   9  20  38  60  88 121 156 196 242 292 354
#     4  11  23  40  63  92 123 158 199 247 301 359
#     4  11  23  41  62  86 118 154 202 255 299 349
#
# _framework density 20.380354000000001
#
# number of rings (size 3 to 8) (size 9 to 14) (size 15 to 20)
#    0.000    1.500    2.500    2.625    0.000    4.000 
#    0.000    5.000    0.000    0.000    0.000    0.000 
#    0.000    0.000    0.000    0.000    0.000    0.000 
#
# Total GULP energy -198463.609849 kJ/mol
# GULP energy per Si atom -12403.975616 kJ/mol
# Density = 2.033397 g / cm^3
# Si number density = 20.380354 Si / 1000 Ang^3
#
#
#
# Elastic Constant Matrix: (Units=GPa)
#
#
# Indices 1 2 3 4 5 6 
#
# 1 70.9948 11.9805 64.0830 0.0000 -4.4868 0.0000
# 2 11.9805 34.2131 19.5123 0.0000 3.5951 0.0000
# 3 64.0830 19.5123 154.4284 0.0000 10.6124 0.0000
# 4 0.0000 0.0000 0.0000 29.1894 0.0000 -3.7004
# 5 -4.4868 3.5951 10.6124 0.0000 36.3362 0.0000
# 6 0.0000 0.0000 0.0000 -3.7004 0.0000 28.6035
#
#
#
# Elastic Compliance Matrix: (Units=1/GPa)
#
#
# Indices 1 2 3 4 5 6 
#
# 1 0.024063 -0.003385 -0.009985 0.000000 0.006223 0.000000
# 2 -0.003385 0.032117 -0.002455 0.000000 -0.002878 0.000000
# 3 -0.009985 -0.002455 0.011223 0.000000 -0.004268 0.000000
# 4 0.000000 0.000000 0.000000 0.034830 0.000000 0.004506
# 5 0.006223 -0.002878 -0.004268 0.000000 0.029820 0.000000
# 6 0.000000 0.000000 0.000000 0.004506 0.000000 0.035544
#
#
# Mechanical properties :
#
#
# Convention : Reuss Voigt Hill
#
# Bulk Modulus (GPa) = 27.97163 50.08756 39.02959
# Shear Modulus (GPa) = 23.67802 29.76319 26.72060
#
# Velocity S-wave (km/s) = 3.41223 3.82565 3.62483
# Velocity P-wave (km/s) = 5.41100 6.64408 6.05899
#
# Compressibility (1/GPa) = 0.03575051
#
# Stress axis : x y z
#
# Youngs Moduli (GPa) = 41.55691 31.13633 89.10532
#
# Poissons Ratio (x) = 0.10541 0.88976
# Poissons Ratio (y) = 0.14068 0.21879
# Poissons Ratio (z) = 0.41496 0.07645
#
# Static dielectric constant tensor:
#      x y z
#    x 3.702940 0.000000 0.135890 
#    y 0.000000 3.489150 0.000000 
#    z 0.135890 0.000000 3.859790 
# 
# 
# High freq. dielectric constant tensor:
#      x y z
#    x 1.793100 0.000000 0.007760 
#    y 0.000000 1.782880 0.000000 
#    z 0.007760 0.000000 1.808300 
# 
# From -- ./inp_files/21530.got.cif
#   From: 2010.03.12/outbox.cif.g09.slc.cpg/sg8_11_cif.got.tgz:21530.got - 2010.03.31 10:45:26.
