data_PCOD8053150
_publ_section_title
;
Structure prediction by ZEFSAII (Michael W. Deem and Ramdas Pophale) SiO2 
 PCOD8053150
Probable space group: C M
;
_chemical_formula_sum "Si O2"
_cell_formula_units_Z 32
_cell_length_a 33.446724
_cell_length_b 9.021734
_cell_length_c 12.599072
_cell_angle_alpha 90.000000
_cell_angle_beta 25.296331
_cell_angle_gamma 90.000000
_cell_volume 1624.482447
_symmetry_space_group_name_H-M "C M"
_symmetry_group_IT_number 8
_symmetry_cell_setting 'monoclinic'
loop_
_space_group_symop_operation_xyz
x,y,z
x,-y,z
1/2+x,1/2+y,z
1/2+x,1/2-y,z
loop_
_atom_site_type_symbol
_atom_site_label
_atom_site_fract_x
_atom_site_fract_y
_atom_site_fract_z
Si Si1 0.511510 0.170867 0.342650
Si Si2 0.493629 0.332447 0.596401
Si Si3 0.210741 0.675360 0.779580
Si Si4 0.706105 0.333996 0.146919
Si Si5 0.142313 0.176378 0.520088
Si Si6 0.828965 0.672133 0.666022
Si Si7 0.253527 0.828930 0.462429
Si Si8 0.459010 0.827574 0.891638
O O1 0.468003 0.259185 0.545910
O O2 0.440187 0.191064 0.415027
O O3 0.518821 0.000000 0.359088
O O4 0.612701 0.231668 0.064511
O O5 0.455337 0.500000 0.691397
O O6 0.604641 0.328390 0.338855
O O7 0.446718 0.242129 0.804631
O O8 0.217166 0.500000 0.765819
O O9 0.297731 0.741597 0.635997
O O10 0.215492 0.729035 0.647934
O O11 0.743756 0.500000 0.071076
O O12 0.700999 0.261759 0.276982
O O13 0.776664 0.255929 0.894813
O O14 0.197939 0.221832 0.491053
O O15 0.040029 0.249996 0.766043
O O16 0.128253 0.000000 0.541879
O O17 0.800941 0.500000 0.718950
O O18 0.232473 0.000000 0.538151
O O19 0.363432 0.802126 0.184409
O O20 0.482398 0.000000 0.821898
#
# Coordination Sequence:
#
# PCOD8053150 Si02
#       8
#     4   4   4   4   4   4   4   4
#     4  10  22  37  58  87 116 151 193 242 293 340
#     4  10  19  34  58  87 120 155 190 233 287 349
#     4  11  24  41  58  84 121 152 192 251 295 331
#     4   8  15  30  56  84 112 148 187 228 272 336
#     4   9  19  37  59  87 118 152 195 235 285 347
#     4  10  20  37  61  85 114 157 197 231 284 355
#     4  10  23  41  63  84 111 159 204 234 280 356
#     4  10  21  37  59  88 118 150 192 242 290 340
#
# _framework density 19.698581999999998
#
# number of rings (size 3 to 8) (size 9 to 14) (size 15 to 20)
#    0.000    2.250    1.250    1.875    1.750    3.500 
#    0.000    3.750    0.000    0.000    0.000    0.000 
#    0.000    0.000    0.000    0.000    0.000    0.000 
#
# Total GULP energy -198392.656081 kJ/mol
# GULP energy per Si atom -12399.541005 kJ/mol
# Density = 1.965375 g / cm^3
# Si number density = 19.698582 Si / 1000 Ang^3
#
#
#
# Elastic Constant Matrix: (Units=GPa)
#
#
# Indices 1 2 3 4 5 6 
#
# 1 127.5249 41.1565 31.2838 0.0000 3.9702 0.0000
# 2 41.1565 70.2300 27.8450 0.0000 3.6537 0.0000
# 3 31.2838 27.8450 51.6228 0.0000 4.5487 0.0000
# 4 0.0000 0.0000 0.0000 27.5442 0.0000 3.1235
# 5 3.9702 3.6537 4.5487 0.0000 26.2296 0.0000
# 6 0.0000 0.0000 0.0000 3.1235 0.0000 33.3503
#
#
#
# Elastic Compliance Matrix: (Units=1/GPa)
#
#
# Indices 1 2 3 4 5 6 
#
# 1 0.010218 -0.004488 -0.003747 0.000000 -0.000272 0.000000
# 2 -0.004488 0.020102 -0.008059 0.000000 -0.000723 0.000000
# 3 -0.003747 -0.008059 0.026241 0.000000 -0.002861 0.000000
# 4 0.000000 0.000000 0.000000 0.036695 0.000000 -0.003437
# 5 -0.000272 -0.000723 -0.002861 0.000000 0.038763 0.000000
# 6 0.000000 0.000000 0.000000 -0.003437 0.000000 0.030307
#
#
# Mechanical properties :
#
#
# Convention : Reuss Voigt Hill
#
# Bulk Modulus (GPa) = 41.71569 49.99425 45.85497
# Shear Modulus (GPa) = 24.64196 27.36430 26.00313
#
# Velocity S-wave (km/s) = 3.54072 3.73117 3.63719
# Velocity P-wave (km/s) = 6.15943 6.63302 6.40060
#
# Compressibility (1/GPa) = 0.02397179
#
# Stress axis : x y z
#
# Youngs Moduli (GPa) = 97.86891 49.74613 38.10758
#
# Poissons Ratio (x) = 0.22326 0.14280
# Poissons Ratio (y) = 0.43923 0.30713
# Poissons Ratio (z) = 0.36675 0.40093
#
# Static dielectric constant tensor:
#      x y z
#    x 3.544090 0.000000 0.025590 
#    y 0.000000 3.441140 0.000000 
#    z 0.025590 0.000000 3.546610 
# 
# 
# High freq. dielectric constant tensor:
#      x y z
#    x 1.771260 0.000000 -0.001620 
#    y 0.000000 1.750790 0.000000 
#    z -0.001620 0.000000 1.764460 
# 
# From -- ./inp_files/21521.got.cif
#   From: 2010.03.12/outbox.cif.g09.slc.cpg/sg8_11_cif.got.tgz:21521.got - 2010.03.31 10:45:26.
