data_PCOD8053748
_publ_section_title
;
Structure prediction by ZEFSAII (Michael W. Deem and Ramdas Pophale) SiO2 
 PCOD8053748
Probable space group: C M
;
_chemical_formula_sum "Si O2"
_cell_formula_units_Z 32
_cell_length_a 15.220320
_cell_length_b 8.767050
_cell_length_c 22.803151
_cell_angle_alpha 90.000000
_cell_angle_beta 148.818420
_cell_angle_gamma 90.000000
_cell_volume 1575.411126
_symmetry_space_group_name_H-M "C M"
_symmetry_group_IT_number 8
_symmetry_cell_setting 'monoclinic'
loop_
_space_group_symop_operation_xyz
x,y,z
x,-y,z
1/2+x,1/2+y,z
1/2+x,1/2-y,z
loop_
_atom_site_type_symbol
_atom_site_label
_atom_site_fract_x
_atom_site_fract_y
_atom_site_fract_z
Si Si1 0.705310 0.318886 0.875000
Si Si2 0.003573 0.676246 0.861733
Si Si3 0.269394 0.171504 0.089152
Si Si4 0.013924 0.327017 0.121887
Si Si5 0.526153 0.179804 0.331379
Si Si6 0.881213 0.817824 0.358312
Si Si7 0.643137 0.679083 0.707683
Si Si8 0.858987 0.319787 0.469300
O O1 0.713296 0.500000 0.883559
O O2 0.556437 0.266762 0.833709
O O3 0.670012 0.262459 0.789448
O O4 0.887897 0.251310 0.001396
O O5 0.029399 0.500000 0.863368
O O6 0.809600 0.715635 0.764915
O O7 0.116692 0.717948 0.983329
O O8 0.426249 0.185105 0.134631
O O9 0.346491 0.215091 0.196486
O O10 0.196713 0.000000 0.047362
O O11 0.046890 0.500000 0.122080
O O12 0.198536 0.249564 0.232969
O O13 0.521034 0.257188 0.392390
O O14 0.675855 0.252962 0.379427
O O15 0.558839 0.000000 0.355480
O O16 0.927790 0.751784 0.448283
O O17 0.884603 0.000000 0.363839
O O18 0.599701 0.500000 0.681755
O O19 0.488170 0.775199 0.594351
O O20 0.846874 0.500000 0.456380
#
# Coordination Sequence:
#
# PCOD8053748 Si02
#       8
#     4   4   4   4   4   4   4   4
#     4   9  19  38  61  86 119 161 202 241 301 369
#     4  10  21  36  59  92 123 154 198 253 304 357
#     4   9  18  36  60  86 123 165 198 242 304 367
#     4   8  15  32  59  87 119 158 195 239 299 362
#     4  11  23  41  63  91 125 164 208 255 311 370
#     4  11  22  39  64  93 126 163 205 255 309 369
#     4  10  23  42  64  86 118 165 207 249 305 368
#     4  12  26  44  64  89 123 164 213 262 309 366
#
# _framework density 20.312156999999999
#
# number of rings (size 3 to 8) (size 9 to 14) (size 15 to 20)
#    0.000    2.000    1.250    3.000    1.750    3.500 
#    0.000    3.125    0.000    0.000    0.000    0.000 
#    0.000    0.000    0.000    0.000    0.000    0.000 
#
# Total GULP energy -198395.135281 kJ/mol
# GULP energy per Si atom -12399.695955 kJ/mol
# Density = 2.026593 g / cm^3
# Si number density = 20.312157 Si / 1000 Ang^3
#
#
#
# Elastic Constant Matrix: (Units=GPa)
#
#
# Indices 1 2 3 4 5 6 
#
# 1 78.6638 28.7426 26.5875 0.0001 -26.4702 0.0000
# 2 28.7426 75.4684 31.2314 0.0001 -7.4218 0.0000
# 3 26.5875 31.2314 79.9284 0.0008 -16.2333 0.0001
# 4 0.0001 0.0001 0.0008 30.1505 0.0001 0.6897
# 5 -26.4702 -7.4218 -16.2333 0.0001 31.2977 0.0000
# 6 0.0000 0.0000 0.0001 0.6897 0.0000 31.5156
#
#
#
# Elastic Compliance Matrix: (Units=1/GPa)
#
#
# Indices 1 2 3 4 5 6 
#
# 1 0.020368 -0.005651 -0.001498 0.000000 0.015109 0.000000
# 2 -0.005651 0.017385 -0.005641 0.000000 -0.003583 0.000000
# 3 -0.001498 -0.005641 0.016414 0.000000 0.005908 0.000000
# 4 0.000000 0.000000 0.000000 0.033184 0.000000 -0.000726
# 5 0.015109 -0.003583 0.005908 0.000000 0.046945 0.000000
# 6 0.000000 0.000000 0.000000 -0.000726 0.000000 0.031746
#
#
# Mechanical properties :
#
#
# Convention : Reuss Voigt Hill
#
# Bulk Modulus (GPa) = 34.98283 45.24261 40.11272
# Shear Modulus (GPa) = 24.85705 28.42603 26.64154
#
# Velocity S-wave (km/s) = 3.50201 3.74499 3.62554
# Velocity P-wave (km/s) = 5.79760 6.40484 6.10877
#
# Compressibility (1/GPa) = 0.02858545
#
# Stress axis : x y z
#
# Youngs Moduli (GPa) = 49.09723 57.52110 60.92457
#
# Poissons Ratio (x) = 0.32507 0.09129
# Poissons Ratio (y) = 0.27746 0.34367
# Poissons Ratio (z) = 0.07357 0.32447
#
# Static dielectric constant tensor:
#      x y z
#    x 3.669340 0.000000 -0.112870 
#    y 0.000000 3.477570 0.000000 
#    z -0.112870 0.000000 3.760460 
# 
# 
# High freq. dielectric constant tensor:
#      x y z
#    x 1.797120 0.000000 -0.006410 
#    y 0.000000 1.777320 0.000000 
#    z -0.006410 0.000000 1.793340 
# 
# From -- ./inp_files/28199.got.cif
#   From: 2010.03.12/outbox.cif.g09.slc.cpg/sg8_15_cif.got.tgz:28199.got - 2010.03.31 10:45:26.
