data_PCOD8053706
_publ_section_title
;
Structure prediction by ZEFSAII (Michael W. Deem and Ramdas Pophale) SiO2 
 PCOD8053706
Probable space group: C M
;
_chemical_formula_sum "Si O2"
_cell_formula_units_Z 28
_cell_length_a 8.099995
_cell_length_b 26.810824
_cell_length_c 7.707700
_cell_angle_alpha 90.000000
_cell_angle_beta 48.338398
_cell_angle_gamma 90.000000
_cell_volume 1250.515426
_symmetry_space_group_name_H-M "C M"
_symmetry_group_IT_number 8
_symmetry_cell_setting 'monoclinic'
loop_
_space_group_symop_operation_xyz
x,y,z
x,-y,z
1/2+x,1/2+y,z
1/2+x,1/2-y,z
loop_
_atom_site_type_symbol
_atom_site_label
_atom_site_fract_x
_atom_site_fract_y
_atom_site_fract_z
Si Si1 0.324660 0.444444 0.967930
Si Si2 0.250207 0.295561 0.555144
Si Si3 0.067087 0.354318 0.008933
Si Si4 0.215997 0.556619 0.438804
Si Si5 0.256526 0.897489 0.752307
Si Si6 0.444460 0.809937 0.439650
Si Si7 0.095226 0.870024 0.224598
O O1 0.272978 0.500000 0.930708
O O2 0.590011 0.439793 0.799150
O O3 0.212518 0.437716 0.233808
O O4 0.232748 0.401286 0.906489
O O5 0.278297 0.236627 0.557009
O O6 0.116130 0.307505 0.476166
O O7 0.495163 0.317893 0.361125
O O8 0.124250 0.319749 0.805469
O O9 0.823199 0.378253 0.166536
O O10 0.078632 0.317302 0.166830
O O11 0.244760 0.500000 0.478876
O O12 0.417311 0.586317 0.388013
O O13 0.981438 0.577685 0.668553
O O14 0.295071 0.858881 0.569843
O O15 0.140836 0.867184 0.988119
#
# Coordination Sequence:
#
# PCOD8053706 Si02
#       7
#     4   4   4   4   4   4   4
#     4  10  23  41  69 106 143 187 238 292 356 424
#     4  12  28  47  69 108 141 188 241 290 359 424
#     4  12  26  46  74 103 150 188 233 295 353 427
#     4  10  20  41  72 103 139 187 238 292 355 419
#     4  11  21  45  71 100 143 184 234 296 348 422
#     4  12  26  47  72 102 139 186 236 294 353 420
#     4  11  23  45  67 102 147 178 235 287 350 420
#
# _framework density 22.390767
#
# number of rings (size 3 to 8) (size 9 to 14) (size 15 to 20)
#    0.000    0.857    4.286    2.143    6.000    2.286 
#    0.000    2.143    0.000    0.000    0.000    0.000 
#    0.000    0.000    0.000    0.000    0.000    0.000 
#
# Total GULP energy -173646.550566 kJ/mol
# GULP energy per Si atom -12403.325040 kJ/mol
# Density = 2.233980 g / cm^3
# Si number density = 22.390767 Si / 1000 Ang^3
#
#
#
# Elastic Constant Matrix: (Units=GPa)
#
#
# Indices 1 2 3 4 5 6 
#
# 1 112.4161 43.7740 52.2876 0.0000 -5.1007 0.0000
# 2 43.7740 133.5609 43.5029 0.0000 -3.1065 0.0000
# 3 52.2876 43.5029 108.6665 0.0000 -9.9522 0.0000
# 4 0.0000 0.0000 0.0000 28.9382 0.0000 -7.7031
# 5 -5.1007 -3.1065 -9.9522 0.0000 40.2061 0.0000
# 6 0.0000 0.0000 0.0000 -7.7031 0.0000 26.4577
#
#
#
# Elastic Compliance Matrix: (Units=1/GPa)
#
#
# Indices 1 2 3 4 5 6 
#
# 1 0.012083 -0.002377 -0.004849 0.000000 0.000149 0.000000
# 2 -0.002377 0.009079 -0.002511 0.000000 -0.000222 0.000000
# 3 -0.004849 -0.002511 0.012756 0.000000 0.002348 0.000000
# 4 0.000000 0.000000 0.000000 0.037460 0.000000 0.010906
# 5 0.000149 -0.000222 0.002348 0.000000 0.025455 0.000000
# 6 0.000000 0.000000 0.000000 0.010906 0.000000 0.040972
#
#
# Mechanical properties :
#
#
# Convention : Reuss Voigt Hill
#
# Bulk Modulus (GPa) = 69.23355 70.41917 69.82636
# Shear Modulus (GPa) = 30.84639 33.45901 32.15270
#
# Velocity S-wave (km/s) = 3.71568 3.86984 3.79354
# Velocity P-wave (km/s) = 7.02824 7.17537 7.10218
#
# Compressibility (1/GPa) = 0.01444386
#
# Stress axis : x y z
#
# Youngs Moduli (GPa) = 82.75849 110.14251 78.39514
#
# Poissons Ratio (x) = 0.26186 0.38012
# Poissons Ratio (y) = 0.19676 0.19685
# Poissons Ratio (z) = 0.40128 0.27657
#
# Static dielectric constant tensor:
#      x y z
#    x 3.907050 0.000000 -0.087760 
#    y 0.000000 4.228510 0.000000 
#    z -0.087760 0.000000 4.165530 
# 
# 
# High freq. dielectric constant tensor:
#      x y z
#    x 1.878280 0.000000 -0.004440 
#    y 0.000000 1.881940 0.000000 
#    z -0.004440 0.000000 1.889980 
# 
# From -- ./inp_files/9212.got.cif
#   From: 2010.03.12/outbox.cif.g09.slc.cpg/sg8_5_cif.got.tgz:9212.got - 2010.03.31 10:45:26.
