data_PCOD8053182
_publ_section_title
;
Structure prediction by ZEFSAII (Michael W. Deem and Ramdas Pophale) SiO2 
 PCOD8053182
Probable space group: C M
;
_chemical_formula_sum "Si O2"
_cell_formula_units_Z 32
_cell_length_a 14.071757
_cell_length_b 8.441336
_cell_length_c 15.866459
_cell_angle_alpha 90.000000
_cell_angle_beta 116.654832
_cell_angle_gamma 90.000000
_cell_volume 1684.393633
_symmetry_space_group_name_H-M "C M"
_symmetry_group_IT_number 8
_symmetry_cell_setting 'monoclinic'
loop_
_space_group_symop_operation_xyz
x,y,z
x,-y,z
1/2+x,1/2+y,z
1/2+x,1/2-y,z
loop_
_atom_site_type_symbol
_atom_site_label
_atom_site_fract_x
_atom_site_fract_y
_atom_site_fract_z
Si Si1 0.345560 0.317460 0.004880
Si Si2 0.436777 0.184133 0.207189
Si Si3 0.192501 0.312109 0.699817
Si Si4 0.151515 0.185000 0.347050
Si Si5 0.112174 0.319120 0.846812
Si Si6 0.857833 0.815841 0.345549
Si Si7 0.410452 0.315457 0.851688
Si Si8 0.078058 0.312907 0.488461
O O1 0.374919 0.500000 0.035727
O O2 0.380614 0.208564 0.095800
O O3 0.219786 0.297710 0.942013
O O4 0.406201 0.250701 0.945935
O O5 0.556758 0.249839 0.250561
O O6 0.370073 0.275073 0.252073
O O7 0.439497 0.000000 0.231839
O O8 0.195194 0.500000 0.693888
O O9 0.126304 0.261073 0.756296
O O10 0.313136 0.244491 0.757055
O O11 0.137503 0.242785 0.594383
O O12 0.150209 0.273594 0.436342
O O13 0.262402 0.214208 0.345547
O O14 0.133966 0.000000 0.355798
O O15 0.073792 0.500000 0.833889
O O16 0.022732 0.213494 0.854062
O O17 0.964897 0.773103 0.437975
O O18 0.831722 0.000000 0.345887
O O19 0.387007 0.500000 0.851167
O O20 0.059436 0.500000 0.487130
#
# Coordination Sequence:
#
# PCOD8053182 Si02
#       8
#     4   4   4   4   4   4   4   4
#     4   9  19  36  54  73 105 144 176 212 263 317
#     4  11  22  37  57  82 109 138 176 220 269 320
#     4   8  17  34  54  76 106 142 174 210 260 316
#     4  11  22  38  57  79 108 141 179 220 266 317
#     4   9  18  34  54  76 104 139 177 216 260 309
#     4  11  22  38  57  79 108 141 179 220 266 317
#     4   9  18  34  54  76 104 139 177 216 260 309
#     4  10  19  35  57  81 110 142 178 220 268 317
#
# _framework density 18.997934000000001
#
# number of rings (size 3 to 8) (size 9 to 14) (size 15 to 20)
#    0.000    2.250    0.000    6.750    0.000    3.000 
#    0.000    9.375    0.000    0.000    0.000    0.000 
#    0.000    0.000    0.000    0.000    0.000    0.000 
#
# Total GULP energy -198406.195520 kJ/mol
# GULP energy per Si atom -12400.387220 kJ/mol
# Density = 1.895469 g / cm^3
# Si number density = 18.997934 Si / 1000 Ang^3
#
#
#
# Elastic Constant Matrix: (Units=GPa)
#
#
# Indices 1 2 3 4 5 6 
#
# 1 113.3162 2.4078 47.5505 0.0000 -1.8547 0.0000
# 2 2.4078 55.9233 17.7736 0.0000 1.5699 0.0000
# 3 47.5505 17.7736 146.5188 0.0000 -3.3955 0.0000
# 4 0.0000 0.0000 0.0000 24.8021 0.0000 -0.1236
# 5 -1.8547 1.5699 -3.3955 0.0000 12.9807 0.0000
# 6 0.0000 0.0000 0.0000 -0.1236 0.0000 32.6057
#
#
#
# Elastic Compliance Matrix: (Units=1/GPa)
#
#
# Indices 1 2 3 4 5 6 
#
# 1 0.010241 0.000622 -0.003387 0.000000 0.000502 0.000000
# 2 0.000622 0.018742 -0.002541 0.000000 -0.002843 0.000000
# 3 -0.003387 -0.002541 0.008279 0.000000 0.001989 0.000000
# 4 0.000000 0.000000 0.000000 0.040320 0.000000 0.000153
# 5 0.000502 -0.002843 0.001989 0.000000 0.077973 0.000000
# 6 0.000000 0.000000 0.000000 0.000153 0.000000 0.030670
#
#
# Mechanical properties :
#
#
# Convention : Reuss Voigt Hill
#
# Bulk Modulus (GPa) = 37.52580 50.13579 43.83079
# Shear Modulus (GPa) = 24.30458 30.61279 27.45868
#
# Velocity S-wave (km/s) = 3.58065 4.01855 3.80590
# Velocity P-wave (km/s) = 6.07373 6.92669 6.51419
#
# Compressibility (1/GPa) = 0.02664833
#
# Stress axis : x y z
#
# Youngs Moduli (GPa) = 97.64355 53.35527 120.79114
#
# Poissons Ratio (x) = -0.03316 0.40917
# Poissons Ratio (y) = -0.06069 0.30695
# Poissons Ratio (z) = 0.33076 0.13558
#
# Static dielectric constant tensor:
#      x y z
#    x 3.352410 0.000000 0.003630 
#    y 0.000000 3.297970 0.000000 
#    z 0.003630 0.000000 3.687500 
# 
# 
# High freq. dielectric constant tensor:
#      x y z
#    x 1.738050 0.000000 -0.000250 
#    y 0.000000 1.728910 0.000000 
#    z -0.000250 0.000000 1.743570 
# 
# From -- ./inp_files/26578.got.cif
#   From: 2010.03.12/outbox.cif.g09.slc.cpg/sg8_14_cif.got.tgz:26578.got - 2010.03.31 10:45:26.
