data_PCOD8053613
_publ_section_title
;
Structure prediction by ZEFSAII (Michael W. Deem and Ramdas Pophale) SiO2 
 PCOD8053613
Probable space group: C M
;
_chemical_formula_sum "Si O2"
_cell_formula_units_Z 32
_cell_length_a 23.293784
_cell_length_b 8.812569
_cell_length_c 14.176738
_cell_angle_alpha 90.000000
_cell_angle_beta 32.639209
_cell_angle_gamma 90.000000
_cell_volume 1569.593866
_symmetry_space_group_name_H-M "C M"
_symmetry_group_IT_number 8
_symmetry_cell_setting 'monoclinic'
loop_
_space_group_symop_operation_xyz
x,y,z
x,-y,z
1/2+x,1/2+y,z
1/2+x,1/2-y,z
loop_
_atom_site_type_symbol
_atom_site_label
_atom_site_fract_x
_atom_site_fract_y
_atom_site_fract_z
Si Si1 0.700530 0.320614 0.562470
Si Si2 0.605815 0.821948 0.387123
Si Si3 0.393412 0.173835 0.787594
Si Si4 0.706753 0.824188 0.937603
Si Si5 0.471831 0.824313 0.884153
Si Si6 0.298548 0.677995 0.608464
Si Si7 0.541035 0.678173 0.286901
Si Si8 0.801591 0.820068 0.244579
O O1 0.691743 0.500000 0.564457
O O2 0.585756 0.247472 0.705901
O O3 0.744077 0.277768 0.604361
O O4 0.782278 0.255694 0.372393
O O5 0.503425 0.772459 0.588718
O O6 0.604830 0.742508 0.287657
O O7 0.709206 0.767268 0.300995
O O8 0.608950 0.000000 0.365958
O O9 0.301052 0.280614 0.877843
O O10 0.400336 0.194287 0.890061
O O11 0.367938 0.000000 0.795971
O O12 0.736595 0.783939 0.789781
O O13 0.683544 0.000000 0.982700
O O14 0.599181 0.734362 0.111705
O O15 0.487666 0.000000 0.888995
O O16 0.414554 0.738320 0.049348
O O17 0.293019 0.500000 0.590571
O O18 0.419588 0.734000 0.453810
O O19 0.546533 0.500000 0.285297
O O20 0.804494 0.000000 0.253422
#
# Coordination Sequence:
#
# PCOD8053613 Si02
#       8
#     4   4   4   4   4   4   4   4
#     4  12  26  43  66  93 121 164 212 260 315 368
#     4  10  20  37  63  94 127 164 201 247 306 366
#     4  10  20  37  63  94 127 164 201 247 306 366
#     4  11  23  40  63  93 125 163 204 251 307 364
#     4  11  23  42  65  94 129 166 207 255 310 370
#     4  10  24  45  64  85 121 164 208 260 311 364
#     4  11  23  40  63  93 125 163 204 251 307 364
#     4  11  23  42  65  94 129 166 207 255 310 370
#
# _framework density 20.387439000000001
#
# number of rings (size 3 to 8) (size 9 to 14) (size 15 to 20)
#    0.000    1.250    2.500    3.375    0.000    7.000 
#    0.000    2.500    0.000    0.000    0.000    0.000 
#    0.000    0.000    0.000    0.000    0.000    0.000 
#
# Total GULP energy -198508.819366 kJ/mol
# GULP energy per Si atom -12406.801210 kJ/mol
# Density = 2.034104 g / cm^3
# Si number density = 20.387439 Si / 1000 Ang^3
#
#
#
# Elastic Constant Matrix: (Units=GPa)
#
#
# Indices 1 2 3 4 5 6 
#
# 1 76.8668 30.1279 11.7974 0.0000 14.7906 0.0000
# 2 30.1279 61.5093 18.1504 -0.0009 3.9243 0.0003
# 3 11.7974 18.1504 93.0461 -0.0004 21.5356 0.0002
# 4 0.0000 -0.0009 -0.0004 37.4318 0.0004 0.3718
# 5 14.7906 3.9243 21.5356 0.0004 20.9516 -0.0001
# 6 0.0000 0.0003 0.0002 0.3718 -0.0001 34.5158
#
#
#
# Elastic Compliance Matrix: (Units=1/GPa)
#
#
# Indices 1 2 3 4 5 6 
#
# 1 0.018975 -0.009177 0.002738 0.000000 -0.014491 0.000000
# 2 -0.009177 0.021691 -0.004759 0.000000 0.007308 0.000000
# 3 0.002738 -0.004759 0.015181 0.000000 -0.016646 0.000000
# 4 0.000000 0.000000 0.000000 0.026718 -0.000001 -0.000288
# 5 -0.014491 0.007308 -0.016646 -0.000001 0.073700 0.000000
# 6 0.000000 0.000000 0.000000 -0.000288 0.000000 0.028975
#
#
# Mechanical properties :
#
#
# Convention : Reuss Voigt Hill
#
# Bulk Modulus (GPa) = 29.89484 39.06372 34.47928
# Shear Modulus (GPa) = 22.85329 30.00295 26.42812
#
# Velocity S-wave (km/s) = 3.35169 3.84036 3.60431
# Velocity P-wave (km/s) = 5.44735 6.23432 5.85407
#
# Compressibility (1/GPa) = 0.03345059
#
# Stress axis : x y z
#
# Youngs Moduli (GPa) = 52.70199 46.10211 65.87071
#
# Poissons Ratio (x) = 0.42310 -0.18037
# Poissons Ratio (y) = 0.48367 0.31348
# Poissons Ratio (z) = -0.14431 0.21940
#
# Static dielectric constant tensor:
#      x y z
#    x 3.638450 0.000000 0.029580 
#    y 0.000000 3.640560 0.000000 
#    z 0.029580 0.000000 3.914280 
# 
# 
# High freq. dielectric constant tensor:
#      x y z
#    x 1.791550 0.000000 0.006670 
#    y 0.000000 1.798130 0.000000 
#    z 0.006670 0.000000 1.814010 
# 
# From -- ./inp_files/26580.got.cif
#   From: 2010.03.12/outbox.cif.g09.slc.cpg/sg8_14_cif.got.tgz:26580.got - 2010.03.31 10:45:26.
