data_PCOD8053159
_publ_section_title
;
Structure prediction by ZEFSAII (Michael W. Deem and Ramdas Pophale) SiO2 
 PCOD8053159
Probable space group: C M
;
_chemical_formula_sum "Si O2"
_cell_formula_units_Z 24
_cell_length_a 24.343320
_cell_length_b 8.514501
_cell_length_c 18.227543
_cell_angle_alpha 90.000000
_cell_angle_beta 18.723898
_cell_angle_gamma 90.000000
_cell_volume 1212.782870
_symmetry_space_group_name_H-M "C M"
_symmetry_group_IT_number 8
_symmetry_cell_setting 'monoclinic'
loop_
_space_group_symop_operation_xyz
x,y,z
x,-y,z
1/2+x,1/2+y,z
1/2+x,1/2-y,z
loop_
_atom_site_type_symbol
_atom_site_label
_atom_site_fract_x
_atom_site_fract_y
_atom_site_fract_z
Si Si1 0.849470 0.818526 0.429340
Si Si2 0.531680 0.316240 0.748852
Si Si3 0.336994 0.818046 0.603672
Si Si4 0.676729 0.182069 0.940061
Si Si5 0.385027 0.824311 0.799595
Si Si6 0.684539 0.324295 0.190892
O O1 0.677610 0.783381 0.602590
O O2 0.814895 0.779761 0.557700
O O3 0.898043 0.000000 0.359541
O O4 0.000270 0.715392 0.204282
O O5 0.565042 0.500000 0.716836
O O6 0.527795 0.269602 0.666860
O O7 0.349579 0.266069 0.016310
O O8 0.184970 0.775407 0.852514
O O9 0.513517 0.773768 0.421811
O O10 0.332382 0.000000 0.589331
O O11 0.839351 0.231888 0.783784
O O12 0.691370 0.000000 0.903775
O O13 0.451038 0.000000 0.697188
O O14 0.211870 0.835539 0.067953
O O15 0.669272 0.500000 0.243723
#
# Coordination Sequence:
#
# PCOD8053159 Si02
#       6
#     4   4   4   4   4   4
#     4  12  23  40  61  86 122 160 196 244 297 354
#     4  10  19  34  59  88 116 156 198 238 293 354
#     4  12  24  39  61  90 120 157 200 246 295 351
#     4  12  24  39  61  90 120 157 200 246 295 351
#     4   9  18  35  58  85 115 150 192 237 288 342
#     4   9  18  35  58  85 115 150 192 237 288 342
#
# _framework density 19.789199
#
# number of rings (size 3 to 8) (size 9 to 14) (size 15 to 20)
#    1.000    0.333    1.667    6.500    0.000    0.000 
#    0.000    1.667    0.000    0.000    0.000    0.000 
#    0.000    0.000    0.000    0.000    0.000    0.000 
#
# Total GULP energy -148759.582096 kJ/mol
# GULP energy per Si atom -12396.631841 kJ/mol
# Density = 1.974416 g / cm^3
# Si number density = 19.789199 Si / 1000 Ang^3
#
#
#
# Elastic Constant Matrix: (Units=GPa)
#
#
# Indices 1 2 3 4 5 6 
#
# 1 86.8501 11.2812 44.9830 0.0000 -3.8192 0.0000
# 2 11.2812 117.1905 6.9764 0.0000 -3.4982 0.0000
# 3 44.9830 6.9764 50.0631 0.0000 -2.7519 0.0000
# 4 0.0000 0.0000 0.0000 31.7104 0.0000 -3.4212
# 5 -3.8192 -3.4982 -2.7519 0.0000 28.9322 0.0000
# 6 0.0000 0.0000 0.0000 -3.4212 0.0000 33.4751
#
#
#
# Elastic Compliance Matrix: (Units=1/GPa)
#
#
# Indices 1 2 3 4 5 6 
#
# 1 0.021662 -0.000910 -0.019287 0.000000 0.000915 0.000000
# 2 -0.000910 0.008668 -0.000341 0.000000 0.000895 0.000000
# 3 -0.019287 -0.000341 0.037405 0.000000 0.000971 0.000000
# 4 0.000000 0.000000 0.000000 0.031887 0.000000 0.003259
# 5 0.000915 0.000895 0.000971 0.000000 0.034885 0.000000
# 6 0.000000 0.000000 0.000000 0.003259 0.000000 0.030206
#
#
# Mechanical properties :
#
#
# Convention : Reuss Voigt Hill
#
# Bulk Modulus (GPa) = 37.50994 42.28721 39.89857
# Shear Modulus (GPa) = 23.29109 31.54775 27.41942
#
# Velocity S-wave (km/s) = 3.43441 3.99706 3.72637
# Velocity P-wave (km/s) = 5.89260 6.53584 6.22254
#
# Compressibility (1/GPa) = 0.02665960
#
# Stress axis : x y z
#
# Youngs Moduli (GPa) = 46.16423 115.37042 26.73422
#
# Poissons Ratio (x) = 0.10496 0.51561
# Poissons Ratio (y) = 0.04200 0.00912
# Poissons Ratio (z) = 0.89035 0.03936
#
# Static dielectric constant tensor:
#      x y z
#    x 3.422220 0.000000 -0.069720 
#    y 0.000000 3.555360 0.000000 
#    z -0.069720 0.000000 3.340780 
# 
# 
# High freq. dielectric constant tensor:
#      x y z
#    x 1.756270 0.000000 -0.006620 
#    y 0.000000 1.788090 0.000000 
#    z -0.006620 0.000000 1.748210 
# 
# From -- ./inp_files/31593.got.cif
#   From: 2010.03.12/outbox.cif.g09.slc.cpg/sg8_16_cif.got.tgz:31593.got - 2010.03.31 10:45:26.
