data_PCOD8053183
_publ_section_title
;
Structure prediction by ZEFSAII (Michael W. Deem and Ramdas Pophale) SiO2 
 PCOD8053183
Probable space group: C M
;
_chemical_formula_sum "Si O2"
_cell_formula_units_Z 32
_cell_length_a 20.117971
_cell_length_b 8.764953
_cell_length_c 24.967685
_cell_angle_alpha 90.000000
_cell_angle_beta 23.154784
_cell_angle_gamma 90.000000
_cell_volume 1731.185903
_symmetry_space_group_name_H-M "C M"
_symmetry_group_IT_number 8
_symmetry_cell_setting 'monoclinic'
loop_
_space_group_symop_operation_xyz
x,y,z
x,-y,z
1/2+x,1/2+y,z
1/2+x,1/2-y,z
loop_
_atom_site_type_symbol
_atom_site_label
_atom_site_fract_x
_atom_site_fract_y
_atom_site_fract_z
Si Si1 0.604940 0.677000 0.616070
Si Si2 0.470554 0.679890 0.097185
Si Si3 0.978078 0.321418 0.308630
Si Si4 0.765290 0.178191 0.812003
Si Si5 0.102261 0.680721 0.100935
Si Si6 0.055334 0.321164 0.871079
Si Si7 0.757714 0.680350 0.167068
Si Si8 0.967211 0.680522 0.821370
O O1 0.596911 0.500000 0.637999
O O2 0.780810 0.720390 0.458065
O O3 0.459300 0.717689 0.680832
O O4 0.585280 0.774556 0.684461
O O5 0.455420 0.500000 0.110682
O O6 0.468878 0.747302 0.158312
O O7 0.308279 0.747103 0.186484
O O8 0.646354 0.726140 0.939138
O O9 0.009589 0.500000 0.292334
O O10 0.048819 0.262981 0.199447
O O11 0.072545 0.234970 0.286801
O O12 0.723135 0.222212 0.781151
O O13 0.724268 0.000000 0.852222
O O14 0.095667 0.500000 0.100954
O O15 0.288027 0.738028 0.948430
O O16 0.035830 0.500000 0.881386
O O17 0.059108 0.257775 0.807648
O O18 0.890842 0.258040 0.024122
O O19 0.761633 0.500000 0.170314
O O20 0.938276 0.500000 0.843531
#
# Coordination Sequence:
#
# PCOD8053183 Si02
#       8
#     4   4   4   4   4   4   4   4
#     4  10  21  37  56  79 113 152 185 227 281 335
#     4  11  21  33  54  84 114 142 182 236 280 330
#     4  10  22  38  56  81 114 152 192 230 276 333
#     4   9  17  33  55  78 107 147 185 222 276 332
#     4  11  21  35  55  81 112 148 190 234 277 328
#     4   8  16  30  51  79 107 135 178 229 273 319
#     4  10  19  35  57  81 111 147 184 229 283 334
#     4  11  20  33  54  83 112 141 186 237 278 327
#
# _framework density 18.484438999999998
#
# number of rings (size 3 to 8) (size 9 to 14) (size 15 to 20)
#    0.000    2.000    2.500    3.000    0.000    1.000 
#    0.000    1.875    0.000    3.000    0.000    0.000 
#    0.000    0.000    0.000    0.000    0.000    0.000 
#
# Total GULP energy -198392.997097 kJ/mol
# GULP energy per Si atom -12399.562319 kJ/mol
# Density = 1.844237 g / cm^3
# Si number density = 18.484439 Si / 1000 Ang^3
#
#
#
# Elastic Constant Matrix: (Units=GPa)
#
#
# Indices 1 2 3 4 5 6 
#
# 1 147.4488 43.3999 38.4431 -0.0064 -19.9173 0.0003
# 2 43.3999 74.0418 26.5944 0.0009 -6.4847 0.0002
# 3 38.4431 26.5944 70.0224 -0.0127 -13.4985 0.0023
# 4 -0.0064 0.0009 -0.0127 19.5630 -0.0012 -2.7268
# 5 -19.9173 -6.4847 -13.4985 -0.0012 28.9135 0.0004
# 6 0.0003 0.0002 0.0023 -2.7268 0.0004 29.3083
#
#
#
# Elastic Compliance Matrix: (Units=1/GPa)
#
#
# Indices 1 2 3 4 5 6 
#
# 1 0.009260 -0.004082 -0.002726 0.000002 0.004191 0.000000
# 2 -0.004082 0.017456 -0.004589 -0.000005 -0.001039 0.000000
# 3 -0.002726 -0.004589 0.018638 0.000012 0.005794 0.000000
# 4 0.000002 -0.000005 0.000012 0.051789 0.000008 0.004818
# 5 0.004191 -0.001039 0.005794 0.000008 0.039945 0.000000
# 6 0.000000 0.000000 0.000000 0.004818 0.000000 0.034568
#
#
# Mechanical properties :
#
#
# Convention : Reuss Voigt Hill
#
# Bulk Modulus (GPa) = 44.32590 56.48753 50.40671
# Shear Modulus (GPa) = 24.75634 27.76201 26.25917
#
# Velocity S-wave (km/s) = 3.66362 3.87966 3.77319
# Velocity P-wave (km/s) = 6.47521 7.12003 6.80526
#
# Compressibility (1/GPa) = 0.02256018
#
# Stress axis : x y z
#
# Youngs Moduli (GPa) = 107.98854 57.28774 53.65522
#
# Poissons Ratio (x) = 0.23384 0.14625
# Poissons Ratio (y) = 0.44079 0.24623
# Poissons Ratio (z) = 0.29436 0.26290
#
# Static dielectric constant tensor:
#      x y z
#    x 3.866260 0.000000 -0.102410 
#    y 0.000000 3.259900 0.000010 
#    z -0.102410 0.000010 3.147220 
# 
# 
# High freq. dielectric constant tensor:
#      x y z
#    x 1.736800 0.000000 -0.013840 
#    y 0.000000 1.708960 0.000000 
#    z -0.013840 0.000000 1.682360 
# 
# From -- ./inp_files/31343.got.cif
#   From: 2010.03.12/outbox.cif.g09.slc.cpg/sg8_16_cif.got.tgz:31343.got - 2010.03.31 10:45:26.
