data_PCOD8053419
_publ_section_title
;
Structure prediction by ZEFSAII (Michael W. Deem and Ramdas Pophale) SiO2 
 PCOD8053419
Probable space group: C M
;
_chemical_formula_sum "Si O2"
_cell_formula_units_Z 32
_cell_length_a 20.706734
_cell_length_b 8.836734
_cell_length_c 25.291225
_cell_angle_alpha 90.000000
_cell_angle_beta 22.261208
_cell_angle_gamma 90.000000
_cell_volume 1753.142538
_symmetry_space_group_name_H-M "C M"
_symmetry_group_IT_number 8
_symmetry_cell_setting 'monoclinic'
loop_
_space_group_symop_operation_xyz
x,y,z
x,-y,z
1/2+x,1/2+y,z
1/2+x,1/2-y,z
loop_
_atom_site_type_symbol
_atom_site_label
_atom_site_fract_x
_atom_site_fract_y
_atom_site_fract_z
Si Si1 0.047640 0.322462 0.192970
Si Si2 0.041282 0.821756 0.472407
Si Si3 0.593915 0.824091 0.036171
Si Si4 0.697201 0.177666 0.456499
Si Si5 0.216207 0.174758 0.758894
Si Si6 0.355395 0.172512 0.769137
Si Si7 0.783762 0.820679 0.210494
Si Si8 0.838128 0.820426 0.051292
O O1 0.017472 0.500000 0.224272
O O2 0.200281 0.260351 0.113907
O O3 0.095963 0.283813 0.096360
O O4 0.878513 0.234975 0.340021
O O5 0.844892 0.773787 0.626594
O O6 0.156450 0.762159 0.433032
O O7 0.114361 0.753182 0.363049
O O8 0.057220 0.000000 0.458748
O O9 0.450716 0.725891 0.116286
O O10 0.555916 0.000000 0.055561
O O11 0.778591 0.781006 0.872355
O O12 0.553443 0.215419 0.609295
O O13 0.698959 0.000000 0.442897
O O14 0.250452 0.197427 0.794921
O O15 0.242879 0.000000 0.723048
O O16 0.025981 0.234215 0.890930
O O17 0.338265 0.000000 0.801374
O O18 0.795640 0.758476 0.141760
O O19 0.767414 0.000000 0.224899
O O20 0.840368 0.000000 0.051497
#
# Coordination Sequence:
#
# PCOD8053419 Si02
#       8
#     4   4   4   4   4   4   4   4
#     4  10  21  37  56  81 113 145 180 226 277 324
#     4  11  21  33  52  83 114 140 176 230 281 322
#     4  11  21  32  52  84 114 139 175 227 280 321
#     4  10  20  35  55  79 108 147 187 222 269 326
#     4   9  17  34  56  79 105 141 186 227 268 322
#     4   9  18  33  54  79 105 138 183 226 264 317
#     4  11  20  35  58  81 106 142 188 228 266 322
#     4   9  19  37  59  80 107 146 187 224 267 326
#
# _framework density 18.252935999999998
#
# number of rings (size 3 to 8) (size 9 to 14) (size 15 to 20)
#    0.000    2.000    2.500    3.000    0.000    3.000 
#    0.000    3.125    0.000    6.000    0.000    0.000 
#    0.000    0.000    0.000    0.000    0.000    0.000 
#
# Total GULP energy -198431.270019 kJ/mol
# GULP energy per Si atom -12401.954376 kJ/mol
# Density = 1.821139 g / cm^3
# Si number density = 18.252936 Si / 1000 Ang^3
#
#
#
# Elastic Constant Matrix: (Units=GPa)
#
#
# Indices 1 2 3 4 5 6 
#
# 1 99.0796 35.2994 68.7315 -0.0020 -5.9191 -0.0002
# 2 35.2994 77.6203 48.0920 -0.0064 3.2724 -0.0011
# 3 68.7315 48.0920 158.1412 -0.0209 -5.6366 -0.0046
# 4 -0.0020 -0.0064 -0.0209 29.4559 -0.0029 -0.1813
# 5 -5.9191 3.2724 -5.6366 -0.0029 29.5460 0.0001
# 6 -0.0002 -0.0011 -0.0046 -0.1813 0.0001 19.0482
#
#
#
# Elastic Compliance Matrix: (Units=1/GPa)
#
#
# Indices 1 2 3 4 5 6 
#
# 1 0.015341 -0.003700 -0.005456 -0.000003 0.002442 -0.000001
# 2 -0.003700 0.016983 -0.003675 0.000000 -0.003323 0.000000
# 3 -0.005456 -0.003675 0.009855 0.000006 0.001194 0.000002
# 4 -0.000003 0.000000 0.000006 0.033951 0.000004 0.000323
# 5 0.002442 -0.003323 0.001194 0.000004 0.034931 0.000000
# 6 -0.000001 0.000000 0.000002 0.000323 0.000000 0.052501
#
#
# Mechanical properties :
#
#
# Convention : Reuss Voigt Hill
#
# Bulk Modulus (GPa) = 60.53862 71.00964 65.77413
# Shear Modulus (GPa) = 25.67672 27.79125 26.73398
#
# Velocity S-wave (km/s) = 3.75469 3.90624 3.83121
# Velocity P-wave (km/s) = 7.21356 7.70276 7.46217
#
# Compressibility (1/GPa) = 0.01651838
#
# Stress axis : x y z
#
# Youngs Moduli (GPa) = 65.18314 58.88292 101.47378
#
# Poissons Ratio (x) = 0.21784 0.55360
# Poissons Ratio (y) = 0.24115 0.37293
# Poissons Ratio (z) = 0.35561 0.21640
#
# Static dielectric constant tensor:
#      x y z
#    x 3.236990 0.000000 0.057050 
#    y 0.000000 3.225130 0.000000 
#    z 0.057050 0.000000 3.662090 
# 
# 
# High freq. dielectric constant tensor:
#      x y z
#    x 1.677160 0.000000 0.008410 
#    y 0.000000 1.698740 0.000000 
#    z 0.008410 0.000000 1.725370 
# 
# From -- ./inp_files/31353.got.cif
#   From: 2010.03.12/outbox.cif.g09.slc.cpg/sg8_16_cif.got.tgz:31353.got - 2010.03.31 10:45:26.
