data_PCOD8053375
_publ_section_title
;
Structure prediction by ZEFSAII (Michael W. Deem and Ramdas Pophale) SiO2 
 PCOD8053375
Probable space group: C M
;
_chemical_formula_sum "Si O2"
_cell_formula_units_Z 32
_cell_length_a 23.219100
_cell_length_b 10.655791
_cell_length_c 6.523922
_cell_angle_alpha 90.000000
_cell_angle_beta 73.682120
_cell_angle_gamma 90.000000
_cell_volume 1549.113796
_symmetry_space_group_name_H-M "C M"
_symmetry_group_IT_number 8
_symmetry_cell_setting 'monoclinic'
loop_
_space_group_symop_operation_xyz
x,y,z
x,-y,z
1/2+x,1/2+y,z
1/2+x,1/2-y,z
loop_
_atom_site_type_symbol
_atom_site_label
_atom_site_fract_x
_atom_site_fract_y
_atom_site_fract_z
Si Si1 0.381620 0.776901 0.625000
Si Si2 0.267765 0.864859 0.562335
Si Si3 0.807445 0.135142 0.022654
Si Si4 0.662842 0.356899 0.958115
Si Si5 0.412370 0.643101 0.208589
Si Si6 0.968380 0.359139 0.877991
Si Si7 0.606830 0.140861 0.739537
Si Si8 0.193589 0.276901 0.313031
O O1 0.339956 0.862388 0.520576
O O2 0.413489 0.672207 0.450728
O O3 0.432251 0.849645 0.700431
O O4 0.330969 0.728013 0.828684
O O5 0.231145 0.845174 0.811000
O O6 0.244239 0.771987 0.415420
O O7 0.252164 0.000000 0.486602
O O8 0.844068 0.154826 0.198070
O O9 0.735255 0.137613 0.125282
O O10 0.823043 0.000000 0.915723
O O11 0.638120 0.500000 0.949048
O O12 0.623052 0.252522 0.880104
O O13 0.661721 0.327792 0.202495
O O14 0.437091 0.500000 0.150083
O O15 0.452159 0.747479 0.051005
O O16 0.956258 0.500000 0.981719
O O17 0.037605 0.343956 0.751265
O O18 0.642958 0.150354 0.489717
O O19 0.618952 0.000000 0.819021
#
# Coordination Sequence:
#
# PCOD8053375 Si02
#       8
#     4   4   4   4   4   4   4   4
#     4  11  20  38  60  92 124 163 200 250 310 366
#     4  10  20  34  55  88 126 160 198 243 301 372
#     4  10  20  34  55  88 126 160 198 243 301 372
#     4  10  22  40  62  90 125 164 207 256 307 367
#     4  10  22  40  62  90 125 164 207 256 307 367
#     4  10  24  44  64  90 124 164 214 263 306 365
#     4  10  24  44  64  90 124 164 214 263 306 365
#     4  11  20  38  60  92 124 163 200 250 310 366
#
# _framework density 20.656972
#
# number of rings (size 3 to 8) (size 9 to 14) (size 15 to 20)
#    0.000    1.750    2.500    1.500    0.000    4.500 
#    0.000    2.500    0.000    0.000    0.000    0.000 
#    0.000    0.000    0.000    0.000    0.000    0.000 
#
# Total GULP energy -198215.722512 kJ/mol
# GULP energy per Si atom -12388.482657 kJ/mol
# Density = 2.060996 g / cm^3
# Si number density = 20.656972 Si / 1000 Ang^3
#
#
#
# Elastic Constant Matrix: (Units=GPa)
#
#
# Indices 1 2 3 4 5 6 
#
# 1 112.9532 57.7115 37.6080 0.0000 -12.2648 0.0000
# 2 57.7115 148.5626 46.0313 0.0000 -3.9601 0.0000
# 3 37.6080 46.0313 86.1378 0.0000 3.1750 0.0000
# 4 0.0000 0.0000 0.0000 30.3481 0.0000 1.1467
# 5 -12.2648 -3.9601 3.1750 0.0000 24.8097 0.0000
# 6 0.0000 0.0000 0.0000 1.1467 0.0000 26.9627
#
#
#
# Elastic Compliance Matrix: (Units=1/GPa)
#
#
# Indices 1 2 3 4 5 6 
#
# 1 0.012612 -0.003546 -0.003839 0.000000 0.006160 0.000000
# 2 -0.003546 0.009149 -0.003346 0.000000 0.000136 0.000000
# 3 -0.003839 -0.003346 0.015235 0.000000 -0.004381 0.000000
# 4 0.000000 0.000000 0.000000 0.033004 0.000000 -0.001404
# 5 0.006160 0.000136 -0.004381 0.000000 0.043934 0.000000
# 6 0.000000 0.000000 0.000000 -0.001404 0.000000 0.037148
#
#
# Mechanical properties :
#
#
# Convention : Reuss Voigt Hill
#
# Bulk Modulus (GPa) = 64.37136 70.03947 67.20542
# Shear Modulus (GPa) = 28.13401 30.17763 29.15582
#
# Velocity S-wave (km/s) = 3.69448 3.82631 3.76097
# Velocity P-wave (km/s) = 7.03055 7.31440 7.17388
#
# Compressibility (1/GPa) = 0.01553486
#
# Stress axis : x y z
#
# Youngs Moduli (GPa) = 79.29104 109.30266 65.63900
#
# Poissons Ratio (x) = 0.38755 0.25196
# Poissons Ratio (y) = 0.28114 0.21963
# Poissons Ratio (z) = 0.30437 0.36573
#
# Static dielectric constant tensor:
#      x y z
#    x 3.601510 0.000000 -0.003070 
#    y 0.000000 3.902790 0.000000 
#    z -0.003070 0.000000 3.592530 
# 
# 
# High freq. dielectric constant tensor:
#      x y z
#    x 1.795370 0.000000 0.001170 
#    y 0.000000 1.815440 0.000000 
#    z 0.001170 0.000000 1.798830 
# 
# From -- ./inp_files/5996.got.cif
#   From: 2010.03.12/outbox.cif.g09.slc.cpg/sg8_3_cif.got.tgz:5996.got - 2010.03.31 10:45:26.
