data_PCOD8053524
_publ_section_title
;
Structure prediction by ZEFSAII (Michael W. Deem and Ramdas Pophale) SiO2 
 PCOD8053524
Probable space group: C M
;
_chemical_formula_sum "Si O2"
_cell_formula_units_Z 32
_cell_length_a 14.313680
_cell_length_b 14.939008
_cell_length_c 19.540952
_cell_angle_alpha 90.000000
_cell_angle_beta 158.688589
_cell_angle_gamma 90.000000
_cell_volume 1518.614897
_symmetry_space_group_name_H-M "C M"
_symmetry_group_IT_number 8
_symmetry_cell_setting 'monoclinic'
loop_
_space_group_symop_operation_xyz
x,y,z
x,-y,z
1/2+x,1/2+y,z
1/2+x,1/2-y,z
loop_
_atom_site_type_symbol
_atom_site_label
_atom_site_fract_x
_atom_site_fract_y
_atom_site_fract_z
Si Si1 0.524260 0.898760 0.379580
Si Si2 0.365985 0.783731 0.155246
Si Si3 0.057649 0.100819 0.468213
Si Si4 0.103645 0.597813 0.586833
Si Si5 0.971859 0.605640 0.097265
Si Si6 0.336935 0.214839 0.765761
Si Si7 0.569090 0.319241 0.717951
Si Si8 0.782634 0.343759 0.485729
O O1 0.337641 0.832535 0.209892
O O2 0.468031 0.881946 0.421448
O O3 0.823836 0.881158 0.566113
O O4 0.459460 0.000000 0.314687
O O5 0.393961 0.862212 0.119141
O O6 0.624968 0.726579 0.332288
O O7 0.140395 0.711581 0.987611
O O8 0.766738 0.131153 0.283304
O O9 0.258595 0.167350 0.641855
O O10 0.108504 0.103785 0.421445
O O11 0.103917 0.000000 0.526204
O O12 0.243095 0.500000 0.676938
O O13 0.297455 0.677851 0.735002
O O14 0.901989 0.589171 0.511596
O O15 0.924172 0.500000 0.057448
O O16 0.794944 0.659731 0.924375
O O17 0.175199 0.163783 0.713644
O O18 0.497193 0.213825 0.673684
#
# Coordination Sequence:
#
# PCOD8053524 Si02
#       8
#     4   4   4   4   4   4   4   4
#     4  10  20  36  59  87 118 151 192 244 296 347
#     4  11  22  36  59  85 117 157 194 238 294 353
#     4  11  23  40  61  85 117 156 199 246 294 346
#     4  10  21  38  61  86 115 153 195 241 294 350
#     4  11  22  36  59  90 119 152 199 249 296 348
#     4  11  23  39  59  86 119 156 196 241 295 351
#     4  10  21  36  59  86 117 155 192 239 296 351
#     4  10  21  39  60  83 116 156 196 238 291 354
#
# _framework density 21.071835
#
# number of rings (size 3 to 8) (size 9 to 14) (size 15 to 20)
#    0.000    1.500    0.000    7.125    0.000    5.000 
#    0.000    1.250    0.000    3.000    0.000    0.000 
#    0.000    0.000    0.000    0.000    0.000    0.000 
#
# Total GULP energy -198355.139311 kJ/mol
# GULP energy per Si atom -12397.196207 kJ/mol
# Density = 2.102387 g / cm^3
# Si number density = 21.071835 Si / 1000 Ang^3
#
#
#
# Elastic Constant Matrix: (Units=GPa)
#
#
# Indices 1 2 3 4 5 6 
#
# 1 123.6615 23.2137 37.1136 -0.0724 -1.7514 -0.1807
# 2 23.2137 87.9601 42.0046 0.1787 -9.2847 -0.1751
# 3 37.1136 42.0046 113.2548 -0.0883 -11.1876 -0.2157
# 4 -0.0724 0.1787 -0.0883 17.7570 -0.0526 -0.4723
# 5 -1.7514 -9.2847 -11.1876 -0.0526 29.6950 0.0884
# 6 -0.1807 -0.1751 -0.2157 -0.4723 0.0884 26.6492
#
#
#
# Elastic Compliance Matrix: (Units=1/GPa)
#
#
# Indices 1 2 3 4 5 6 
#
# 1 0.009089 -0.001246 -0.002598 0.000035 -0.000832 0.000036
# 2 -0.001246 0.014165 -0.004586 -0.000162 0.002627 0.000036
# 3 -0.002598 -0.004586 0.011659 0.000103 0.002806 0.000039
# 4 0.000035 -0.000162 0.000103 0.056345 0.000087 0.000998
# 5 -0.000832 0.002627 0.002806 0.000087 0.035506 -0.000082
# 6 0.000036 0.000036 0.000039 0.000998 -0.000082 0.037543
#
#
# Mechanical properties :
#
#
# Convention : Reuss Voigt Hill
#
# Bulk Modulus (GPa) = 55.39243 58.83779 57.11511
# Shear Modulus (GPa) = 26.71155 29.65653 28.18404
#
# Velocity S-wave (km/s) = 3.56426 3.75560 3.66118
# Velocity P-wave (km/s) = 6.57899 6.84026 6.71090
#
# Compressibility (1/GPa) = 0.01805301
#
# Stress axis : x y z
#
# Youngs Moduli (GPa) = 110.02852 70.59519 85.76796
#
# Poissons Ratio (x) = 0.08793 0.22287
# Poissons Ratio (y) = 0.13705 0.39334
# Poissons Ratio (z) = 0.28591 0.32375
#
# Static dielectric constant tensor:
#      x y z
#    x 3.967950 -0.000230 -0.075570 
#    y -0.000230 3.759330 -0.000430 
#    z -0.075570 -0.000430 3.662390 
# 
# 
# High freq. dielectric constant tensor:
#      x y z
#    x 1.839590 0.000010 -0.005710 
#    y 0.000010 1.823570 -0.000050 
#    z -0.005710 -0.000050 1.808660 
# 
# From -- ./inp_files/30933.got.cif
#   From: 2010.03.12/outbox.cif.g09.slc.cpg/sg8_16_cif.got.tgz:30933.got - 2010.03.31 10:45:26.
