data_PCOD8053913
_publ_section_title
;
Structure prediction by ZEFSAII (Michael W. Deem and Ramdas Pophale) SiO2 
 PCOD8053913
Probable space group: C M
;
_chemical_formula_sum "Si O2"
_cell_formula_units_Z 32
_cell_length_a 9.457302
_cell_length_b 22.254518
_cell_length_c 8.346000
_cell_angle_alpha 90.000000
_cell_angle_beta 63.436514
_cell_angle_gamma 90.000000
_cell_volume 1571.139530
_symmetry_space_group_name_H-M "C M"
_symmetry_group_IT_number 8
_symmetry_cell_setting 'monoclinic'
loop_
_space_group_symop_operation_xyz
x,y,z
x,-y,z
1/2+x,1/2+y,z
1/2+x,1/2-y,z
loop_
_atom_site_type_symbol
_atom_site_label
_atom_site_fract_x
_atom_site_fract_y
_atom_site_fract_z
Si Si1 0.845430 0.168498 0.387690
Si Si2 0.339658 0.855531 0.862258
Si Si3 0.250395 0.356987 0.110256
Si Si4 0.094574 0.737181 0.716279
Si Si5 0.416199 0.432668 0.573405
Si Si6 0.074241 0.869777 0.762839
Si Si7 0.592342 0.068900 0.921938
Si Si8 0.110782 0.763382 0.081441
O O1 0.743428 0.131459 0.305551
O O2 0.747643 0.203656 0.571850
O O3 0.948294 0.116383 0.420631
O O4 0.946491 0.219994 0.248330
O O5 0.445793 0.802130 0.732096
O O6 0.238951 0.885823 0.768681
O O7 0.439744 0.903506 0.911898
O O8 0.214001 0.823906 0.042255
O O9 0.200027 0.288002 0.130459
O O10 0.431400 0.365069 0.962596
O O11 0.129918 0.398921 0.072286
O O12 0.084414 0.806067 0.661446
O O13 0.093721 0.738576 0.909455
O O14 0.440897 0.500000 0.494417
O O15 0.540471 0.422488 0.654281
O O16 0.238503 0.423611 0.728102
O O17 0.555759 0.000000 0.980015
#
# Coordination Sequence:
#
# PCOD8053913 Si02
#       8
#     4   4   4   4   4   4   4   4
#     4  12  24  38  66 101 128 179 218 267 335 385
#     4  11  19  38  66  94 131 168 212 278 324 384
#     4  11  21  39  61  97 130 171 217 266 324 395
#     4  11  21  39  63  95 140 167 209 265 333 398
#     4  10  23  44  63  89 131 179 229 269 315 398
#     4  10  22  38  64  94 132 173 214 267 329 384
#     4  10  22  42  69  91 126 182 226 263 325 394
#     4  11  22  40  62  97 140 169 211 275 327 398
#
# _framework density 20.367383
#
# number of rings (size 3 to 8) (size 9 to 14) (size 15 to 20)
#    0.000    1.250    6.250    0.750    3.500    1.000 
#    0.000    1.875    0.000    0.000    0.000    0.000 
#    0.000    0.000    0.000    0.000    0.000    0.000 
#
# Total GULP energy -198318.137597 kJ/mol
# GULP energy per Si atom -12394.883600 kJ/mol
# Density = 2.032103 g / cm^3
# Si number density = 20.367383 Si / 1000 Ang^3
#
#
#
# Elastic Constant Matrix: (Units=GPa)
#
#
# Indices 1 2 3 4 5 6 
#
# 1 150.4437 49.9962 39.4419 0.0000 10.8521 0.0000
# 2 49.9962 76.1643 33.9439 0.0000 12.9582 0.0000
# 3 39.4419 33.9439 82.8929 0.0000 10.4783 0.0000
# 4 0.0000 0.0000 0.0000 18.8594 0.0000 -0.1730
# 5 10.8521 12.9582 10.4783 0.0000 27.3097 0.0000
# 6 0.0000 0.0000 0.0000 -0.1730 0.0000 28.0066
#
#
#
# Elastic Compliance Matrix: (Units=1/GPa)
#
#
# Indices 1 2 3 4 5 6 
#
# 1 0.008832 -0.004743 -0.002208 0.000000 -0.000412 0.000000
# 2 -0.004743 0.019390 -0.005001 0.000000 -0.005397 0.000000
# 3 -0.002208 -0.005001 0.015503 0.000000 -0.002698 0.000000
# 4 0.000000 0.000000 0.000000 0.053027 0.000000 0.000327
# 5 -0.000412 -0.005397 -0.002698 0.000000 0.040377 0.000000
# 6 0.000000 0.000000 0.000000 0.000327 0.000000 0.035708
#
#
# Mechanical properties :
#
#
# Convention : Reuss Voigt Hill
#
# Bulk Modulus (GPa) = 50.45223 61.80722 56.12973
# Shear Modulus (GPa) = 24.58835 27.24305 25.91570
#
# Velocity S-wave (km/s) = 3.47831 3.66126 3.57096
# Velocity P-wave (km/s) = 6.39972 6.94876 6.67988
#
# Compressibility (1/GPa) = 0.01982073
#
# Stress axis : x y z
#
# Youngs Moduli (GPa) = 113.22557 51.57266 64.50279
#
# Poissons Ratio (x) = 0.24463 0.14242
# Poissons Ratio (y) = 0.53708 0.32257
# Poissons Ratio (z) = 0.25000 0.25791
#
# Static dielectric constant tensor:
#      x y z
#    x 3.844370 0.000000 0.040890 
#    y 0.000000 3.727020 0.000000 
#    z 0.040890 0.000000 3.502890 
# 
# 
# High freq. dielectric constant tensor:
#      x y z
#    x 1.808670 0.000000 0.007910 
#    y 0.000000 1.785490 0.000000 
#    z 0.007910 0.000000 1.768510 
# 
# From -- ./inp_files/9025.got.cif
#   From: 2010.03.12/outbox.cif.g09.slc.cpg/sg8_5_cif.got.tgz:9025.got - 2010.03.31 10:45:26.
