data_PCOD8053909
_publ_section_title
;
Structure prediction by ZEFSAII (Michael W. Deem and Ramdas Pophale) SiO2 
 PCOD8053909
Probable space group: C M
;
_chemical_formula_sum "Si O2"
_cell_formula_units_Z 32
_cell_length_a 32.844039
_cell_length_b 8.668423
_cell_length_c 12.501662
_cell_angle_alpha 90.000000
_cell_angle_beta 26.668467
_cell_angle_gamma 90.000000
_cell_volume 1597.510178
_symmetry_space_group_name_H-M "C M"
_symmetry_group_IT_number 8
_symmetry_cell_setting 'monoclinic'
loop_
_space_group_symop_operation_xyz
x,y,z
x,-y,z
1/2+x,1/2+y,z
1/2+x,1/2-y,z
loop_
_atom_site_type_symbol
_atom_site_label
_atom_site_fract_x
_atom_site_fract_y
_atom_site_fract_z
Si Si1 0.496230 0.682599 0.330000
Si Si2 0.798830 0.818273 0.474127
Si Si3 0.307379 0.317106 0.692170
Si Si4 0.049638 0.318538 0.606961
Si Si5 0.237683 0.683416 0.075910
Si Si6 0.489451 0.818821 0.982838
Si Si7 0.117461 0.818485 0.858215
Si Si8 0.430947 0.317425 0.706187
O O1 0.488717 0.500000 0.344600
O O2 0.407235 0.750742 0.480727
O O3 0.496041 0.737318 0.454361
O O4 0.583294 0.735868 0.056895
O O5 0.777869 0.759908 0.644359
O O6 0.710351 0.771420 0.613402
O O7 0.816816 0.000000 0.424163
O O8 0.884602 0.729176 0.225721
O O9 0.310618 0.500000 0.685671
O O10 0.240894 0.260343 0.943916
O O11 0.050031 0.500000 0.590941
O O12 0.146801 0.247374 0.342752
O O13 0.033480 0.271307 0.766863
O O14 0.967474 0.254122 0.729256
O O15 0.235944 0.500000 0.085004
O O16 0.327829 0.740865 0.926997
O O17 0.541174 0.723642 0.951748
O O18 0.498617 0.000000 0.983635
O O19 0.135368 0.000000 0.812069
O O20 0.432252 0.500000 0.714089
#
# Coordination Sequence:
#
# PCOD8053909 Si02
#       8
#     4   4   4   4   4   4   4   4
#     4   8  15  31  55  83 117 150 184 231 286 347
#     4  11  22  37  60  89 116 153 199 244 296 354
#     4   8  14  29  55  83 112 145 184 229 283 346
#     4  10  22  38  58  83 114 150 191 239 287 339
#     4   8  16  33  56  81 111 147 183 227 282 340
#     4  11  24  42  58  81 119 161 205 248 288 341
#     4  11  22  38  60  87 120 157 194 241 297 351
#     4   9  18  34  58  85 113 149 190 229 279 346
#
# _framework density 20.031171000000001
#
# number of rings (size 3 to 8) (size 9 to 14) (size 15 to 20)
#    0.000    2.500    1.250    2.625    1.750    2.000 
#    0.000    2.500    0.000    0.000    0.000    0.000 
#    0.000    0.000    0.000    0.000    0.000    0.000 
#
# Total GULP energy -198316.783058 kJ/mol
# GULP energy per Si atom -12394.798941 kJ/mol
# Density = 1.998558 g / cm^3
# Si number density = 20.031171 Si / 1000 Ang^3
#
#
#
# Elastic Constant Matrix: (Units=GPa)
#
#
# Indices 1 2 3 4 5 6 
#
# 1 61.1078 21.3355 36.1549 0.0000 4.5888 0.0000
# 2 21.3355 25.4893 22.6584 0.0000 9.2293 0.0000
# 3 36.1549 22.6584 136.0742 0.0000 4.2889 0.0000
# 4 0.0000 0.0000 0.0000 23.3881 0.0000 -2.6937
# 5 4.5888 9.2293 4.2889 0.0000 30.0102 0.0000
# 6 0.0000 0.0000 0.0000 -2.6937 0.0000 27.4954
#
#
#
# Elastic Compliance Matrix: (Units=1/GPa)
#
#
# Indices 1 2 3 4 5 6 
#
# 1 0.024719 -0.018366 -0.003585 0.000000 0.002381 0.000000
# 2 -0.018366 0.065489 -0.005503 0.000000 -0.016545 0.000000
# 3 -0.003585 -0.005503 0.009189 0.000000 0.000927 0.000000
# 4 0.000000 0.000000 0.000000 0.043245 0.000000 0.004237
# 5 0.002381 -0.016545 0.000927 0.000000 0.037914 0.000000
# 6 0.000000 0.000000 0.000000 0.004237 0.000000 0.036785
#
#
# Mechanical properties :
#
#
# Convention : Reuss Voigt Hill
#
# Bulk Modulus (GPa) = 22.47826 42.55208 32.51517
# Shear Modulus (GPa) = 17.41687 25.68023 21.54855
#
# Velocity S-wave (km/s) = 2.95191 3.58441 3.28342
# Velocity P-wave (km/s) = 4.78167 6.19836 5.53552
#
# Compressibility (1/GPa) = 0.04448743
#
# Stress axis : x y z
#
# Youngs Moduli (GPa) = 40.45444 15.26980 108.83137
#
# Poissons Ratio (x) = 0.28045 0.39012
# Poissons Ratio (y) = 0.74301 0.59894
# Poissons Ratio (z) = 0.14501 0.08404
#
# Static dielectric constant tensor:
#      x y z
#    x 3.686700 0.000000 0.156510 
#    y 0.000000 3.165300 0.000000 
#    z 0.156510 0.000000 3.975430 
# 
# 
# High freq. dielectric constant tensor:
#      x y z
#    x 1.780070 0.000000 0.000170 
#    y 0.000000 1.742730 0.000000 
#    z 0.000170 0.000000 1.790250 
# 
# From -- ./inp_files/21573.got.cif
#   From: 2010.03.12/outbox.cif.g09.slc.cpg/sg8_11_cif.got.tgz:21573.got - 2010.03.31 10:45:26.
