data_PCOD8053905
_publ_section_title
;
Structure prediction by ZEFSAII (Michael W. Deem and Ramdas Pophale) SiO2 
 PCOD8053905
Probable space group: C M
;
_chemical_formula_sum "Si O2"
_cell_formula_units_Z 32
_cell_length_a 9.453795
_cell_length_b 20.422631
_cell_length_c 12.654406
_cell_angle_alpha 90.000000
_cell_angle_beta 137.214714
_cell_angle_gamma 90.000000
_cell_volume 1659.552926
_symmetry_space_group_name_H-M "C M"
_symmetry_group_IT_number 8
_symmetry_cell_setting 'monoclinic'
loop_
_space_group_symop_operation_xyz
x,y,z
x,-y,z
1/2+x,1/2+y,z
1/2+x,1/2-y,z
loop_
_atom_site_type_symbol
_atom_site_label
_atom_site_fract_x
_atom_site_fract_y
_atom_site_fract_z
Si Si1 0.248270 0.634254 0.970560
Si Si2 0.709960 0.425066 0.498937
Si Si3 0.635133 0.133819 0.678629
Si Si4 0.182522 0.924637 0.147555
Si Si5 0.400148 0.807685 0.370674
Si Si6 0.064551 0.923678 0.849847
Si Si7 0.814055 0.423981 0.788550
Si Si8 0.505842 0.303775 0.271477
O O1 0.194922 0.664604 0.825908
O O2 0.053120 0.596940 0.912179
O O3 0.452177 0.588036 0.069575
O O4 0.298613 0.689367 0.086291
O O5 0.638075 0.500000 0.436491
O O6 0.690824 0.408109 0.612823
O O7 0.564835 0.373621 0.357533
O O8 0.951374 0.419331 0.595538
O O9 0.552503 0.189801 0.555188
O O10 0.831476 0.103156 0.727683
O O11 0.361770 0.879487 0.297786
O O12 0.240709 0.000000 0.202334
O O13 0.186461 0.908749 0.025085
O O14 0.494498 0.754986 0.345434
O O15 0.180253 0.779834 0.286196
O O16 0.191560 0.891354 0.820980
O O17 0.040360 0.000000 0.818406
O O18 0.820907 0.500000 0.813841
#
# Coordination Sequence:
#
# PCOD8053905 Si02
#       8
#     4   4   4   4   4   4   4   4
#     4   9  18  34  55  78 102 137 179 218 260 309
#     4   9  18  34  56  80 106 139 179 219 260 310
#     4   9  18  34  55  78 102 137 179 218 260 309
#     4   9  18  34  56  80 106 139 179 219 260 310
#     4  10  22  38  55  78 109 141 176 218 265 315
#     4   9  17  30  50  80 112 138 170 216 267 314
#     4   9  17  30  50  80 112 138 170 216 267 314
#     4  10  22  38  55  78 109 141 176 218 265 315
#
# _framework density 19.282301
#
# number of rings (size 3 to 8) (size 9 to 14) (size 15 to 20)
#    0.000    2.750    0.000    0.750    0.000   10.500 
#    0.000   12.500    0.000    5.250    0.000    0.000 
#    0.000    0.000    0.000    0.000    0.000    0.000 
#
# Total GULP energy -198265.661865 kJ/mol
# GULP energy per Si atom -12391.603867 kJ/mol
# Density = 1.923841 g / cm^3
# Si number density = 19.282301 Si / 1000 Ang^3
#
#
#
# Elastic Constant Matrix: (Units=GPa)
#
#
# Indices 1 2 3 4 5 6 
#
# 1 111.9091 22.4686 37.1309 0.0000 -19.8488 0.0000
# 2 22.4686 69.4301 37.1770 0.0000 -6.9057 0.0000
# 3 37.1309 37.1770 115.1520 0.0000 -10.4115 0.0000
# 4 0.0000 0.0000 0.0000 19.2649 0.0000 -12.7731
# 5 -19.8488 -6.9057 -10.4115 0.0000 24.2200 0.0000
# 6 0.0000 0.0000 0.0000 -12.7731 0.0000 20.9768
#
#
#
# Elastic Compliance Matrix: (Units=1/GPa)
#
#
# Indices 1 2 3 4 5 6 
#
# 1 0.011476 -0.001608 -0.002468 0.000000 0.007885 0.000000
# 2 -0.001608 0.017804 -0.005087 0.000000 0.001572 0.000000
# 3 -0.002468 -0.005087 0.011246 0.000000 0.001361 0.000000
# 4 0.000000 0.000000 0.000000 0.087053 0.000000 0.053008
# 5 0.007885 0.001572 0.001361 0.000000 0.048784 0.000000
# 6 0.000000 0.000000 0.000000 0.053008 0.000000 0.079949
#
#
# Mechanical properties :
#
#
# Convention : Reuss Voigt Hill
#
# Bulk Modulus (GPa) = 45.04867 54.44938 49.74902
# Shear Modulus (GPa) = 17.72807 26.20665 21.96736
#
# Velocity S-wave (km/s) = 3.03544 3.69060 3.37894
# Velocity P-wave (km/s) = 5.97483 6.81616 6.40932
#
# Compressibility (1/GPa) = 0.02219821
#
# Stress axis : x y z
#
# Youngs Moduli (GPa) = 87.13629 56.16808 88.92335
#
# Poissons Ratio (x) = 0.09031 0.21951
# Poissons Ratio (y) = 0.14010 0.45239
# Poissons Ratio (z) = 0.21510 0.28575
#
# Static dielectric constant tensor:
#      x y z
#    x 3.819640 0.000000 -0.245000 
#    y 0.000000 3.164310 0.000000 
#    z -0.245000 0.000000 3.728500 
# 
# 
# High freq. dielectric constant tensor:
#      x y z
#    x 1.753730 0.000000 -0.017250 
#    y 0.000000 1.716100 0.000000 
#    z -0.017250 0.000000 1.760150 
# 
# From -- ./inp_files/8952.got.cif
#   From: 2010.03.12/outbox.cif.g09.slc.cpg/sg8_5_cif.got.tgz:8952.got - 2010.03.31 10:45:26.
