data_PCOD8053044
_publ_section_title
;
Structure prediction by ZEFSAII (Michael W. Deem and Ramdas Pophale) SiO2 
 PCOD8053044
Probable space group: C M
;
_chemical_formula_sum "Si O2"
_cell_formula_units_Z 32
_cell_length_a 14.171765
_cell_length_b 8.776345
_cell_length_c 19.977237
_cell_angle_alpha 90.000000
_cell_angle_beta 135.205560
_cell_angle_gamma 90.000000
_cell_volume 1750.629861
_symmetry_space_group_name_H-M "C M"
_symmetry_group_IT_number 8
_symmetry_cell_setting 'monoclinic'
loop_
_space_group_symop_operation_xyz
x,y,z
x,-y,z
1/2+x,1/2+y,z
1/2+x,1/2-y,z
loop_
_atom_site_type_symbol
_atom_site_label
_atom_site_fract_x
_atom_site_fract_y
_atom_site_fract_z
Si Si1 0.623840 0.321502 0.396070
Si Si2 0.132224 0.179297 0.250998
Si Si3 0.842538 0.177802 0.755848
Si Si4 0.827947 0.826358 0.595501
Si Si5 0.122309 0.320497 0.887523
Si Si6 0.832764 0.820994 0.105573
Si Si7 0.842894 0.680649 0.252081
Si Si8 0.137544 0.176910 0.753296
O O1 0.594471 0.500000 0.381074
O O2 0.666703 0.264956 0.343598
O O3 0.741114 0.285312 0.506713
O O4 0.487653 0.238376 0.348577
O O5 0.236131 0.251335 0.250872
O O6 0.980952 0.228159 0.155809
O O7 0.147074 0.000000 0.254610
O O8 0.797128 0.212005 0.657205
O O9 0.724675 0.227427 0.745385
O O10 0.976448 0.271199 0.840097
O O11 0.874720 0.000000 0.781204
O O12 0.982970 0.795934 0.657056
O O13 0.789085 0.000000 0.559609
O O14 0.124796 0.500000 0.875201
O O15 0.165531 0.234123 0.842147
O O16 0.227797 0.270359 0.996799
O O17 0.797788 0.737022 0.156671
O O18 0.826758 0.000000 0.116860
O O19 0.843503 0.500000 0.252749
O O20 0.176253 0.000000 0.768336
#
# Coordination Sequence:
#
# PCOD8053044 Si02
#       8
#     4   4   4   4   4   4   4   4
#     4  10  20  35  54  75 103 138 174 215 262 315
#     4   8  17  34  52  72 101 135 169 206 254 310
#     4  10  21  37  56  78 108 144 181 223 268 319
#     4   9  20  37  54  76 106 137 173 219 266 316
#     4  10  20  35  56  80 109 144 179 221 272 323
#     4   9  19  36  54  76 106 137 172 215 262 314
#     4  10  19  33  54  77 103 137 175 216 260 310
#     4  10  21  37  56  80 110 140 177 225 270 321
#
# _framework density 18.279136000000001
#
# number of rings (size 3 to 8) (size 9 to 14) (size 15 to 20)
#    0.000    2.500    0.000    3.375    0.000    6.000 
#    0.000   11.250    0.000    0.000    0.000    0.000 
#    0.000    0.000    0.000    0.000    0.000    0.000 
#
# Total GULP energy -198416.696066 kJ/mol
# GULP energy per Si atom -12401.043504 kJ/mol
# Density = 1.823753 g / cm^3
# Si number density = 18.279136 Si / 1000 Ang^3
#
#
#
# Elastic Constant Matrix: (Units=GPa)
#
#
# Indices 1 2 3 4 5 6 
#
# 1 144.8074 24.8193 57.0075 0.0000 3.2072 0.0000
# 2 24.8193 48.7661 37.7135 0.0000 -2.1162 0.0000
# 3 57.0075 37.7135 136.3292 0.0000 -1.6772 0.0000
# 4 0.0000 0.0000 0.0000 31.3304 0.0000 -1.7321
# 5 3.2072 -2.1162 -1.6772 0.0000 11.3469 0.0000
# 6 0.0000 0.0000 0.0000 -1.7321 0.0000 29.9276
#
#
#
# Elastic Compliance Matrix: (Units=1/GPa)
#
#
# Indices 1 2 3 4 5 6 
#
# 1 0.008533 -0.002155 -0.003012 0.000000 -0.003259 0.000000
# 2 -0.002155 0.026796 -0.006454 0.000000 0.004653 0.000000
# 3 -0.003012 -0.006454 0.010395 0.000000 0.001184 0.000000
# 4 0.000000 0.000000 0.000000 0.032020 0.000000 0.001853
# 5 -0.003259 0.004653 0.001184 0.000000 0.090094 0.000000
# 6 0.000000 0.000000 0.000000 0.001853 0.000000 0.033521
#
#
# Mechanical properties :
#
#
# Convention : Reuss Voigt Hill
#
# Bulk Modulus (GPa) = 44.48159 63.22036 53.85098
# Shear Modulus (GPa) = 21.54279 28.54513 25.04396
#
# Velocity S-wave (km/s) = 3.43672 3.95603 3.70548
# Velocity P-wave (km/s) = 6.33526 7.45171 6.91605
#
# Compressibility (1/GPa) = 0.02248121
#
# Stress axis : x y z
#
# Youngs Moduli (GPa) = 117.19116 37.31862 96.20130
#
# Poissons Ratio (x) = 0.08041 0.28978
# Poissons Ratio (y) = 0.25253 0.62093
# Poissons Ratio (z) = 0.35300 0.24087
#
# Static dielectric constant tensor:
#      x y z
#    x 3.562640 0.000000 0.004240 
#    y 0.000000 3.289350 0.000000 
#    z 0.004240 0.000000 3.350120 
# 
# 
# High freq. dielectric constant tensor:
#      x y z
#    x 1.713870 0.000000 0.000380 
#    y 0.000000 1.706850 0.000000 
#    z 0.000380 0.000000 1.709240 
# 
# From -- ./inp_files/26428.got.cif
#   From: 2010.03.12/outbox.cif.g09.slc.cpg/sg8_14_cif.got.tgz:26428.got - 2010.03.31 10:45:26.
