data_PCOD8053333
_publ_section_title
;
Structure prediction by ZEFSAII (Michael W. Deem and Ramdas Pophale) SiO2 
 PCOD8053333
Probable space group: C M
;
_chemical_formula_sum "Si O2"
_cell_formula_units_Z 32
_cell_length_a 20.365122
_cell_length_b 8.951798
_cell_length_c 12.083651
_cell_angle_alpha 90.000000
_cell_angle_beta 128.062945
_cell_angle_gamma 90.000000
_cell_volume 1734.420596
_symmetry_space_group_name_H-M "C M"
_symmetry_group_IT_number 8
_symmetry_cell_setting 'monoclinic'
loop_
_space_group_symop_operation_xyz
x,y,z
x,-y,z
1/2+x,1/2+y,z
1/2+x,1/2-y,z
loop_
_atom_site_type_symbol
_atom_site_label
_atom_site_fract_x
_atom_site_fract_y
_atom_site_fract_z
Si Si1 0.473140 0.171961 0.739450
Si Si2 0.242290 0.172982 0.312963
Si Si3 0.849555 0.171315 0.767116
Si Si4 0.948931 0.672311 0.051832
Si Si5 0.010080 0.824258 0.328707
Si Si6 0.684066 0.172106 0.473129
Si Si7 0.431740 0.170884 0.452187
Si Si8 0.102749 0.670048 0.050871
O O1 0.399490 0.271829 0.711939
O O2 0.481579 0.200484 0.617939
O O3 0.448824 0.000000 0.739733
O O4 0.561042 0.210126 0.889464
O O5 0.222342 0.270846 0.398791
O O6 0.334953 0.206809 0.368850
O O7 0.180059 0.219425 0.149320
O O8 0.230226 0.000000 0.330445
O O9 0.751523 0.190386 0.641015
O O10 0.873652 0.000000 0.812274
O O11 0.872548 0.263063 0.900841
O O12 0.930327 0.500000 0.055273
O O13 0.953632 0.756427 0.172871
O O14 0.035485 0.696350 0.077671
O O15 0.103527 0.763513 0.424419
O O16 0.968024 0.783476 0.400779
O O17 0.012752 0.000000 0.316692
O O18 0.658391 0.000000 0.429629
O O19 0.444592 0.000000 0.426524
O O20 0.134920 0.500000 0.085593
#
# Coordination Sequence:
#
# PCOD8053333 Si02
#       8
#     4   4   4   4   4   4   4   4
#     4   9  18  35  57  81 112 153 191 229 284 342
#     4  11  21  34  58  87 114 148 192 240 281 335
#     4  10  20  33  56  88 117 147 189 239 284 335
#     4  10  20  36  58  83 116 154 188 232 292 346
#     4  12  25  39  59  85 115 153 198 242 287 345
#     4  11  22  37  58  85 118 153 190 238 290 339
#     4  10  22  40  59  81 114 155 195 235 290 347
#     4   9  18  32  55  84 114 147 185 233 286 337
#
# _framework density 18.449964999999999
#
# number of rings (size 3 to 8) (size 9 to 14) (size 15 to 20)
#    0.000    1.750    2.500    3.375    0.000    5.000 
#    0.000    1.250    0.000    4.500    0.000    0.000 
#    0.000    0.000    0.000    0.000    0.000    0.000 
#
# Total GULP energy -198458.448928 kJ/mol
# GULP energy per Si atom -12403.653058 kJ/mol
# Density = 1.840797 g / cm^3
# Si number density = 18.449965 Si / 1000 Ang^3
#
#
#
# Elastic Constant Matrix: (Units=GPa)
#
#
# Indices 1 2 3 4 5 6 
#
# 1 73.2812 51.3337 50.6078 0.0000 -7.8106 0.0000
# 2 51.3337 129.6056 64.3334 0.0000 -1.7782 0.0000
# 3 50.6078 64.3334 133.1486 0.0000 -3.8300 0.0000
# 4 0.0000 0.0000 0.0000 33.0511 0.0000 0.1100
# 5 -7.8106 -1.7782 -3.8300 0.0000 21.1750 0.0000
# 6 0.0000 0.0000 0.0000 0.1100 0.0000 29.9364
#
#
#
# Elastic Compliance Matrix: (Units=1/GPa)
#
#
# Indices 1 2 3 4 5 6 
#
# 1 0.022330 -0.006098 -0.005347 0.000000 0.006758 0.000000
# 2 -0.006098 0.011815 -0.003445 0.000000 -0.001880 0.000000
# 3 -0.005347 -0.003445 0.011200 0.000000 -0.000236 0.000000
# 4 0.000000 0.000000 0.000000 0.030257 0.000000 -0.000111
# 5 0.006758 -0.001880 -0.000236 0.000000 0.049518 0.000000
# 6 0.000000 0.000000 0.000000 -0.000111 0.000000 0.033405
#
#
# Mechanical properties :
#
#
# Convention : Reuss Voigt Hill
#
# Bulk Modulus (GPa) = 64.24033 74.28724 69.26378
# Shear Modulus (GPa) = 25.84074 28.14985 26.99530
#
# Velocity S-wave (km/s) = 3.74650 3.91031 3.82928
# Velocity P-wave (km/s) = 7.32183 7.79352 7.56136
#
# Compressibility (1/GPa) = 0.01556655
#
# Stress axis : x y z
#
# Youngs Moduli (GPa) = 44.78224 84.63669 89.28215
#
# Poissons Ratio (x) = 0.51609 0.47737
# Poissons Ratio (y) = 0.27307 0.30759
# Poissons Ratio (z) = 0.23944 0.29159
#
# Static dielectric constant tensor:
#      x y z
#    x 3.129390 0.000000 0.085450 
#    y 0.000000 3.477430 0.000000 
#    z 0.085450 0.000000 3.691110 
# 
# 
# High freq. dielectric constant tensor:
#      x y z
#    x 1.681120 0.000000 0.004690 
#    y 0.000000 1.724410 0.000000 
#    z 0.004690 0.000000 1.734960 
# 
# From -- ./inp_files/23830.got.cif
#   From: 2010.03.12/outbox.cif.g09.slc.cpg/sg8_12_cif.got.tgz:23830.got - 2010.03.31 10:45:26.
