data_PCOD8053547
_publ_section_title
;
Structure prediction by ZEFSAII (Michael W. Deem and Ramdas Pophale) SiO2 
 PCOD8053547
Probable space group: C M
;
_chemical_formula_sum "Si O2"
_cell_formula_units_Z 32
_cell_length_a 23.648455
_cell_length_b 8.611480
_cell_length_c 13.787057
_cell_angle_alpha 90.000000
_cell_angle_beta 33.376296
_cell_angle_gamma 90.000000
_cell_volume 1544.620016
_symmetry_space_group_name_H-M "C M"
_symmetry_group_IT_number 8
_symmetry_cell_setting 'monoclinic'
loop_
_space_group_symop_operation_xyz
x,y,z
x,-y,z
1/2+x,1/2+y,z
1/2+x,1/2-y,z
loop_
_atom_site_type_symbol
_atom_site_label
_atom_site_fract_x
_atom_site_fract_y
_atom_site_fract_z
Si Si1 0.932550 0.319457 0.203390
Si Si2 0.004043 0.317514 0.893344
Si Si3 0.219433 0.821247 0.595182
Si Si4 0.586000 0.320523 0.129458
Si Si5 0.137460 0.680486 0.256813
Si Si6 0.782430 0.680670 0.717254
Si Si7 0.855761 0.682911 0.937738
Si Si8 0.445301 0.681007 0.616437
O O1 0.962413 0.500000 0.172021
O O2 0.809752 0.296685 0.387577
O O3 0.985134 0.224116 0.214005
O O4 0.969323 0.250035 0.047545
O O5 0.991146 0.500000 0.915378
O O6 0.929979 0.251761 0.915690
O O7 0.120697 0.273607 0.701157
O O8 0.256960 0.760746 0.645948
O O9 0.186476 0.000000 0.650973
O O10 0.580674 0.500000 0.167794
O O11 0.591487 0.216824 0.217133
O O12 0.684846 0.284780 0.923309
O O13 0.163572 0.500000 0.228166
O O14 0.053246 0.727872 0.457786
O O15 0.239249 0.778990 0.132945
O O16 0.813534 0.500000 0.673893
O O17 0.878430 0.779793 0.617209
O O18 0.868164 0.500000 0.903822
O O19 0.882264 0.768713 0.800637
O O20 0.468948 0.500000 0.585465
#
# Coordination Sequence:
#
# PCOD8053547 Si02
#       8
#     4   4   4   4   4   4   4   4
#     4  10  21  38  61  90 124 162 204 249 303 364
#     4  10  23  41  62  88 120 159 204 256 306 357
#     4  10  21  38  61  89 122 161 201 246 302 363
#     4  11  21  36  62  94 127 162 202 251 306 365
#     4  12  25  42  65  93 125 164 206 254 313 372
#     4  10  20  36  60  91 129 165 199 249 308 365
#     4  11  24  44  64  88 125 165 211 262 308 363
#     4  12  25  41  65  95 124 162 207 255 314 373
#
# _framework density 20.717068999999999
#
# number of rings (size 3 to 8) (size 9 to 14) (size 15 to 20)
#    0.000    1.250    2.500    3.750    0.000    4.500 
#    0.000    1.250    0.000    0.000    0.000    0.000 
#    0.000    0.000    0.000    0.000    0.000    0.000 
#
# Total GULP energy -198507.124417 kJ/mol
# GULP energy per Si atom -12406.695276 kJ/mol
# Density = 2.066992 g / cm^3
# Si number density = 20.717069 Si / 1000 Ang^3
#
#
#
# Elastic Constant Matrix: (Units=GPa)
#
#
# Indices 1 2 3 4 5 6 
#
# 1 101.9154 16.7988 22.9374 0.0000 -26.0855 -0.0002
# 2 16.7988 53.3940 14.3909 -0.0007 0.7132 0.0006
# 3 22.9374 14.3909 100.9188 -0.0004 -18.2766 0.0002
# 4 0.0000 -0.0007 -0.0004 32.6290 0.0004 -7.8821
# 5 -26.0855 0.7132 -18.2766 0.0004 22.1645 -0.0003
# 6 -0.0002 0.0006 0.0002 -7.8821 -0.0003 23.2337
#
#
#
# Elastic Compliance Matrix: (Units=1/GPa)
#
#
# Indices 1 2 3 4 5 6 
#
# 1 0.015329 -0.005252 0.000661 0.000000 0.018756 0.000000
# 2 -0.005252 0.021501 -0.003664 0.000000 -0.009894 -0.000001
# 3 0.000661 -0.003664 0.012277 0.000000 0.011020 0.000000
# 4 0.000000 0.000000 0.000000 0.033383 -0.000001 0.011325
# 5 0.018756 -0.009894 0.011020 -0.000001 0.076596 0.000001
# 6 0.000000 -0.000001 0.000000 0.011325 0.000001 0.046883
#
#
# Mechanical properties :
#
#
# Convention : Reuss Voigt Hill
#
# Bulk Modulus (GPa) = 30.67671 40.49805 35.58738
# Shear Modulus (GPa) = 21.42756 29.07885 25.25320
#
# Velocity S-wave (km/s) = 3.21953 3.75055 3.49514
# Velocity P-wave (km/s) = 5.35352 6.19242 5.78819
#
# Compressibility (1/GPa) = 0.03259802
#
# Stress axis : x y z
#
# Youngs Moduli (GPa) = 65.23408 46.51002 81.45433
#
# Poissons Ratio (x) = 0.24426 -0.05388
# Poissons Ratio (y) = 0.34259 0.29846
# Poissons Ratio (z) = -0.04315 0.17042
#
# Static dielectric constant tensor:
#      x y z
#    x 3.798090 0.000000 0.035360 
#    y 0.000000 3.613010 0.000000 
#    z 0.035360 0.000000 3.850700 
# 
# 
# High freq. dielectric constant tensor:
#      x y z
#    x 1.804490 0.000000 -0.002860 
#    y 0.000000 1.801870 0.000000 
#    z -0.002860 0.000000 1.826080 
# 
# From -- ./inp_files/26529.got.cif
#   From: 2010.03.12/outbox.cif.g09.slc.cpg/sg8_14_cif.got.tgz:26529.got - 2010.03.31 10:45:26.
