data_PCOD8053792
_publ_section_title
;
Structure prediction by ZEFSAII (Michael W. Deem and Ramdas Pophale) SiO2 
 PCOD8053792
Probable space group: C M
;
_chemical_formula_sum "Si O2"
_cell_formula_units_Z 32
_cell_length_a 24.063929
_cell_length_b 9.051945
_cell_length_c 7.365358
_cell_angle_alpha 90.000000
_cell_angle_beta 90.164011
_cell_angle_gamma 90.000000
_cell_volume 1604.355198
_symmetry_space_group_name_H-M "C M"
_symmetry_group_IT_number 8
_symmetry_cell_setting 'monoclinic'
loop_
_space_group_symop_operation_xyz
x,y,z
x,-y,z
1/2+x,1/2+y,z
1/2+x,1/2-y,z
loop_
_atom_site_type_symbol
_atom_site_label
_atom_site_fract_x
_atom_site_fract_y
_atom_site_fract_z
Si Si1 0.639000 0.328136 0.241710
Si Si2 0.053579 0.827295 0.561781
Si Si3 0.843577 0.173089 0.024227
Si Si4 0.071983 0.676098 0.939846
Si Si5 0.337035 0.669506 0.612905
Si Si6 0.752372 0.829055 0.307055
Si Si7 0.943400 0.334802 0.567033
Si Si8 0.451193 0.836792 0.997289
O O1 0.641133 0.500000 0.191567
O O2 0.597628 0.296410 0.405576
O O3 0.699098 0.273688 0.303299
O O4 0.621536 0.237528 0.063125
O O5 0.076386 0.747754 0.741658
O O6 0.995188 0.759276 0.492690
O O7 0.045467 0.000000 0.602503
O O8 0.827890 0.223230 0.819812
O O9 0.903668 0.236105 0.085900
O O10 0.849231 0.000000 0.044820
O O11 0.795256 0.230402 0.155556
O O12 0.076456 0.500000 0.917249
O O13 0.013670 0.720861 0.037769
O O14 0.356533 0.500000 0.611927
O O15 0.279622 0.690588 0.505601
O O16 0.385151 0.760614 0.510161
O O17 0.736331 0.000000 0.271670
O O18 0.946661 0.500000 0.485870
O O19 0.945589 0.337840 0.782314
O O20 0.442983 0.000000 0.077963
#
# Coordination Sequence:
#
# PCOD8053792 Si02
#       8
#     4   4   4   4   4   4   4   4
#     4  11  25  41  57  81 112 149 194 238 281 332
#     4  10  21  38  59  84 116 151 187 230 281 336
#     4   9  18  33  54  79 106 139 176 217 271 328
#     4  10  21  38  61  87 115 148 186 230 282 337
#     4   9  18  34  55  78 107 142 177 221 279 334
#     4  10  22  38  54  76 106 141 188 236 274 324
#     4   9  17  31  54  84 113 142 180 224 274 332
#     4   8  16  31  52  81 111 138 172 216 270 329
#
# _framework density 19.945708
#
# number of rings (size 3 to 8) (size 9 to 14) (size 15 to 20)
#    0.000    2.500    0.000    2.250    0.000    8.500 
#    0.000    5.000    0.000    0.000    0.000    0.000 
#    0.000    0.000    0.000    0.000    0.000    0.000 
#
# Total GULP energy -198393.951023 kJ/mol
# GULP energy per Si atom -12399.621939 kJ/mol
# Density = 1.990031 g / cm^3
# Si number density = 19.945708 Si / 1000 Ang^3
#
#
#
# Elastic Constant Matrix: (Units=GPa)
#
#
# Indices 1 2 3 4 5 6 
#
# 1 76.0248 28.9503 -1.3516 0.0000 -1.4963 0.0000
# 2 28.9503 80.7398 14.0149 0.0000 -4.9286 0.0000
# 3 -1.3516 14.0149 39.8317 0.0000 -2.3544 0.0000
# 4 0.0000 0.0000 0.0000 14.5944 0.0000 1.9527
# 5 -1.4963 -4.9286 -2.3544 0.0000 29.2318 0.0000
# 6 0.0000 0.0000 0.0000 1.9527 0.0000 40.3286
#
#
#
# Elastic Compliance Matrix: (Units=1/GPa)
#
#
# Indices 1 2 3 4 5 6 
#
# 1 0.015490 -0.006013 0.002641 0.000000 -0.000008 0.000000
# 2 -0.006013 0.015627 -0.005591 0.000000 0.001877 0.000000
# 3 0.002641 -0.005591 0.027245 0.000000 0.001387 0.000000
# 4 0.000000 0.000000 0.000000 0.068966 0.000000 -0.003339
# 5 -0.000008 0.001877 0.001387 0.000000 0.034637 0.000000
# 6 0.000000 0.000000 0.000000 -0.003339 0.000000 0.024958
#
#
# Mechanical properties :
#
#
# Convention : Reuss Voigt Hill
#
# Bulk Modulus (GPa) = 24.73160 31.09152 27.91156
# Shear Modulus (GPa) = 22.90132 27.16313 25.03223
#
# Velocity S-wave (km/s) = 3.39216 3.69433 3.54647
# Velocity P-wave (km/s) = 5.26960 5.81544 5.54924
#
# Compressibility (1/GPa) = 0.04043409
#
# Stress axis : x y z
#
# Youngs Moduli (GPa) = 64.55691 63.99308 36.70454
#
# Poissons Ratio (x) = 0.38480 -0.09693
# Poissons Ratio (y) = 0.38819 0.20523
# Poissons Ratio (z) = -0.17049 0.35781
#
# Static dielectric constant tensor:
#      x y z
#    x 3.699870 0.000000 -0.006260 
#    y 0.000000 3.697040 0.000000 
#    z -0.006260 0.000000 3.547790 
# 
# 
# High freq. dielectric constant tensor:
#      x y z
#    x 1.775510 0.000000 0.002090 
#    y 0.000000 1.776780 0.000000 
#    z 0.002090 0.000000 1.775070 
# 
# From -- ./inp_files/16757.got.cif
#   From: 2010.03.12/outbox.cif.g09.slc.cpg/sg8_9_cif.got.tgz:16757.got - 2010.03.31 10:45:26.
