data_PCOD8053087
_publ_section_title
;
Structure prediction by ZEFSAII (Michael W. Deem and Ramdas Pophale) SiO2 
 PCOD8053087
Probable space group: C M
;
_chemical_formula_sum "Si O2"
_cell_formula_units_Z 32
_cell_length_a 24.749910
_cell_length_b 9.285177
_cell_length_c 16.605539
_cell_angle_alpha 90.000000
_cell_angle_beta 153.985919
_cell_angle_gamma 90.000000
_cell_volume 1673.699608
_symmetry_space_group_name_H-M "C M"
_symmetry_group_IT_number 8
_symmetry_cell_setting 'monoclinic'
loop_
_space_group_symop_operation_xyz
x,y,z
x,-y,z
1/2+x,1/2+y,z
1/2+x,1/2-y,z
loop_
_atom_site_type_symbol
_atom_site_label
_atom_site_fract_x
_atom_site_fract_y
_atom_site_fract_z
Si Si1 0.099050 0.664299 0.730840
Si Si2 0.550523 0.666208 0.146203
Si Si3 0.536330 0.167827 0.376346
Si Si4 0.865461 0.837186 0.035648
Si Si5 0.958456 0.832041 0.420496
Si Si6 0.173663 0.333128 0.010298
Si Si7 0.227155 0.667667 0.496187
Si Si8 0.501070 0.670960 0.900253
O O1 0.052414 0.500000 0.666394
O O2 0.219252 0.683504 0.835370
O O3 0.991813 0.766629 0.552698
O O4 0.130298 0.711729 0.863343
O O5 0.588772 0.500000 0.195636
O O6 0.664104 0.749941 0.337973
O O7 0.423968 0.689307 0.026256
O O8 0.526678 0.726063 0.025004
O O9 0.545558 0.253527 0.472126
O O10 0.658829 0.199361 0.488933
O O11 0.519494 0.000000 0.372562
O O12 0.418384 0.223249 0.169409
O O13 0.895888 0.000000 0.107228
O O14 0.817383 0.798990 0.211491
O O15 0.988207 0.000000 0.460134
O O16 0.146734 0.500000 0.991441
O O17 0.102560 0.237688 0.978896
O O18 0.220954 0.500000 0.466832
O O19 0.366390 0.723329 0.691777
O O20 0.509349 0.500000 0.907437
#
# Coordination Sequence:
#
# PCOD8053087 Si02
#       8
#     4   4   4   4   4   4   4   4
#     4  10  21  38  60  85 113 152 193 235 289 344
#     4   9  19  35  58  85 114 150 190 231 281 340
#     4  10  19  33  58  87 119 153 188 232 286 344
#     4   9  17  34  59  83 118 155 185 232 291 340
#     4  11  23  39  58  85 117 151 192 239 290 341
#     4  10  23  43  60  79 115 155 192 237 287 338
#     4   9  20  37  57  84 118 150 186 234 285 336
#     4  10  22  39  60  84 112 152 196 234 277 339
#
# _framework density 19.119322
#
# number of rings (size 3 to 8) (size 9 to 14) (size 15 to 20)
#    0.000    2.250    1.250    0.750    1.750    4.500 
#    0.000    5.000    0.000    0.000    0.000    0.000 
#    0.000    0.000    0.000    0.000    0.000    0.000 
#
# Total GULP energy -198434.497010 kJ/mol
# GULP energy per Si atom -12402.156063 kJ/mol
# Density = 1.907581 g / cm^3
# Si number density = 19.119322 Si / 1000 Ang^3
#
#
#
# Elastic Constant Matrix: (Units=GPa)
#
#
# Indices 1 2 3 4 5 6 
#
# 1 104.3978 46.4594 50.1578 0.0000 -17.9689 0.0000
# 2 46.4594 73.1695 50.6894 0.0000 -9.7591 0.0000
# 3 50.1578 50.6894 99.1114 0.0000 -27.4486 0.0000
# 4 0.0000 0.0000 0.0000 34.3811 0.0000 -2.5715
# 5 -17.9689 -9.7591 -27.4486 0.0000 24.9650 0.0000
# 6 0.0000 0.0000 0.0000 -2.5715 0.0000 33.7551
#
#
#
# Elastic Compliance Matrix: (Units=1/GPa)
#
#
# Indices 1 2 3 4 5 6 
#
# 1 0.014759 -0.006969 -0.002469 0.000000 0.005184 0.000000
# 2 -0.006969 0.024941 -0.011384 0.000000 -0.007783 0.000000
# 3 -0.002469 -0.011384 0.022195 0.000000 0.018176 0.000000
# 4 0.000000 0.000000 0.000000 0.029252 0.000000 0.002228
# 5 0.005184 -0.007783 0.018176 0.000000 0.060729 0.000000
# 6 0.000000 0.000000 0.000000 0.002228 0.000000 0.029795
#
#
# Mechanical properties :
#
#
# Convention : Reuss Voigt Hill
#
# Bulk Modulus (GPa) = 49.38378 63.47688 56.43033
# Shear Modulus (GPa) = 21.73296 27.24504 24.48900
#
# Velocity S-wave (km/s) = 3.37516 3.77901 3.58278
# Velocity P-wave (km/s) = 6.40892 7.23282 6.83330
#
# Compressibility (1/GPa) = 0.02024956
#
# Stress axis : x y z
#
# Youngs Moduli (GPa) = 67.75662 40.09536 45.05468
#
# Poissons Ratio (x) = 0.27944 0.11124
# Poissons Ratio (y) = 0.47222 0.51291
# Poissons Ratio (z) = 0.16729 0.45645
#
# Static dielectric constant tensor:
#      x y z
#    x 3.489950 0.000000 -0.044690 
#    y 0.000000 3.447710 0.000000 
#    z -0.044690 0.000000 3.453090 
# 
# 
# High freq. dielectric constant tensor:
#      x y z
#    x 1.742610 0.000000 -0.005290 
#    y 0.000000 1.738460 0.000000 
#    z -0.005290 0.000000 1.743520 
# 
# From -- ./inp_files/21506.got.cif
#   From: 2010.03.12/outbox.cif.g09.slc.cpg/sg8_11_cif.got.tgz:21506.got - 2010.03.31 10:45:26.
