data_PCOD8053616
_publ_section_title
;
Structure prediction by ZEFSAII (Michael W. Deem and Ramdas Pophale) SiO2 
 PCOD8053616
Probable space group: C M
;
_chemical_formula_sum "Si O2"
_cell_formula_units_Z 26
_cell_length_a 23.202208
_cell_length_b 7.546756
_cell_length_c 16.122307
_cell_angle_alpha 90.000000
_cell_angle_beta 27.805003
_cell_angle_gamma 90.000000
_cell_volume 1316.845521
_symmetry_space_group_name_H-M "C M"
_symmetry_group_IT_number 8
_symmetry_cell_setting 'monoclinic'
loop_
_space_group_symop_operation_xyz
x,y,z
x,-y,z
1/2+x,1/2+y,z
1/2+x,1/2-y,z
loop_
_atom_site_type_symbol
_atom_site_label
_atom_site_fract_x
_atom_site_fract_y
_atom_site_fract_z
Si Si1 0.019008 0.000000 0.428058
Si Si2 0.821332 0.790006 0.239597
Si Si3 0.381894 0.796245 0.862920
Si Si4 0.140345 0.703997 0.607659
Si Si5 0.699794 0.202900 0.229399
Si Si6 0.837586 0.000000 0.793729
Si Si7 0.593955 0.700228 0.850153
Si Si8 0.752574 0.000000 0.727622
O O1 0.097601 0.822147 0.313578
O O2 0.974156 0.000000 0.580482
O O3 0.899911 0.000000 0.518498
O O4 0.763813 0.728488 0.401518
O O5 0.729587 0.724907 0.283541
O O6 0.825954 0.000000 0.228164
O O7 0.960181 0.718644 0.046903
O O8 0.528793 0.771948 0.684341
O O9 0.323420 0.679011 0.864367
O O10 0.346202 0.000000 0.890798
O O11 0.327448 0.724217 0.017992
O O12 0.155059 0.500000 0.614864
O O13 0.115076 0.809301 0.724168
O O14 0.653174 0.000000 0.288554
O O15 0.735237 0.000000 0.850123
O O16 0.608324 0.500000 0.865653
O O17 0.696439 0.822028 0.761587
#
# Coordination Sequence:
#
# PCOD8053616 Si02
#       8
#     2   4   4   4   4   2   4   2
#     4  10  24  41  61  90 117 175 222 258 318 368
#     4   9  20  36  62 100 131 163 206 263 332 391
#     4  11  21  36  64  99 132 167 207 264 336 390
#     4  10  20  37  63  99 134 164 202 267 330 387
#     4  11  20  37  64  96 133 166 207 266 333 393
#     4  10  24  42  62  87 126 171 217 273 318 375
#     4  11  22  42  68  91 126 177 215 262 325 381
#     4  10  26  47  63  85 131 174 225 269 304 377
#
# _framework density 19.744154000000002
#
# number of rings (size 3 to 8) (size 9 to 14) (size 15 to 20)
#    0.462    1.231    3.846    0.923    1.077    3.692 
#    2.769    1.538    0.000    0.000    0.000    0.000 
#    0.000    0.000    0.000    0.000    0.000    0.000 
#
# Total GULP energy -161136.674275 kJ/mol
# GULP energy per Si atom -12395.128790 kJ/mol
# Density = 1.969922 g / cm^3
# Si number density = 19.744154 Si / 1000 Ang^3
#
#
#
# Elastic Constant Matrix: (Units=GPa)
#
#
# Indices 1 2 3 4 5 6 
#
# 1 96.7983 43.9865 37.3816 -0.0016 -5.8650 0.0014
# 2 43.9865 112.9734 21.4628 -0.0033 -14.0343 -0.0001
# 3 37.3816 21.4628 123.9559 -0.0008 0.8329 -0.0018
# 4 -0.0016 -0.0033 -0.0008 23.1847 0.0014 -0.4959
# 5 -5.8650 -14.0343 0.8329 0.0014 38.4652 -0.0003
# 6 0.0014 -0.0001 -0.0018 -0.4959 -0.0003 12.7227
#
#
#
# Elastic Compliance Matrix: (Units=1/GPa)
#
#
# Indices 1 2 3 4 5 6 
#
# 1 0.013774 -0.004668 -0.003349 0.000000 0.000469 -0.000002
# 2 -0.004668 0.011195 -0.000553 0.000001 0.003385 0.000001
# 3 -0.003349 -0.000553 0.009179 0.000000 -0.000911 0.000002
# 4 0.000000 0.000001 0.000000 0.043168 -0.000001 0.001683
# 5 0.000469 0.003385 -0.000911 -0.000001 0.027324 0.000000
# 6 -0.000002 0.000001 0.000002 0.001683 0.000000 0.078665
#
#
# Mechanical properties :
#
#
# Convention : Reuss Voigt Hill
#
# Bulk Modulus (GPa) = 58.79840 59.93218 59.36529
# Shear Modulus (GPa) = 24.25840 30.26764 27.26302
#
# Velocity S-wave (km/s) = 3.50899 3.91959 3.71996
# Velocity P-wave (km/s) = 6.80163 7.13474 6.97018
#
# Compressibility (1/GPa) = 0.01700726
#
# Stress axis : x y z
#
# Youngs Moduli (GPa) = 72.60198 89.32675 108.94256
#
# Poissons Ratio (x) = 0.41701 0.36481
# Poissons Ratio (y) = 0.33893 0.06028
# Poissons Ratio (z) = 0.24312 0.04942
#
# Static dielectric constant tensor:
#      x y z
#    x 3.248470 0.000000 0.122110 
#    y 0.000000 3.502730 0.000000 
#    z 0.122110 0.000000 3.725110 
# 
# 
# High freq. dielectric constant tensor:
#      x y z
#    x 1.737460 0.000000 0.011820 
#    y 0.000000 1.772470 0.000000 
#    z 0.011820 0.000000 1.773530 
# 
# From -- ./inp_files/24338.got.cif
#   From: 2010.03.12/outbox.cif.g09.slc.cpg/sg8_13_cif.got.tgz:24338.got - 2010.03.31 10:45:26.
