data_PCOD8053047
_publ_section_title
;
Structure prediction by ZEFSAII (Michael W. Deem and Ramdas Pophale) SiO2 
 PCOD8053047
Probable space group: C M
;
_chemical_formula_sum "Si O2"
_cell_formula_units_Z 32
_cell_length_a 14.458909
_cell_length_b 8.926090
_cell_length_c 14.010993
_cell_angle_alpha 90.000000
_cell_angle_beta 107.311281
_cell_angle_gamma 90.000000
_cell_volume 1726.369041
_symmetry_space_group_name_H-M "C M"
_symmetry_group_IT_number 8
_symmetry_cell_setting 'monoclinic'
loop_
_space_group_symop_operation_xyz
x,y,z
x,-y,z
1/2+x,1/2+y,z
1/2+x,1/2-y,z
loop_
_atom_site_type_symbol
_atom_site_label
_atom_site_fract_x
_atom_site_fract_y
_atom_site_fract_z
Si Si1 0.419220 0.329578 0.504470
Si Si2 0.742360 0.674306 0.178764
Si Si3 0.601710 0.329239 0.668167
Si Si4 0.235589 0.823993 0.395003
Si Si5 0.647250 0.176458 0.879020
Si Si6 0.589210 0.177960 0.476233
Si Si7 0.343682 0.675896 0.042900
Si Si8 0.045811 0.176663 0.017827
O O1 0.397916 0.500000 0.465956
O O2 0.483595 0.327193 0.621694
O O3 0.320178 0.239754 0.489030
O O4 0.479488 0.241703 0.440543
O O5 0.757539 0.500000 0.166477
O O6 0.757997 0.719427 0.293044
O O7 0.823917 0.756475 0.141266
O O8 0.633170 0.720892 0.115720
O O9 0.640062 0.500000 0.682837
O O10 0.635341 0.241947 0.770776
O O11 0.644410 0.244900 0.587280
O O12 0.138210 0.739764 0.395658
O O13 0.222653 0.000000 0.405953
O O14 0.632504 0.000000 0.871619
O O15 0.754862 0.221263 0.946720
O O16 0.565072 0.245505 0.922133
O O17 0.589922 0.000000 0.479068
O O18 0.351230 0.500000 0.058422
O O19 0.444647 0.737735 0.030484
O O20 0.039929 0.000000 0.998241
#
# Coordination Sequence:
#
# PCOD8053047 Si02
#       8
#     4   4   4   4   4   4   4   4
#     4   9  20  37  55  77 106 143 186 227 272 323
#     4   9  20  35  54  79 108 141 178 221 269 320
#     4   9  19  37  57  78 108 145 182 224 274 324
#     4  11  21  35  55  82 113 147 187 228 274 327
#     4  10  19  33  54  81 109 138 177 223 270 321
#     4  10  20  36  56  79 109 144 182 228 275 321
#     4   9  19  35  55  80 107 139 179 220 266 323
#     4   9  18  36  56  76 106 143 177 217 268 323
#
# _framework density 18.536014000000002
#
# number of rings (size 3 to 8) (size 9 to 14) (size 15 to 20)
#    0.750    1.750    0.000    2.250    0.000    3.000 
#    2.250    1.250    0.000    0.000    0.000    0.000 
#    0.000    0.000    0.000    0.000    0.000    0.000 
#
# Total GULP energy -198322.521870 kJ/mol
# GULP energy per Si atom -12395.157617 kJ/mol
# Density = 1.849383 g / cm^3
# Si number density = 18.536014 Si / 1000 Ang^3
#
#
#
# Elastic Constant Matrix: (Units=GPa)
#
#
# Indices 1 2 3 4 5 6 
#
# 1 93.9635 28.6083 12.5231 0.0000 -11.6217 0.0000
# 2 28.6083 80.6534 24.8388 0.0000 -6.8006 0.0000
# 3 12.5231 24.8388 60.2639 0.0000 -7.0705 0.0000
# 4 0.0000 0.0000 0.0000 31.4320 0.0000 -5.5922
# 5 -11.6217 -6.8006 -7.0705 0.0000 21.7523 0.0000
# 6 0.0000 0.0000 0.0000 -5.5922 0.0000 31.2383
#
#
#
# Elastic Compliance Matrix: (Units=1/GPa)
#
#
# Indices 1 2 3 4 5 6 
#
# 1 0.012537 -0.003878 -0.000377 0.000000 0.005363 0.000000
# 2 -0.003878 0.015548 -0.005485 0.000000 0.001006 0.000000
# 3 -0.000377 -0.005485 0.019450 0.000000 0.004406 0.000000
# 4 0.000000 0.000000 0.000000 0.032861 0.000000 0.005883
# 5 0.005363 0.001006 0.004406 0.000000 0.050584 0.000000
# 6 0.000000 0.000000 0.000000 0.005883 0.000000 0.033065
#
#
# Mechanical properties :
#
#
# Convention : Reuss Voigt Hill
#
# Bulk Modulus (GPa) = 35.64563 40.75791 38.20177
# Shear Modulus (GPa) = 25.92320 28.14522 27.03421
#
# Velocity S-wave (km/s) = 3.74375 3.90090 3.82313
# Velocity P-wave (km/s) = 6.16115 6.50581 6.33583
#
# Compressibility (1/GPa) = 0.02805393
#
# Stress axis : x y z
#
# Youngs Moduli (GPa) = 79.76461 64.31543 51.41504
#
# Poissons Ratio (x) = 0.24945 0.01941
# Poissons Ratio (y) = 0.30937 0.28199
# Poissons Ratio (z) = 0.03011 0.35274
#
# Static dielectric constant tensor:
#      x y z
#    x 3.387480 0.000000 0.001680 
#    y 0.000000 3.362310 0.000000 
#    z 0.001680 0.000000 3.260420 
# 
# 
# High freq. dielectric constant tensor:
#      x y z
#    x 1.711760 0.000000 -0.001770 
#    y 0.000000 1.726650 0.000000 
#    z -0.001770 0.000000 1.705110 
# 
# From -- ./inp_files/26449.got.cif
#   From: 2010.03.12/outbox.cif.g09.slc.cpg/sg8_14_cif.got.tgz:26449.got - 2010.03.31 10:45:26.
