data_PCOD8053744
_publ_section_title
;
Structure prediction by ZEFSAII (Michael W. Deem and Ramdas Pophale) SiO2 
 PCOD8053744
Probable space group: C M
;
_chemical_formula_sum "Si O2"
_cell_formula_units_Z 32
_cell_length_a 9.469752
_cell_length_b 16.639515
_cell_length_c 12.489593
_cell_angle_alpha 90.000000
_cell_angle_beta 117.930331
_cell_angle_gamma 90.000000
_cell_volume 1738.772875
_symmetry_space_group_name_H-M "C M"
_symmetry_group_IT_number 8
_symmetry_cell_setting 'monoclinic'
loop_
_space_group_symop_operation_xyz
x,y,z
x,-y,z
1/2+x,1/2+y,z
1/2+x,1/2-y,z
loop_
_atom_site_type_symbol
_atom_site_label
_atom_site_fract_x
_atom_site_fract_y
_atom_site_fract_z
Si Si1 0.829690 0.831992 0.263650
Si Si2 0.052167 0.687048 0.308334
Si Si3 0.802642 0.405938 0.099707
Si Si4 0.070917 0.904969 0.742748
Si Si5 0.967481 0.845246 0.932638
Si Si6 0.325279 0.591229 0.474995
Si Si7 0.229581 0.591424 0.008762
Si Si8 0.399545 0.160598 0.912023
O O1 0.658502 0.794184 0.239343
O O2 0.877241 0.900333 0.368118
O O3 0.814448 0.864953 0.138777
O O4 0.971725 0.767709 0.320949
O O5 0.170202 0.648499 0.440422
O O6 0.916510 0.620521 0.236621
O O7 0.764098 0.500000 0.092765
O O8 0.640349 0.354691 0.049122
O O9 0.893364 0.384857 0.022815
O O10 0.245169 0.865378 0.788082
O O11 0.979991 0.868421 0.812743
O O12 0.969376 0.881730 0.602460
O O13 0.090929 0.000000 0.765882
O O14 0.900330 0.756115 0.925424
O O15 0.844391 0.904637 0.947081
O O16 0.276786 0.500000 0.482344
O O17 0.197489 0.500000 0.029670
O O18 0.063520 0.632889 0.914622
#
# Coordination Sequence:
#
# PCOD8053744 Si02
#       8
#     4   4   4   4   4   4   4   4
#     4  10  22  36  58  86 111 146 184 228 282 331
#     4  10  21  36  59  84 113 145 183 231 279 329
#     4  11  21  36  56  80 114 153 191 222 270 343
#     4  10  21  40  61  80 108 151 194 230 269 333
#     4  11  23  36  53  86 116 149 181 231 281 326
#     4   9  20  39  63  81 106 147 196 231 269 331
#     4  12  22  34  55  85 118 146 178 229 282 331
#     4  11  20  35  57  80 112 149 189 226 274 330
#
# _framework density 18.403783000000001
#
# number of rings (size 3 to 8) (size 9 to 14) (size 15 to 20)
#    0.750    0.750    1.250    6.750    1.750    1.000 
#    0.000    0.000    0.000    0.000    0.000    0.000 
#    0.000    0.000    0.000    0.000    0.000    0.000 
#
# Total GULP energy -198348.868421 kJ/mol
# GULP energy per Si atom -12396.804276 kJ/mol
# Density = 1.836190 g / cm^3
# Si number density = 18.403783 Si / 1000 Ang^3
#
#
#
# Elastic Constant Matrix: (Units=GPa)
#
#
# Indices 1 2 3 4 5 6 
#
# 1 90.0832 19.5922 39.5852 0.0000 9.8686 0.0000
# 2 19.5922 100.3605 34.7531 0.0000 15.0057 0.0000
# 3 39.5852 34.7531 117.5881 0.0000 24.6267 0.0000
# 4 0.0000 0.0000 0.0000 27.4556 0.0000 8.0034
# 5 9.8686 15.0057 24.6267 0.0000 26.1627 0.0000
# 6 0.0000 0.0000 0.0000 8.0034 0.0000 32.7116
#
#
#
# Elastic Compliance Matrix: (Units=1/GPa)
#
#
# Indices 1 2 3 4 5 6 
#
# 1 0.013153 -0.001102 -0.003980 0.000000 -0.000583 0.000000
# 2 -0.001102 0.011554 -0.002171 0.000000 -0.004168 0.000000
# 3 -0.003980 -0.002171 0.012344 0.000000 -0.008873 0.000000
# 4 0.000000 0.000000 0.000000 0.039220 0.000000 -0.009596
# 5 -0.000583 -0.004168 -0.008873 0.000000 0.049184 0.000000
# 6 0.000000 0.000000 0.000000 -0.009596 0.000000 0.032918
#
#
# Mechanical properties :
#
#
# Convention : Reuss Voigt Hill
#
# Bulk Modulus (GPa) = 44.35619 55.09921 49.72770
# Shear Modulus (GPa) = 27.71689 31.53940 29.62815
#
# Velocity S-wave (km/s) = 3.88499 4.14423 4.01670
# Velocity P-wave (km/s) = 6.65418 7.27349 6.97072
#
# Compressibility (1/GPa) = 0.02254477
#
# Stress axis : x y z
#
# Youngs Moduli (GPa) = 76.02566 86.54888 81.01095
#
# Poissons Ratio (x) = 0.09541 0.32244
# Poissons Ratio (y) = 0.08381 0.17586
# Poissons Ratio (z) = 0.30259 0.18789
#
# Static dielectric constant tensor:
#      x y z
#    x 3.342990 0.000000 0.204940 
#    y 0.000000 3.346760 0.000000 
#    z 0.204940 0.000000 3.275680 
# 
# 
# High freq. dielectric constant tensor:
#      x y z
#    x 1.708400 0.000000 0.020260 
#    y 0.000000 1.720560 0.000000 
#    z 0.020260 0.000000 1.698940 
# 
# From -- ./inp_files/25378.got.cif
#   From: 2010.03.12/outbox.cif.g09.slc.cpg/sg8_13_cif.got.tgz:25378.got - 2010.03.31 10:45:26.
