data_PCOD8053806
_publ_section_title
;
Structure prediction by ZEFSAII (Michael W. Deem and Ramdas Pophale) SiO2 
 PCOD8053806
Probable space group: C M
;
_chemical_formula_sum "Si O2"
_cell_formula_units_Z 32
_cell_length_a 24.702914
_cell_length_b 9.074389
_cell_length_c 23.714260
_cell_angle_alpha 90.000000
_cell_angle_beta 17.752537
_cell_angle_gamma 90.000000
_cell_volume 1620.846158
_symmetry_space_group_name_H-M "C M"
_symmetry_group_IT_number 8
_symmetry_cell_setting 'monoclinic'
loop_
_space_group_symop_operation_xyz
x,y,z
x,-y,z
1/2+x,1/2+y,z
1/2+x,1/2-y,z
loop_
_atom_site_type_symbol
_atom_site_label
_atom_site_fract_x
_atom_site_fract_y
_atom_site_fract_z
Si Si1 0.926470 0.327666 0.790180
Si Si2 0.521494 0.167227 0.074961
Si Si3 0.437020 0.665245 0.668706
Si Si4 0.228483 0.827172 0.555247
Si Si5 0.513997 0.673279 0.195411
Si Si6 0.213019 0.829003 0.700931
Si Si7 0.516097 0.668699 0.466702
Si Si8 0.411637 0.170184 0.062689
O O1 0.962424 0.500000 0.760868
O O2 0.992144 0.277740 0.663115
O O3 0.040624 0.241335 0.723074
O O4 0.719550 0.287927 0.004240
O O5 0.456574 0.267893 0.191017
O O6 0.457095 0.000000 0.150516
O O7 0.730711 0.175667 0.859839
O O8 0.439833 0.230553 0.098185
O O9 0.488716 0.500000 0.636982
O O10 0.538203 0.708541 0.510960
O O11 0.395038 0.751611 0.360023
O O12 0.252394 0.793429 0.597187
O O13 0.228211 0.000000 0.542139
O O14 0.479440 0.500000 0.231699
O O15 0.375697 0.772702 0.576510
O O16 0.028265 0.755409 0.901636
O O17 0.192031 0.000000 0.733285
O O18 0.450805 0.500000 0.525742
O O19 0.706826 0.691823 0.248284
O O20 0.468965 0.000000 0.004558
#
# Coordination Sequence:
#
# PCOD8053806 Si02
#       8
#     4   4   4   4   4   4   4   4
#     4  10  22  39  60  91 124 154 194 248 307 357
#     4   9  17  33  58  87 123 162 196 236 290 357
#     4   9  17  33  58  87 123 162 196 236 290 357
#     4  11  25  43  63  85 115 163 212 249 294 359
#     4  10  22  39  60  91 124 154 194 248 307 357
#     4  11  25  43  61  85 121 161 204 255 302 349
#     4  10  21  38  62  91 120 157 202 245 296 360
#     4  10  21  38  62  91 120 157 202 245 296 360
#
# _framework density 19.742774000000001
#
# number of rings (size 3 to 8) (size 9 to 14) (size 15 to 20)
#    0.000    2.000    1.250    1.500    1.750    6.000 
#    0.000    5.000    0.000    0.000    0.000    0.000 
#    0.000    0.000    0.000    0.000    0.000    0.000 
#
# Total GULP energy -198447.804927 kJ/mol
# GULP energy per Si atom -12402.987808 kJ/mol
# Density = 1.969784 g / cm^3
# Si number density = 19.742774 Si / 1000 Ang^3
#
#
#
# Elastic Constant Matrix: (Units=GPa)
#
#
# Indices 1 2 3 4 5 6 
#
# 1 57.2021 46.2122 33.2748 -0.0189 18.5919 0.0050
# 2 46.2122 98.0021 51.2022 -0.0446 18.0810 0.0141
# 3 33.2748 51.2022 102.4165 -0.0158 21.2346 0.0090
# 4 -0.0189 -0.0446 -0.0158 27.3059 0.0083 4.0620
# 5 18.5919 18.0810 21.2346 0.0083 26.5685 -0.0029
# 6 0.0050 0.0141 0.0090 4.0620 -0.0029 32.2012
#
#
#
# Elastic Compliance Matrix: (Units=1/GPa)
#
#
# Indices 1 2 3 4 5 6 
#
# 1 0.032449 -0.011904 -0.001874 0.000006 -0.013109 -0.000001
# 2 -0.011904 0.018675 -0.005467 0.000020 -0.000010 -0.000007
# 3 -0.001874 -0.005467 0.014459 0.000000 -0.006524 -0.000002
# 4 0.000006 0.000020 0.000000 0.037322 -0.000031 -0.004708
# 5 -0.013109 -0.000010 -0.006524 -0.000031 0.052033 0.000012
# 6 -0.000001 -0.000007 -0.000002 -0.004708 0.000012 0.031649
#
#
# Mechanical properties :
#
#
# Convention : Reuss Voigt Hill
#
# Bulk Modulus (GPa) = 36.90805 57.66656 47.28730
# Shear Modulus (GPa) = 21.35778 25.67723 23.51750
#
# Velocity S-wave (km/s) = 3.29264 3.61028 3.45511
# Velocity P-wave (km/s) = 5.76111 6.83017 6.31829
#
# Compressibility (1/GPa) = 0.02709436
#
# Stress axis : x y z
#
# Youngs Moduli (GPa) = 30.81747 53.54731 69.16289
#
# Poissons Ratio (x) = 0.63742 0.12958
# Poissons Ratio (y) = 0.36685 0.37810
# Poissons Ratio (z) = 0.05774 0.29274
#
# Static dielectric constant tensor:
#      x y z
#    x 3.542080 0.000000 0.021390 
#    y 0.000000 3.591040 0.000010 
#    z 0.021390 0.000010 3.632240 
# 
# 
# High freq. dielectric constant tensor:
#      x y z
#    x 1.764510 0.000000 -0.000460 
#    y 0.000000 1.765610 0.000000 
#    z -0.000460 0.000000 1.779250 
# 
# From -- ./inp_files/32375.got.cif
#   From: 2010.03.12/outbox.cif.g09.slc.cpg/sg8_17_cif.got.tgz:32375.got - 2010.03.31 10:45:26.
