data_PCOD8053208
_publ_section_title
;
Structure prediction by ZEFSAII (Michael W. Deem and Ramdas Pophale) SiO2 
 PCOD8053208
Probable space group: C M
;
_chemical_formula_sum "Si O2"
_cell_formula_units_Z 32
_cell_length_a 33.146000
_cell_length_b 9.011636
_cell_length_c 12.652296
_cell_angle_alpha 90.000000
_cell_angle_beta 26.038194
_cell_angle_gamma 90.000000
_cell_volume 1658.972340
_symmetry_space_group_name_H-M "C M"
_symmetry_group_IT_number 8
_symmetry_cell_setting 'monoclinic'
loop_
_space_group_symop_operation_xyz
x,y,z
x,-y,z
1/2+x,1/2+y,z
1/2+x,1/2-y,z
loop_
_atom_site_type_symbol
_atom_site_label
_atom_site_fract_x
_atom_site_fract_y
_atom_site_fract_z
Si Si1 0.913110 0.323923 0.373450
Si Si2 0.561121 0.672106 0.532912
Si Si3 0.112281 0.326778 0.978467
Si Si4 0.562384 0.667860 0.298523
Si Si5 0.308616 0.325502 0.432875
Si Si6 0.354641 0.330460 0.716127
Si Si7 0.758377 0.672737 0.131687
Si Si8 0.366473 0.675530 0.063565
O O1 0.902270 0.500000 0.403590
O O2 0.877156 0.263288 0.347153
O O3 0.851812 0.251842 0.610232
O O4 0.020051 0.274239 0.134410
O O5 0.542426 0.500000 0.554883
O O6 0.577795 0.742800 0.377315
O O7 0.648737 0.697138 0.401378
O O8 0.470447 0.736249 0.803373
O O9 0.107849 0.500000 0.007136
O O10 0.202399 0.280048 0.700852
O O11 0.120273 0.256221 0.075556
O O12 0.598920 0.500000 0.208325
O O13 0.454889 0.677162 0.529468
O O14 0.324343 0.500000 0.414064
O O15 0.332968 0.275759 0.257476
O O16 0.322244 0.500000 0.776978
O O17 0.287156 0.246699 0.954120
O O18 0.784921 0.500000 0.066011
O O19 0.802044 0.749096 0.129551
O O20 0.358871 0.500000 0.066210
#
# Coordination Sequence:
#
# PCOD8053208 Si02
#       8
#     4   4   4   4   4   4   4   4
#     4  10  21  37  57  83 118 151 183 232 289 333
#     4   9  19  36  56  81 112 148 188 229 279 338
#     4   9  20  37  54  82 117 147 182 231 284 331
#     4   9  17  33  57  81 110 149 187 224 274 338
#     4  10  22  39  61  84 110 151 197 234 275 336
#     4  10  19  35  59  84 115 151 190 230 277 340
#     4  11  22  35  56  87 117 145 186 238 289 333
#     4  10  21  42  62  78 111 156 195 232 277 335
#
# _framework density 19.28905
#
# number of rings (size 3 to 8) (size 9 to 14) (size 15 to 20)
#    0.000    2.250    1.250    1.125    1.750    3.000 
#    0.000    1.875    0.000    0.000    0.000    0.000 
#    0.000    0.000    0.000    0.000    0.000    0.000 
#
# Total GULP energy -198408.566027 kJ/mol
# GULP energy per Si atom -12400.535377 kJ/mol
# Density = 1.924515 g / cm^3
# Si number density = 19.289050 Si / 1000 Ang^3
#
#
#
# Elastic Constant Matrix: (Units=GPa)
#
#
# Indices 1 2 3 4 5 6 
#
# 1 125.1471 44.4202 89.3070 0.0000 11.6267 0.0000
# 2 44.4202 53.6019 46.8654 0.0000 4.6532 0.0000
# 3 89.3070 46.8654 143.0043 0.0000 17.8379 0.0000
# 4 0.0000 0.0000 0.0000 23.2604 0.0000 1.0898
# 5 11.6267 4.6532 17.8379 0.0000 27.9810 0.0000
# 6 0.0000 0.0000 0.0000 1.0898 0.0000 33.6185
#
#
#
# Elastic Compliance Matrix: (Units=1/GPa)
#
#
# Indices 1 2 3 4 5 6 
#
# 1 0.015789 -0.006274 -0.007731 0.000000 -0.000589 0.000000
# 2 -0.006274 0.028679 -0.005661 0.000000 0.001447 0.000000
# 3 -0.007731 -0.005661 0.014294 0.000000 -0.004959 0.000000
# 4 0.000000 0.000000 0.000000 0.043057 0.000000 -0.001396
# 5 -0.000589 0.001447 -0.004959 0.000000 0.038904 0.000000
# 6 0.000000 0.000000 0.000000 -0.001396 0.000000 0.029791
#
#
# Mechanical properties :
#
#
# Convention : Reuss Voigt Hill
#
# Bulk Modulus (GPa) = 51.46373 75.88205 63.67289
# Shear Modulus (GPa) = 23.11352 26.38271 24.74811
#
# Velocity S-wave (km/s) = 3.46536 3.70233 3.58580
# Velocity P-wave (km/s) = 6.53834 7.59613 7.08700
#
# Compressibility (1/GPa) = 0.01943116
#
# Stress axis : x y z
#
# Youngs Moduli (GPa) = 63.33498 34.86811 69.95719
#
# Poissons Ratio (x) = 0.21877 0.54082
# Poissons Ratio (y) = 0.39738 0.39603
# Poissons Ratio (z) = 0.48962 0.19739
#
# Static dielectric constant tensor:
#      x y z
#    x 3.502890 0.000000 0.012180 
#    y 0.000000 3.423230 0.000000 
#    z 0.012180 0.000000 3.698010 
# 
# 
# High freq. dielectric constant tensor:
#      x y z
#    x 1.752020 0.000000 -0.003530 
#    y 0.000000 1.736450 0.000000 
#    z -0.003530 0.000000 1.755450 
# 
# From -- ./inp_files/21507.got.cif
#   From: 2010.03.12/outbox.cif.g09.slc.cpg/sg8_11_cif.got.tgz:21507.got - 2010.03.31 10:45:26.
