data_PCOD8053272
_publ_section_title
;
Structure prediction by ZEFSAII (Michael W. Deem and Ramdas Pophale) SiO2 
 PCOD8053272
Probable space group: C M
;
_chemical_formula_sum "Si O2"
_cell_formula_units_Z 28
_cell_length_a 5.627868
_cell_length_b 31.150694
_cell_length_c 7.714895
_cell_angle_alpha 90.000000
_cell_angle_beta 123.132725
_cell_angle_gamma 90.000000
_cell_volume 1132.603930
_symmetry_space_group_name_H-M "C M"
_symmetry_group_IT_number 8
_symmetry_cell_setting 'monoclinic'
loop_
_space_group_symop_operation_xyz
x,y,z
x,-y,z
1/2+x,1/2+y,z
1/2+x,1/2-y,z
loop_
_atom_site_type_symbol
_atom_site_label
_atom_site_fract_x
_atom_site_fract_y
_atom_site_fract_z
Si Si1 0.350390 0.763113 0.443780
Si Si2 0.911096 0.912546 0.829975
Si Si3 0.675848 0.000000 0.629455
Si Si4 0.412270 0.593598 0.230545
Si Si5 0.690796 0.268407 0.913784
Si Si6 0.484463 0.500000 0.381159
Si Si7 0.419722 0.856572 0.576395
Si Si8 0.889965 0.358561 0.954097
O O1 0.510093 0.747657 0.328792
O O2 0.505846 0.739238 0.666244
O O3 0.384543 0.814133 0.450348
O O4 0.699492 0.882373 0.635916
O O5 0.208314 0.902590 0.856310
O O6 0.799733 0.960388 0.783921
O O7 0.959479 0.898704 0.046866
O O8 0.833249 0.000000 0.507639
O O9 0.331050 0.000000 0.501344
O O10 0.363209 0.542955 0.243739
O O11 0.667385 0.609911 0.449262
O O12 0.150368 0.624975 0.175712
O O13 0.512133 0.250276 0.008534
O O14 0.723069 0.318908 0.974857
O O15 0.464720 0.841812 0.792626
#
# Coordination Sequence:
#
# PCOD8053272 Si02
#       8
#     4   4   2   4   4   2   4   4
#     4  10  19  36  65  96 131 188 237 290 346 414
#     4  11  25  44  73 105 140 188 237 297 359 437
#     4  12  27  49  82 105 138 198 238 286 373 440
#     4  11  27  45  71 109 146 184 237 305 359 433
#     4  10  19  37  66  97 135 190 239 292 351 412
#     4  12  27  53  76 107 146 192 238 294 367 436
#     4  11  22  43  69  99 142 188 242 292 361 426
#     4  11  24  41  71 103 142 193 242 300 361 426
#
# _framework density 24.721793000000002
#
# number of rings (size 3 to 8) (size 9 to 14) (size 15 to 20)
#    0.000    1.143    4.286    3.000    6.000    1.714 
#    0.000    1.429    0.000    0.000    0.000    0.000 
#    0.000    0.000    0.000    0.000    0.000    0.000 
#
# Total GULP energy -173480.334726 kJ/mol
# GULP energy per Si atom -12391.452480 kJ/mol
# Density = 2.466553 g / cm^3
# Si number density = 24.721793 Si / 1000 Ang^3
#
#
#
# Elastic Constant Matrix: (Units=GPa)
#
#
# Indices 1 2 3 4 5 6 
#
# 1 154.6272 20.1268 34.9707 0.0000 6.8049 0.0000
# 2 20.1268 130.1179 14.7937 0.0000 1.1382 0.0000
# 3 34.9707 14.7937 53.2473 0.0000 3.8779 0.0000
# 4 0.0000 0.0000 0.0000 16.4988 0.0000 13.7872
# 5 6.8049 1.1382 3.8779 0.0000 30.1590 0.0000
# 6 0.0000 0.0000 0.0000 13.7872 0.0000 41.7748
#
#
#
# Elastic Compliance Matrix: (Units=1/GPa)
#
#
# Indices 1 2 3 4 5 6 
#
# 1 0.007681 -0.000634 -0.004789 0.000000 -0.001093 0.000000
# 2 -0.000634 0.007988 -0.001808 0.000000 0.000074 0.000000
# 3 -0.004789 -0.001808 0.022555 0.000000 -0.001751 0.000000
# 4 0.000000 0.000000 0.000000 0.083692 0.000000 -0.027621
# 5 -0.001093 0.000074 -0.001751 0.000000 0.033627 0.000000
# 6 0.000000 0.000000 0.000000 -0.027621 0.000000 0.033054
#
#
# Mechanical properties :
#
#
# Convention : Reuss Voigt Hill
#
# Bulk Modulus (GPa) = 42.08356 53.08609 47.58482
# Shear Modulus (GPa) = 23.69892 35.55993 29.62943
#
# Velocity S-wave (km/s) = 3.09953 3.79674 3.46571
# Velocity P-wave (km/s) = 5.46527 6.38282 5.94178
#
# Compressibility (1/GPa) = 0.02376225
#
# Stress axis : x y z
#
# Youngs Moduli (GPa) = 130.19431 125.18193 44.33552
#
# Poissons Ratio (x) = 0.07937 0.21231
# Poissons Ratio (y) = 0.08255 0.08018
# Poissons Ratio (z) = 0.62346 0.22638
#
# Static dielectric constant tensor:
#      x y z
#    x 4.930860 0.000000 0.230410 
#    y 0.000000 4.549990 0.000000 
#    z 0.230410 0.000000 4.167650 
# 
# 
# High freq. dielectric constant tensor:
#      x y z
#    x 1.995900 0.000000 0.009140 
#    y 0.000000 1.992490 0.000000 
#    z 0.009140 0.000000 1.980670 
# 
# From -- ./inp_files/7168.got.cif
#   From: 2010.03.12/outbox.cif.g09.slc.cpg/sg8_4_cif.got.tgz:7168.got - 2010.03.31 10:45:26.
