data_PCOD8053530
_publ_section_title
;
Structure prediction by ZEFSAII (Michael W. Deem and Ramdas Pophale) SiO2 
 PCOD8053530
Probable space group: C M
;
_chemical_formula_sum "Si O2"
_cell_formula_units_Z 32
_cell_length_a 18.671245
_cell_length_b 13.052584
_cell_length_c 14.724267
_cell_angle_alpha 90.000000
_cell_angle_beta 26.187177
_cell_angle_gamma 90.000000
_cell_volume 1583.588496
_symmetry_space_group_name_H-M "C M"
_symmetry_group_IT_number 8
_symmetry_cell_setting 'monoclinic'
loop_
_space_group_symop_operation_xyz
x,y,z
x,-y,z
1/2+x,1/2+y,z
1/2+x,1/2-y,z
loop_
_atom_site_type_symbol
_atom_site_label
_atom_site_fract_x
_atom_site_fract_y
_atom_site_fract_z
Si Si1 0.419020 0.288579 0.543370
Si Si2 0.680073 0.274025 0.664917
Si Si3 0.447914 0.383717 0.055266
Si Si4 0.623301 0.614239 0.172581
Si Si5 0.966104 0.254848 0.210364
Si Si6 0.085077 0.383534 0.454660
Si Si7 0.781781 0.118496 0.872949
Si Si8 0.452786 0.795047 0.779348
O O1 0.274352 0.289186 0.634725
O O2 0.584708 0.325865 0.309112
O O3 0.455879 0.173979 0.536993
O O4 0.377376 0.366833 0.670448
O O5 0.802358 0.303770 0.442212
O O6 0.540024 0.205934 0.777613
O O7 0.588487 0.368031 0.819381
O O8 0.469120 0.500000 0.070860
O O9 0.452732 0.292506 0.124649
O O10 0.270824 0.376128 0.209079
O O11 0.562731 0.500000 0.252922
O O12 0.523630 0.658476 0.202452
O O13 0.814639 0.618891 0.938033
O O14 0.097648 0.345333 0.065615
O O15 0.024281 0.500000 0.527465
O O16 0.082124 0.330540 0.556958
O O17 0.870623 0.184725 0.849982
O O18 0.783681 0.000000 0.900419
#
# Coordination Sequence:
#
# PCOD8053530 Si02
#       8
#     4   4   4   4   4   4   4   4
#     4  10  21  38  61  88 122 159 202 257 305 368
#     4  11  22  39  62  91 126 158 200 258 316 356
#     4  11  22  38  63  95 126 162 208 257 313 370
#     4  10  20  36  59  89 121 159 206 252 310 367
#     4  10  21  40  62  88 127 164 200 264 306 372
#     4  10  21  39  63  89 123 164 205 252 312 370
#     4  10  21  40  62  83 117 168 207 243 310 374
#     4  10  21  38  61  87 126 158 203 259 307 367
#
# _framework density 20.207270999999999
#
# number of rings (size 3 to 8) (size 9 to 14) (size 15 to 20)
#    0.000    1.750    2.500    1.875    0.000    1.500 
#    0.000    9.375    0.000    0.000    0.000    0.000 
#    0.000    0.000    0.000    0.000    0.000    0.000 
#
# Total GULP energy -198307.849913 kJ/mol
# GULP energy per Si atom -12394.240620 kJ/mol
# Density = 2.016128 g / cm^3
# Si number density = 20.207271 Si / 1000 Ang^3
#
#
#
# Elastic Constant Matrix: (Units=GPa)
#
#
# Indices 1 2 3 4 5 6 
#
# 1 98.7823 31.1371 24.4910 0.0000 -3.8556 0.0002
# 2 31.1371 119.2917 30.8219 0.0002 -1.5581 0.0001
# 3 24.4910 30.8219 112.1698 0.0002 5.1170 0.0002
# 4 0.0000 0.0002 0.0002 22.5391 0.0000 2.0858
# 5 -3.8556 -1.5581 5.1170 0.0000 29.3070 -0.0003
# 6 0.0002 0.0001 0.0002 2.0858 -0.0003 15.5601
#
#
#
# Elastic Compliance Matrix: (Units=1/GPa)
#
#
# Indices 1 2 3 4 5 6 
#
# 1 0.011440 -0.002474 -0.001896 0.000000 0.001704 0.000000
# 2 -0.002474 0.009583 -0.002118 0.000000 0.000554 0.000000
# 3 -0.001896 -0.002118 0.010007 0.000000 -0.002109 0.000000
# 4 0.000000 0.000000 0.000000 0.044925 0.000000 -0.006022
# 5 0.001704 0.000554 -0.002109 0.000000 0.034743 0.000001
# 6 0.000000 0.000000 0.000000 -0.006022 0.000001 0.065074
#
#
# Mechanical properties :
#
#
# Convention : Reuss Voigt Hill
#
# Bulk Modulus (GPa) = 55.38902 55.90484 55.64693
# Shear Modulus (GPa) = 25.67182 29.73416 27.70299
#
# Velocity S-wave (km/s) = 3.56817 3.84012 3.70664
# Velocity P-wave (km/s) = 6.66676 6.88388 6.77619
#
# Compressibility (1/GPa) = 0.01805412
#
# Stress axis : x y z
#
# Youngs Moduli (GPa) = 87.41580 104.35040 99.92739
#
# Poissons Ratio (x) = 0.25815 0.18943
# Poissons Ratio (y) = 0.21625 0.21168
# Poissons Ratio (z) = 0.16571 0.22105
#
# Static dielectric constant tensor:
#      x y z
#    x 3.522150 0.000000 0.078650 
#    y 0.000000 3.368700 0.000000 
#    z 0.078650 0.000000 3.969340 
# 
# 
# High freq. dielectric constant tensor:
#      x y z
#    x 1.781670 0.000000 0.001470 
#    y 0.000000 1.765080 0.000000 
#    z 0.001470 0.000000 1.808470 
# 
# From -- ./inp_files/16278.got.cif
#   From: 2010.03.12/outbox.cif.g09.slc.cpg/sg8_9_cif.got.tgz:16278.got - 2010.03.31 10:45:26.
