data_PCOD8053287
_publ_section_title
;
Structure prediction by ZEFSAII (Michael W. Deem and Ramdas Pophale) SiO2 
 PCOD8053287
Probable space group: C M
;
_chemical_formula_sum "Si O2"
_cell_formula_units_Z 32
_cell_length_a 23.913115
_cell_length_b 8.851420
_cell_length_c 19.389633
_cell_angle_alpha 90.000000
_cell_angle_beta 23.331470
_cell_angle_gamma 90.000000
_cell_volume 1625.431240
_symmetry_space_group_name_H-M "C M"
_symmetry_group_IT_number 8
_symmetry_cell_setting 'monoclinic'
loop_
_space_group_symop_operation_xyz
x,y,z
x,-y,z
1/2+x,1/2+y,z
1/2+x,1/2-y,z
loop_
_atom_site_type_symbol
_atom_site_label
_atom_site_fract_x
_atom_site_fract_y
_atom_site_fract_z
Si Si1 0.599080 0.178879 0.615600
Si Si2 0.569175 0.671646 0.126909
Si Si3 0.566124 0.671812 0.975074
Si Si4 0.785370 0.679009 0.996464
Si Si5 0.847940 0.677751 0.585027
Si Si6 0.766422 0.321528 0.299194
Si Si7 0.307769 0.175644 0.474552
Si Si8 0.632213 0.321189 0.306765
O O1 0.674174 0.249035 0.464122
O O2 0.673096 0.229261 0.602726
O O3 0.605655 0.000000 0.600350
O O4 0.440282 0.241626 0.803316
O O5 0.525033 0.500000 0.196986
O O6 0.625558 0.678181 0.985522
O O7 0.686570 0.734637 0.046034
O O8 0.435315 0.781691 0.279738
O O9 0.527128 0.500000 0.998761
O O10 0.428920 0.772631 0.118430
O O11 0.695440 0.735171 0.783513
O O12 0.791934 0.500000 0.992552
O O13 0.725446 0.742464 0.137037
O O14 0.863040 0.500000 0.580057
O O15 0.855396 0.723475 0.496744
O O16 0.973799 0.757708 0.483322
O O17 0.758286 0.500000 0.316900
O O18 0.703611 0.267832 0.296995
O O19 0.271011 0.000000 0.510541
O O20 0.622741 0.500000 0.313183
#
# Coordination Sequence:
#
# PCOD8053287 Si02
#       8
#     4   4   4   4   4   4   4   4
#     4  11  23  39  63  88 114 157 202 241 292 353
#     4  10  19  37  64  86 110 150 201 248 288 344
#     4  10  22  39  61  88 117 157 202 238 289 353
#     4   9  20  38  61  88 114 150 200 245 285 344
#     4  10  23  40  60  89 121 156 197 243 293 346
#     4  11  24  40  59  87 123 156 192 245 299 346
#     4  11  22  38  59  87 122 153 191 248 299 343
#     4  10  22  41  61  85 119 157 197 242 293 351
#
# _framework density 19.687083000000001
#
# number of rings (size 3 to 8) (size 9 to 14) (size 15 to 20)
#    0.000    1.750    2.500    1.125    3.500    2.000 
#    0.000    2.500    0.000    0.000    0.000    0.000 
#    0.000    0.000    0.000    0.000    0.000    0.000 
#
# Total GULP energy -198425.803184 kJ/mol
# GULP energy per Si atom -12401.612699 kJ/mol
# Density = 1.964227 g / cm^3
# Si number density = 19.687083 Si / 1000 Ang^3
#
#
#
# Elastic Constant Matrix: (Units=GPa)
#
#
# Indices 1 2 3 4 5 6 
#
# 1 122.9537 35.5693 42.6386 0.0001 -14.3464 0.0000
# 2 35.5693 49.5013 32.1452 0.0007 -2.8868 0.0000
# 3 42.6386 32.1452 129.0623 0.0007 -13.2439 -0.0001
# 4 0.0001 0.0007 0.0007 22.2844 -0.0001 -3.0032
# 5 -14.3464 -2.8868 -13.2439 -0.0001 33.9517 0.0000
# 6 0.0000 0.0000 -0.0001 -3.0032 0.0000 27.2982
#
#
#
# Elastic Compliance Matrix: (Units=1/GPa)
#
#
# Indices 1 2 3 4 5 6 
#
# 1 0.011030 -0.006666 -0.001629 0.000000 0.003459 0.000000
# 2 -0.006666 0.028131 -0.005050 -0.000001 -0.002395 0.000000
# 3 -0.001629 -0.005050 0.009823 0.000000 0.002714 0.000000
# 4 0.000000 -0.000001 0.000000 0.045550 0.000000 0.005011
# 5 0.003459 -0.002395 0.002714 0.000000 0.031770 0.000000
# 6 0.000000 0.000000 0.000000 0.005011 0.000000 0.037184
#
#
# Mechanical properties :
#
#
# Convention : Reuss Voigt Hill
#
# Bulk Modulus (GPa) = 44.85543 58.02483 51.44013
# Shear Modulus (GPa) = 25.30253 29.45114 27.37683
#
# Velocity S-wave (km/s) = 3.58891 3.87196 3.73312
# Velocity P-wave (km/s) = 6.32513 7.03754 6.69083
#
# Compressibility (1/GPa) = 0.02229384
#
# Stress axis : x y z
#
# Youngs Moduli (GPa) = 90.66174 35.54765 101.80635
#
# Poissons Ratio (x) = 0.23697 0.16582
# Poissons Ratio (y) = 0.60438 0.51412
# Poissons Ratio (z) = 0.14766 0.17952
#
# Static dielectric constant tensor:
#      x y z
#    x 3.799700 0.000000 0.013380 
#    y 0.000000 3.383980 0.000000 
#    z 0.013380 0.000000 3.708520 
# 
# 
# High freq. dielectric constant tensor:
#      x y z
#    x 1.781760 0.000000 0.000070 
#    y 0.000000 1.749390 0.000000 
#    z 0.000070 0.000000 1.773590 
# 
# From -- ./inp_files/31649.got.cif
#   From: 2010.03.12/outbox.cif.g09.slc.cpg/sg8_16_cif.got.tgz:31649.got - 2010.03.31 10:45:26.
