data_PCOD8053920
_publ_section_title
;
Structure prediction by ZEFSAII (Michael W. Deem and Ramdas Pophale) SiO2 
 PCOD8053920
Probable space group: C M
;
_chemical_formula_sum "Si O2"
_cell_formula_units_Z 32
_cell_length_a 12.299009
_cell_length_b 16.863334
_cell_length_c 14.451810
_cell_angle_alpha 90.000000
_cell_angle_beta 148.284703
_cell_angle_gamma 90.000000
_cell_volume 1575.697251
_symmetry_space_group_name_H-M "C M"
_symmetry_group_IT_number 8
_symmetry_cell_setting 'monoclinic'
loop_
_space_group_symop_operation_xyz
x,y,z
x,-y,z
1/2+x,1/2+y,z
1/2+x,1/2-y,z
loop_
_atom_site_type_symbol
_atom_site_label
_atom_site_fract_x
_atom_site_fract_y
_atom_site_fract_z
Si Si1 0.806880 0.595356 0.980510
Si Si2 0.691058 0.841928 0.366922
Si Si3 0.138492 0.906608 0.665214
Si Si4 0.464838 0.087916 0.371085
Si Si5 0.050990 0.086027 0.956637
Si Si6 0.341058 0.404610 0.978840
Si Si7 0.879703 0.593199 0.664981
Si Si8 0.228921 0.157430 0.365859
O O1 0.821190 0.500000 0.999634
O O2 0.756434 0.626135 0.841505
O O3 0.616996 0.628418 0.908402
O O4 0.022159 0.632433 0.168940
O O5 0.629654 0.864286 0.427873
O O6 0.731945 0.749545 0.389318
O O7 0.898866 0.886556 0.490310
O O8 0.250204 0.869252 0.656135
O O9 0.162046 0.000000 0.681586
O O10 0.259226 0.076097 0.165060
O O11 0.412518 0.135909 0.426888
O O12 0.553317 0.000000 0.459870
O O13 0.958910 0.000000 0.864481
O O14 0.888151 0.128494 0.907862
O O15 0.363901 0.500000 0.996989
O O16 0.113741 0.373340 0.839510
O O17 0.502317 0.367952 0.167517
O O18 0.892002 0.500000 0.685513
O O19 0.767766 0.611679 0.488613
#
# Coordination Sequence:
#
# PCOD8053920 Si02
#       8
#     4   4   4   4   4   4   4   4
#     4   9  18  36  60  87 116 157 205 253 300 357
#     4  11  23  37  62  89 126 160 199 254 320 363
#     4  10  22  39  60  88 121 161 208 248 292 367
#     4   9  18  37  61  87 115 156 208 252 293 365
#     4   7  12  27  55  85 110 134 188 254 294 333
#     4   9  18  36  60  87 116 157 205 253 300 357
#     4  10  22  39  60  88 121 161 208 248 292 367
#     4  11  23  37  62  89 126 160 199 254 320 363
#
# _framework density 20.30847
#
# number of rings (size 3 to 8) (size 9 to 14) (size 15 to 20)
#    0.000    2.500    0.000    3.750    1.750    3.000 
#    0.000    5.000    5.500    0.000    0.000    0.000 
#    0.000    0.000    0.000    0.000    0.000    0.000 
#
# Total GULP energy -198277.515323 kJ/mol
# GULP energy per Si atom -12392.344708 kJ/mol
# Density = 2.026225 g / cm^3
# Si number density = 20.308470 Si / 1000 Ang^3
#
#
#
# Elastic Constant Matrix: (Units=GPa)
#
#
# Indices 1 2 3 4 5 6 
#
# 1 170.7583 47.2744 95.2137 -0.2819 168.3177 0.0007
# 2 47.2744 52.3398 -0.7607 0.0440 -37.8489 0.0012
# 3 95.2137 -0.7607 94.6410 0.0679 -55.4274 -0.0023
# 4 -0.2819 0.0440 0.0679 15.5033 1.0123 0.4823
# 5 168.3177 -37.8489 -55.4274 1.0123 -573.6589 0.0058
# 6 0.0007 0.0012 -0.0023 0.4823 0.0058 18.0335
#
#
#
# Elastic Compliance Matrix: (Units=1/GPa)
#
#
# Indices 1 2 3 4 5 6 
#
# 1 0.007308 -0.004522 -0.005639 -0.000025 0.002987 -0.000001
# 2 -0.004522 0.021062 0.002960 0.000041 -0.003002 -0.000001
# 3 -0.005639 0.002960 0.014367 0.000038 -0.003238 0.000002
# 4 -0.000025 0.000041 0.000038 0.064549 0.000100 -0.001726
# 5 0.002987 -0.003002 -0.003238 0.000100 -0.000356 -0.000003
# 6 -0.000001 -0.000001 0.000002 -0.001726 -0.000003 0.055499
#
#
# Mechanical properties :
#
#
# Convention : Reuss Voigt Hill
#
# Bulk Modulus (GPa) = 35.29143 66.79933 51.04538
# Shear Modulus (GPa) = 26.84214 -96.29031 -34.72408
#
# Velocity S-wave (km/s) = 3.63949 -6.89324 -4.13950
# Velocity P-wave (km/s) = 5.92255 5.51289 1.53047
#
# Compressibility (1/GPa) = 0.02833549
#
# Stress axis : x y z
#
# Youngs Moduli (GPa) = 136.84288 47.47841 69.60610
#
# Poissons Ratio (x) = 0.21470 0.39249
# Poissons Ratio (y) = 0.61882 -0.20606
# Poissons Ratio (z) = 0.77161 -0.14055
#
# Static dielectric constant tensor:
#      x y z
#    x 5.084780 0.003260 0.196590 
#    y 0.003260 3.275980 0.000560 
#    z 0.196590 0.000560 3.551060 
# 
# 
# High freq. dielectric constant tensor:
#      x y z
#    x 1.811410 0.000000 0.001650 
#    y 0.000000 1.759270 0.000000 
#    z 0.001650 0.000000 1.787940 
# 
# From -- ./inp_files/26281.got.cif
#   From: 2010.03.12/outbox.cif.g09.slc.cpg/sg8_14_cif.got.tgz:26281.got - 2010.03.31 10:45:26.
