data_PCOD8053265
_publ_section_title
;
Structure prediction by ZEFSAII (Michael W. Deem and Ramdas Pophale) SiO2 
 PCOD8053265
Probable space group: C M
;
_chemical_formula_sum "Si O2"
_cell_formula_units_Z 26
_cell_length_a 23.128238
_cell_length_b 7.673404
_cell_length_c 7.656326
_cell_angle_alpha 90.000000
_cell_angle_beta 70.277757
_cell_angle_gamma 90.000000
_cell_volume 1279.078980
_symmetry_space_group_name_H-M "C M"
_symmetry_group_IT_number 8
_symmetry_cell_setting 'monoclinic'
loop_
_space_group_symop_operation_xyz
x,y,z
x,-y,z
1/2+x,1/2+y,z
1/2+x,1/2-y,z
loop_
_atom_site_type_symbol
_atom_site_label
_atom_site_fract_x
_atom_site_fract_y
_atom_site_fract_z
Si Si1 0.317340 0.798048 0.497180
Si Si2 0.451366 0.198829 0.469759
Si Si3 0.642963 0.500000 0.976519
Si Si4 0.044104 0.000000 0.783198
Si Si5 0.043433 0.000000 0.371401
Si Si6 0.955155 0.692164 0.868386
Si Si7 0.239416 0.697145 0.892337
Si Si8 0.326841 0.702490 0.110906
O O1 0.389210 0.748826 0.434212
O O2 0.278025 0.689339 0.674615
O O3 0.294391 0.746813 0.327580
O O4 0.306467 0.000000 0.549626
O O5 0.505427 0.327788 0.356382
O O6 0.437075 0.226690 0.687321
O O7 0.471397 0.000000 0.407392
O O8 0.604202 0.500000 0.194037
O O9 0.605035 0.500000 0.835552
O O10 0.681971 0.323873 0.933665
O O11 0.005397 0.830549 0.878930
O O12 0.060599 0.000000 0.559971
O O13 0.983832 0.500000 0.866290
O O14 0.892372 0.701699 0.041043
O O15 0.216589 0.500000 0.955993
O O16 0.282195 0.770653 0.004268
O O17 0.339313 0.500000 0.072175
#
# Coordination Sequence:
#
# PCOD8053265 Si02
#       8
#     4   4   2   2   2   4   4   4
#     4  11  22  37  65 101 135 169 214 274 340 399
#     4   9  20  36  61  97 133 165 207 272 339 388
#     4  12  28  46  68  90 132 188 232 262 316 410
#     4  10  24  44  62  96 128 178 220 269 328 388
#     4  10  24  42  66  90 130 180 214 273 320 392
#     4  10  19  36  63  95 135 167 207 275 339 390
#     4  11  26  46  66  94 133 182 223 276 327 391
#     4  11  23  37  63 101 137 170 216 276 339 399
#
# _framework density 20.327126
#
# number of rings (size 3 to 8) (size 9 to 14) (size 15 to 20)
#    0.000    1.538    3.077    0.923    6.462    2.462 
#    0.000    0.000    0.000    0.000    0.000    0.000 
#    0.000    0.000    0.000    0.000    0.000    0.000 
#
# Total GULP energy -161251.918001 kJ/mol
# GULP energy per Si atom -12403.993692 kJ/mol
# Density = 2.028086 g / cm^3
# Si number density = 20.327126 Si / 1000 Ang^3
#
#
#
# Elastic Constant Matrix: (Units=GPa)
#
#
# Indices 1 2 3 4 5 6 
#
# 1 117.2916 59.4663 59.7060 0.0000 -5.0422 0.0000
# 2 59.4663 123.5434 30.1642 0.0000 -10.8540 0.0000
# 3 59.7060 30.1642 119.2415 0.0000 8.7009 0.0000
# 4 0.0000 0.0000 0.0000 25.6316 0.0000 -4.5576
# 5 -5.0422 -10.8540 8.7009 0.0000 18.4311 0.0000
# 6 0.0000 0.0000 0.0000 -4.5576 0.0000 17.6820
#
#
#
# Elastic Compliance Matrix: (Units=1/GPa)
#
#
# Indices 1 2 3 4 5 6 
#
# 1 0.014445 -0.005090 -0.006229 0.000000 0.003895 0.000000
# 2 -0.005090 0.011197 -0.000687 0.000000 0.005526 0.000000
# 3 -0.006229 -0.000687 0.012255 0.000000 -0.007894 0.000000
# 4 0.000000 0.000000 0.000000 0.040888 0.000000 0.010539
# 5 0.003895 0.005526 -0.007894 0.000000 0.062303 0.000000
# 6 0.000000 0.000000 0.000000 0.010539 0.000000 0.059271
#
#
# Mechanical properties :
#
#
# Convention : Reuss Voigt Hill
#
# Bulk Modulus (GPa) = 72.02121 73.19439 72.60780
# Shear Modulus (GPa) = 21.83399 26.39828 24.11613
#
# Velocity S-wave (km/s) = 3.28095 3.60762 3.44815
# Velocity P-wave (km/s) = 7.06122 7.31024 7.18681
#
# Compressibility (1/GPa) = 0.01388480
#
# Stress axis : x y z
#
# Youngs Moduli (GPa) = 69.23019 89.30566 81.59672
#
# Poissons Ratio (x) = 0.45453 0.50829
# Poissons Ratio (y) = 0.35235 0.05609
# Poissons Ratio (z) = 0.43126 0.06139
#
# Static dielectric constant tensor:
#      x y z
#    x 3.500730 0.000000 0.173980 
#    y 0.000000 3.846120 0.000000 
#    z 0.173980 0.000000 3.635200 
# 
# 
# High freq. dielectric constant tensor:
#      x y z
#    x 1.770380 0.000000 0.015760 
#    y 0.000000 1.809620 0.000000 
#    z 0.015760 0.000000 1.796530 
# 
# From -- ./inp_files/15634.got.cif
#   From: 2010.03.12/outbox.cif.g09.slc.cpg/sg8_8_cif.got.tgz:15634.got - 2010.03.31 10:45:26.
