data_PCOD8053756
_publ_section_title
;
Structure prediction by ZEFSAII (Michael W. Deem and Ramdas Pophale) SiO2 
 PCOD8053756
Probable space group: C M
;
_chemical_formula_sum "Si O2"
_cell_formula_units_Z 32
_cell_length_a 27.151669
_cell_length_b 8.655609
_cell_length_c 20.800925
_cell_angle_alpha 90.000000
_cell_angle_beta 160.066893
_cell_angle_gamma 90.000000
_cell_volume 1666.605751
_symmetry_space_group_name_H-M "C M"
_symmetry_group_IT_number 8
_symmetry_cell_setting 'monoclinic'
loop_
_space_group_symop_operation_xyz
x,y,z
x,-y,z
1/2+x,1/2+y,z
1/2+x,1/2-y,z
loop_
_atom_site_type_symbol
_atom_site_label
_atom_site_fract_x
_atom_site_fract_y
_atom_site_fract_z
Si Si1 0.998450 0.818178 0.408790
Si Si2 0.768724 0.820341 0.699336
Si Si3 0.052129 0.179030 0.982769
Si Si4 0.167237 0.320043 0.253002
Si Si5 0.385561 0.821437 0.968955
Si Si6 0.615846 0.179621 0.683329
Si Si7 0.493699 0.320320 0.660205
Si Si8 0.688157 0.682852 0.019136
O O1 0.838354 0.768457 0.193886
O O2 0.103373 0.732888 0.484905
O O3 0.036145 0.769266 0.527936
O O4 0.014650 0.000000 0.421581
O O5 0.819226 0.706847 0.817576
O O6 0.774144 0.000000 0.727310
O O7 0.878162 0.791905 0.774130
O O8 0.139190 0.243795 0.149904
O O9 0.110967 0.249691 0.988551
O O10 0.086249 0.000000 0.024049
O O11 0.141971 0.500000 0.210998
O O12 0.327671 0.281648 0.473801
O O13 0.053300 0.265176 0.168882
O O14 0.286794 0.725330 0.897877
O O15 0.374543 0.000000 0.975158
O O16 0.539868 0.219232 0.656495
O O17 0.599997 0.000000 0.649652
O O18 0.513080 0.500000 0.666651
O O19 0.587222 0.271349 0.835938
O O20 0.713121 0.500000 0.053451
#
# Coordination Sequence:
#
# PCOD8053756 Si02
#       8
#     4   4   4   4   4   4   4   4
#     4  11  21  34  54  79 106 136 174 215 257 306
#     4   9  16  29  50  77 105 131 166 211 259 306
#     4   9  18  32  53  79 103 131 169 212 257 307
#     4   9  18  32  53  79 103 131 169 212 257 307
#     4   9  16  29  50  77 105 131 166 211 259 306
#     4  11  21  34  54  79 106 136 174 215 257 306
#     4  10  21  37  54  74 104 140 176 214 257 305
#     4  10  21  37  54  74 104 140 176 214 257 305
#
# _framework density 19.200702
#
# number of rings (size 3 to 8) (size 9 to 14) (size 15 to 20)
#    0.000    2.250    0.000    5.250    0.000    4.500 
#    0.000    1.250    0.000    4.500    0.000    0.000 
#    0.000    0.000    0.000    0.000    0.000    0.000 
#
# Total GULP energy -198301.123448 kJ/mol
# GULP energy per Si atom -12393.820215 kJ/mol
# Density = 1.915700 g / cm^3
# Si number density = 19.200702 Si / 1000 Ang^3
#
#
#
# Elastic Constant Matrix: (Units=GPa)
#
#
# Indices 1 2 3 4 5 6 
#
# 1 36.0335 15.0092 56.6942 0.0000 15.9152 0.0000
# 2 15.0092 53.2460 35.0516 0.0000 6.2361 0.0000
# 3 56.6942 35.0516 139.3487 0.0000 25.7132 0.0000
# 4 0.0000 0.0000 0.0000 18.4267 0.0000 5.0784
# 5 15.9152 6.2361 25.7132 0.0000 31.7394 0.0000
# 6 0.0000 0.0000 0.0000 5.0784 0.0000 23.7290
#
#
#
# Elastic Compliance Matrix: (Units=1/GPa)
#
#
# Indices 1 2 3 4 5 6 
#
# 1 0.084379 -0.001510 -0.030802 0.000000 -0.017060 0.000000
# 2 -0.001510 0.022536 -0.005146 0.000000 0.000499 0.000000
# 3 -0.030802 -0.005146 0.021124 0.000000 -0.000657 0.000000
# 4 0.000000 0.000000 0.000000 0.057671 0.000000 -0.012342
# 5 -0.017060 0.000499 -0.000657 0.000000 0.040495 0.000000
# 6 0.000000 0.000000 0.000000 -0.012342 0.000000 0.044784
#
#
# Mechanical properties :
#
#
# Convention : Reuss Voigt Hill
#
# Bulk Modulus (GPa) = 18.82468 49.12647 33.97558
# Shear Modulus (GPa) = 13.75092 22.90389 18.32740
#
# Velocity S-wave (km/s) = 2.67903 3.45754 3.09288
# Velocity P-wave (km/s) = 4.40398 6.44831 5.52159
#
# Compressibility (1/GPa) = 0.05312176
#
# Stress axis : x y z
#
# Youngs Moduli (GPa) = 11.85130 44.37381 47.34031
#
# Poissons Ratio (x) = 0.06702 1.45817
# Poissons Ratio (y) = 0.01790 0.24362
# Poissons Ratio (z) = 0.36504 0.22835
#
# Static dielectric constant tensor:
#      x y z
#    x 3.674940 0.000000 0.629880 
#    y 0.000000 3.445060 0.000000 
#    z 0.629880 0.000000 3.802560 
# 
# 
# High freq. dielectric constant tensor:
#      x y z
#    x 1.731300 0.000000 0.040700 
#    y 0.000000 1.744150 0.000000 
#    z 0.040700 0.000000 1.742880 
# 
# From -- ./inp_files/18871.got.cif
#   From: 2010.03.12/outbox.cif.g09.slc.cpg/sg8_10_cif.got.tgz:18871.got - 2010.03.31 10:45:26.
