data_PCOD8053467
_publ_section_title
;
Structure prediction by ZEFSAII (Michael W. Deem and Ramdas Pophale) SiO2 
 PCOD8053467
Probable space group: C M
;
_chemical_formula_sum "Si O2"
_cell_formula_units_Z 32
_cell_length_a 19.896825
_cell_length_b 8.547471
_cell_length_c 24.764236
_cell_angle_alpha 90.000000
_cell_angle_beta 156.934906
_cell_angle_gamma 90.000000
_cell_volume 1650.003693
_symmetry_space_group_name_H-M "C M"
_symmetry_group_IT_number 8
_symmetry_cell_setting 'monoclinic'
loop_
_space_group_symop_operation_xyz
x,y,z
x,-y,z
1/2+x,1/2+y,z
1/2+x,1/2-y,z
loop_
_atom_site_type_symbol
_atom_site_label
_atom_site_fract_x
_atom_site_fract_y
_atom_site_fract_z
Si Si1 0.767260 0.320099 0.639280
Si Si2 0.252633 0.819594 0.280974
Si Si3 0.564463 0.321105 0.797551
Si Si4 0.411498 0.321873 0.087513
Si Si5 0.556546 0.818441 0.301968
Si Si6 0.923908 0.319606 0.587955
Si Si7 0.440758 0.681829 0.324106
Si Si8 0.033462 0.817239 0.562962
O O1 0.824620 0.500000 0.682219
O O2 0.623161 0.292163 0.487583
O O3 0.693370 0.270072 0.643066
O O4 0.931002 0.214506 0.747062
O O5 0.289368 0.754605 0.248396
O O6 0.355904 0.720289 0.401592
O O7 0.051391 0.798742 0.143686
O O8 0.309831 0.000000 0.327814
O O9 0.546418 0.500000 0.766405
O O10 0.528331 0.211419 0.719669
O O11 0.754166 0.292112 0.959786
O O12 0.345750 0.500000 0.040188
O O13 0.497241 0.283708 0.207865
O O14 0.755062 0.786122 0.461333
O O15 0.440639 0.771089 0.267339
O O16 0.530886 0.000000 0.270076
O O17 0.868280 0.500000 0.545125
O O18 0.046785 0.279261 0.628256
O O19 0.402810 0.500000 0.286745
O O20 0.036096 0.000000 0.578138
#
# Coordination Sequence:
#
# PCOD8053467 Si02
#       8
#     4   4   4   4   4   4   4   4
#     4   9  19  36  58  85 120 157 194 240 298 354
#     4  10  20  35  58  87 120 156 197 243 296 353
#     4  12  25  40  61  88 120 159 202 247 296 354
#     4  11  24  42  62  86 122 162 197 241 301 361
#     4  12  23  37  61  91 121 153 201 252 293 348
#     4  12  23  38  60  88 122 157 199 247 299 353
#     4  10  20  35  59  88 121 156 195 244 298 349
#     4  10  20  35  59  89 120 152 195 248 299 348
#
# _framework density 19.393896000000002
#
# number of rings (size 3 to 8) (size 9 to 14) (size 15 to 20)
#    0.000    1.250    2.500    5.625    0.000    4.000 
#    0.000    1.250    0.000    6.000    0.000    0.000 
#    0.000    0.000    0.000    0.000    0.000    0.000 
#
# Total GULP energy -198494.960178 kJ/mol
# GULP energy per Si atom -12405.935011 kJ/mol
# Density = 1.934975 g / cm^3
# Si number density = 19.393896 Si / 1000 Ang^3
#
#
#
# Elastic Constant Matrix: (Units=GPa)
#
#
# Indices 1 2 3 4 5 6 
#
# 1 126.8549 35.0734 32.5051 0.0009 12.4169 -0.0005
# 2 35.0734 85.9399 20.5508 0.0011 14.8027 -0.0015
# 3 32.5051 20.5508 67.1351 0.0064 9.9747 -0.0010
# 4 0.0009 0.0011 0.0064 27.7720 -0.0006 0.4603
# 5 12.4169 14.8027 9.9747 -0.0006 23.6083 0.0000
# 6 -0.0005 -0.0015 -0.0010 0.4603 0.0000 34.1709
#
#
#
# Elastic Compliance Matrix: (Units=1/GPa)
#
#
# Indices 1 2 3 4 5 6 
#
# 1 0.009761 -0.002805 -0.003591 0.000001 -0.001858 0.000000
# 2 -0.002805 0.014428 -0.002063 0.000000 -0.006700 0.000001
# 3 -0.003591 -0.002063 0.017918 -0.000004 -0.004388 0.000000
# 4 0.000001 0.000000 -0.000004 0.036015 0.000002 -0.000485
# 5 -0.001858 -0.006700 -0.004388 0.000002 0.049390 -0.000001
# 6 0.000000 0.000001 0.000000 -0.000485 -0.000001 0.029271
#
#
# Mechanical properties :
#
#
# Convention : Reuss Voigt Hill
#
# Bulk Modulus (GPa) = 39.70151 50.68759 45.19455
# Shear Modulus (GPa) = 27.45791 29.89696 28.67744
#
# Velocity S-wave (km/s) = 3.76680 3.93054 3.84954
# Velocity P-wave (km/s) = 6.27964 6.84042 6.56602
#
# Compressibility (1/GPa) = 0.02518796
#
# Stress axis : x y z
#
# Youngs Moduli (GPa) = 102.45357 69.30948 55.81096
#
# Poissons Ratio (x) = 0.19439 0.20043
# Poissons Ratio (y) = 0.28735 0.11515
# Poissons Ratio (z) = 0.36794 0.14300
#
# Static dielectric constant tensor:
#      x y z
#    x 3.831720 -0.000020 0.145500 
#    y -0.000020 3.564200 -0.000010 
#    z 0.145500 -0.000010 3.152110 
# 
# 
# High freq. dielectric constant tensor:
#      x y z
#    x 1.771870 0.000000 0.011560 
#    y 0.000000 1.767180 0.000000 
#    z 0.011560 0.000000 1.717810 
# 
# From -- ./inp_files/33064.got.cif
#   From: 2010.03.12/outbox.cif.g09.slc.cpg/sg8_17_cif.got.tgz:33064.got - 2010.03.31 10:45:26.
