data_PCOD8053749
_publ_section_title
;
Structure prediction by ZEFSAII (Michael W. Deem and Ramdas Pophale) SiO2 
 PCOD8053749
Probable space group: C M
;
_chemical_formula_sum "Si O2"
_cell_formula_units_Z 28
_cell_length_a 15.368453
_cell_length_b 18.170273
_cell_length_c 8.792685
_cell_angle_alpha 90.000000
_cell_angle_beta 147.145797
_cell_angle_gamma 90.000000
_cell_volume 1332.034256
_symmetry_space_group_name_H-M "C M"
_symmetry_group_IT_number 8
_symmetry_cell_setting 'monoclinic'
loop_
_space_group_symop_operation_xyz
x,y,z
x,-y,z
1/2+x,1/2+y,z
1/2+x,1/2-y,z
loop_
_atom_site_type_symbol
_atom_site_label
_atom_site_fract_x
_atom_site_fract_y
_atom_site_fract_z
Si Si1 0.718830 0.582743 0.221980
Si Si2 0.556376 0.857819 0.685366
Si Si3 0.042055 0.717657 0.379546
Si Si4 0.011990 0.800728 0.753591
Si Si5 0.679543 0.418483 0.498068
Si Si6 0.895228 0.855876 0.278937
Si Si7 0.873681 0.717851 0.832841
O O1 0.701192 0.500000 0.126920
O O2 0.618558 0.586679 0.233018
O O3 0.906995 0.598028 0.535154
O O4 0.657017 0.646054 0.018229
O O5 0.531580 0.857193 0.464219
O O6 0.573043 0.772885 0.762752
O O7 0.725008 0.894162 0.985571
O O8 0.214218 0.750799 0.675434
O O9 0.901496 0.773072 0.224234
O O10 0.020893 0.708880 0.167159
O O11 0.909821 0.850463 0.484553
O O12 0.912604 0.773588 0.753453
O O13 0.742870 0.500000 0.627449
O O14 0.537915 0.401363 0.408604
O O15 0.833315 0.365353 0.727670
#
# Coordination Sequence:
#
# PCOD8053749 Si02
#       7
#     4   4   4   4   4   4   4
#     4  11  25  43  64  95 135 174 215 270 337 394
#     4  11  22  39  63  97 126 169 221 273 321 382
#     4  10  21  36  59  94 129 159 217 275 317 380
#     4  11  22  38  66  97 130 168 220 272 325 391
#     4  10  23  43  64  90 131 178 216 262 334 400
#     4  10  22  38  62  94 126 166 215 274 321 386
#     4  11  21  37  65  97 124 166 220 270 321 387
#
# _framework density 21.020479999999999
#
# number of rings (size 3 to 8) (size 9 to 14) (size 15 to 20)
#    0.000    1.429    2.857    3.429    6.000    1.143 
#    0.000    0.000    0.000    0.857    0.000    0.000 
#    0.000    0.000    0.000    0.000    0.000    0.000 
#
# Total GULP energy -173437.461866 kJ/mol
# GULP energy per Si atom -12388.390133 kJ/mol
# Density = 2.097264 g / cm^3
# Si number density = 21.020480 Si / 1000 Ang^3
#
#
#
# Elastic Constant Matrix: (Units=GPa)
#
#
# Indices 1 2 3 4 5 6 
#
# 1 97.7226 23.6144 39.6133 0.0000 -16.4119 0.0000
# 2 23.6144 101.0411 29.3208 0.0000 -1.6020 0.0000
# 3 39.6133 29.3208 106.1857 0.0000 -6.9006 0.0000
# 4 0.0000 0.0000 0.0000 19.5804 0.0000 -1.3551
# 5 -16.4119 -1.6020 -6.9006 0.0000 33.3774 0.0000
# 6 0.0000 0.0000 0.0000 -1.3551 0.0000 19.4143
#
#
#
# Elastic Compliance Matrix: (Units=1/GPa)
#
#
# Indices 1 2 3 4 5 6 
#
# 1 0.013269 -0.001828 -0.004082 0.000000 0.005593 0.000000
# 2 -0.001828 0.011011 -0.002415 0.000000 -0.000870 0.000000
# 3 -0.004082 -0.002415 0.011625 0.000000 0.000281 0.000000
# 4 0.000000 0.000000 0.000000 0.051319 0.000000 0.003582
# 5 0.005593 -0.000870 0.000281 0.000000 0.032727 0.000000
# 6 0.000000 0.000000 0.000000 0.003582 0.000000 0.051758
#
#
# Mechanical properties :
#
#
# Convention : Reuss Voigt Hill
#
# Bulk Modulus (GPa) = 51.93291 54.44960 53.19126
# Shear Modulus (GPa) = 25.67029 28.63447 27.15238
#
# Velocity S-wave (km/s) = 3.49836 3.69483 3.59794
# Velocity P-wave (km/s) = 6.40918 6.64543 6.52837
#
# Compressibility (1/GPa) = 0.01925561
#
# Stress axis : x y z
#
# Youngs Moduli (GPa) = 75.36593 90.81667 86.01924
#
# Poissons Ratio (x) = 0.16600 0.35111
# Poissons Ratio (y) = 0.13776 0.20775
# Poissons Ratio (z) = 0.30763 0.21933
#
# Static dielectric constant tensor:
#      x y z
#    x 3.846260 0.000000 -0.205190 
#    y 0.000000 3.594910 0.000000 
#    z -0.205190 0.000000 3.717040 
# 
# 
# High freq. dielectric constant tensor:
#      x y z
#    x 1.833020 0.000000 -0.007210 
#    y 0.000000 1.791170 0.000000 
#    z -0.007210 0.000000 1.815980 
# 
# From -- ./inp_files/13745.got.cif
#   From: 2010.03.12/outbox.cif.g09.slc.cpg/sg8_7_cif.got.tgz:13745.got - 2010.03.31 10:45:26.
