data_PCOD8053990
_publ_section_title
;
Structure prediction by ZEFSAII (Michael W. Deem and Ramdas Pophale) SiO2 
 PCOD8053990
Probable space group: C M
;
_chemical_formula_sum "Si O2"
_cell_formula_units_Z 32
_cell_length_a 19.247937
_cell_length_b 8.900393
_cell_length_c 11.815252
_cell_angle_alpha 90.000000
_cell_angle_beta 51.504300
_cell_angle_gamma 90.000000
_cell_volume 1584.187765
_symmetry_space_group_name_H-M "C M"
_symmetry_group_IT_number 8
_symmetry_cell_setting 'monoclinic'
loop_
_space_group_symop_operation_xyz
x,y,z
x,-y,z
1/2+x,1/2+y,z
1/2+x,1/2-y,z
loop_
_atom_site_type_symbol
_atom_site_label
_atom_site_fract_x
_atom_site_fract_y
_atom_site_fract_z
Si Si1 0.058480 0.675436 0.609620
Si Si2 0.073120 0.324133 0.856102
Si Si3 0.393170 0.677216 0.653770
Si Si4 0.229885 0.324578 0.290274
Si Si5 0.960132 0.326278 0.377255
Si Si6 0.139827 0.827403 0.190109
Si Si7 0.407551 0.825612 0.176699
Si Si8 0.212706 0.173095 0.870882
O O1 0.037362 0.500000 0.618579
O O2 0.065324 0.722562 0.733612
O O3 0.151105 0.718622 0.456465
O O4 0.978159 0.765120 0.635602
O O5 0.091708 0.500000 0.853192
O O6 0.156665 0.237292 0.823391
O O7 0.982000 0.277810 0.010677
O O8 0.392240 0.500000 0.658457
O O9 0.392754 0.733367 0.524029
O O10 0.303633 0.738744 0.800211
O O11 0.230387 0.500000 0.261883
O O12 0.222024 0.230598 0.181763
O O13 0.322563 0.278778 0.250969
O O14 0.948814 0.500000 0.418175
O O15 0.944797 0.290193 0.262574
O O16 0.058606 0.276093 0.311333
O O17 0.118952 0.000000 0.240016
O O18 0.156505 0.805429 0.041275
O O19 0.381460 0.000000 0.189269
O O20 0.234573 0.000000 0.824541
#
# Coordination Sequence:
#
# PCOD8053990 Si02
#       8
#     4   4   4   4   4   4   4   4
#     4  10  23  43  64  90 127 168 208 258 313 366
#     4  10  22  43  66  91 126 167 210 256 311 372
#     4  12  26  42  65  94 126 167 213 259 311 375
#     4  11  24  40  63  93 128 167 208 259 312 369
#     4  11  22  41  67  94 126 162 207 261 315 370
#     4  11  23  41  66  93 124 164 210 261 314 370
#     4  10  23  41  64  93 127 166 206 256 312 373
#     4  11  25  43  65  94 128 165 208 262 316 371
#
# _framework density 20.199625000000001
#
# number of rings (size 3 to 8) (size 9 to 14) (size 15 to 20)
#    0.000    1.250    2.500    2.625    3.500    4.000 
#    0.000    0.000    0.000    0.000    0.000    0.000 
#    0.000    0.000    0.000    0.000    0.000    0.000 
#
# Total GULP energy -198495.573993 kJ/mol
# GULP energy per Si atom -12405.973375 kJ/mol
# Density = 2.015365 g / cm^3
# Si number density = 20.199625 Si / 1000 Ang^3
#
#
#
# Elastic Constant Matrix: (Units=GPa)
#
#
# Indices 1 2 3 4 5 6 
#
# 1 107.2441 58.6752 48.7488 0.0000 -3.1258 0.0000
# 2 58.6752 105.9946 47.9726 0.0000 -1.1659 0.0000
# 3 48.7488 47.9726 80.2740 0.0000 4.5341 0.0000
# 4 0.0000 0.0000 0.0000 32.1176 0.0000 -4.4069
# 5 -3.1258 -1.1659 4.5341 0.0000 38.4566 0.0000
# 6 0.0000 0.0000 0.0000 -4.4069 0.0000 38.1591
#
#
#
# Elastic Compliance Matrix: (Units=1/GPa)
#
#
# Indices 1 2 3 4 5 6 
#
# 1 0.015187 -0.005714 -0.005907 0.000000 0.001758 0.000000
# 2 -0.005714 0.015148 -0.005620 0.000000 0.000657 0.000000
# 3 -0.005907 -0.005620 0.019570 0.000000 -0.002958 0.000000
# 4 0.000000 0.000000 0.000000 0.031637 0.000000 0.003654
# 5 0.001758 0.000657 -0.002958 0.000000 0.026515 0.000000
# 6 0.000000 0.000000 0.000000 0.003654 0.000000 0.026628
#
#
# Mechanical properties :
#
#
# Convention : Reuss Voigt Hill
#
# Bulk Modulus (GPa) = 64.83749 67.14510 65.99129
# Shear Modulus (GPa) = 28.68455 30.95442 29.81949
#
# Velocity S-wave (km/s) = 3.77245 3.91887 3.84635
# Velocity P-wave (km/s) = 7.15145 7.33414 7.24337
#
# Compressibility (1/GPa) = 0.01542318
#
# Stress axis : x y z
#
# Youngs Moduli (GPa) = 65.84407 66.01350 51.09784
#
# Poissons Ratio (x) = 0.37722 0.30185
# Poissons Ratio (y) = 0.37625 0.28716
# Poissons Ratio (z) = 0.38897 0.37098
#
# Static dielectric constant tensor:
#      x y z
#    x 3.606290 0.000000 0.065160 
#    y 0.000000 3.642020 0.000000 
#    z 0.065160 0.000000 3.814440 
# 
# 
# High freq. dielectric constant tensor:
#      x y z
#    x 1.795910 0.000000 0.004150 
#    y 0.000000 1.791500 0.000000 
#    z 0.004150 0.000000 1.798480 
# 
# From -- ./inp_files/23869.got.cif
#   From: 2010.03.12/outbox.cif.g09.slc.cpg/sg8_12_cif.got.tgz:23869.got - 2010.03.31 10:45:26.
