data_PCOD8053836
_publ_section_title
;
Structure prediction by ZEFSAII (Michael W. Deem and Ramdas Pophale) SiO2 
 PCOD8053836
Probable space group: C M
;
_chemical_formula_sum "Si O2"
_cell_formula_units_Z 32
_cell_length_a 24.663869
_cell_length_b 9.223048
_cell_length_c 23.687346
_cell_angle_alpha 90.000000
_cell_angle_beta 17.733756
_cell_angle_gamma 90.000000
_cell_volume 1641.246487
_symmetry_space_group_name_H-M "C M"
_symmetry_group_IT_number 8
_symmetry_cell_setting 'monoclinic'
loop_
_space_group_symop_operation_xyz
x,y,z
x,-y,z
1/2+x,1/2+y,z
1/2+x,1/2-y,z
loop_
_atom_site_type_symbol
_atom_site_label
_atom_site_fract_x
_atom_site_fract_y
_atom_site_fract_z
Si Si1 0.986240 0.169617 0.974160
Si Si2 0.277942 0.334102 0.481151
Si Si3 0.771348 0.330296 0.597752
Si Si4 0.167616 0.332078 0.468248
Si Si5 0.692829 0.336380 0.076210
Si Si6 0.472064 0.827269 0.104225
Si Si7 0.174187 0.668820 0.202709
Si Si8 0.270535 0.833590 0.875466
O O1 0.143533 0.213096 0.775581
O O2 0.996810 0.000000 0.980131
O O3 0.014320 0.268351 0.000447
O O4 0.795190 0.208503 0.136383
O O5 0.225676 0.500000 0.543804
O O6 0.201995 0.244778 0.609373
O O7 0.192601 0.277900 0.507642
O O8 0.486860 0.309777 0.267580
O O9 0.766044 0.500000 0.591636
O O10 0.971984 0.277660 0.414293
O O11 0.227558 0.500000 0.403179
O O12 0.282432 0.234716 0.312194
O O13 0.960839 0.313194 0.656320
O O14 0.730984 0.500000 0.056909
O O15 0.758228 0.238896 0.063197
O O16 0.797508 0.297540 0.915069
O O17 0.465072 0.000000 0.110844
O O18 0.628269 0.775116 0.990488
O O19 0.180333 0.500000 0.185012
O O20 0.202765 0.000000 0.936075
#
# Coordination Sequence:
#
# PCOD8053836 Si02
#       8
#     4   4   4   4   4   4   4   4
#     4  10  22  40  60  80 110 156 203 242 287 358
#     4   9  17  32  56  85 119 151 185 235 291 349
#     4   9  19  35  55  82 114 148 188 235 289 346
#     4  10  21  39  63  88 117 159 204 243 292 361
#     4   9  17  32  56  85 119 151 185 235 291 349
#     4  12  26  42  60  86 122 158 199 258 307 348
#     4   9  19  35  55  82 114 148 188 235 289 346
#     4  10  21  39  63  88 117 159 204 243 292 361
#
# _framework density 19.497375000000002
#
# number of rings (size 3 to 8) (size 9 to 14) (size 15 to 20)
#    0.000    2.250    1.250    1.125    1.750    3.500 
#    0.000    2.500    0.000    0.000    0.000    0.000 
#    0.000    0.000    0.000    0.000    0.000    0.000 
#
# Total GULP energy -198419.027669 kJ/mol
# GULP energy per Si atom -12401.189229 kJ/mol
# Density = 1.945300 g / cm^3
# Si number density = 19.497375 Si / 1000 Ang^3
#
#
#
# Elastic Constant Matrix: (Units=GPa)
#
#
# Indices 1 2 3 4 5 6 
#
# 1 67.3620 37.0636 23.6442 -0.0031 20.4851 0.0009
# 2 37.0636 71.2806 33.8880 -0.0007 14.8021 -0.0017
# 3 23.6442 33.8880 88.9828 0.0168 18.9800 -0.0065
# 4 -0.0031 -0.0007 0.0168 20.6078 -0.0123 6.6941
# 5 20.4851 14.8021 18.9800 -0.0123 25.5430 0.0041
# 6 0.0009 -0.0017 -0.0065 6.6941 0.0041 36.0600
#
#
#
# Elastic Compliance Matrix: (Units=1/GPa)
#
#
# Indices 1 2 3 4 5 6 
#
# 1 0.024508 -0.009951 0.000285 -0.000006 -0.014101 0.000002
# 2 -0.009951 0.021992 -0.005603 0.000004 -0.000600 0.000000
# 3 0.000285 -0.005603 0.015035 -0.000020 -0.008154 0.000007
# 4 -0.000006 0.000004 -0.000020 0.051639 0.000044 -0.009586
# 5 -0.014101 -0.000600 -0.008154 0.000044 0.056865 -0.000016
# 6 0.000002 0.000000 0.000007 -0.009586 -0.000016 0.029511
#
#
# Mechanical properties :
#
#
# Convention : Reuss Voigt Hill
#
# Bulk Modulus (GPa) = 32.26062 46.31299 39.28681
# Shear Modulus (GPa) = 20.79683 25.31080 23.05382
#
# Velocity S-wave (km/s) = 3.26950 3.60691 3.44234
# Velocity P-wave (km/s) = 5.55292 6.41494 5.99943
#
# Compressibility (1/GPa) = 0.03099754
#
# Stress axis : x y z
#
# Youngs Moduli (GPa) = 40.80242 45.47178 66.50935
#
# Poissons Ratio (x) = 0.45249 -0.01896
# Poissons Ratio (y) = 0.40602 0.37266
# Poissons Ratio (z) = -0.01163 0.25478
#
# Static dielectric constant tensor:
#      x y z
#    x 3.531070 0.000010 -0.015500 
#    y 0.000010 3.445710 0.000020 
#    z -0.015500 0.000020 3.764800 
# 
# 
# High freq. dielectric constant tensor:
#      x y z
#    x 1.754370 0.000000 -0.000010 
#    y 0.000000 1.740940 0.000000 
#    z -0.000010 0.000000 1.768290 
# 
# From -- ./inp_files/32410.got.cif
#   From: 2010.03.12/outbox.cif.g09.slc.cpg/sg8_17_cif.got.tgz:32410.got - 2010.03.31 10:45:26.
