data_PCOD8053154
_publ_section_title
;
Structure prediction by ZEFSAII (Michael W. Deem and Ramdas Pophale) SiO2 
 PCOD8053154
Probable space group: C M
;
_chemical_formula_sum "Si O2"
_cell_formula_units_Z 32
_cell_length_a 13.023570
_cell_length_b 15.518053
_cell_length_c 15.767391
_cell_angle_alpha 90.000000
_cell_angle_beta 151.574529
_cell_angle_gamma 90.000000
_cell_volume 1516.868556
_symmetry_space_group_name_H-M "C M"
_symmetry_group_IT_number 8
_symmetry_cell_setting 'monoclinic'
loop_
_space_group_symop_operation_xyz
x,y,z
x,-y,z
1/2+x,1/2+y,z
1/2+x,1/2-y,z
loop_
_atom_site_type_symbol
_atom_site_label
_atom_site_fract_x
_atom_site_fract_y
_atom_site_fract_z
Si Si1 0.519470 0.727248 0.404240
Si Si2 0.237755 0.406353 0.298731
Si Si3 0.581424 0.621601 0.668934
Si Si4 0.763073 0.405056 0.977460
Si Si5 0.155940 0.698378 0.679235
Si Si6 0.636850 0.274611 0.020772
Si Si7 0.500475 0.905787 0.865762
Si Si8 0.357283 0.901533 0.575983
O O1 0.372395 0.655897 0.339197
O O2 0.639757 0.784150 0.564866
O O3 0.351699 0.791263 0.233194
O O4 0.676702 0.674286 0.454579
O O5 0.216741 0.500000 0.239612
O O6 0.353035 0.417476 0.473881
O O7 0.001057 0.366785 0.136585
O O8 0.550027 0.723634 0.654835
O O9 0.756143 0.602235 0.722028
O O10 0.644599 0.579728 0.802748
O O11 0.770712 0.500000 0.027416
O O12 0.638269 0.334368 0.939538
O O13 0.015839 0.616983 0.610223
O O14 0.406354 0.696306 0.892584
O O15 0.643292 0.172044 0.005907
O O16 0.500408 0.899033 0.764502
O O17 0.594145 0.000000 0.960806
O O18 0.264495 0.000000 0.496423
#
# Coordination Sequence:
#
# PCOD8053154 Si02
#       8
#     4   4   4   4   4   4   4   4
#     4  11  23  39  65  93 122 166 211 267 323 384
#     4  10  19  34  58  89 120 150 192 259 320 368
#     4  10  19  35  63  88 123 155 193 254 323 374
#     4  11  24  37  58  91 124 163 213 258 309 379
#     4  10  23  42  62  91 126 169 208 259 322 388
#     4  11  24  41  62  89 128 176 215 262 317 390
#     4  10  19  37  63  94 124 156 202 261 324 381
#     4  11  22  41  68  97 131 171 217 272 330 390
#
# _framework density 21.096094000000001
#
# number of rings (size 3 to 8) (size 9 to 14) (size 15 to 20)
#    0.000    1.500    3.750    3.750    3.500    2.500 
#    0.000    0.625    0.000    0.000    0.000    0.000 
#    0.000    0.000    0.000    0.000    0.000    0.000 
#
# Total GULP energy -198219.909731 kJ/mol
# GULP energy per Si atom -12388.744358 kJ/mol
# Density = 2.104808 g / cm^3
# Si number density = 21.096094 Si / 1000 Ang^3
#
#
#
# Elastic Constant Matrix: (Units=GPa)
#
#
# Indices 1 2 3 4 5 6 
#
# 1 74.6143 36.5455 30.9010 -0.0211 0.5988 -0.0136
# 2 36.5455 65.4480 15.8639 -0.0115 3.4032 -0.0229
# 3 30.9010 15.8639 104.1673 -0.0578 -6.9506 -0.0828
# 4 -0.0211 -0.0115 -0.0578 25.1691 -0.0357 20.1919
# 5 0.5988 3.4032 -6.9506 -0.0357 22.7348 -0.0420
# 6 -0.0136 -0.0229 -0.0828 20.1919 -0.0420 34.1918
#
#
#
# Elastic Compliance Matrix: (Units=1/GPa)
#
#
# Indices 1 2 3 4 5 6 
#
# 1 0.020261 -0.010208 -0.004481 0.000018 -0.000376 -0.000021
# 2 -0.010208 0.021236 -0.000408 -0.000016 -0.003035 0.000015
# 3 -0.004481 -0.000408 0.011232 0.000006 0.003613 0.000026
# 4 0.000018 -0.000016 0.000006 0.075502 0.000040 -0.044587
# 5 -0.000376 -0.003035 0.003613 0.000040 0.045554 0.000039
# 6 -0.000021 0.000015 0.000026 -0.044587 0.000039 0.055578
#
#
# Mechanical properties :
#
#
# Convention : Reuss Voigt Hill
#
# Bulk Modulus (GPa) = 44.37508 45.65004 45.01256
# Shear Modulus (GPa) = 18.72178 27.14709 22.93443
#
# Velocity S-wave (km/s) = 2.98225 3.59113 3.30076
# Velocity P-wave (km/s) = 5.73923 6.23547 5.99249
#
# Compressibility (1/GPa) = 0.02253517
#
# Stress axis : x y z
#
# Youngs Moduli (GPa) = 49.35687 47.08983 89.02744
#
# Poissons Ratio (x) = 0.48068 0.39891
# Poissons Ratio (y) = 0.50382 0.03637
# Poissons Ratio (z) = 0.22116 0.01924
#
# Static dielectric constant tensor:
#      x y z
#    x 3.513420 -0.000130 -0.068290 
#    y -0.000130 3.715770 -0.000260 
#    z -0.068290 -0.000260 4.106360 
# 
# 
# High freq. dielectric constant tensor:
#      x y z
#    x 1.797680 0.000000 0.000320 
#    y 0.000000 1.823120 -0.000010 
#    z 0.000320 -0.000010 1.826300 
# 
# From -- ./inp_files/26279.got.cif
#   From: 2010.03.12/outbox.cif.g09.slc.cpg/sg8_14_cif.got.tgz:26279.got - 2010.03.31 10:45:26.
