data_PCOD8053624
_publ_section_title
;
Structure prediction by ZEFSAII (Michael W. Deem and Ramdas Pophale) SiO2 
 PCOD8053624
Probable space group: C M
;
_chemical_formula_sum "Si O2"
_cell_formula_units_Z 32
_cell_length_a 11.190804
_cell_length_b 30.727339
_cell_length_c 9.372323
_cell_angle_alpha 90.000000
_cell_angle_beta 152.854656
_cell_angle_gamma 90.000000
_cell_volume 1470.400634
_symmetry_space_group_name_H-M "C M"
_symmetry_group_IT_number 8
_symmetry_cell_setting 'monoclinic'
loop_
_space_group_symop_operation_xyz
x,y,z
x,-y,z
1/2+x,1/2+y,z
1/2+x,1/2-y,z
loop_
_atom_site_type_symbol
_atom_site_label
_atom_site_fract_x
_atom_site_fract_y
_atom_site_fract_z
Si Si1 0.969670 0.048434 0.025180
Si Si2 0.526285 0.332643 0.646056
Si Si3 0.796006 0.747476 0.429494
Si Si4 0.628675 0.830259 0.697364
Si Si5 0.507304 0.951585 0.748735
Si Si6 0.088883 0.134769 0.012218
Si Si7 0.373478 0.215129 0.810841
Si Si8 0.192908 0.367027 0.061970
O O1 0.203260 0.053745 0.387105
O O2 0.979767 0.000000 0.967137
O O3 0.691695 0.055976 0.806687
O O4 0.004257 0.084442 0.939442
O O5 0.305816 0.299588 0.470650
O O6 0.650813 0.358245 0.910554
O O7 0.694132 0.293601 0.755634
O O8 0.439700 0.366871 0.432285
O O9 0.051069 0.720449 0.641438
O O10 0.715852 0.727932 0.498970
O O11 0.573142 0.745503 0.068216
O O12 0.845982 0.834800 0.804819
O O13 0.770571 0.852477 0.984528
O O14 0.355662 0.855630 0.380267
O O15 0.574398 0.915664 0.939519
O O16 0.559338 0.000000 0.866387
O O17 0.492626 0.167824 0.908766
#
# Coordination Sequence:
#
# PCOD8053624 Si02
#       8
#     4   4   4   4   4   4   4   4
#     4  10  20  38  66 100 131 165 217 273 320 388
#     4  11  27  40  63  90 137 170 215 274 334 391
#     4  10  24  42  61  90 123 173 219 280 315 387
#     4  11  25  40  73  91 125 173 227 268 325 385
#     4  10  20  37  67  99 127 164 217 271 320 382
#     4  12  24  43  65 102 129 174 218 272 330 397
#     4  10  24  42  63  89 128 171 224 266 330 381
#     4  10  22  42  61  97 128 168 212 272 326 387
#
# _framework density 21.762777
#
# number of rings (size 3 to 8) (size 9 to 14) (size 15 to 20)
#    0.000    1.500    2.500    0.750   12.250    2.000 
#    0.000    0.625    0.000    0.750    0.000    0.000 
#    0.000    0.000    0.000    0.000    0.000    0.000 
#
# Total GULP energy -198232.692294 kJ/mol
# GULP energy per Si atom -12389.543268 kJ/mol
# Density = 2.171324 g / cm^3
# Si number density = 21.762777 Si / 1000 Ang^3
#
#
#
# Elastic Constant Matrix: (Units=GPa)
#
#
# Indices 1 2 3 4 5 6 
#
# 1 76.4850 28.9300 39.5059 0.0000 -13.6337 0.0000
# 2 28.9300 129.1073 37.8283 0.0000 -22.4862 0.0000
# 3 39.5059 37.8283 77.5466 0.0000 -16.1289 0.0000
# 4 0.0000 0.0000 0.0000 34.3104 0.0000 -4.8289
# 5 -13.6337 -22.4862 -16.1289 0.0000 37.2318 0.0000
# 6 0.0000 0.0000 0.0000 -4.8289 0.0000 24.7665
#
#
#
# Elastic Compliance Matrix: (Units=1/GPa)
#
#
# Indices 1 2 3 4 5 6 
#
# 1 0.018189 -0.001276 -0.008153 0.000000 0.002358 0.000000
# 2 -0.001276 0.009673 -0.003243 0.000000 0.003970 0.000000
# 3 -0.008153 -0.003243 0.019346 0.000000 0.003437 0.000000
# 4 0.000000 0.000000 0.000000 0.029968 0.000000 0.005843
# 5 0.002358 0.003970 0.003437 0.000000 0.031609 0.000000
# 6 0.000000 0.000000 0.000000 0.005843 0.000000 0.041516
#
#
# Mechanical properties :
#
#
# Convention : Reuss Voigt Hill
#
# Bulk Modulus (GPa) = 45.73921 55.07413 50.40667
# Shear Modulus (GPa) = 27.33246 31.05337 29.19292
#
# Velocity S-wave (km/s) = 3.54775 3.78154 3.66651
# Velocity P-wave (km/s) = 6.15182 6.66545 6.41378
#
# Compressibility (1/GPa) = 0.02186308
#
# Stress axis : x y z
#
# Youngs Moduli (GPa) = 54.97901 103.38027 51.69081
#
# Poissons Ratio (x) = 0.13193 0.42145
# Poissons Ratio (y) = 0.07016 0.16762
# Poissons Ratio (z) = 0.44826 0.33524
#
# Static dielectric constant tensor:
#      x y z
#    x 3.822480 0.000000 0.010940 
#    y 0.000000 4.182960 0.000000 
#    z 0.010940 0.000000 3.919590 
# 
# 
# High freq. dielectric constant tensor:
#      x y z
#    x 1.833500 0.000000 0.012400 
#    y 0.000000 1.864510 0.000000 
#    z 0.012400 0.000000 1.844020 
# 
# From -- ./inp_files/11724.got.cif
#   From: 2010.03.12/outbox.cif.g09.slc.cpg/sg8_6_cif.got.tgz:11724.got - 2010.03.31 10:45:26.
