data_PCOD8053678
_publ_section_title
;
Structure prediction by ZEFSAII (Michael W. Deem and Ramdas Pophale) SiO2 
 PCOD8053678
Probable space group: C M
;
_chemical_formula_sum "Si O2"
_cell_formula_units_Z 32
_cell_length_a 19.314981
_cell_length_b 8.905894
_cell_length_c 23.483335
_cell_angle_alpha 90.000000
_cell_angle_beta 156.570601
_cell_angle_gamma 90.000000
_cell_volume 1606.195603
_symmetry_space_group_name_H-M "C M"
_symmetry_group_IT_number 8
_symmetry_cell_setting 'monoclinic'
loop_
_space_group_symop_operation_xyz
x,y,z
x,-y,z
1/2+x,1/2+y,z
1/2+x,1/2-y,z
loop_
_atom_site_type_symbol
_atom_site_label
_atom_site_fract_x
_atom_site_fract_y
_atom_site_fract_z
Si Si1 0.161120 0.176912 0.102570
Si Si2 0.680682 0.177322 0.352377
Si Si3 0.685105 0.330541 0.853076
Si Si4 0.353377 0.675118 0.789521
Si Si5 0.071476 0.831737 0.643531
Si Si6 0.329438 0.675968 0.641503
Si Si7 0.031356 0.825713 0.131184
Si Si8 0.022776 0.821898 0.342272
O O1 0.336223 0.265788 0.222219
O O2 0.101395 0.213778 0.121516
O O3 0.193619 0.000000 0.118711
O O4 0.014179 0.238966 0.947952
O O5 0.636013 0.226365 0.254940
O O6 0.559631 0.258328 0.307184
O O7 0.879249 0.228984 0.512716
O O8 0.655912 0.000000 0.341283
O O9 0.723098 0.500000 0.903893
O O10 0.690029 0.325234 0.788859
O O11 0.496806 0.276354 0.731601
O O12 0.828863 0.216798 0.984781
O O13 0.347622 0.500000 0.795063
O O14 0.165528 0.735159 0.666598
O O15 0.376020 0.719544 0.741117
O O16 0.055023 0.000000 0.607357
O O17 0.286914 0.500000 0.602337
O O18 0.164710 0.767584 0.495026
O O19 0.054537 0.000000 0.163108
O O20 0.023515 0.000000 0.340143
#
# Coordination Sequence:
#
# PCOD8053678 Si02
#       8
#     4   4   4   4   4   4   4   4
#     4  10  23  43  63  88 128 171 206 251 309 372
#     4  11  24  44  66  90 125 167 208 254 313 376
#     4  10  20  39  65  90 118 162 212 256 307 368
#     4  10  22  40  65  93 122 162 207 251 308 370
#     4  10  21  39  64  90 120 158 206 258 309 364
#     4  10  22  42  65  91 123 166 211 249 307 376
#     4  11  24  41  63  95 128 163 210 258 309 366
#     4  12  26  42  63  93 126 163 210 261 312 366
#
# _framework density 19.922854999999998
#
# number of rings (size 3 to 8) (size 9 to 14) (size 15 to 20)
#    0.000    1.500    2.500    1.875    3.500    3.500 
#    0.000    0.000    0.000    0.000    0.000    0.000 
#    0.000    0.000    0.000    0.000    0.000    0.000 
#
# Total GULP energy -198456.051655 kJ/mol
# GULP energy per Si atom -12403.503228 kJ/mol
# Density = 1.987751 g / cm^3
# Si number density = 19.922855 Si / 1000 Ang^3
#
#
#
# Elastic Constant Matrix: (Units=GPa)
#
#
# Indices 1 2 3 4 5 6 
#
# 1 103.7098 55.8159 57.4196 -0.0037 2.9411 0.0009
# 2 55.8159 73.5307 52.9001 0.0059 2.3547 0.0001
# 3 57.4196 52.9001 115.1951 0.0090 4.1461 -0.0008
# 4 -0.0037 0.0059 0.0090 32.0955 0.0041 0.4746
# 5 2.9411 2.3547 4.1461 0.0041 36.6983 0.0004
# 6 0.0009 0.0001 -0.0008 0.4746 0.0004 33.6194
#
#
#
# Elastic Compliance Matrix: (Units=1/GPa)
#
#
# Indices 1 2 3 4 5 6 
#
# 1 0.017401 -0.010405 -0.003885 0.000005 -0.000288 -0.000001
# 2 -0.010405 0.026533 -0.006995 -0.000004 -0.000078 0.000000
# 3 -0.003885 -0.006995 0.013859 -0.000003 -0.000806 0.000000
# 4 0.000005 -0.000004 -0.000003 0.031164 -0.000003 -0.000440
# 5 -0.000288 -0.000078 -0.000806 -0.000003 0.027368 0.000000
# 6 -0.000001 0.000000 0.000000 -0.000440 0.000000 0.029751
#
#
# Mechanical properties :
#
#
# Convention : Reuss Voigt Hill
#
# Bulk Modulus (GPa) = 65.69242 69.41190 67.55216
# Shear Modulus (GPa) = 25.81030 28.90263 27.35647
#
# Velocity S-wave (km/s) = 3.60323 3.81297 3.70958
# Velocity P-wave (km/s) = 7.09619 7.36892 7.23384
#
# Compressibility (1/GPa) = 0.01522246
#
# Stress axis : x y z
#
# Youngs Moduli (GPa) = 57.46699 37.68903 72.15472
#
# Poissons Ratio (x) = 0.39214 0.28035
# Poissons Ratio (y) = 0.59792 0.50476
# Poissons Ratio (z) = 0.22328 0.26365
#
# Static dielectric constant tensor:
#      x y z
#    x 3.720580 0.000000 -0.097080 
#    y 0.000000 3.521080 -0.000010 
#    z -0.097080 -0.000010 3.756070 
# 
# 
# High freq. dielectric constant tensor:
#      x y z
#    x 1.786610 0.000000 0.000970 
#    y 0.000000 1.767530 0.000000 
#    z 0.000970 0.000000 1.786620 
# 
# From -- ./inp_files/33056.got.cif
#   From: 2010.03.12/outbox.cif.g09.slc.cpg/sg8_17_cif.got.tgz:33056.got - 2010.03.31 10:45:26.
