data_PCOD8053605
_publ_section_title
;
Structure prediction by ZEFSAII (Michael W. Deem and Ramdas Pophale) SiO2 
 PCOD8053605
Probable space group: C M
;
_chemical_formula_sum "Si O2"
_cell_formula_units_Z 28
_cell_length_a 14.556080
_cell_length_b 13.453793
_cell_length_c 9.252047
_cell_angle_alpha 90.000000
_cell_angle_beta 47.326302
_cell_angle_gamma 90.000000
_cell_volume 1332.133539
_symmetry_space_group_name_H-M "C M"
_symmetry_group_IT_number 8
_symmetry_cell_setting 'monoclinic'
loop_
_space_group_symop_operation_xyz
x,y,z
x,-y,z
1/2+x,1/2+y,z
1/2+x,1/2-y,z
loop_
_atom_site_type_symbol
_atom_site_label
_atom_site_fract_x
_atom_site_fract_y
_atom_site_fract_z
Si Si1 0.030250 0.694888 0.257180
Si Si2 0.981622 0.285482 0.872281
Si Si3 0.331949 0.113857 0.266511
Si Si4 0.428711 0.884441 0.643088
Si Si5 0.219866 0.277834 0.823907
Si Si6 0.933911 0.109012 0.461859
Si Si7 0.560994 0.390462 0.621086
O O1 0.941389 0.619210 0.266701
O O2 0.033495 0.656091 0.418661
O O3 0.971729 0.806642 0.306179
O O4 0.167424 0.696135 0.039742
O O5 0.105518 0.271277 0.834512
O O6 0.963472 0.180625 0.808523
O O7 0.988032 0.368286 0.738723
O O8 0.863899 0.313570 0.097942
O O9 0.204095 0.148050 0.480776
O O10 0.320588 0.000000 0.223576
O O11 0.300035 0.823714 0.750811
O O12 0.399030 0.000000 0.651671
O O13 0.302332 0.368847 0.679284
O O14 0.037962 0.108537 0.474910
O O15 0.927122 0.000000 0.394166
O O16 0.545312 0.500000 0.705325
#
# Coordination Sequence:
#
# PCOD8053605 Si02
#       7
#     4   4   4   4   4   4   4
#     4  10  21  40  60  88 120 157 199 253 305 357
#     4  11  22  39  63  92 124 156 206 255 307 360
#     4  10  22  39  63  90 119 161 205 247 306 372
#     4  11  23  40  63  94 122 158 212 257 299 361
#     4  10  23  40  61  88 125 163 193 254 313 368
#     4  10  21  37  58  86 118 158 198 242 304 362
#     4  10  20  37  62  86 116 159 203 246 298 364
#
# _framework density 21.018913000000001
#
# number of rings (size 3 to 8) (size 9 to 14) (size 15 to 20)
#    0.000    1.714    2.857    2.571    2.000    5.714 
#    0.000    2.143    0.000    0.857    0.000    0.000 
#    0.000    0.000    0.000    0.000    0.000    0.000 
#
# Total GULP energy -173531.786968 kJ/mol
# GULP energy per Si atom -12395.127641 kJ/mol
# Density = 2.097107 g / cm^3
# Si number density = 21.018913 Si / 1000 Ang^3
#
#
#
# Elastic Constant Matrix: (Units=GPa)
#
#
# Indices 1 2 3 4 5 6 
#
# 1 41.4336 12.0556 2.3431 0.0000 4.5714 0.0000
# 2 12.0556 128.2529 29.3607 0.0000 -9.2095 0.0000
# 3 2.3431 29.3607 85.2277 0.0000 0.7806 0.0000
# 4 0.0000 0.0000 0.0000 24.7473 0.0000 0.6776
# 5 4.5714 -9.2095 0.7806 0.0000 30.2275 0.0000
# 6 0.0000 0.0000 0.0000 0.6776 0.0000 29.8017
#
#
#
# Elastic Compliance Matrix: (Units=1/GPa)
#
#
# Indices 1 2 3 4 5 6 
#
# 1 0.025452 -0.002801 0.000308 0.000000 -0.004711 0.000000
# 2 -0.002801 0.008991 -0.003050 0.000000 0.003242 0.000000
# 3 0.000308 -0.003050 0.012788 0.000000 -0.001306 0.000000
# 4 0.000000 0.000000 0.000000 0.040434 0.000000 -0.000919
# 5 -0.004711 0.003242 -0.001306 0.000000 0.034816 0.000000
# 6 0.000000 0.000000 0.000000 -0.000919 0.000000 0.033576
#
#
# Mechanical properties :
#
#
# Convention : Reuss Voigt Hill
#
# Bulk Modulus (GPa) = 27.66623 38.04811 32.85717
# Shear Modulus (GPa) = 27.90303 31.03229 29.46766
#
# Velocity S-wave (km/s) = 3.64747 3.84656 3.74834
# Velocity P-wave (km/s) = 5.56146 6.15379 5.86511
#
# Compressibility (1/GPa) = 0.03614515
#
# Stress axis : x y z
#
# Youngs Moduli (GPa) = 39.28907 111.21627 78.20112
#
# Poissons Ratio (x) = 0.31156 -0.02412
# Poissons Ratio (y) = 0.11006 0.23853
# Poissons Ratio (z) = -0.01212 0.33923
#
# Static dielectric constant tensor:
#      x y z
#    x 3.712190 0.000000 0.057280 
#    y 0.000000 3.882090 0.000000 
#    z 0.057280 0.000000 3.908030 
# 
# 
# High freq. dielectric constant tensor:
#      x y z
#    x 1.813020 0.000000 0.002250 
#    y 0.000000 1.823200 0.000000 
#    z 0.002250 0.000000 1.819510 
# 
# From -- ./inp_files/13219.got.cif
#   From: 2010.03.12/outbox.cif.g09.slc.cpg/sg8_7_cif.got.tgz:13219.got - 2010.03.31 10:45:26.
