data_PCOD8053767
_publ_section_title
;
Structure prediction by ZEFSAII (Michael W. Deem and Ramdas Pophale) SiO2 
 PCOD8053767
Probable space group: C M
;
_chemical_formula_sum "Si O2"
_cell_formula_units_Z 32
_cell_length_a 10.020036
_cell_length_b 9.027997
_cell_length_c 17.569571
_cell_angle_alpha 90.000000
_cell_angle_beta 89.665465
_cell_angle_gamma 90.000000
_cell_volume 1589.331323
_symmetry_space_group_name_H-M "C M"
_symmetry_group_IT_number 8
_symmetry_cell_setting 'monoclinic'
loop_
_space_group_symop_operation_xyz
x,y,z
x,-y,z
1/2+x,1/2+y,z
1/2+x,1/2-y,z
loop_
_atom_site_type_symbol
_atom_site_label
_atom_site_fract_x
_atom_site_fract_y
_atom_site_fract_z
Si Si1 0.332130 0.326986 0.884390
Si Si2 0.293939 0.827635 0.380332
Si Si3 0.024270 0.172256 0.467035
Si Si4 0.845073 0.829025 0.711666
Si Si5 0.574145 0.171587 0.623618
Si Si6 0.774181 0.828119 0.223026
Si Si7 0.042440 0.171676 0.137560
Si Si8 0.095262 0.826118 0.966782
O O1 0.310650 0.500000 0.896669
O O2 0.308799 0.279715 0.797385
O O3 0.231010 0.247162 0.940436
O O4 0.479647 0.277625 0.909041
O O5 0.391667 0.756086 0.441790
O O6 0.318451 0.752138 0.299692
O O7 0.141686 0.801526 0.406075
O O8 0.328026 0.000000 0.373965
O O9 0.070206 0.233085 0.547721
O O10 0.989701 0.000000 0.476164
O O11 0.718352 0.802718 0.659238
O O12 0.964111 0.725960 0.683355
O O13 0.891608 0.000000 0.710169
O O14 0.548641 0.000000 0.604914
O O15 0.636004 0.764241 0.193032
O O16 0.889036 0.801252 0.160443
O O17 0.754616 0.000000 0.241667
O O18 0.081512 0.000000 0.146416
O O19 0.059200 0.228870 0.051580
O O20 0.116126 0.000000 0.966190
#
# Coordination Sequence:
#
# PCOD8053767 Si02
#       8
#     4   4   4   4   4   4   4   4
#     4  10  21  38  59  85 117 152 193 240 289 343
#     4  11  24  41  62  89 119 152 192 237 286 342
#     4  11  24  41  61  86 117 153 192 236 287 342
#     4  10  22  39  59  85 118 154 192 238 290 343
#     4  11  23  38  59  87 116 150 194 239 285 342
#     4  11  23  39  61  87 116 153 194 237 287 342
#     4  10  22  39  57  83 118 152 192 240 288 343
#     4  10  21  37  58  84 115 152 193 239 290 343
#
# _framework density 20.134255
#
# number of rings (size 3 to 8) (size 9 to 14) (size 15 to 20)
#    0.000    1.500    0.000    4.500    0.000   11.500 
#    0.000    0.000    0.000    0.000    0.000    0.000 
#    0.000    0.000    0.000    0.000    0.000    0.000 
#
# Total GULP energy -198513.771667 kJ/mol
# GULP energy per Si atom -12407.110729 kJ/mol
# Density = 2.008843 g / cm^3
# Si number density = 20.134255 Si / 1000 Ang^3
#
#
#
# Elastic Constant Matrix: (Units=GPa)
#
#
# Indices 1 2 3 4 5 6 
#
# 1 58.7845 33.6619 -0.7004 0.0000 0.4320 0.0000
# 2 33.6619 80.2371 28.7068 0.0000 -1.8737 0.0000
# 3 -0.7004 28.7068 91.7584 0.0000 1.9934 0.0000
# 4 0.0000 0.0000 0.0000 31.4548 0.0000 -10.9368
# 5 0.4320 -1.8737 1.9934 0.0000 39.4632 0.0000
# 6 0.0000 0.0000 0.0000 -10.9368 0.0000 22.2861
#
#
#
# Elastic Compliance Matrix: (Units=1/GPa)
#
#
# Indices 1 2 3 4 5 6 
#
# 1 0.023473 -0.011195 0.003703 0.000000 -0.000976 0.000000
# 2 -0.011195 0.019405 -0.006186 0.000000 0.001356 0.000000
# 3 0.003703 -0.006186 0.012883 0.000000 -0.000985 0.000000
# 4 0.000000 0.000000 0.000000 0.038332 0.000000 0.018812
# 5 -0.000976 0.001356 -0.000985 0.000000 0.025465 0.000000
# 6 0.000000 0.000000 0.000000 0.018812 0.000000 0.054103
#
#
# Mechanical properties :
#
#
# Convention : Reuss Voigt Hill
#
# Bulk Modulus (GPa) = 35.20549 39.34628 37.27588
# Shear Modulus (GPa) = 23.75458 29.91494 26.83476
#
# Velocity S-wave (km/s) = 3.43856 3.85875 3.65470
# Velocity P-wave (km/s) = 5.76960 6.27994 6.03017
#
# Compressibility (1/GPa) = 0.02840466
#
# Stress axis : x y z
#
# Youngs Moduli (GPa) = 42.60146 51.53415 77.62137
#
# Poissons Ratio (x) = 0.57694 -0.28742
# Poissons Ratio (y) = 0.47694 0.48014
# Poissons Ratio (z) = -0.15775 0.31877
#
# Static dielectric constant tensor:
#      x y z
#    x 3.641050 0.000000 0.005120 
#    y 0.000000 3.687090 0.000000 
#    z 0.005120 0.000000 3.800820 
# 
# 
# High freq. dielectric constant tensor:
#      x y z
#    x 1.795910 0.000000 0.000920 
#    y 0.000000 1.787740 0.000000 
#    z 0.000920 0.000000 1.802340 
# 
# From -- ./inp_files/25840.got.cif
#   From: 2010.03.12/outbox.cif.g09.slc.cpg/sg8_13_cif.got.tgz:25840.got - 2010.03.31 10:45:26.
