data_PCOD8053889
_publ_section_title
;
Structure prediction by ZEFSAII (Michael W. Deem and Ramdas Pophale) SiO2 
 PCOD8053889
Probable space group: C M
;
_chemical_formula_sum "Si O2"
_cell_formula_units_Z 24
_cell_length_a 13.826822
_cell_length_b 13.798935
_cell_length_c 9.025284
_cell_angle_alpha 90.000000
_cell_angle_beta 40.100900
_cell_angle_gamma 90.000000
_cell_volume 1109.190523
_symmetry_space_group_name_H-M "C M"
_symmetry_group_IT_number 8
_symmetry_cell_setting 'monoclinic'
loop_
_space_group_symop_operation_xyz
x,y,z
x,-y,z
1/2+x,1/2+y,z
1/2+x,1/2-y,z
loop_
_atom_site_type_symbol
_atom_site_label
_atom_site_fract_x
_atom_site_fract_y
_atom_site_fract_z
Si Si1 0.288700 0.891945 0.918360
Si Si2 0.248299 0.388558 0.918715
Si Si3 0.918507 0.229187 0.936428
Si Si4 0.468625 0.391794 0.394777
Si Si5 0.202888 0.889578 0.684862
Si Si6 0.940553 0.288789 0.229980
O O1 0.417841 0.817291 0.817412
O O2 0.226559 0.864203 0.829186
O O3 0.357915 0.000000 0.836348
O O4 0.149480 0.883826 0.196997
O O5 0.197371 0.500000 0.988147
O O6 0.298336 0.351253 0.022602
O O7 0.391557 0.374189 0.643464
O O8 0.113581 0.321641 0.017859
O O9 0.081640 0.182216 0.756806
O O10 0.871262 0.274405 0.148751
O O11 0.427022 0.500000 0.384317
O O12 0.411258 0.312922 0.345965
O O13 0.356005 0.874386 0.415556
O O14 0.148702 0.000000 0.730230
#
# Coordination Sequence:
#
# PCOD8053889 Si02
#       6
#     4   4   4   4   4   4
#     4  10  22  43  67  96 132 176 217 267 328 389
#     4  11  25  44  66  95 133 173 218 269 324 387
#     4  12  23  40  65 102 127 168 218 270 321 386
#     4  10  21  42  67  92 130 175 215 262 324 387
#     4  11  25  45  68  94 134 176 217 266 329 392
#     4  12  24  42  67  99 132 170 219 272 328 383
#
# _framework density 21.637402000000002
#
# number of rings (size 3 to 8) (size 9 to 14) (size 15 to 20)
#    0.000    1.000    3.333    3.000    2.333    3.333 
#    0.000    0.833    0.000    0.000    0.000    0.000 
#    0.000    0.000    0.000    0.000    0.000    0.000 
#
# Total GULP energy -148805.731650 kJ/mol
# GULP energy per Si atom -12400.477638 kJ/mol
# Density = 2.158815 g / cm^3
# Si number density = 21.637402 Si / 1000 Ang^3
#
#
#
# Elastic Constant Matrix: (Units=GPa)
#
#
# Indices 1 2 3 4 5 6 
#
# 1 133.3818 80.1418 41.1328 0.0000 10.5970 0.0000
# 2 80.1418 158.8418 39.8305 0.0000 5.2197 0.0000
# 3 41.1328 39.8305 104.0124 0.0000 0.0035 0.0000
# 4 0.0000 0.0000 0.0000 35.2884 0.0000 -3.4142
# 5 10.5970 5.2197 0.0035 0.0000 18.5019 0.0000
# 6 0.0000 0.0000 0.0000 -3.4142 0.0000 39.8428
#
#
#
# Elastic Compliance Matrix: (Units=1/GPa)
#
#
# Indices 1 2 3 4 5 6 
#
# 1 0.011832 -0.005112 -0.002721 0.000000 -0.005334 0.000000
# 2 -0.005112 0.009245 -0.001519 0.000000 0.000320 0.000000
# 3 -0.002721 -0.001519 0.011272 0.000000 0.001985 0.000000
# 4 0.000000 0.000000 0.000000 0.028575 0.000000 0.002449
# 5 -0.005334 0.000320 0.001985 0.000000 0.057013 0.000000
# 6 0.000000 0.000000 0.000000 0.002449 0.000000 0.025308
#
#
# Mechanical properties :
#
#
# Convention : Reuss Voigt Hill
#
# Bulk Modulus (GPa) = 73.28765 79.82735 76.55750
# Shear Modulus (GPa) = 30.03056 34.40201 32.21629
#
# Velocity S-wave (km/s) = 3.72950 3.99172 3.86283
# Velocity P-wave (km/s) = 7.24499 7.63010 7.44004
#
# Compressibility (1/GPa) = 0.01364486
#
# Stress axis : x y z
#
# Youngs Moduli (GPa) = 84.51873 108.16614 88.71610
#
# Poissons Ratio (x) = 0.55293 0.24142
# Poissons Ratio (y) = 0.43205 0.13474
# Poissons Ratio (z) = 0.23000 0.16428
#
# Static dielectric constant tensor:
#      x y z
#    x 3.674310 0.000000 0.112930 
#    y 0.000000 4.179720 0.000000 
#    z 0.112930 0.000000 3.858910 
# 
# 
# High freq. dielectric constant tensor:
#      x y z
#    x 1.832500 0.000000 0.008060 
#    y 0.000000 1.875320 0.000000 
#    z 0.008060 0.000000 1.840150 
# 
# From -- ./inp_files/13193.got.cif
#   From: 2010.03.12/outbox.cif.g09.slc.cpg/sg8_7_cif.got.tgz:13193.got - 2010.03.31 10:45:26.
