data_PCOD8053868
_publ_section_title
;
Structure prediction by ZEFSAII (Michael W. Deem and Ramdas Pophale) SiO2 
 PCOD8053868
Probable space group: C M
;
_chemical_formula_sum "Si O2"
_cell_formula_units_Z 32
_cell_length_a 17.048132
_cell_length_b 14.419239
_cell_length_c 11.251193
_cell_angle_alpha 90.000000
_cell_angle_beta 147.584640
_cell_angle_gamma 90.000000
_cell_volume 1482.605294
_symmetry_space_group_name_H-M "C M"
_symmetry_group_IT_number 8
_symmetry_cell_setting 'monoclinic'
loop_
_space_group_symop_operation_xyz
x,y,z
x,-y,z
1/2+x,1/2+y,z
1/2+x,1/2-y,z
loop_
_atom_site_type_symbol
_atom_site_label
_atom_site_fract_x
_atom_site_fract_y
_atom_site_fract_z
Si Si1 0.406650 0.895993 0.135720
Si Si2 0.952980 0.105373 0.829282
Si Si3 0.341818 0.604002 0.423968
Si Si4 0.289822 0.391011 0.856004
Si Si5 0.210272 0.210881 0.259330
Si Si6 0.121007 0.105942 0.618004
Si Si7 0.054445 0.789334 0.299694
Si Si8 0.459591 0.895161 0.469350
O O1 0.531926 0.821669 0.265242
O O2 0.374655 0.890707 0.235135
O O3 0.464734 0.000000 0.178208
O O4 0.259683 0.871814 0.877434
O O5 0.885982 0.121283 0.615768
O O6 0.833098 0.133078 0.775351
O O7 0.005267 0.000000 0.914689
O O8 0.095436 0.169048 0.020385
O O9 0.279969 0.500000 0.326340
O O10 0.215632 0.679115 0.237033
O O11 0.477194 0.622911 0.511117
O O12 0.302069 0.500000 0.895880
O O13 0.124606 0.355992 0.666786
O O14 0.397573 0.339716 0.085101
O O15 0.163470 0.184668 0.333042
O O16 0.371929 0.167987 0.449965
O O17 0.125351 0.176460 0.513226
O O18 0.126767 0.000000 0.579086
O O19 0.463403 0.000000 0.522657
#
# Coordination Sequence:
#
# PCOD8053868 Si02
#       8
#     4   4   4   4   4   4   4   4
#     4  10  23  40  64  91 120 161 208 256 301 355
#     4   9  19  39  65  90 119 157 207 252 297 357
#     4  10  22  39  62  89 122 160 201 251 302 357
#     4   9  20  38  64  94 123 160 204 254 306 360
#     4  11  23  37  61  94 123 157 203 252 304 354
#     4  10  22  42  63  89 123 165 206 245 305 373
#     4  11  24  37  65  92 127 162 203 246 308 370
#     4  10  21  40  66  93 121 156 208 262 303 348
#
# _framework density 21.583628000000001
#
# number of rings (size 3 to 8) (size 9 to 14) (size 15 to 20)
#    0.000    2.000    0.000    2.250    5.250    5.000 
#    0.000    0.000    0.000    0.750    0.000    0.000 
#    0.000    0.000    0.000    0.000    0.000    0.000 
#
# Total GULP energy -198432.893551 kJ/mol
# GULP energy per Si atom -12402.055847 kJ/mol
# Density = 2.153450 g / cm^3
# Si number density = 21.583628 Si / 1000 Ang^3
#
#
#
# Elastic Constant Matrix: (Units=GPa)
#
#
# Indices 1 2 3 4 5 6 
#
# 1 92.2862 43.9588 42.5821 0.0000 13.0424 0.0000
# 2 43.9588 111.7836 59.1151 0.0000 13.8432 0.0000
# 3 42.5821 59.1151 97.3416 0.0000 8.7346 0.0000
# 4 0.0000 0.0000 0.0000 32.4560 0.0000 3.2790
# 5 13.0424 13.8432 8.7346 0.0000 31.6373 0.0000
# 6 0.0000 0.0000 0.0000 3.2790 0.0000 28.9292
#
#
#
# Elastic Compliance Matrix: (Units=1/GPa)
#
#
# Indices 1 2 3 4 5 6 
#
# 1 0.014790 -0.003127 -0.004251 0.000000 -0.003555 0.000000
# 2 -0.003127 0.014263 -0.007023 0.000000 -0.003013 0.000000
# 3 -0.004251 -0.007023 0.016371 0.000000 0.000306 0.000000
# 4 0.000000 0.000000 0.000000 0.031168 0.000000 -0.003533
# 5 -0.003555 -0.003013 0.000306 0.000000 0.034307 0.000000
# 6 0.000000 0.000000 0.000000 -0.003533 0.000000 0.034968
#
#
# Mechanical properties :
#
#
# Convention : Reuss Voigt Hill
#
# Bulk Modulus (GPa) = 60.17329 65.85816 63.01572
# Shear Modulus (GPa) = 27.74536 28.98822 28.36679
#
# Velocity S-wave (km/s) = 3.58925 3.66876 3.62922
# Velocity P-wave (km/s) = 6.71689 6.96604 6.84260
#
# Compressibility (1/GPa) = 0.01661867
#
# Stress axis : x y z
#
# Youngs Moduli (GPa) = 67.61499 70.11132 61.08468
#
# Poissons Ratio (x) = 0.21927 0.25970
# Poissons Ratio (y) = 0.21146 0.42902
# Poissons Ratio (z) = 0.28746 0.49242
#
# Static dielectric constant tensor:
#      x y z
#    x 3.808180 0.000000 0.020130 
#    y 0.000000 4.162010 0.000000 
#    z 0.020130 0.000000 3.703100 
# 
# 
# High freq. dielectric constant tensor:
#      x y z
#    x 1.843030 0.000000 0.003420 
#    y 0.000000 1.862660 0.000000 
#    z 0.003420 0.000000 1.831930 
# 
# From -- ./inp_files/23310.got.cif
#   From: 2010.03.12/outbox.cif.g09.slc.cpg/sg8_12_cif.got.tgz:23310.got - 2010.03.31 10:45:26.
