data_PCOD8053644
_publ_section_title
;
Structure prediction by ZEFSAII (Michael W. Deem and Ramdas Pophale) SiO2 
 PCOD8053644
Probable space group: C M
;
_chemical_formula_sum "Si O2"
_cell_formula_units_Z 32
_cell_length_a 15.894036
_cell_length_b 16.881842
_cell_length_c 12.131236
_cell_angle_alpha 90.000000
_cell_angle_beta 152.618052
_cell_angle_gamma 90.000000
_cell_volume 1497.067593
_symmetry_space_group_name_H-M "C M"
_symmetry_group_IT_number 8
_symmetry_cell_setting 'monoclinic'
loop_
_space_group_symop_operation_xyz
x,y,z
x,-y,z
1/2+x,1/2+y,z
1/2+x,1/2-y,z
loop_
_atom_site_type_symbol
_atom_site_label
_atom_site_fract_x
_atom_site_fract_y
_atom_site_fract_z
Si Si1 0.693480 0.853634 0.164170
Si Si2 0.964426 0.407798 0.233121
Si Si3 0.801054 0.658660 0.450835
Si Si4 0.179416 0.412003 0.920895
Si Si5 0.819782 0.835723 0.539416
Si Si6 0.566030 0.590380 0.358305
Si Si7 0.708529 0.321697 0.102846
Si Si8 0.335629 0.907963 0.848005
O O1 0.702446 0.920127 0.080625
O O2 0.827604 0.872723 0.424041
O O3 0.736078 0.771851 0.149627
O O4 0.490303 0.850943 0.978188
O O5 0.977300 0.500000 0.282549
O O6 0.168738 0.377959 0.440687
O O7 0.879035 0.356859 0.232713
O O8 0.828067 0.396845 0.970425
O O9 0.759118 0.745054 0.450762
O O10 0.713593 0.596971 0.433566
O O11 0.711504 0.641408 0.228607
O O12 0.018676 0.646396 0.697048
O O13 0.140803 0.500000 0.828394
O O14 0.369340 0.371104 0.098534
O O15 0.017018 0.845425 0.824195
O O16 0.513268 0.500000 0.314446
O O17 0.648135 0.621066 0.570969
O O18 0.377758 0.000000 0.867111
#
# Coordination Sequence:
#
# PCOD8053644 Si02
#       8
#     4   4   4   4   4   4   4   4
#     4  10  20  38  62  93 125 161 208 259 314 366
#     4  10  24  42  62  91 125 167 212 261 318 373
#     4  11  23  41  63  91 130 168 207 257 317 377
#     4  11  22  37  62  95 127 162 208 260 312 368
#     4  10  23  42  64  91 123 166 210 260 314 372
#     4  10  21  35  60  94 124 163 208 256 310 367
#     4  11  24  42  63  93 126 167 211 253 317 385
#     4   9  17  37  64  92 126 160 206 266 318 364
#
# _framework density 21.375121
#
# number of rings (size 3 to 8) (size 9 to 14) (size 15 to 20)
#    0.000    1.750    2.500    0.750    3.500    3.000 
#    0.000    3.750    0.000    0.000    0.000    0.000 
#    0.000    0.000    0.000    0.000    0.000    0.000 
#
# Total GULP energy -198304.472453 kJ/mol
# GULP energy per Si atom -12394.029528 kJ/mol
# Density = 2.132647 g / cm^3
# Si number density = 21.375121 Si / 1000 Ang^3
#
#
#
# Elastic Constant Matrix: (Units=GPa)
#
#
# Indices 1 2 3 4 5 6 
#
# 1 80.2070 30.4696 40.6559 0.0000 -3.7598 0.0000
# 2 30.4696 71.5907 16.9447 0.0000 5.6053 0.0000
# 3 40.6559 16.9447 140.5488 0.0000 -5.1691 0.0000
# 4 0.0000 0.0000 0.0000 24.6175 0.0000 2.2168
# 5 -3.7598 5.6053 -5.1691 0.0000 32.7462 0.0000
# 6 0.0000 0.0000 0.0000 2.2168 0.0000 34.7495
#
#
#
# Elastic Compliance Matrix: (Units=1/GPa)
#
#
# Indices 1 2 3 4 5 6 
#
# 1 0.017124 -0.006513 -0.004078 0.000000 0.002437 0.000000
# 2 -0.006513 0.017107 -0.000315 0.000000 -0.003726 0.000000
# 3 -0.004078 -0.000315 0.008366 0.000000 0.000906 0.000000
# 4 0.000000 0.000000 0.000000 0.040856 0.000000 -0.002606
# 5 0.002437 -0.003726 0.000906 0.000000 0.031599 0.000000
# 6 0.000000 0.000000 0.000000 -0.002606 0.000000 0.028944
#
#
# Mechanical properties :
#
#
# Convention : Reuss Voigt Hill
#
# Bulk Modulus (GPa) = 48.11815 52.05410 50.08612
# Shear Modulus (GPa) = 28.94580 32.04107 30.49343
#
# Velocity S-wave (km/s) = 3.68391 3.87588 3.78111
# Velocity P-wave (km/s) = 6.37614 6.66599 6.52267
#
# Compressibility (1/GPa) = 0.02078218
#
# Stress axis : x y z
#
# Youngs Moduli (GPa) = 58.39880 58.45617 119.53073
#
# Poissons Ratio (x) = 0.38075 0.48749
# Poissons Ratio (y) = 0.38038 0.03769
# Poissons Ratio (z) = 0.23817 0.01843
#
# Static dielectric constant tensor:
#      x y z
#    x 3.801210 0.000000 -0.142860 
#    y 0.000000 3.627040 0.000000 
#    z -0.142860 0.000000 4.002630 
# 
# 
# High freq. dielectric constant tensor:
#      x y z
#    x 1.832940 0.000000 -0.002630 
#    y 0.000000 1.822440 0.000000 
#    z -0.002630 0.000000 1.846460 
# 
# From -- ./inp_files/22416.got.cif
#   From: 2010.03.12/outbox.cif.g09.slc.cpg/sg8_12_cif.got.tgz:22416.got - 2010.03.31 10:45:26.
