data_PCOD8053232
_publ_section_title
;
Structure prediction by ZEFSAII (Michael W. Deem and Ramdas Pophale) SiO2 
 PCOD8053232
Probable space group: C M
;
_chemical_formula_sum "Si O2"
_cell_formula_units_Z 32
_cell_length_a 28.397139
_cell_length_b 8.520048
_cell_length_c 15.901219
_cell_angle_alpha 90.000000
_cell_angle_beta 153.459969
_cell_angle_gamma 90.000000
_cell_volume 1719.026371
_symmetry_space_group_name_H-M "C M"
_symmetry_group_IT_number 8
_symmetry_cell_setting 'monoclinic'
loop_
_space_group_symop_operation_xyz
x,y,z
x,-y,z
1/2+x,1/2+y,z
1/2+x,1/2-y,z
loop_
_atom_site_type_symbol
_atom_site_label
_atom_site_fract_x
_atom_site_fract_y
_atom_site_fract_z
Si Si1 0.964650 0.815436 0.839220
Si Si2 0.889105 0.685443 0.548797
Si Si3 0.936026 0.314319 0.134179
Si Si4 0.220907 0.313510 0.849874
Si Si5 0.640612 0.314843 0.552043
Si Si6 0.111019 0.685546 0.841605
Si Si7 0.354443 0.684916 0.835421
Si Si8 0.181587 0.314887 0.134038
O O1 0.893785 0.745979 0.651493
O O2 0.911380 0.764555 0.841101
O O3 0.969452 0.000000 0.836739
O O4 0.082661 0.749332 0.027907
O O5 0.886113 0.500000 0.546989
O O6 0.787234 0.749152 0.341005
O O7 0.990925 0.746201 0.659353
O O8 0.942069 0.500000 0.133819
O O9 0.038873 0.250566 0.343557
O O10 0.834422 0.268240 0.026741
O O11 0.929048 0.235936 0.031397
O O12 0.236283 0.500000 0.876914
O O13 0.148562 0.267205 0.655509
O O14 0.164488 0.245693 0.843330
O O15 0.631600 0.500000 0.549972
O O16 0.743237 0.274483 0.661012
O O17 0.110469 0.500000 0.834285
O O18 0.175701 0.739846 0.027371
O O19 0.332996 0.500000 0.806375
O O20 0.179721 0.500000 0.138427
#
# Coordination Sequence:
#
# PCOD8053232 Si02
#       8
#     4   4   4   4   4   4   4   4
#     4  10  21  37  57  81 108 140 178 220 268 319
#     4  10  20  36  56  80 110 143 180 220 265 315
#     4  11  22  37  56  80 109 142 180 219 265 317
#     4  10  19  36  58  81 110 140 176 222 270 317
#     4  11  22  37  56  80 109 142 180 219 265 317
#     4   8  18  35  55  79 108 142 178 220 266 315
#     4  10  21  38  58  81 108 138 176 222 270 319
#     4  10  20  36  56  80 110 143 180 220 265 315
#
# _framework density 18.615189000000001
#
# number of rings (size 3 to 8) (size 9 to 14) (size 15 to 20)
#    0.000    2.000    0.000    6.375    0.000    4.000 
#    0.000   10.000    0.000    0.000    0.000    0.000 
#    0.000    0.000    0.000    0.000    0.000    0.000 
#
# Total GULP energy -198424.858389 kJ/mol
# GULP energy per Si atom -12401.553649 kJ/mol
# Density = 1.857282 g / cm^3
# Si number density = 18.615189 Si / 1000 Ang^3
#
#
#
# Elastic Constant Matrix: (Units=GPa)
#
#
# Indices 1 2 3 4 5 6 
#
# 1 169.7190 30.8998 74.6169 0.0000 -5.6861 0.0000
# 2 30.8998 57.9432 20.1388 0.0000 -0.5076 0.0000
# 3 74.6169 20.1388 170.1334 0.0000 -1.3588 0.0000
# 4 0.0000 0.0000 0.0000 33.3236 0.0000 0.7604
# 5 -5.6861 -0.5076 -1.3588 0.0000 12.7834 0.0000
# 6 0.0000 0.0000 0.0000 0.7604 0.0000 27.1476
#
#
#
# Elastic Compliance Matrix: (Units=1/GPa)
#
#
# Indices 1 2 3 4 5 6 
#
# 1 0.007917 -0.003125 -0.003078 0.000000 0.003070 0.000000
# 2 -0.003125 0.019236 -0.000912 0.000000 -0.000723 0.000000
# 3 -0.003078 -0.000912 0.007331 0.000000 -0.000626 0.000000
# 4 0.000000 0.000000 0.000000 0.030028 0.000000 -0.000841
# 5 0.003070 -0.000723 -0.000626 0.000000 0.079497 0.000000
# 6 0.000000 0.000000 0.000000 -0.000841 0.000000 0.036859
#
#
# Mechanical properties :
#
#
# Convention : Reuss Voigt Hill
#
# Bulk Modulus (GPa) = 49.37557 72.12295 60.74926
# Shear Modulus (GPa) = 24.77101 32.79359 28.78230
#
# Velocity S-wave (km/s) = 3.65182 4.20176 3.93641
# Velocity P-wave (km/s) = 6.66055 7.89734 7.30517
#
# Compressibility (1/GPa) = 0.02025293
#
# Stress axis : x y z
#
# Youngs Moduli (GPa) = 126.30810 51.98692 136.41533
#
# Poissons Ratio (x) = 0.16248 0.41986
# Poissons Ratio (y) = 0.39476 0.12441
# Poissons Ratio (z) = 0.38875 0.04741
#
# Static dielectric constant tensor:
#      x y z
#    x 3.677150 0.000000 -0.004920 
#    y 0.000000 3.500400 0.000000 
#    z -0.004920 0.000000 3.488370 
# 
# 
# High freq. dielectric constant tensor:
#      x y z
#    x 1.727420 0.000000 -0.000570 
#    y 0.000000 1.730680 0.000000 
#    z -0.000570 0.000000 1.728070 
# 
# From -- ./inp_files/28328.got.cif
#   From: 2010.03.12/outbox.cif.g09.slc.cpg/sg8_15_cif.got.tgz:28328.got - 2010.03.31 10:45:26.
