data_PCOD8053052
_publ_section_title
;
Structure prediction by ZEFSAII (Michael W. Deem and Ramdas Pophale) SiO2 
 PCOD8053052
Probable space group: C M
;
_chemical_formula_sum "Si O2"
_cell_formula_units_Z 32
_cell_length_a 20.820239
_cell_length_b 8.921333
_cell_length_c 13.587704
_cell_angle_alpha 90.000000
_cell_angle_beta 42.860162
_cell_angle_gamma 90.000000
_cell_volume 1716.743539
_symmetry_space_group_name_H-M "C M"
_symmetry_group_IT_number 8
_symmetry_cell_setting 'monoclinic'
loop_
_space_group_symop_operation_xyz
x,y,z
x,-y,z
1/2+x,1/2+y,z
1/2+x,1/2-y,z
loop_
_atom_site_type_symbol
_atom_site_label
_atom_site_fract_x
_atom_site_fract_y
_atom_site_fract_z
Si Si1 0.152430 0.674180 0.186700
Si Si2 0.293752 0.671755 0.188771
Si Si3 0.942567 0.824844 0.852268
Si Si4 0.644697 0.321610 0.689120
Si Si5 0.012501 0.178464 0.216109
Si Si6 0.161819 0.175381 0.887212
Si Si7 0.805561 0.674306 0.879169
Si Si8 0.321295 0.177002 0.362501
O O1 0.151072 0.500000 0.158687
O O2 0.188713 0.691907 0.258936
O O3 0.050628 0.748716 0.276410
O O4 0.227092 0.762573 0.038894
O O5 0.308501 0.500000 0.206537
O O6 0.305326 0.781527 0.267187
O O7 0.374606 0.715800 0.019646
O O8 0.905155 0.752054 0.792274
O O9 0.046597 0.760065 0.755403
O O10 0.944786 0.000000 0.831565
O O11 0.642303 0.500000 0.697865
O O12 0.656182 0.251271 0.785593
O O13 0.729812 0.267606 0.525079
O O14 0.908275 0.236206 0.312496
O O15 0.013108 0.000000 0.225840
O O16 0.079655 0.237062 0.051567
O O17 0.267232 0.207230 0.811887
O O18 0.143773 0.000000 0.898523
O O19 0.816993 0.500000 0.885896
O O20 0.337774 0.000000 0.353159
#
# Coordination Sequence:
#
# PCOD8053052 Si02
#       8
#     4   4   4   4   4   4   4   4
#     4   9  17  31  52  77 102 129 164 205 249 297
#     4   9  18  33  54  76  99 130 165 204 250 297
#     4   9  17  32  54  74  95 129 168 205 246 294
#     4   9  18  33  50  69  96 131 170 206 242 289
#     4  10  19  33  55  78 101 130 164 207 253 296
#     4   8  15  30  52  73  93 124 164 200 239 290
#     4   9  16  27  48  78 104 125 155 202 254 296
#     4  11  22  33  49  73 102 136 170 207 249 295
#
# _framework density 18.639942000000001
#
# number of rings (size 3 to 8) (size 9 to 14) (size 15 to 20)
#    0.000    2.750    0.000    3.750    0.000    4.500 
#    0.000    2.500    0.000   15.000    0.000    0.000 
#    0.000    0.000    0.000    0.000    0.000    0.000 
#
# Total GULP energy -198285.896020 kJ/mol
# GULP energy per Si atom -12392.868501 kJ/mol
# Density = 1.859752 g / cm^3
# Si number density = 18.639942 Si / 1000 Ang^3
#
#
#
# Elastic Constant Matrix: (Units=GPa)
#
#
# Indices 1 2 3 4 5 6 
#
# 1 163.4534 50.7131 58.7005 -0.0001 -36.2476 0.0001
# 2 50.7131 110.8289 24.2246 -0.0002 -17.0967 0.0002
# 3 58.7005 24.2246 74.7573 -0.0001 -19.6248 0.0000
# 4 -0.0001 -0.0002 -0.0001 16.3237 0.0000 -4.1473
# 5 -36.2476 -17.0967 -19.6248 0.0000 13.7320 0.0000
# 6 0.0001 0.0002 0.0000 -4.1473 0.0000 36.1314
#
#
#
# Elastic Compliance Matrix: (Units=1/GPa)
#
#
# Indices 1 2 3 4 5 6 
#
# 1 0.015060 -0.000944 -0.002228 0.000000 0.035393 0.000000
# 2 -0.000944 0.011227 0.000190 0.000000 0.011756 0.000000
# 3 -0.002228 0.000190 0.021738 0.000000 0.025421 0.000000
# 4 0.000000 0.000000 0.000000 0.063101 0.000000 0.007243
# 5 0.035393 0.011756 0.025421 0.000000 0.217214 0.000000
# 6 0.000000 0.000000 0.000000 0.007243 0.000000 0.028508
#
#
# Mechanical properties :
#
#
# Convention : Reuss Voigt Hill
#
# Bulk Modulus (GPa) = 23.77591 68.47958 46.12775
# Shear Modulus (GPa) = 13.26845 27.59750 20.43298
#
# Velocity S-wave (km/s) = 2.67091 3.85198 3.31447
# Velocity P-wave (km/s) = 4.72173 7.52339 6.28077
#
# Compressibility (1/GPa) = 0.04205937
#
# Stress axis : x y z
#
# Youngs Moduli (GPa) = 66.40172 89.06990 46.00213
#
# Poissons Ratio (x) = 0.08411 0.10250
# Poissons Ratio (y) = 0.06270 -0.00872
# Poissons Ratio (z) = 0.14795 -0.01689
#
# Static dielectric constant tensor:
#      x y z
#    x 4.062990 0.000000 -0.116920 
#    y 0.000000 3.312460 0.000000 
#    z -0.116920 0.000000 3.201320 
# 
# 
# High freq. dielectric constant tensor:
#      x y z
#    x 1.748990 0.000000 -0.012870 
#    y 0.000000 1.706080 0.000000 
#    z -0.012870 0.000000 1.681490 
# 
# From -- ./inp_files/27745.got.cif
#   From: 2010.03.12/outbox.cif.g09.slc.cpg/sg8_14_cif.got.tgz:27745.got - 2010.03.31 10:45:26.
