data_PCOD8053196
_publ_section_title
;
Structure prediction by ZEFSAII (Michael W. Deem and Ramdas Pophale) SiO2 
 PCOD8053196
Probable space group: C M
;
_chemical_formula_sum "Si O2"
_cell_formula_units_Z 32
_cell_length_a 19.898209
_cell_length_b 8.638793
_cell_length_c 12.159263
_cell_angle_alpha 90.000000
_cell_angle_beta 54.496574
_cell_angle_gamma 90.000000
_cell_volume 1701.538644
_symmetry_space_group_name_H-M "C M"
_symmetry_group_IT_number 8
_symmetry_cell_setting 'monoclinic'
loop_
_space_group_symop_operation_xyz
x,y,z
x,-y,z
1/2+x,1/2+y,z
1/2+x,1/2-y,z
loop_
_atom_site_type_symbol
_atom_site_label
_atom_site_fract_x
_atom_site_fract_y
_atom_site_fract_z
Si Si1 0.200180 0.318862 0.341930
Si Si2 0.731595 0.180998 0.983030
Si Si3 0.837747 0.680872 0.061327
Si Si4 0.990978 0.180699 0.013687
Si Si5 0.254573 0.820182 0.509153
Si Si6 0.678715 0.681884 0.813120
Si Si7 0.095986 0.820544 0.261668
Si Si8 0.928345 0.177829 0.314529
O O1 0.186555 0.500000 0.341425
O O2 0.286040 0.271387 0.203425
O O3 0.204196 0.274667 0.465682
O O4 0.123135 0.232169 0.357653
O O5 0.729763 0.229091 0.857879
O O6 0.747328 0.000000 0.979326
O O7 0.807351 0.269645 0.969466
O O8 0.645703 0.224586 0.123104
O O9 0.823991 0.500000 0.092004
O O10 0.933323 0.725305 0.984194
O O11 0.966689 0.222315 0.160964
O O12 0.980995 0.000000 0.998551
O O13 0.083939 0.236410 0.904152
O O14 0.218555 0.769364 0.660230
O O15 0.351761 0.786270 0.414801
O O16 0.240119 0.000000 0.500109
O O17 0.685261 0.500000 0.830218
O O18 0.998508 0.791993 0.339743
O O19 0.117864 0.000000 0.222356
O O20 0.898532 0.000000 0.343525
#
# Coordination Sequence:
#
# PCOD8053196 Si02
#       8
#     4   4   4   4   4   4   4   4
#     4  11  21  35  55  82 116 150 186 232 283 332
#     4  11  21  34  56  85 115 148 186 231 283 333
#     4  11  21  34  56  85 115 146 187 235 281 330
#     4  10  19  36  59  84 113 146 189 234 281 330
#     4  11  23  38  59  84 114 152 190 230 279 337
#     4  10  22  41  60  81 114 153 189 229 280 338
#     4  10  19  35  58  84 113 147 188 232 281 332
#     4  10  20  35  59  85 114 148 185 235 282 330
#
# _framework density 18.806508000000001
#
# number of rings (size 3 to 8) (size 9 to 14) (size 15 to 20)
#    0.000    1.500    2.500    5.625    0.000    2.500 
#    0.000    1.250    0.000    1.500    0.000    0.000 
#    0.000    0.000    0.000    0.000    0.000    0.000 
#
# Total GULP energy -198474.528098 kJ/mol
# GULP energy per Si atom -12404.658006 kJ/mol
# Density = 1.876370 g / cm^3
# Si number density = 18.806508 Si / 1000 Ang^3
#
#
#
# Elastic Constant Matrix: (Units=GPa)
#
#
# Indices 1 2 3 4 5 6 
#
# 1 125.8628 30.5016 46.7335 0.0000 12.6850 0.0000
# 2 30.5016 64.5374 23.1090 0.0000 6.3908 0.0000
# 3 46.7335 23.1090 95.0600 0.0000 8.3398 0.0000
# 4 0.0000 0.0000 0.0000 21.6419 0.0000 1.7899
# 5 12.6850 6.3908 8.3398 0.0000 26.1908 0.0000
# 6 0.0000 0.0000 0.0000 1.7899 0.0000 35.6334
#
#
#
# Elastic Compliance Matrix: (Units=1/GPa)
#
#
# Indices 1 2 3 4 5 6 
#
# 1 0.010568 -0.003210 -0.004151 0.000000 -0.003013 0.000000
# 2 -0.003210 0.018165 -0.002660 0.000000 -0.002031 0.000000
# 3 -0.004151 -0.002660 0.013346 0.000000 -0.001590 0.000000
# 4 0.000000 0.000000 0.000000 0.046399 0.000000 -0.002331
# 5 -0.003013 -0.002031 -0.001590 0.000000 0.040643 0.000000
# 6 0.000000 0.000000 0.000000 -0.002331 0.000000 0.028181
#
#
# Mechanical properties :
#
#
# Convention : Reuss Voigt Hill
#
# Bulk Modulus (GPa) = 45.37423 54.01651 49.69537
# Shear Modulus (GPa) = 27.07240 29.03428 28.05334
#
# Velocity S-wave (km/s) = 3.79822 3.93344 3.86642
# Velocity P-wave (km/s) = 6.58897 7.02950 6.81280
#
# Compressibility (1/GPa) = 0.02203894
#
# Stress axis : x y z
#
# Youngs Moduli (GPa) = 94.62576 55.04946 74.92669
#
# Poissons Ratio (x) = 0.17671 0.31100
# Poissons Ratio (y) = 0.30374 0.19929
# Poissons Ratio (z) = 0.39276 0.14642
#
# Static dielectric constant tensor:
#      x y z
#    x 3.679670 0.000000 0.085480 
#    y 0.000000 3.437590 0.000000 
#    z 0.085480 0.000000 3.202350 
# 
# 
# High freq. dielectric constant tensor:
#      x y z
#    x 1.747790 0.000000 0.009100 
#    y 0.000000 1.735880 0.000000 
#    z 0.009100 0.000000 1.695910 
# 
# From -- ./inp_files/23696.got.cif
#   From: 2010.03.12/outbox.cif.g09.slc.cpg/sg8_12_cif.got.tgz:23696.got - 2010.03.31 10:45:26.
