data_PCOD8053521
_publ_section_title
;
Structure prediction by ZEFSAII (Michael W. Deem and Ramdas Pophale) SiO2 
 PCOD8053521
Probable space group: C M
;
_chemical_formula_sum "Si O2"
_cell_formula_units_Z 24
_cell_length_a 5.101233
_cell_length_b 18.635277
_cell_length_c 12.030064
_cell_angle_alpha 90.000000
_cell_angle_beta 104.677584
_cell_angle_gamma 90.000000
_cell_volume 1106.293090
_symmetry_space_group_name_H-M "C M"
_symmetry_group_IT_number 8
_symmetry_cell_setting 'monoclinic'
loop_
_space_group_symop_operation_xyz
x,y,z
x,-y,z
1/2+x,1/2+y,z
1/2+x,1/2-y,z
loop_
_atom_site_type_symbol
_atom_site_label
_atom_site_fract_x
_atom_site_fract_y
_atom_site_fract_z
Si Si1 0.664670 0.085590 0.294090
Si Si2 0.625951 0.354851 0.613870
Si Si3 0.765715 0.293122 0.854821
Si Si4 0.994500 0.299228 0.108167
Si Si5 0.528889 0.707243 0.382824
Si Si6 0.573609 0.921036 0.530337
O O1 0.499491 0.127781 0.181434
O O2 0.960124 0.124869 0.338831
O O3 0.511238 0.099986 0.395166
O O4 0.697320 0.000000 0.270864
O O5 0.776900 0.340567 0.745360
O O6 0.625259 0.290066 0.522816
O O7 0.315264 0.373495 0.605917
O O8 0.802284 0.416823 0.573704
O O9 0.453469 0.275471 0.847305
O O10 0.897436 0.329841 0.977578
O O11 0.790899 0.237546 0.130730
O O12 0.757353 0.745019 0.333129
O O13 0.692237 0.000000 0.545881
#
# Coordination Sequence:
#
# PCOD8053521 Si02
#       6
#     4   4   4   4   4   4
#     4  10  22  40  60  86 120 157 198 242 292 347
#     4  11  20  35  58  86 116 150 193 239 291 349
#     4  10  20  36  59  85 114 147 189 243 295 341
#     4  10  22  41  63  86 116 155 198 244 293 345
#     4  11  21  35  56  85 116 147 186 234 285 341
#     4  10  22  37  55  82 119 158 192 236 293 349
#
# _framework density 21.694068999999999
#
# number of rings (size 3 to 8) (size 9 to 14) (size 15 to 20)
#    0.000    1.667    0.000    5.500    0.000    3.333 
#    0.000    8.333    0.000    0.000    0.000    0.000 
#    0.000    0.000    0.000    0.000    0.000    0.000 
#
# Total GULP energy -148680.289936 kJ/mol
# GULP energy per Si atom -12390.024161 kJ/mol
# Density = 2.164469 g / cm^3
# Si number density = 21.694069 Si / 1000 Ang^3
#
#
#
# Elastic Constant Matrix: (Units=GPa)
#
#
# Indices 1 2 3 4 5 6 
#
# 1 95.7222 21.5971 28.2963 0.0000 7.8607 0.0000
# 2 21.5971 100.4732 65.7349 0.0000 10.8746 0.0000
# 3 28.2963 65.7349 162.2434 0.0000 5.9330 0.0000
# 4 0.0000 0.0000 0.0000 22.8509 0.0000 -5.7524
# 5 7.8607 10.8746 5.9330 0.0000 25.7997 0.0000
# 6 0.0000 0.0000 0.0000 -5.7524 0.0000 20.8974
#
#
#
# Elastic Compliance Matrix: (Units=1/GPa)
#
#
# Indices 1 2 3 4 5 6 
#
# 1 0.011352 -0.001258 -0.001375 0.000000 -0.002612 0.000000
# 2 -0.001258 0.014217 -0.005381 0.000000 -0.004372 0.000000
# 3 -0.001375 -0.005381 0.008557 0.000000 0.000719 0.000000
# 4 0.000000 0.000000 0.000000 0.047020 0.000000 0.012943
# 5 -0.002612 -0.004372 0.000719 0.000000 0.041233 0.000000
# 6 0.000000 0.000000 0.000000 0.012943 0.000000 0.051416
#
#
# Mechanical properties :
#
#
# Convention : Reuss Voigt Hill
#
# Bulk Modulus (GPa) = 55.25251 65.52172 60.38712
# Shear Modulus (GPa) = 25.52912 30.09698 27.81305
#
# Velocity S-wave (km/s) = 3.43414 3.72874 3.58447
# Velocity P-wave (km/s) = 6.42251 6.98614 6.71025
#
# Compressibility (1/GPa) = 0.01809873
#
# Stress axis : x y z
#
# Youngs Moduli (GPa) = 88.09347 70.33846 116.86124
#
# Poissons Ratio (x) = 0.08849 0.16063
# Poissons Ratio (y) = 0.11082 0.62882
# Poissons Ratio (z) = 0.12109 0.37848
#
# Static dielectric constant tensor:
#      x y z
#    x 3.916860 0.000000 0.076440 
#    y 0.000000 3.668200 0.000000 
#    z 0.076440 0.000000 4.247040 
# 
# 
# High freq. dielectric constant tensor:
#      x y z
#    x 1.866230 0.000000 0.003670 
#    y 0.000000 1.816870 0.000000 
#    z 0.003670 0.000000 1.860570 
# 
# From -- ./inp_files/18034.got.cif
#   From: 2010.03.12/outbox.cif.g09.slc.cpg/sg8_10_cif.got.tgz:18034.got - 2010.03.31 10:45:26.
