data_PCOD8053116
_publ_section_title
;
Structure prediction by ZEFSAII (Michael W. Deem and Ramdas Pophale) SiO2 
 PCOD8053116
Probable space group: C M
;
_chemical_formula_sum "Si O2"
_cell_formula_units_Z 32
_cell_length_a 23.838601
_cell_length_b 9.071582
_cell_length_c 25.105164
_cell_angle_alpha 90.000000
_cell_angle_beta 17.941595
_cell_angle_gamma 90.000000
_cell_volume 1672.416166
_symmetry_space_group_name_H-M "C M"
_symmetry_group_IT_number 8
_symmetry_cell_setting 'monoclinic'
loop_
_space_group_symop_operation_xyz
x,y,z
x,-y,z
1/2+x,1/2+y,z
1/2+x,1/2-y,z
loop_
_atom_site_type_symbol
_atom_site_label
_atom_site_fract_x
_atom_site_fract_y
_atom_site_fract_z
Si Si1 0.623860 0.330050 0.465880
Si Si2 0.148263 0.674859 0.619568
Si Si3 0.643770 0.325445 0.327192
Si Si4 0.401548 0.169765 0.306170
Si Si5 0.242547 0.169037 0.960186
Si Si6 0.258595 0.324773 0.636386
Si Si7 0.266206 0.830709 0.816916
Si Si8 0.029403 0.675109 0.943085
O O1 0.558388 0.500000 0.524932
O O2 0.661324 0.272845 0.372366
O O3 0.806676 0.309443 0.334608
O O4 0.470302 0.230154 0.631035
O O5 0.166853 0.500000 0.597468
O O6 0.291314 0.746900 0.450979
O O7 0.193008 0.731883 0.638491
O O8 0.945545 0.728007 0.788302
O O9 0.635565 0.500000 0.332769
O O10 0.459810 0.260081 0.467263
O O11 0.819940 0.269763 0.135132
O O12 0.603644 0.235654 0.120503
O O13 0.414999 0.000000 0.310264
O O14 0.225820 0.000000 0.993835
O O15 0.194248 0.186153 0.941844
O O16 0.263635 0.500000 0.633140
O O17 0.117502 0.267050 0.808610
O O18 0.137002 0.737953 0.895840
O O19 0.267083 0.000000 0.797862
O O20 0.041764 0.500000 0.936244
#
# Coordination Sequence:
#
# PCOD8053116 Si02
#       8
#     4   4   4   4   4   4   4   4
#     4  10  19  34  56  82 112 144 181 228 281 334
#     4  10  21  39  60  83 113 151 193 237 283 331
#     4   9  17  31  55  86 109 134 180 232 274 318
#     4  11  23  37  59  88 114 147 189 235 287 337
#     4  10  22  38  57  83 117 152 187 229 281 342
#     4   9  18  33  57  84 107 141 191 235 272 319
#     4  11  21  34  55  84 114 147 182 222 280 339
#     4  10  19  34  57  82 112 144 181 230 276 326
#
# _framework density 19.133994000000001
#
# number of rings (size 3 to 8) (size 9 to 14) (size 15 to 20)
#    0.000    2.000    2.500    1.500    0.000    4.000 
#    0.000    5.000    0.000    1.500    0.000    0.000 
#    0.000    0.000    0.000    0.000    0.000    0.000 
#
# Total GULP energy -198423.584366 kJ/mol
# GULP energy per Si atom -12401.474023 kJ/mol
# Density = 1.909044 g / cm^3
# Si number density = 19.133994 Si / 1000 Ang^3
#
#
#
# Elastic Constant Matrix: (Units=GPa)
#
#
# Indices 1 2 3 4 5 6 
#
# 1 118.0184 24.8787 55.1293 -0.0067 9.7027 0.0013
# 2 24.8787 41.8497 43.2336 -0.0663 3.0706 0.0211
# 3 55.1293 43.2336 164.2125 -0.0631 3.4994 0.0140
# 4 -0.0067 -0.0663 -0.0631 24.6968 0.0066 0.3186
# 5 9.7027 3.0706 3.4994 0.0066 15.3366 0.0040
# 6 0.0013 0.0211 0.0140 0.3186 0.0040 21.7276
#
#
#
# Elastic Compliance Matrix: (Units=1/GPa)
#
#
# Indices 1 2 3 4 5 6 
#
# 1 0.010874 -0.003303 -0.002661 -0.000011 -0.005611 0.000005
# 2 -0.003303 0.034155 -0.007820 0.000072 -0.002964 -0.000028
# 3 -0.002661 -0.007820 0.009017 0.000001 0.001192 0.000002
# 4 -0.000011 0.000072 0.000001 0.040499 -0.000025 -0.000594
# 5 -0.005611 -0.002964 0.001192 -0.000025 0.069075 -0.000010
# 6 0.000005 -0.000028 0.000002 -0.000594 -0.000010 0.046033
#
#
# Mechanical properties :
#
#
# Convention : Reuss Voigt Hill
#
# Bulk Modulus (GPa) = 37.76981 63.39597 50.58289
# Shear Modulus (GPa) = 20.32125 25.74146 23.03136
#
# Velocity S-wave (km/s) = 3.26245 3.67185 3.47318
# Velocity P-wave (km/s) = 5.82871 7.15410 6.52515
#
# Compressibility (1/GPa) = 0.02647617
#
# Stress axis : x y z
#
# Youngs Moduli (GPa) = 91.96174 29.27814 110.90645
#
# Poissons Ratio (x) = 0.09672 0.29516
# Poissons Ratio (y) = 0.30378 0.86730
# Poissons Ratio (z) = 0.24474 0.22896
#
# Static dielectric constant tensor:
#      x y z
#    x 3.622840 -0.000040 -0.048340 
#    y -0.000040 3.216200 0.000030 
#    z -0.048340 0.000030 3.713300 
# 
# 
# High freq. dielectric constant tensor:
#      x y z
#    x 1.744140 0.000000 -0.000870 
#    y 0.000000 1.710830 0.000000 
#    z -0.000870 0.000000 1.757150 
# 
# From -- ./inp_files/32385.got.cif
#   From: 2010.03.12/outbox.cif.g09.slc.cpg/sg8_17_cif.got.tgz:32385.got - 2010.03.31 10:45:26.
