data_PCOD8053303
_publ_section_title
;
Structure prediction by ZEFSAII (Michael W. Deem and Ramdas Pophale) SiO2 
 PCOD8053303
Probable space group: C M
;
_chemical_formula_sum "Si O2"
_cell_formula_units_Z 32
_cell_length_a 19.444370
_cell_length_b 8.643341
_cell_length_c 23.848539
_cell_angle_alpha 90.000000
_cell_angle_beta 156.305017
_cell_angle_gamma 90.000000
_cell_volume 1610.720893
_symmetry_space_group_name_H-M "C M"
_symmetry_group_IT_number 8
_symmetry_cell_setting 'monoclinic'
loop_
_space_group_symop_operation_xyz
x,y,z
x,-y,z
1/2+x,1/2+y,z
1/2+x,1/2-y,z
loop_
_atom_site_type_symbol
_atom_site_label
_atom_site_fract_x
_atom_site_fract_y
_atom_site_fract_z
Si Si1 0.915070 0.325761 0.941190
Si Si2 0.944108 0.817131 0.240032
Si Si3 0.812905 0.816410 0.488013
Si Si4 0.296771 0.681333 0.247483
Si Si5 0.101892 0.176095 0.789579
Si Si6 0.460814 0.681628 0.481757
Si Si7 0.128992 0.679592 0.927313
Si Si8 0.319582 0.676743 0.759189
O O1 0.922206 0.500000 0.920641
O O2 0.774940 0.316951 0.884074
O O3 0.875177 0.201258 0.864334
O O4 0.097090 0.280091 0.102664
O O5 0.880375 0.751678 0.252718
O O6 0.804911 0.769764 0.089077
O O7 0.122985 0.739583 0.358582
O O8 0.969999 0.000000 0.260836
O O9 0.877240 0.747762 0.476170
O O10 0.942785 0.760533 0.633824
O O11 0.817809 0.000000 0.489242
O O12 0.331877 0.500000 0.273381
O O13 0.378089 0.756855 0.364086
O O14 0.066732 0.000000 0.783316
O O15 0.136797 0.289204 0.867229
O O16 0.428504 0.500000 0.458153
O O17 0.660952 0.713714 0.627514
O O18 0.093017 0.500000 0.912378
O O19 0.974331 0.781317 0.834366
O O20 0.266295 0.500000 0.709896
#
# Coordination Sequence:
#
# PCOD8053303 Si02
#       8
#     4   4   4   4   4   4   4   4
#     4  10  19  40  67  88 118 156 199 251 302 358
#     4  10  22  40  60  86 120 157 201 249 295 352
#     4  10  22  39  60  88 124 159 196 244 297 356
#     4   9  19  37  64  90 112 151 203 245 291 357
#     4  10  22  39  62  92 122 155 200 252 300 351
#     4  10  21  40  64  89 117 160 204 239 297 365
#     4  11  24  42  63  86 120 163 204 247 300 360
#     4  12  24  39  62  91 121 155 201 255 302 351
#
# _framework density 19.866880999999999
#
# number of rings (size 3 to 8) (size 9 to 14) (size 15 to 20)
#    0.000    1.750    2.500    1.500    3.500    2.500 
#    0.000    0.625    0.000    0.000    0.000    0.000 
#    0.000    0.000    0.000    0.000    0.000    0.000 
#
# Total GULP energy -198411.430724 kJ/mol
# GULP energy per Si atom -12400.714420 kJ/mol
# Density = 1.982166 g / cm^3
# Si number density = 19.866881 Si / 1000 Ang^3
#
#
#
# Elastic Constant Matrix: (Units=GPa)
#
#
# Indices 1 2 3 4 5 6 
#
# 1 122.1060 21.4782 78.7986 -0.0074 -16.7742 -0.0009
# 2 21.4782 22.2465 9.4838 -0.0065 -5.1825 -0.0032
# 3 78.7986 9.4838 161.7502 0.0058 -7.6890 -0.0040
# 4 -0.0074 -0.0065 0.0058 16.8260 -0.0031 -1.2773
# 5 -16.7742 -5.1825 -7.6890 -0.0031 42.7889 -0.0014
# 6 -0.0009 -0.0032 -0.0040 -1.2773 -0.0014 26.3741
#
#
#
# Elastic Compliance Matrix: (Units=1/GPa)
#
#
# Indices 1 2 3 4 5 6 
#
# 1 0.014598 -0.010626 -0.006332 0.000005 0.003298 -0.000001
# 2 -0.010626 0.054988 0.002089 0.000017 0.002870 0.000008
# 3 -0.006332 0.002089 0.009116 -0.000005 -0.000591 0.000001
# 4 0.000005 0.000017 -0.000005 0.059651 0.000008 0.002889
# 5 0.003298 0.002870 -0.000591 0.000008 0.024905 0.000002
# 6 -0.000001 0.000008 0.000001 0.002889 0.000002 0.038056
#
#
# Mechanical properties :
#
#
# Convention : Reuss Voigt Hill
#
# Bulk Modulus (GPa) = 20.42298 58.40267 39.41282
# Shear Modulus (GPa) = 20.21239 30.28729 25.24984
#
# Velocity S-wave (km/s) = 3.19312 3.90874 3.56891
# Velocity P-wave (km/s) = 4.88845 7.05916 6.07160
#
# Compressibility (1/GPa) = 0.04896444
#
# Stress axis : x y z
#
# Youngs Moduli (GPa) = 68.50348 18.18580 109.69287
#
# Poissons Ratio (x) = 0.19325 0.69454
# Poissons Ratio (y) = 0.72793 -0.22915
# Poissons Ratio (z) = 0.43374 -0.03799
#
# Static dielectric constant tensor:
#      x y z
#    x 3.818580 -0.000010 -0.145820 
#    y -0.000010 3.340790 0.000000 
#    z -0.145820 0.000000 3.770770 
# 
# 
# High freq. dielectric constant tensor:
#      x y z
#    x 1.785920 0.000000 -0.000340 
#    y 0.000000 1.744910 0.000000 
#    z -0.000340 0.000000 1.789480 
# 
# From -- ./inp_files/31631.got.cif
#   From: 2010.03.12/outbox.cif.g09.slc.cpg/sg8_16_cif.got.tgz:31631.got - 2010.03.31 10:45:26.
