data_PCOD8053403
_publ_section_title
;
Structure prediction by ZEFSAII (Michael W. Deem and Ramdas Pophale) SiO2 
 PCOD8053403
Probable space group: C M
;
_chemical_formula_sum "Si O2"
_cell_formula_units_Z 32
_cell_length_a 14.488796
_cell_length_b 9.369009
_cell_length_c 28.561750
_cell_angle_alpha 90.000000
_cell_angle_beta 151.435015
_cell_angle_gamma 90.000000
_cell_volume 1853.871632
_symmetry_space_group_name_H-M "C M"
_symmetry_group_IT_number 8
_symmetry_cell_setting 'monoclinic'
loop_
_space_group_symop_operation_xyz
x,y,z
x,-y,z
1/2+x,1/2+y,z
1/2+x,1/2-y,z
loop_
_atom_site_type_symbol
_atom_site_label
_atom_site_fract_x
_atom_site_fract_y
_atom_site_fract_z
Si Si1 0.798360 0.836759 0.121930
Si Si2 0.755671 0.165524 0.998126
Si Si3 0.408951 0.841333 0.992227
Si Si4 0.985251 0.667065 0.446522
Si Si5 0.497339 0.338599 0.823550
Si Si6 0.619499 0.833235 0.313814
Si Si7 0.105178 0.332918 0.603438
Si Si8 0.243704 0.334344 0.473316
O O1 0.915736 0.730865 0.207267
O O2 0.854074 0.000000 0.158968
O O3 0.835547 0.800786 0.084861
O O4 0.569129 0.808393 0.025069
O O5 0.928529 0.225377 0.042555
O O6 0.553470 0.245957 0.894807
O O7 0.718866 0.000000 0.973461
O O8 0.187168 0.832842 0.873582
O O9 0.443129 0.000000 0.028448
O O10 0.934087 0.500000 0.419639
O O11 0.786729 0.755104 0.358741
O O12 0.097988 0.701896 0.544907
O O13 0.113228 0.716652 0.459075
O O14 0.454363 0.500000 0.820714
O O15 0.312256 0.276970 0.713990
O O16 0.632867 0.804961 0.375312
O O17 0.629307 0.000000 0.306472
O O18 0.076081 0.500000 0.599025
O O19 0.942611 0.252854 0.561126
O O20 0.296318 0.500000 0.502368
#
# Coordination Sequence:
#
# PCOD8053403 Si02
#       8
#     4   4   4   4   4   4   4   4
#     4  10  20  35  53  73  98 134 172 204 244 297
#     4   9  18  32  50  73  98 127 167 210 246 283
#     4   8  17  34  51  68  99 135 165 202 243 291
#     4   9  18  35  55  75 100 132 167 202 244 299
#     4   8  16  33  52  71 103 137 164 201 245 292
#     4  10  21  34  51  75 103 131 162 207 255 294
#     4   9  17  32  54  76 100 133 169 201 241 294
#     4   9  19  35  52  75 103 129 162 207 252 294
#
# _framework density 17.261172999999999
#
# number of rings (size 3 to 8) (size 9 to 14) (size 15 to 20)
#    0.750    2.250    0.000    0.375    0.000    4.000 
#    2.250    3.750    0.000    0.000    0.000    0.000 
#    0.000    0.000    0.000    0.000    0.000    0.000 
#
# Total GULP energy -198234.193596 kJ/mol
# GULP energy per Si atom -12389.637100 kJ/mol
# Density = 1.722189 g / cm^3
# Si number density = 17.261173 Si / 1000 Ang^3
#
#
#
# Elastic Constant Matrix: (Units=GPa)
#
#
# Indices 1 2 3 4 5 6 
#
# 1 96.9485 33.2311 27.9900 0.0002 8.5942 0.0000
# 2 33.2311 59.7557 38.8183 0.0003 -0.0594 -0.0001
# 3 27.9900 38.8183 91.4130 0.0009 7.8567 -0.0002
# 4 0.0002 0.0003 0.0009 29.3684 -0.0001 2.1352
# 5 8.5942 -0.0594 7.8567 -0.0001 19.8575 0.0000
# 6 0.0000 -0.0001 -0.0002 2.1352 0.0000 25.9064
#
#
#
# Elastic Compliance Matrix: (Units=1/GPa)
#
#
# Indices 1 2 3 4 5 6 
#
# 1 0.013408 -0.007052 -0.000632 0.000000 -0.005574 0.000000
# 2 -0.007052 0.027144 -0.009976 0.000000 0.007080 0.000000
# 3 -0.000632 -0.009976 0.015889 0.000000 -0.006043 0.000000
# 4 0.000000 0.000000 0.000000 0.034255 0.000000 -0.002823
# 5 -0.005574 0.007080 -0.006043 0.000000 0.055183 0.000000
# 6 0.000000 0.000000 0.000000 -0.002823 0.000000 0.038833
#
#
# Mechanical properties :
#
#
# Convention : Reuss Voigt Hill
#
# Bulk Modulus (GPa) = 47.34479 49.79954 48.57216
# Shear Modulus (GPa) = 22.01940 24.89832 23.45886
#
# Velocity S-wave (km/s) = 3.57551 3.80208 3.69053
# Velocity P-wave (km/s) = 6.67336 6.94173 6.80887
#
# Compressibility (1/GPa) = 0.02112165
#
# Stress axis : x y z
#
# Youngs Moduli (GPa) = 74.57988 36.84068 62.93857
#
# Poissons Ratio (x) = 0.25979 0.03978
# Poissons Ratio (y) = 0.52591 0.62787
# Poissons Ratio (z) = 0.04714 0.36752
#
# Static dielectric constant tensor:
#      x y z
#    x 3.118380 0.000000 0.052190 
#    y 0.000000 3.216230 0.000000 
#    z 0.052190 0.000000 3.150870 
# 
# 
# High freq. dielectric constant tensor:
#      x y z
#    x 1.651990 0.000000 0.006160 
#    y 0.000000 1.668070 0.000000 
#    z 0.006160 0.000000 1.658250 
# 
# From -- ./inp_files/26413.got.cif
#   From: 2010.03.12/outbox.cif.g09.slc.cpg/sg8_14_cif.got.tgz:26413.got - 2010.03.31 10:45:26.
