data_PCOD8053062
_publ_section_title
;
Structure prediction by ZEFSAII (Michael W. Deem and Ramdas Pophale) SiO2 
 PCOD8053062
Probable space group: C M
;
_chemical_formula_sum "Si O2"
_cell_formula_units_Z 32
_cell_length_a 27.569948
_cell_length_b 9.197400
_cell_length_c 13.672414
_cell_angle_alpha 90.000000
_cell_angle_beta 30.305082
_cell_angle_gamma 90.000000
_cell_volume 1749.432077
_symmetry_space_group_name_H-M "C M"
_symmetry_group_IT_number 8
_symmetry_cell_setting 'monoclinic'
loop_
_space_group_symop_operation_xyz
x,y,z
x,-y,z
1/2+x,1/2+y,z
1/2+x,1/2-y,z
loop_
_atom_site_type_symbol
_atom_site_label
_atom_site_fract_x
_atom_site_fract_y
_atom_site_fract_z
Si Si1 0.424780 0.836347 0.773530
Si Si2 0.825082 0.336576 0.757948
Si Si3 0.835974 0.830918 0.316892
Si Si4 0.445798 0.329928 0.929262
Si Si5 0.612637 0.666996 0.095402
Si Si6 0.998835 0.166058 0.479455
Si Si7 0.116320 0.330457 0.727436
Si Si8 0.005892 0.669359 0.115428
O O1 0.329519 0.836357 0.870169
O O2 0.402022 0.744381 0.909448
O O3 0.510214 0.760754 0.559530
O O4 0.456198 0.000000 0.747205
O O5 0.847708 0.500000 0.681152
O O6 0.905910 0.224328 0.579081
O O7 0.723097 0.284770 0.894294
O O8 0.726214 0.779013 0.522184
O O9 0.903295 0.743196 0.273960
O O10 0.846632 0.000000 0.323905
O O11 0.869782 0.798077 0.147618
O O12 0.459965 0.500000 0.886872
O O13 0.549959 0.260974 0.769566
O O14 0.597103 0.500000 0.089854
O O15 0.588844 0.685496 0.251516
O O16 0.548173 0.770107 0.141947
O O17 0.982222 0.000000 0.538878
O O18 0.104789 0.500000 0.721758
O O19 0.082709 0.297108 0.896329
O O20 0.986687 0.500000 0.160724
#
# Coordination Sequence:
#
# PCOD8053062 Si02
#       8
#     4   4   4   4   4   4   4   4
#     4   9  18  35  55  74 106 143 171 210 261 305
#     4   8  18  35  52  72 102 139 173 209 257 305
#     4   9  19  37  57  77 105 138 172 212 259 311
#     4  10  19  33  55  81 106 134 173 215 257 306
#     4  10  20  36  55  75 104 142 176 211 260 310
#     4   9  18  33  53  75 101 133 174 218 254 298
#     4   9  19  37  56  76 105 138 172 212 259 311
#     4  10  21  34  53  80 107 135 173 217 259 306
#
# _framework density 18.291650000000001
#
# number of rings (size 3 to 8) (size 9 to 14) (size 15 to 20)
#    0.750    2.000    0.000    1.125    0.000    4.000 
#    2.250    3.750    0.000    0.000    0.000    0.000 
#    0.000    0.000    0.000    0.000    0.000    0.000 
#
# Total GULP energy -198298.674266 kJ/mol
# GULP energy per Si atom -12393.667142 kJ/mol
# Density = 1.825002 g / cm^3
# Si number density = 18.291650 Si / 1000 Ang^3
#
#
#
# Elastic Constant Matrix: (Units=GPa)
#
#
# Indices 1 2 3 4 5 6 
#
# 1 56.5743 25.6213 12.6586 0.0000 -0.8079 0.0000
# 2 25.6213 77.9842 26.0644 0.0000 -1.8451 0.0000
# 3 12.6586 26.0644 74.4796 0.0000 -13.4221 0.0000
# 4 0.0000 0.0000 0.0000 25.3277 0.0000 0.9610
# 5 -0.8079 -1.8451 -13.4221 0.0000 23.1728 0.0000
# 6 0.0000 0.0000 0.0000 0.9610 0.0000 33.4053
#
#
#
# Elastic Compliance Matrix: (Units=1/GPa)
#
#
# Indices 1 2 3 4 5 6 
#
# 1 0.020884 -0.006402 -0.001418 0.000000 -0.000603 0.000000
# 2 -0.006402 0.016567 -0.005038 0.000000 -0.001822 0.000000
# 3 -0.001418 -0.005038 0.017138 0.000000 0.009476 0.000000
# 4 0.000000 0.000000 0.000000 0.039526 0.000000 -0.001137
# 5 -0.000603 -0.001822 0.009476 0.000000 0.048477 0.000000
# 6 0.000000 0.000000 0.000000 -0.001137 0.000000 0.029968
#
#
# Mechanical properties :
#
#
# Convention : Reuss Voigt Hill
#
# Bulk Modulus (GPa) = 34.63314 37.52519 36.07916
# Shear Modulus (GPa) = 24.05014 26.02741 25.03877
#
# Velocity S-wave (km/s) = 3.62997 3.77624 3.70383
# Velocity P-wave (km/s) = 6.04515 6.29069 6.16914
#
# Compressibility (1/GPa) = 0.02887408
#
# Stress axis : x y z
#
# Youngs Moduli (GPa) = 47.88434 60.36070 58.34898
#
# Poissons Ratio (x) = 0.38641 0.08273
# Poissons Ratio (y) = 0.30654 0.29397
# Poissons Ratio (z) = 0.06789 0.30410
#
# Static dielectric constant tensor:
#      x y z
#    x 3.161630 0.000000 0.010240 
#    y 0.000000 3.412620 0.000000 
#    z 0.010240 0.000000 3.233410 
# 
# 
# High freq. dielectric constant tensor:
#      x y z
#    x 1.696150 0.000000 0.003540 
#    y 0.000000 1.716490 0.000000 
#    z 0.003540 0.000000 1.694840 
# 
# From -- ./inp_files/28381.got.cif
#   From: 2010.03.12/outbox.cif.g09.slc.cpg/sg8_15_cif.got.tgz:28381.got - 2010.03.31 10:45:26.
