data_PCOD8053327
_publ_section_title
;
Structure prediction by ZEFSAII (Michael W. Deem and Ramdas Pophale) SiO2 
 PCOD8053327
Probable space group: C M
;
_chemical_formula_sum "Si O2"
_cell_formula_units_Z 32
_cell_length_a 22.210740
_cell_length_b 9.111163
_cell_length_c 11.267130
_cell_angle_alpha 90.000000
_cell_angle_beta 131.015987
_cell_angle_gamma 90.000000
_cell_volume 1720.381023
_symmetry_space_group_name_H-M "C M"
_symmetry_group_IT_number 8
_symmetry_cell_setting 'monoclinic'
loop_
_space_group_symop_operation_xyz
x,y,z
x,-y,z
1/2+x,1/2+y,z
1/2+x,1/2-y,z
loop_
_atom_site_type_symbol
_atom_site_label
_atom_site_fract_x
_atom_site_fract_y
_atom_site_fract_z
Si Si1 0.709290 0.674432 0.489350
Si Si2 0.093490 0.828465 0.737681
Si Si3 0.055681 0.825690 0.428095
Si Si4 0.237793 0.669689 0.036101
Si Si5 0.511309 0.332491 0.871774
Si Si6 0.396137 0.670238 0.097779
Si Si7 0.871835 0.326116 0.818980
Si Si8 0.683982 0.329507 0.191911
O O1 0.705179 0.500000 0.484549
O O2 0.633188 0.738643 0.461419
O O3 0.789301 0.731472 0.655660
O O4 0.707197 0.731053 0.351372
O O5 0.056703 0.773170 0.566148
O O6 0.029540 0.795674 0.758024
O O7 0.115310 0.000000 0.763309
O O8 0.175791 0.744599 0.866582
O O9 0.976337 0.766325 0.261718
O O10 0.055664 0.000000 0.423544
O O11 0.215303 0.500000 0.017505
O O12 0.325945 0.694087 0.100610
O O13 0.235308 0.740113 0.163182
O O14 0.482373 0.500000 0.849275
O O15 0.443094 0.223907 0.826308
O O16 0.589872 0.304394 0.051758
O O17 0.405671 0.500000 0.075092
O O18 0.379527 0.760369 0.958677
O O19 0.873066 0.500000 0.830001
O O20 0.705359 0.500000 0.203551
#
# Coordination Sequence:
#
# PCOD8053327 Si02
#       8
#     4   4   4   4   4   4   4   4
#     4   9  18  32  52  77 101 130 172 218 256 294
#     4   9  18  34  57  79 100 136 179 210 244 301
#     4   9  17  33  56  76  97 131 178 219 246 292
#     4  10  20  33  52  80 110 135 163 209 265 307
#     4   9  18  33  54  78 103 134 171 209 252 303
#     4  10  21  36  54  76 103 136 172 212 258 305
#     4  11  22  34  52  78 105 134 170 213 261 308
#     4   9  18  35  57  76  99 138 181 210 242 300
#
# _framework density 18.600529999999999
#
# number of rings (size 3 to 8) (size 9 to 14) (size 15 to 20)
#    0.000    2.500    0.000    3.000    0.000    7.000 
#    0.000    3.125    0.000    3.750    0.000    0.000 
#    0.000    0.000    0.000    0.000    0.000    0.000 
#
# Total GULP energy -198428.020909 kJ/mol
# GULP energy per Si atom -12401.751307 kJ/mol
# Density = 1.855819 g / cm^3
# Si number density = 18.600530 Si / 1000 Ang^3
#
#
#
# Elastic Constant Matrix: (Units=GPa)
#
#
# Indices 1 2 3 4 5 6 
#
# 1 126.4949 50.5882 88.5762 0.0000 -2.7781 0.0000
# 2 50.5882 58.1906 46.7500 0.0000 0.5350 0.0000
# 3 88.5762 46.7500 175.6676 0.0000 -16.3800 0.0000
# 4 0.0000 0.0000 0.0000 21.5813 0.0000 -1.1745
# 5 -2.7781 0.5350 -16.3800 0.0000 33.5543 0.0000
# 6 0.0000 0.0000 0.0000 -1.1745 0.0000 30.9943
#
#
#
# Elastic Compliance Matrix: (Units=1/GPa)
#
#
# Indices 1 2 3 4 5 6 
#
# 1 0.015229 -0.008859 -0.005438 0.000000 -0.001252 0.000000
# 2 -0.008859 0.027375 -0.003067 0.000000 -0.002667 0.000000
# 3 -0.005438 -0.003067 0.009653 0.000000 0.004311 0.000000
# 4 0.000000 0.000000 0.000000 0.046432 0.000000 0.001760
# 5 -0.001252 -0.002667 0.004311 0.000000 0.031846 0.000000
# 6 0.000000 0.000000 0.000000 0.001760 0.000000 0.032331
#
#
# Mechanical properties :
#
#
# Convention : Reuss Voigt Hill
#
# Bulk Modulus (GPa) = 57.04923 81.35355 69.20139
# Shear Modulus (GPa) = 24.57788 28.85524 26.71656
#
# Velocity S-wave (km/s) = 3.63899 3.94294 3.79401
# Velocity P-wave (km/s) = 6.95655 8.03500 7.51515
#
# Compressibility (1/GPa) = 0.01752872
#
# Stress axis : x y z
#
# Youngs Moduli (GPa) = 65.66615 36.52980 103.59812
#
# Poissons Ratio (x) = 0.32361 0.56335
# Poissons Ratio (y) = 0.58172 0.31775
# Poissons Ratio (z) = 0.35708 0.11204
#
# Static dielectric constant tensor:
#      x y z
#    x 3.523630 0.000000 -0.094890 
#    y 0.000000 3.161410 0.000000 
#    z -0.094890 0.000000 3.638770 
# 
# 
# High freq. dielectric constant tensor:
#      x y z
#    x 1.732870 0.000000 -0.007030 
#    y 0.000000 1.692940 0.000000 
#    z -0.007030 0.000000 1.729170 
# 
# From -- ./inp_files/23873.got.cif
#   From: 2010.03.12/outbox.cif.g09.slc.cpg/sg8_12_cif.got.tgz:23873.got - 2010.03.31 10:45:26.
