data_PCOD8053822
_publ_section_title
;
Structure prediction by ZEFSAII (Michael W. Deem and Ramdas Pophale) SiO2 
 PCOD8053822
Probable space group: C M
;
_chemical_formula_sum "Si O2"
_cell_formula_units_Z 32
_cell_length_a 23.827327
_cell_length_b 9.017004
_cell_length_c 19.370890
_cell_angle_alpha 90.000000
_cell_angle_beta 156.712987
_cell_angle_gamma 90.000000
_cell_volume 1645.337391
_symmetry_space_group_name_H-M "C M"
_symmetry_group_IT_number 8
_symmetry_cell_setting 'monoclinic'
loop_
_space_group_symop_operation_xyz
x,y,z
x,-y,z
1/2+x,1/2+y,z
1/2+x,1/2-y,z
loop_
_atom_site_type_symbol
_atom_site_label
_atom_site_fract_x
_atom_site_fract_y
_atom_site_fract_z
Si Si1 0.595160 0.324240 0.306970
Si Si2 0.458492 0.323774 0.295654
Si Si3 0.401627 0.174663 0.607642
Si Si4 0.403541 0.668488 0.468168
Si Si5 0.644886 0.331417 0.635248
Si Si6 0.657338 0.330376 0.971138
Si Si7 0.436654 0.325354 0.992833
Si Si8 0.158515 0.831031 0.128630
O O1 0.591581 0.500000 0.298520
O O2 0.532582 0.268150 0.308745
O O3 0.758639 0.271478 0.484933
O O4 0.501376 0.259963 0.137396
O O5 0.438600 0.500000 0.274640
O O6 0.555598 0.269595 0.469164
O O7 0.305525 0.250579 0.127331
O O8 0.387879 0.216294 0.512302
O O9 0.423918 0.000000 0.640215
O O10 0.538088 0.256926 0.790108
O O11 0.373865 0.500000 0.458871
O O12 0.556551 0.680051 0.605926
O O13 0.289524 0.718492 0.282402
O O14 0.689486 0.500000 0.670195
O O15 0.782904 0.235854 0.803153
O O16 0.676120 0.500000 0.969173
O O17 0.602620 0.318370 0.987658
O O18 0.423128 0.500000 0.983102
O O19 0.536293 0.277431 0.042174
O O20 0.205617 0.000000 0.198712
#
# Coordination Sequence:
#
# PCOD8053822 Si02
#       8
#     4   4   4   4   4   4   4   4
#     4   9  20  39  62  86 115 153 201 245 285 350
#     4  10  21  41  62  85 119 161 200 240 293 354
#     4  11  23  41  64  88 118 159 201 244 299 357
#     4  11  22  39  62  89 120 153 198 252 297 348
#     4  10  23  39  58  88 123 154 195 246 295 350
#     4  11  24  40  60  91 123 155 199 249 296 350
#     4  10  21  39  61  87 117 154 201 245 291 352
#     4  10  21  40  63  86 119 157 199 247 296 353
#
# _framework density 19.448898
#
# number of rings (size 3 to 8) (size 9 to 14) (size 15 to 20)
#    0.000    1.750    2.500    1.125    3.500    2.500 
#    0.000    1.250    0.000    0.000    0.000    0.000 
#    0.000    0.000    0.000    0.000    0.000    0.000 
#
# Total GULP energy -198434.128251 kJ/mol
# GULP energy per Si atom -12402.133016 kJ/mol
# Density = 1.940463 g / cm^3
# Si number density = 19.448898 Si / 1000 Ang^3
#
#
#
# Elastic Constant Matrix: (Units=GPa)
#
#
# Indices 1 2 3 4 5 6 
#
# 1 104.5691 21.4168 22.2190 0.0000 5.4847 0.0000
# 2 21.4168 45.1459 27.2212 0.0000 8.1351 0.0000
# 3 22.2190 27.2212 105.0149 0.0000 10.9742 0.0000
# 4 0.0000 0.0000 0.0000 32.0640 0.0000 0.1633
# 5 5.4847 8.1351 10.9742 0.0000 28.3645 0.0000
# 6 0.0000 0.0000 0.0000 0.1633 0.0000 25.2638
#
#
#
# Elastic Compliance Matrix: (Units=1/GPa)
#
#
# Indices 1 2 3 4 5 6 
#
# 1 0.010707 -0.004346 -0.001097 0.000000 -0.000399 0.000000
# 2 -0.004346 0.028746 -0.006001 0.000000 -0.005083 0.000000
# 3 -0.001097 -0.006001 0.011576 0.000000 -0.002546 0.000000
# 4 0.000000 0.000000 0.000000 0.031189 0.000000 -0.000202
# 5 -0.000399 -0.005083 -0.002546 0.000000 0.037775 0.000000
# 6 0.000000 0.000000 0.000000 -0.000202 0.000000 0.039584
#
#
# Mechanical properties :
#
#
# Convention : Reuss Voigt Hill
#
# Bulk Modulus (GPa) = 35.53424 44.04931 39.79178
# Shear Modulus (GPa) = 26.06271 29.39665 27.72968
#
# Velocity S-wave (km/s) = 3.66466 3.89200 3.78003
# Velocity P-wave (km/s) = 6.01801 6.54941 6.28933
#
# Compressibility (1/GPa) = 0.02814187
#
# Stress axis : x y z
#
# Youngs Moduli (GPa) = 93.39501 34.78734 86.38504
#
# Poissons Ratio (x) = 0.15118 0.09478
# Poissons Ratio (y) = 0.40588 0.51837
# Poissons Ratio (z) = 0.10247 0.20875
#
# Static dielectric constant tensor:
#      x y z
#    x 3.840120 0.000000 -0.069930 
#    y 0.000000 3.399880 0.000000 
#    z -0.069930 0.000000 3.553010 
# 
# 
# High freq. dielectric constant tensor:
#      x y z
#    x 1.770050 0.000000 -0.001660 
#    y 0.000000 1.743400 0.000000 
#    z -0.001660 0.000000 1.763670 
# 
# From -- ./inp_files/15814.got.cif
#   From: 2010.03.12/outbox.cif.g09.slc.cpg/sg8_8_cif.got.tgz:15814.got - 2010.03.31 10:45:26.
