data_PCOD8053385
_publ_section_title
;
Structure prediction by ZEFSAII (Michael W. Deem and Ramdas Pophale) SiO2 
 PCOD8053385
Probable space group: C M
;
_chemical_formula_sum "Si O2"
_cell_formula_units_Z 32
_cell_length_a 25.302472
_cell_length_b 8.549737
_cell_length_c 16.776434
_cell_angle_alpha 90.000000
_cell_angle_beta 153.999417
_cell_angle_gamma 90.000000
_cell_volume 1590.986091
_symmetry_space_group_name_H-M "C M"
_symmetry_group_IT_number 8
_symmetry_cell_setting 'monoclinic'
loop_
_space_group_symop_operation_xyz
x,y,z
x,-y,z
1/2+x,1/2+y,z
1/2+x,1/2-y,z
loop_
_atom_site_type_symbol
_atom_site_label
_atom_site_fract_x
_atom_site_fract_y
_atom_site_fract_z
Si Si1 0.201560 0.323200 0.096090
Si Si2 0.675671 0.314444 0.295119
Si Si3 0.307769 0.321154 0.074451
Si Si4 0.608486 0.186413 0.688307
Si Si5 0.561640 0.182799 0.450227
Si Si6 0.489050 0.181083 0.920631
Si Si7 0.730908 0.183912 0.539854
Si Si8 0.873315 0.679824 0.446421
O O1 0.239282 0.500000 0.171730
O O2 0.209859 0.300928 0.012517
O O3 0.293265 0.200524 0.258804
O O4 0.066958 0.290419 0.945787
O O5 0.664331 0.500000 0.269205
O O6 0.681423 0.270737 0.394914
O O7 0.798780 0.248405 0.420054
O O8 0.560453 0.236649 0.096197
O O9 0.351769 0.500000 0.128504
O O10 0.423249 0.213803 0.241489
O O11 0.238613 0.268380 0.900353
O O12 0.595907 0.258230 0.582463
O O13 0.503352 0.257094 0.603582
O O14 0.592222 0.000000 0.663368
O O15 0.649550 0.250956 0.501767
O O16 0.583073 0.000000 0.484469
O O17 0.368810 0.280553 0.746935
O O18 0.454818 0.000000 0.884181
O O19 0.713961 0.000000 0.504407
O O20 0.893525 0.500000 0.492821
#
# Coordination Sequence:
#
# PCOD8053385 Si02
#       8
#     4   4   4   4   4   4   4   4
#     4   9  18  32  54  84 120 149 180 230 288 345
#     4  10  21  37  60  89 118 154 197 243 296 352
#     4  10  20  34  57  86 114 147 188 233 284 345
#     4   9  18  34  57  82 110 146 185 229 283 340
#     4  10  22  41  59  79 113 153 194 239 285 337
#     4  10  21  38  60  87 122 158 193 240 295 350
#     4  11  24  40  59  84 117 160 207 247 287 345
#     4   9  17  32  58  83 112 149 188 229 284 350
#
# _framework density 20.113313000000002
#
# number of rings (size 3 to 8) (size 9 to 14) (size 15 to 20)
#    0.000    2.250    1.250    1.125    1.750    3.000 
#    0.000    2.500    0.000    0.000    0.000    0.000 
#    0.000    0.000    0.000    0.000    0.000    0.000 
#
# Total GULP energy -198340.575497 kJ/mol
# GULP energy per Si atom -12396.285969 kJ/mol
# Density = 2.006753 g / cm^3
# Si number density = 20.113313 Si / 1000 Ang^3
#
#
#
# Elastic Constant Matrix: (Units=GPa)
#
#
# Indices 1 2 3 4 5 6 
#
# 1 125.3672 13.8991 61.2912 0.0000 -0.9790 0.0000
# 2 13.8991 21.3558 0.4589 0.0000 -0.4157 0.0000
# 3 61.2912 0.4589 108.5722 0.0000 -5.6687 0.0000
# 4 0.0000 0.0000 0.0000 31.0294 0.0000 -0.8561
# 5 -0.9790 -0.4157 -5.6687 0.0000 27.5723 0.0000
# 6 0.0000 0.0000 0.0000 -0.8561 0.0000 21.2140
#
#
#
# Elastic Compliance Matrix: (Units=1/GPa)
#
#
# Indices 1 2 3 4 5 6 
#
# 1 0.012220 -0.007826 -0.006923 0.000000 -0.001108 0.000000
# 2 -0.007826 0.051855 0.004271 0.000000 0.001382 0.000000
# 3 -0.006923 0.004271 0.013233 0.000000 0.002539 0.000000
# 4 0.000000 0.000000 0.000000 0.032263 0.000000 0.001302
# 5 -0.001108 0.001382 0.002539 0.000000 0.036772 0.000000
# 6 0.000000 0.000000 0.000000 0.001302 0.000000 0.047191
#
#
# Mechanical properties :
#
#
# Convention : Reuss Voigt Hill
#
# Bulk Modulus (GPa) = 17.74588 45.17706 31.46147
# Shear Modulus (GPa) = 21.43386 27.93954 24.68670
#
# Velocity S-wave (km/s) = 3.26798 3.73112 3.50720
# Velocity P-wave (km/s) = 4.80434 6.40872 5.66363
#
# Compressibility (1/GPa) = 0.05635111
#
# Stress axis : x y z
#
# Youngs Moduli (GPa) = 81.83027 19.28472 75.56632
#
# Poissons Ratio (x) = 0.15093 0.52318
# Poissons Ratio (y) = 0.64043 -0.32275
# Poissons Ratio (z) = 0.56655 -0.08237
#
# Static dielectric constant tensor:
#      x y z
#    x 3.974900 0.000000 -0.016930 
#    y 0.000000 3.409930 0.000000 
#    z -0.016930 0.000000 3.520810 
# 
# 
# High freq. dielectric constant tensor:
#      x y z
#    x 1.791400 0.000000 -0.000570 
#    y 0.000000 1.760140 0.000000 
#    z -0.000570 0.000000 1.782030 
# 
# From -- ./inp_files/24794.got.cif
#   From: 2010.03.12/outbox.cif.g09.slc.cpg/sg8_13_cif.got.tgz:24794.got - 2010.03.31 10:45:26.
