data_PCOD8053325
_publ_section_title
;
Structure prediction by ZEFSAII (Michael W. Deem and Ramdas Pophale) SiO2 
 PCOD8053325
Probable space group: C M
;
_chemical_formula_sum "Si O2"
_cell_formula_units_Z 32
_cell_length_a 19.708518
_cell_length_b 8.916551
_cell_length_c 14.159644
_cell_angle_alpha 90.000000
_cell_angle_beta 134.246367
_cell_angle_gamma 90.000000
_cell_volume 1782.486111
_symmetry_space_group_name_H-M "C M"
_symmetry_group_IT_number 8
_symmetry_cell_setting 'monoclinic'
loop_
_space_group_symop_operation_xyz
x,y,z
x,-y,z
1/2+x,1/2+y,z
1/2+x,1/2-y,z
loop_
_atom_site_type_symbol
_atom_site_label
_atom_site_fract_x
_atom_site_fract_y
_atom_site_fract_z
Si Si1 0.022700 0.677164 0.477320
Si Si2 0.669580 0.323660 0.981585
Si Si3 0.504166 0.676609 0.962205
Si Si4 0.513702 0.323616 0.180867
Si Si5 0.662602 0.677379 0.475173
Si Si6 0.040259 0.675040 0.711557
Si Si7 0.877235 0.674892 0.694468
Si Si8 0.870972 0.177674 0.200792
O O1 0.014959 0.500000 0.455788
O O2 0.117698 0.738323 0.520826
O O3 0.028949 0.722600 0.592642
O O4 0.928893 0.753238 0.344146
O O5 0.687055 0.500000 0.992183
O O6 0.598322 0.279078 0.996524
O O7 0.627399 0.266264 0.841421
O O8 0.766450 0.241942 0.099373
O O9 0.490752 0.500000 0.952562
O O10 0.411764 0.743272 0.822416
O O11 0.510816 0.748281 0.073637
O O12 0.516946 0.500000 0.171599
O O13 0.608150 0.270615 0.327422
O O14 0.421662 0.275801 0.151775
O O15 0.650595 0.500000 0.479805
O O16 0.770925 0.727219 0.568375
O O17 0.063391 0.500000 0.745110
O O18 0.942501 0.718436 0.668903
O O19 0.881126 0.500000 0.719164
O O20 0.868796 0.000000 0.211315
#
# Coordination Sequence:
#
# PCOD8053325 Si02
#       8
#     4   4   4   4   4   4   4   4
#     4  10  20  34  53  76 101 131 169 210 248 292
#     4  10  20  33  52  77 103 131 165 208 252 295
#     4   9  18  33  52  73  98 128 163 204 246 290
#     4   8  16  32  52  71  93 127 167 200 237 290
#     4   9  18  33  52  73  98 130 165 203 249 296
#     4   9  19  35  53  73 100 135 171 206 246 294
#     4   9  18  33  52  73  98 129 165 203 244 294
#     4  10  20  35  54  74 101 135 167 204 250 299
#
# _framework density 17.952453999999999
#
# number of rings (size 3 to 8) (size 9 to 14) (size 15 to 20)
#    0.000    2.750    0.000    1.875    0.000    4.000 
#    0.000   10.625    0.000    3.000    0.000    0.000 
#    0.000    0.000    0.000    0.000    0.000    0.000 
#
# Total GULP energy -198402.271697 kJ/mol
# GULP energy per Si atom -12400.141981 kJ/mol
# Density = 1.791159 g / cm^3
# Si number density = 17.952454 Si / 1000 Ang^3
#
#
#
# Elastic Constant Matrix: (Units=GPa)
#
#
# Indices 1 2 3 4 5 6 
#
# 1 62.1142 21.7288 46.8274 0.0000 -12.5978 0.0000
# 2 21.7288 44.3949 32.4019 0.0000 -1.4626 0.0000
# 3 46.8274 32.4019 90.9122 0.0000 -8.3640 0.0000
# 4 0.0000 0.0000 0.0000 33.4523 0.0000 1.9614
# 5 -12.5978 -1.4626 -8.3640 0.0000 41.9621 0.0000
# 6 0.0000 0.0000 0.0000 1.9614 0.0000 25.3606
#
#
#
# Elastic Compliance Matrix: (Units=1/GPa)
#
#
# Indices 1 2 3 4 5 6 
#
# 1 0.028205 -0.004597 -0.012352 0.000000 0.005845 0.000000
# 2 -0.004597 0.031246 -0.008959 0.000000 -0.002077 0.000000
# 3 -0.012352 -0.008959 0.020562 0.000000 0.000078 0.000000
# 4 0.000000 0.000000 0.000000 0.030030 0.000000 -0.002323
# 5 0.005845 -0.002077 0.000078 0.000000 0.025529 0.000000
# 6 0.000000 0.000000 0.000000 -0.002323 0.000000 0.039611
#
#
# Mechanical properties :
#
#
# Convention : Reuss Voigt Hill
#
# Bulk Modulus (GPa) = 35.46554 44.37084 39.91819
# Shear Modulus (GPa) = 21.15081 26.58588 23.86835
#
# Velocity S-wave (km/s) = 3.43615 3.85243 3.65023
# Velocity P-wave (km/s) = 5.96163 6.67515 6.32845
#
# Compressibility (1/GPa) = 0.02819638
#
# Stress axis : x y z
#
# Youngs Moduli (GPa) = 35.45480 32.00430 48.63301
#
# Poissons Ratio (x) = 0.14713 0.60070
# Poissons Ratio (y) = 0.16299 0.43572
# Poissons Ratio (z) = 0.43793 0.28674
#
# Static dielectric constant tensor:
#      x y z
#    x 3.463460 0.000000 -0.076930 
#    y 0.000000 3.205890 0.000000 
#    z -0.076930 0.000000 3.495710 
# 
# 
# High freq. dielectric constant tensor:
#      x y z
#    x 1.694150 0.000000 -0.000030 
#    y 0.000000 1.684980 0.000000 
#    z -0.000030 0.000000 1.702290 
# 
# From -- ./inp_files/27752.got.cif
#   From: 2010.03.12/outbox.cif.g09.slc.cpg/sg8_14_cif.got.tgz:27752.got - 2010.03.31 10:45:26.
