data_PCOD8053201
_publ_section_title
;
Structure prediction by ZEFSAII (Michael W. Deem and Ramdas Pophale) SiO2 
 PCOD8053201
Probable space group: C M
;
_chemical_formula_sum "Si O2"
_cell_formula_units_Z 32
_cell_length_a 20.365602
_cell_length_b 8.652133
_cell_length_c 12.063351
_cell_angle_alpha 90.000000
_cell_angle_beta 52.284205
_cell_angle_gamma 90.000000
_cell_volume 1681.492907
_symmetry_space_group_name_H-M "C M"
_symmetry_group_IT_number 8
_symmetry_cell_setting 'monoclinic'
loop_
_space_group_symop_operation_xyz
x,y,z
x,-y,z
1/2+x,1/2+y,z
1/2+x,1/2-y,z
loop_
_atom_site_type_symbol
_atom_site_label
_atom_site_fract_x
_atom_site_fract_y
_atom_site_fract_z
Si Si1 0.742080 0.820968 0.556590
Si Si2 0.987268 0.179046 0.827808
Si Si3 0.634984 0.321530 0.843698
Si Si4 0.099150 0.319957 0.538358
Si Si5 0.907912 0.179458 0.264636
Si Si6 0.083305 0.679371 0.120682
Si Si7 0.158329 0.820469 0.258773
Si Si8 0.347343 0.179786 0.102536
O O1 0.717706 0.723005 0.690167
O O2 0.684484 0.772758 0.512105
O O3 0.836826 0.783772 0.428039
O O4 0.728928 0.000000 0.598179
O O5 0.055004 0.215994 0.852000
O O6 0.022243 0.229617 0.672468
O O7 0.963692 0.000000 0.848596
O O8 0.905498 0.278471 0.938294
O O9 0.638875 0.500000 0.873484
O O10 0.629852 0.219414 0.958763
O O11 0.080700 0.500000 0.567584
O O12 0.106013 0.273330 0.403539
O O13 0.874717 0.216747 0.177344
O O14 0.986133 0.283199 0.213904
O O15 0.933744 0.000000 0.239878
O O16 0.095144 0.500000 0.134838
O O17 0.124630 0.779908 0.173387
O O18 0.254575 0.774422 0.164769
O O19 0.145287 0.000000 0.296274
O O20 0.355741 0.000000 0.124412
#
# Coordination Sequence:
#
# PCOD8053201 Si02
#       8
#     4   4   4   4   4   4   4   4
#     4   9  19  34  57  87 118 151 189 238 289 343
#     4  10  20  34  57  87 119 154 192 240 293 341
#     4  10  20  35  57  85 118 154 192 238 291 344
#     4  10  19  35  58  86 119 153 194 239 290 345
#     4  11  21  37  60  88 120 152 193 242 291 344
#     4  12  25  40  60  85 118 158 199 240 292 350
#     4  11  24  41  60  85 120 157 196 240 294 351
#     4  11  22  36  59  89 118 151 195 245 290 342
#
# _framework density 19.030708000000001
#
# number of rings (size 3 to 8) (size 9 to 14) (size 15 to 20)
#    0.000    1.500    2.500    3.375    0.000    4.000 
#    0.000    1.250    0.000    6.000    0.000    0.000 
#    0.000    0.000    0.000    0.000    0.000    0.000 
#
# Total GULP energy -198495.617743 kJ/mol
# GULP energy per Si atom -12405.976109 kJ/mol
# Density = 1.898739 g / cm^3
# Si number density = 19.030708 Si / 1000 Ang^3
#
#
#
# Elastic Constant Matrix: (Units=GPa)
#
#
# Indices 1 2 3 4 5 6 
#
# 1 69.4617 10.5613 33.9668 0.0000 2.1128 0.0000
# 2 10.5613 48.3311 25.4831 0.0000 -1.9452 0.0000
# 3 33.9668 25.4831 123.9936 0.0000 -0.9138 0.0000
# 4 0.0000 0.0000 0.0000 37.9104 0.0000 1.6468
# 5 2.1128 -1.9452 -0.9138 0.0000 20.3250 0.0000
# 6 0.0000 0.0000 0.0000 1.6468 0.0000 26.8954
#
#
#
# Elastic Compliance Matrix: (Units=1/GPa)
#
#
# Indices 1 2 3 4 5 6 
#
# 1 0.016793 -0.001480 -0.004311 0.000000 -0.002081 0.000000
# 2 -0.001480 0.023418 -0.004391 0.000000 0.002198 0.000000
# 3 -0.004311 -0.004391 0.010152 0.000000 0.000484 0.000000
# 4 0.000000 0.000000 0.000000 0.026448 0.000000 -0.001619
# 5 -0.002081 0.002198 0.000484 0.000000 0.049649 0.000000
# 6 0.000000 0.000000 0.000000 -0.001619 0.000000 0.037280
#
#
# Mechanical properties :
#
#
# Convention : Reuss Voigt Hill
#
# Bulk Modulus (GPa) = 33.33612 42.42319 37.87966
# Shear Modulus (GPa) = 25.75924 28.47781 27.11853
#
# Velocity S-wave (km/s) = 3.68307 3.87255 3.77900
# Velocity P-wave (km/s) = 5.97007 6.50660 6.24410
#
# Compressibility (1/GPa) = 0.02999749
#
# Stress axis : x y z
#
# Youngs Moduli (GPa) = 59.54835 42.70254 98.50225
#
# Poissons Ratio (x) = 0.06320 0.42469
# Poissons Ratio (y) = 0.08814 0.43254
# Poissons Ratio (z) = 0.25674 0.18751
#
# Static dielectric constant tensor:
#      x y z
#    x 3.326670 0.000000 -0.186840 
#    y 0.000000 3.490360 0.000000 
#    z -0.186840 0.000000 3.677300 
# 
# 
# High freq. dielectric constant tensor:
#      x y z
#    x 1.707320 0.000000 -0.006210 
#    y 0.000000 1.750940 0.000000 
#    z -0.006210 0.000000 1.755860 
# 
# From -- ./inp_files/23840.got.cif
#   From: 2010.03.12/outbox.cif.g09.slc.cpg/sg8_12_cif.got.tgz:23840.got - 2010.03.31 10:45:26.
