data_PCOD8053126
_publ_section_title
;
Structure prediction by ZEFSAII (Michael W. Deem and Ramdas Pophale) SiO2 
 PCOD8053126
Probable space group: C M
;
_chemical_formula_sum "Si O2"
_cell_formula_units_Z 32
_cell_length_a 23.991236
_cell_length_b 8.950948
_cell_length_c 14.303200
_cell_angle_alpha 90.000000
_cell_angle_beta 147.295599
_cell_angle_gamma 90.000000
_cell_volume 1659.563293
_symmetry_space_group_name_H-M "C M"
_symmetry_group_IT_number 8
_symmetry_cell_setting 'monoclinic'
loop_
_space_group_symop_operation_xyz
x,y,z
x,-y,z
1/2+x,1/2+y,z
1/2+x,1/2-y,z
loop_
_atom_site_type_symbol
_atom_site_label
_atom_site_fract_x
_atom_site_fract_y
_atom_site_fract_z
Si Si1 0.681260 0.823711 0.515610
Si Si2 0.059497 0.173693 0.023437
Si Si3 0.806720 0.827399 0.993949
Si Si4 0.138555 0.176899 0.647041
Si Si5 0.905506 0.177481 0.325390
Si Si6 0.278483 0.322344 0.322645
Si Si7 0.861332 0.177252 0.635985
Si Si8 0.505112 0.329833 0.157828
O O1 0.688820 0.744532 0.625465
O O2 0.776024 0.762098 0.587669
O O3 0.575972 0.783517 0.314642
O O4 0.687077 0.000000 0.539438
O O5 0.161906 0.267199 0.151881
O O6 0.011583 0.204860 0.057472
O O7 0.085609 0.000000 0.047183
O O8 0.975114 0.229340 0.828498
O O9 0.853655 0.764699 0.156825
O O10 0.888059 0.804768 0.024942
O O11 0.775305 0.000000 0.959751
O O12 0.704714 0.731980 0.828809
O O13 0.022278 0.237532 0.495545
O O14 0.141045 0.000000 0.644071
O O15 0.841728 0.240351 0.323477
O O16 0.906948 0.000000 0.328299
O O17 0.276394 0.500000 0.320361
O O18 0.334659 0.260324 0.495245
O O19 0.856110 0.000000 0.628710
O O20 0.539608 0.500000 0.229224
#
# Coordination Sequence:
#
# PCOD8053126 Si02
#       8
#     4   4   4   4   4   4   4   4
#     4  11  20  34  58  86 113 148 187 226 277 338
#     4  10  20  35  56  82 111 146 183 228 282 331
#     4  10  20  38  59  82 112 150 186 227 282 338
#     4  11  22  38  58  86 114 146 186 231 281 335
#     4   9  20  38  59  78 109 151 188 228 284 333
#     4  10  20  38  59  80 107 147 193 234 272 324
#     4   9  19  35  56  81 112 147 183 220 274 336
#     4  10  19  34  57  81 114 151 184 226 284 337
#
# _framework density 19.282181000000001
#
# number of rings (size 3 to 8) (size 9 to 14) (size 15 to 20)
#    0.000    2.000    2.500    1.500    0.000    3.500 
#    0.000    6.250    0.000    0.000    0.000    0.000 
#    0.000    0.000    0.000    0.000    0.000    0.000 
#
# Total GULP energy -198433.402662 kJ/mol
# GULP energy per Si atom -12402.087666 kJ/mol
# Density = 1.923829 g / cm^3
# Si number density = 19.282181 Si / 1000 Ang^3
#
#
#
# Elastic Constant Matrix: (Units=GPa)
#
#
# Indices 1 2 3 4 5 6 
#
# 1 152.0468 29.0127 74.4361 0.0000 0.2621 0.0000
# 2 29.0127 41.5714 34.2838 0.0000 -0.7282 0.0000
# 3 74.4361 34.2838 166.6827 0.0000 -6.3262 0.0000
# 4 0.0000 0.0000 0.0000 34.8832 0.0000 1.0409
# 5 0.2621 -0.7282 -6.3262 0.0000 15.1696 0.0000
# 6 0.0000 0.0000 0.0000 1.0409 0.0000 21.1530
#
#
#
# Elastic Compliance Matrix: (Units=1/GPa)
#
#
# Indices 1 2 3 4 5 6 
#
# 1 0.008864 -0.003490 -0.003305 0.000000 -0.001699 0.000000
# 2 -0.003490 0.030362 -0.004703 0.000000 -0.000443 0.000000
# 3 -0.003305 -0.004703 0.008572 0.000000 0.003406 0.000000
# 4 0.000000 0.000000 0.000000 0.028709 0.000000 -0.001413
# 5 -0.001699 -0.000443 0.003406 0.000000 0.067350 0.000000
# 6 0.000000 0.000000 0.000000 -0.001413 0.000000 0.047344
#
#
# Mechanical properties :
#
#
# Convention : Reuss Voigt Hill
#
# Bulk Modulus (GPa) = 40.32107 70.64067 55.48087
# Shear Modulus (GPa) = 22.47552 29.07902 25.77727
#
# Velocity S-wave (km/s) = 3.41781 3.88761 3.66025
# Velocity P-wave (km/s) = 6.04414 7.54096 6.83366
#
# Compressibility (1/GPa) = 0.02480093
#
# Stress axis : x y z
#
# Youngs Moduli (GPa) = 112.81827 32.93623 116.65976
#
# Poissons Ratio (x) = 0.11496 0.38555
# Poissons Ratio (y) = 0.39376 0.54866
# Poissons Ratio (z) = 0.37286 0.15490
#
# Static dielectric constant tensor:
#      x y z
#    x 3.714910 0.000000 -0.095720 
#    y 0.000000 3.221500 0.000000 
#    z -0.095720 0.000000 3.690350 
# 
# 
# High freq. dielectric constant tensor:
#      x y z
#    x 1.752520 0.000000 -0.003730 
#    y 0.000000 1.718320 0.000000 
#    z -0.003730 0.000000 1.763470 
# 
# From -- ./inp_files/26519.got.cif
#   From: 2010.03.12/outbox.cif.g09.slc.cpg/sg8_14_cif.got.tgz:26519.got - 2010.03.31 10:45:26.
