data_PCOD8053253
_publ_section_title
;
Structure prediction by ZEFSAII (Michael W. Deem and Ramdas Pophale) SiO2 
 PCOD8053253
Probable space group: C M
;
_chemical_formula_sum "Si O2"
_cell_formula_units_Z 32
_cell_length_a 24.224055
_cell_length_b 8.664801
_cell_length_c 19.666489
_cell_angle_alpha 90.000000
_cell_angle_beta 22.815205
_cell_angle_gamma 90.000000
_cell_volume 1600.646824
_symmetry_space_group_name_H-M "C M"
_symmetry_group_IT_number 8
_symmetry_cell_setting 'monoclinic'
loop_
_space_group_symop_operation_xyz
x,y,z
x,-y,z
1/2+x,1/2+y,z
1/2+x,1/2-y,z
loop_
_atom_site_type_symbol
_atom_site_label
_atom_site_fract_x
_atom_site_fract_y
_atom_site_fract_z
Si Si1 0.069960 0.328539 0.973440
Si Si2 0.575508 0.318334 0.481352
Si Si3 0.759321 0.820095 0.879549
Si Si4 0.090489 0.818023 0.195817
Si Si5 0.016944 0.820485 0.895012
Si Si6 0.708938 0.183275 0.200078
Si Si7 0.285931 0.814914 0.507415
Si Si8 0.771595 0.327929 0.374927
O O1 0.096284 0.500000 0.912870
O O2 0.200593 0.273750 0.871751
O O3 0.041183 0.208630 0.946748
O O4 0.938373 0.331215 0.173585
O O5 0.596711 0.500000 0.443904
O O6 0.425141 0.280873 0.686662
O O7 0.596760 0.233901 0.385319
O O8 0.689239 0.246714 0.406038
O O9 0.729933 0.000000 0.927699
O O10 0.685987 0.723286 0.022217
O O11 0.165486 0.752049 0.177416
O O12 0.931925 0.751110 0.371168
O O13 0.079650 0.000000 0.214373
O O14 0.153357 0.750847 0.701425
O O15 0.011639 0.000000 0.886910
O O16 0.866488 0.750440 0.040316
O O17 0.708743 0.000000 0.195006
O O18 0.253005 0.748352 0.469338
O O19 0.298920 0.000000 0.492597
O O20 0.706755 0.500000 0.452710
#
# Coordination Sequence:
#
# PCOD8053253 Si02
#       8
#     4   4   4   4   4   4   4   4
#     4  10  19  36  61  86 118 157 198 245 297 356
#     4  10  21  38  63  92 121 158 203 248 296 358
#     4  10  22  40  63  89 120 160 202 246 301 361
#     4  12  26  42  61  88 123 162 205 252 303 360
#     4  10  23  39  62  92 121 157 201 250 301 357
#     4  11  24  42  62  87 125 165 202 249 304 361
#     4  10  21  41  64  89 120 159 204 247 301 361
#     4   9  17  34  62  87 112 152 199 245 293 350
#
# _framework density 19.991917999999998
#
# number of rings (size 3 to 8) (size 9 to 14) (size 15 to 20)
#    0.000    1.750    2.500    1.500    3.500    2.000 
#    0.000    0.625    0.000    0.000    0.000    0.000 
#    0.000    0.000    0.000    0.000    0.000    0.000 
#
# Total GULP energy -198377.882418 kJ/mol
# GULP energy per Si atom -12398.617651 kJ/mol
# Density = 1.994642 g / cm^3
# Si number density = 19.991918 Si / 1000 Ang^3
#
#
#
# Elastic Constant Matrix: (Units=GPa)
#
#
# Indices 1 2 3 4 5 6 
#
# 1 120.4127 28.6563 40.5202 -0.0001 1.5389 0.0001
# 2 28.6563 56.5620 30.9193 -0.0011 0.9260 0.0006
# 3 40.5202 30.9193 110.0254 0.0000 3.4025 0.0003
# 4 -0.0001 -0.0011 0.0000 22.2980 0.0004 3.8320
# 5 1.5389 0.9260 3.4025 0.0004 32.8118 0.0000
# 6 0.0001 0.0006 0.0003 3.8320 0.0000 26.2348
#
#
#
# Elastic Compliance Matrix: (Units=1/GPa)
#
#
# Indices 1 2 3 4 5 6 
#
# 1 0.010075 -0.003634 -0.002686 0.000000 -0.000091 0.000000
# 2 -0.003634 0.022200 -0.004902 0.000001 0.000052 -0.000001
# 3 -0.002686 -0.004902 0.011484 0.000000 -0.000927 0.000000
# 4 0.000000 0.000001 0.000000 0.046002 -0.000001 -0.006719
# 5 -0.000091 0.000052 -0.000927 -0.000001 0.030576 0.000000
# 6 0.000000 -0.000001 0.000000 -0.006719 0.000000 0.039099
#
#
# Mechanical properties :
#
#
# Convention : Reuss Voigt Hill
#
# Bulk Modulus (GPa) = 46.91718 54.13243 50.52480
# Shear Modulus (GPa) = 26.45723 28.72919 27.59321
#
# Velocity S-wave (km/s) = 3.64180 3.79494 3.71916
# Velocity P-wave (km/s) = 6.41893 6.80721 6.61592
#
# Compressibility (1/GPa) = 0.02131415
#
# Stress axis : x y z
#
# Youngs Moduli (GPa) = 99.25758 45.04579 87.07611
#
# Poissons Ratio (x) = 0.16371 0.23390
# Poissons Ratio (y) = 0.36074 0.42682
# Poissons Ratio (z) = 0.26663 0.22080
#
# Static dielectric constant tensor:
#      x y z
#    x 3.776940 0.000000 -0.108840 
#    y 0.000000 3.379730 0.000000 
#    z -0.108840 0.000000 3.775820 
# 
# 
# High freq. dielectric constant tensor:
#      x y z
#    x 1.796740 0.000000 -0.003280 
#    y 0.000000 1.749670 0.000000 
#    z -0.003280 0.000000 1.789620 
# 
# From -- ./inp_files/31625.got.cif
#   From: 2010.03.12/outbox.cif.g09.slc.cpg/sg8_16_cif.got.tgz:31625.got - 2010.03.31 10:45:26.
