data_PCOD8053750
_publ_section_title
;
Structure prediction by ZEFSAII (Michael W. Deem and Ramdas Pophale) SiO2 
 PCOD8053750
Probable space group: C M
;
_chemical_formula_sum "Si O2"
_cell_formula_units_Z 28
_cell_length_a 13.781759
_cell_length_b 13.540574
_cell_length_c 20.658864
_cell_angle_alpha 90.000000
_cell_angle_beta 160.813459
_cell_angle_gamma 90.000000
_cell_volume 1266.995078
_symmetry_space_group_name_H-M "C M"
_symmetry_group_IT_number 8
_symmetry_cell_setting 'monoclinic'
loop_
_space_group_symop_operation_xyz
x,y,z
x,-y,z
1/2+x,1/2+y,z
1/2+x,1/2-y,z
loop_
_atom_site_type_symbol
_atom_site_label
_atom_site_fract_x
_atom_site_fract_y
_atom_site_fract_z
Si Si1 0.548460 0.887885 0.701470
Si Si2 0.588757 0.613808 0.133927
Si Si3 0.824102 0.216289 0.758304
Si Si4 0.345033 0.113771 0.011378
Si Si5 0.238887 0.112056 0.796295
Si Si6 0.638868 0.783724 0.416001
Si Si7 0.711428 0.249807 0.317778
O O1 0.716961 0.868982 0.739975
O O2 0.269419 0.814697 0.532797
O O3 0.432438 0.000000 0.629691
O O4 0.775401 0.867740 0.902784
O O5 0.682501 0.500000 0.190393
O O6 0.568728 0.652425 0.194799
O O7 0.841625 0.680258 0.261095
O O8 0.901768 0.314650 0.848837
O O9 0.563511 0.240620 0.543864
O O10 0.093501 0.180286 0.885537
O O11 0.363258 0.131990 0.946400
O O12 0.288803 0.000000 0.992716
O O13 0.647536 0.152268 0.234009
O O14 0.887351 0.131058 0.574862
O O15 0.299566 0.000000 0.812724
O O16 0.559092 0.759851 0.291562
#
# Coordination Sequence:
#
# PCOD8053750 Si02
#       7
#     4   4   4   4   4   4   4
#     4   9  19  36  58  85 119 156 194 240 294 349
#     4  11  22  39  64  89 116 156 201 242 290 350
#     4  10  21  36  60  88 122 156 195 244 294 349
#     4  11  22  39  64  89 116 156 201 242 290 350
#     4   9  19  36  58  85 119 156 194 240 294 349
#     4  10  21  36  60  88 122 156 195 244 294 349
#     4  10  22  36  56  92 122 146 194 252 292 338
#
# _framework density 22.099534999999999
#
# number of rings (size 3 to 8) (size 9 to 14) (size 15 to 20)
#    0.000    2.286    0.000    4.286    0.000    8.000 
#    0.000    1.429    0.000   25.714    0.000    0.000 
#    0.000    0.000    0.000    0.000    0.000    0.000 
#
# Total GULP energy -173589.505718 kJ/mol
# GULP energy per Si atom -12399.250408 kJ/mol
# Density = 2.204924 g / cm^3
# Si number density = 22.099535 Si / 1000 Ang^3
#
#
#
# Elastic Constant Matrix: (Units=GPa)
#
#
# Indices 1 2 3 4 5 6 
#
# 1 61.5819 61.2747 51.7167 -0.0001 -25.4723 -0.0120
# 2 61.2747 190.6521 72.9823 -0.2061 -15.0967 -0.0331
# 3 51.7167 72.9823 109.8315 -1.0565 -38.7679 -0.3020
# 4 -0.0001 -0.2061 -1.0565 31.8302 0.0718 -1.3314
# 5 -25.4723 -15.0967 -38.7679 0.0718 31.0358 -0.0717
# 6 -0.0120 -0.0331 -0.3020 -1.3314 -0.0717 31.4228
#
#
#
# Elastic Compliance Matrix: (Units=1/GPa)
#
#
# Indices 1 2 3 4 5 6 
#
# 1 0.037064 -0.008566 -0.004464 -0.000250 0.020677 -0.000001
# 2 -0.008566 0.009355 -0.005472 -0.000103 -0.009315 -0.000072
# 3 -0.004464 -0.005472 0.022568 0.000676 0.021864 0.000288
# 4 -0.000250 -0.000103 0.000676 0.031493 0.000520 0.001342
# 5 0.020677 -0.009315 0.021864 0.000520 0.071971 0.000394
# 6 -0.000001 -0.000072 0.000288 0.001342 0.000394 0.031885
#
#
# Mechanical properties :
#
#
# Convention : Reuss Voigt Hill
#
# Bulk Modulus (GPa) = 31.26761 81.55698 56.41229
# Shear Modulus (GPa) = 19.84121 30.59720 25.21920
#
# Velocity S-wave (km/s) = 2.99960 3.72495 3.38178
# Velocity P-wave (km/s) = 5.11625 7.44881 6.38987
#
# Compressibility (1/GPa) = 0.03198198
#
# Stress axis : x y z
#
# Youngs Moduli (GPa) = 26.98060 106.89074 44.31115
#
# Poissons Ratio (x) = 0.91565 0.19780
# Poissons Ratio (y) = 0.23112 0.24248
# Poissons Ratio (z) = 0.12044 0.58494
#
# Static dielectric constant tensor:
#      x y z
#    x 3.786950 -0.000060 -0.399530 
#    y -0.000060 4.153370 -0.000030 
#    z -0.399530 -0.000030 4.095930 
# 
# 
# High freq. dielectric constant tensor:
#      x y z
#    x 1.860160 0.000000 -0.021800 
#    y 0.000000 1.872790 -0.000020 
#    z -0.021800 -0.000020 1.876880 
# 
# From -- ./inp_files/30897.got.cif
#   From: 2010.03.12/outbox.cif.g09.slc.cpg/sg8_16_cif.got.tgz:30897.got - 2010.03.31 10:45:26.
