data_PCOD8053903
_publ_section_title
;
Structure prediction by ZEFSAII (Michael W. Deem and Ramdas Pophale) SiO2 
 PCOD8053903
Probable space group: C M
;
_chemical_formula_sum "Si O2"
_cell_formula_units_Z 28
_cell_length_a 14.795170
_cell_length_b 9.291859
_cell_length_c 9.968652
_cell_angle_alpha 90.000000
_cell_angle_beta 94.876395
_cell_angle_gamma 90.000000
_cell_volume 1365.476350
_symmetry_space_group_name_H-M "C M"
_symmetry_group_IT_number 8
_symmetry_cell_setting 'monoclinic'
loop_
_space_group_symop_operation_xyz
x,y,z
x,-y,z
1/2+x,1/2+y,z
1/2+x,1/2-y,z
loop_
_atom_site_type_symbol
_atom_site_label
_atom_site_fract_x
_atom_site_fract_y
_atom_site_fract_z
Si Si1 0.651010 0.329172 0.377260
Si Si2 0.530591 0.662066 0.917398
Si Si3 0.478244 0.330795 0.199401
Si Si4 0.243420 0.660247 0.615698
Si Si5 0.727088 0.749893 0.896020
Si Si6 0.275220 0.663084 0.191253
Si Si7 0.886830 0.338564 0.752791
O O1 0.663946 0.500000 0.396103
O O2 0.548006 0.286766 0.325451
O O3 0.671604 0.248803 0.518380
O O4 0.715253 0.274207 0.266410
O O5 0.491543 0.500000 0.899827
O O6 0.638143 0.653686 0.906778
O O7 0.480619 0.761278 0.802321
O O8 0.510882 0.732621 0.060498
O O9 0.479159 0.500000 0.179790
O O10 0.377694 0.278733 0.223726
O O11 0.257134 0.500000 0.558251
O O12 0.207727 0.647294 0.764808
O O13 0.339304 0.747544 0.626110
O O14 0.816169 0.654910 0.870133
O O15 0.748488 0.840417 0.031538
O O16 0.264334 0.500000 0.244677
O O17 0.908351 0.500000 0.706813
#
# Coordination Sequence:
#
# PCOD8053903 Si02
#       7
#     4   4   4   4   4   4   4
#     4  11  23  41  63  89 123 163 204 254 308 365
#     4  11  20  37  63  91 123 163 203 247 309 371
#     4   9  19  37  59  87 121 160 202 243 296 365
#     4  10  22  43  65  87 122 167 207 252 306 367
#     4  10  22  37  66  91 121 159 205 256 300 365
#     4  11  21  39  65  91 119 158 206 255 305 365
#     4  10  22  38  59  90 123 154 199 257 306 356
#
# _framework density 20.505666000000002
#
# number of rings (size 3 to 8) (size 9 to 14) (size 15 to 20)
#    0.857    0.857    2.857    2.143    0.000    1.714 
#    2.571    1.429    0.000    0.000    0.000    0.000 
#    0.000    0.000    0.000    0.000    0.000    0.000 
#
# Total GULP energy -173503.607974 kJ/mol
# GULP energy per Si atom -12393.114855 kJ/mol
# Density = 2.045899 g / cm^3
# Si number density = 20.505666 Si / 1000 Ang^3
#
#
#
# Elastic Constant Matrix: (Units=GPa)
#
#
# Indices 1 2 3 4 5 6 
#
# 1 100.9976 27.2450 34.0843 0.0000 25.6357 0.0000
# 2 27.2450 121.4000 40.6032 0.0000 19.6332 0.0000
# 3 34.0843 40.6032 120.5000 0.0000 24.7492 0.0000
# 4 0.0000 0.0000 0.0000 23.9677 0.0000 5.7124
# 5 25.6357 19.6332 24.7492 0.0000 33.4888 0.0000
# 6 0.0000 0.0000 0.0000 5.7124 0.0000 23.4519
#
#
#
# Elastic Compliance Matrix: (Units=1/GPa)
#
#
# Indices 1 2 3 4 5 6 
#
# 1 0.012746 -0.001031 -0.001625 0.000000 -0.007952 0.000000
# 2 -0.001031 0.009771 -0.002342 0.000000 -0.003208 0.000000
# 3 -0.001625 -0.002342 0.010622 0.000000 -0.005234 0.000000
# 4 0.000000 0.000000 0.000000 0.044294 0.000000 -0.010789
# 5 -0.007952 -0.003208 -0.005234 0.000000 0.041697 0.000000
# 6 0.000000 0.000000 0.000000 -0.010789 0.000000 0.045268
#
#
# Mechanical properties :
#
#
# Convention : Reuss Voigt Hill
#
# Bulk Modulus (GPa) = 43.20749 60.75140 51.97945
# Shear Modulus (GPa) = 27.45623 32.24603 29.85113
#
# Velocity S-wave (km/s) = 3.66315 3.96983 3.81957
# Velocity P-wave (km/s) = 6.24566 7.12065 6.69746
#
# Compressibility (1/GPa) = 0.02314413
#
# Stress axis : x y z
#
# Youngs Moduli (GPa) = 78.45551 102.34692 94.14183
#
# Poissons Ratio (x) = 0.10553 0.15295
# Poissons Ratio (y) = 0.08090 0.22045
# Poissons Ratio (z) = 0.12746 0.23966
#
# Static dielectric constant tensor:
#      x y z
#    x 3.699920 0.000000 0.252270 
#    y 0.000000 3.381880 0.000000 
#    z 0.252270 0.000000 3.646700 
# 
# 
# High freq. dielectric constant tensor:
#      x y z
#    x 1.793400 0.000000 0.019580 
#    y 0.000000 1.783990 0.000000 
#    z 0.019580 0.000000 1.796970 
# 
# From -- ./inp_files/21400.got.cif
#   From: 2010.03.12/outbox.cif.g09.slc.cpg/sg8_11_cif.got.tgz:21400.got - 2010.03.31 10:45:26.
