data_PCOD8053069
_publ_section_title
;
Structure prediction by ZEFSAII (Michael W. Deem and Ramdas Pophale) SiO2 
 PCOD8053069
Probable space group: C M
;
_chemical_formula_sum "Si O2"
_cell_formula_units_Z 32
_cell_length_a 19.808237
_cell_length_b 8.640003
_cell_length_c 12.133165
_cell_angle_alpha 90.000000
_cell_angle_beta 126.167766
_cell_angle_gamma 90.000000
_cell_volume 1676.350055
_symmetry_space_group_name_H-M "C M"
_symmetry_group_IT_number 8
_symmetry_cell_setting 'monoclinic'
loop_
_space_group_symop_operation_xyz
x,y,z
x,-y,z
1/2+x,1/2+y,z
1/2+x,1/2-y,z
loop_
_atom_site_type_symbol
_atom_site_label
_atom_site_fract_x
_atom_site_fract_y
_atom_site_fract_z
Si Si1 0.328780 0.819074 0.156620
Si Si2 0.907823 0.321755 0.901835
Si Si3 0.720469 0.320030 0.678658
Si Si4 0.691168 0.178704 0.874794
Si Si5 0.975617 0.179388 0.183685
Si Si6 0.709930 0.679836 0.235904
Si Si7 0.152628 0.679531 0.393708
Si Si8 0.576217 0.176306 0.958419
O O1 0.415078 0.725427 0.226867
O O2 0.287505 0.770493 0.233227
O O3 0.348299 0.000000 0.171271
O O4 0.266348 0.779954 0.996484
O O5 0.908399 0.500000 0.942030
O O6 0.818364 0.274897 0.765746
O O7 0.976980 0.293642 0.872821
O O8 0.926742 0.214051 0.023977
O O9 0.707780 0.500000 0.688231
O O10 0.675075 0.228960 0.734033
O O11 0.676111 0.275917 0.523373
O O12 0.606056 0.209357 0.862148
O O13 0.717776 0.000000 0.906282
O O14 0.058665 0.281292 0.267595
O O15 0.999616 0.000000 0.214451
O O16 0.713103 0.500000 0.268568
O O17 0.714774 0.775598 0.353712
O O18 0.623415 0.712432 0.089127
O O19 0.161635 0.500000 0.429023
O O20 0.598553 0.000000 0.013395
#
# Coordination Sequence:
#
# PCOD8053069 Si02
#       8
#     4   4   4   4   4   4   4   4
#     4  10  20  35  57  86 119 153 191 240 292 341
#     4  10  20  36  59  86 116 152 192 237 288 341
#     4  11  23  39  59  83 117 156 197 242 292 348
#     4  10  19  33  55  85 118 152 193 238 287 341
#     4  12  23  36  59  89 118 149 196 247 290 344
#     4  10  20  35  57  86 117 151 193 239 289 344
#     4  12  25  41  60  82 117 158 198 242 297 353
#     4   9  18  33  56  85 116 151 190 235 285 340
#
# _framework density 19.089092000000001
#
# number of rings (size 3 to 8) (size 9 to 14) (size 15 to 20)
#    0.000    1.500    2.500    3.750    0.000    2.500 
#    0.000    1.250    0.000    6.000    0.000    0.000 
#    0.000    0.000    0.000    0.000    0.000    0.000 
#
# Total GULP energy -198454.739034 kJ/mol
# GULP energy per Si atom -12403.421190 kJ/mol
# Density = 1.904564 g / cm^3
# Si number density = 19.089092 Si / 1000 Ang^3
#
#
#
# Elastic Constant Matrix: (Units=GPa)
#
#
# Indices 1 2 3 4 5 6 
#
# 1 119.7483 27.6590 26.8954 0.0000 -14.9270 0.0000
# 2 27.6590 60.3223 9.7709 0.0000 -1.4332 0.0000
# 3 26.8954 9.7709 57.2990 0.0000 -14.4726 0.0000
# 4 0.0000 0.0000 0.0000 29.4895 0.0000 -3.3385
# 5 -14.9270 -1.4332 -14.4726 0.0000 26.6574 0.0000
# 6 0.0000 0.0000 0.0000 -3.3385 0.0000 31.0272
#
#
#
# Elastic Compliance Matrix: (Units=1/GPa)
#
#
# Indices 1 2 3 4 5 6 
#
# 1 0.010540 -0.004215 -0.003239 0.000000 0.003917 0.000000
# 2 -0.004215 0.018748 -0.001808 0.000000 -0.002334 0.000000
# 3 -0.003239 -0.001808 0.021786 0.000000 0.009917 0.000000
# 4 0.000000 0.000000 0.000000 0.034329 0.000000 0.003694
# 5 0.003917 -0.002334 0.009917 0.000000 0.044965 0.000000
# 6 0.000000 0.000000 0.000000 0.003694 0.000000 0.032627
#
#
# Mechanical properties :
#
#
# Convention : Reuss Voigt Hill
#
# Bulk Modulus (GPa) = 30.72291 40.66891 35.69591
# Shear Modulus (GPa) = 25.99174 28.97111 27.48142
#
# Velocity S-wave (km/s) = 3.69399 3.89997 3.79838
# Velocity P-wave (km/s) = 5.85863 6.45218 6.16256
#
# Compressibility (1/GPa) = 0.03254900
#
# Stress axis : x y z
#
# Youngs Moduli (GPa) = 94.87450 53.33976 45.90132
#
# Poissons Ratio (x) = 0.22483 0.14869
# Poissons Ratio (y) = 0.39991 0.08299
# Poissons Ratio (z) = 0.30733 0.09643
#
# Static dielectric constant tensor:
#      x y z
#    x 3.874190 0.000000 -0.094620 
#    y 0.000000 3.486930 0.000000 
#    z -0.094620 0.000000 3.102940 
# 
# 
# High freq. dielectric constant tensor:
#      x y z
#    x 1.761890 0.000000 -0.010410 
#    y 0.000000 1.749770 0.000000 
#    z -0.010410 0.000000 1.701980 
# 
# From -- ./inp_files/23729.got.cif
#   From: 2010.03.12/outbox.cif.g09.slc.cpg/sg8_12_cif.got.tgz:23729.got - 2010.03.31 10:45:26.
