data_PCOD8053124
_publ_section_title
;
Structure prediction by ZEFSAII (Michael W. Deem and Ramdas Pophale) SiO2 
 PCOD8053124
Probable space group: C M
;
_chemical_formula_sum "Si O2"
_cell_formula_units_Z 32
_cell_length_a 28.026089
_cell_length_b 9.129684
_cell_length_c 21.328335
_cell_angle_alpha 90.000000
_cell_angle_beta 18.394920
_cell_angle_gamma 90.000000
_cell_volume 1722.121922
_symmetry_space_group_name_H-M "C M"
_symmetry_group_IT_number 8
_symmetry_cell_setting 'monoclinic'
loop_
_space_group_symop_operation_xyz
x,y,z
x,-y,z
1/2+x,1/2+y,z
1/2+x,1/2-y,z
loop_
_atom_site_type_symbol
_atom_site_label
_atom_site_fract_x
_atom_site_fract_y
_atom_site_fract_z
Si Si1 0.941900 0.168502 0.988050
Si Si2 0.409598 0.332188 0.374226
Si Si3 0.999334 0.829385 0.694955
Si Si4 0.658510 0.169242 0.125464
Si Si5 0.477437 0.165453 0.478160
Si Si6 0.229896 0.835365 0.697822
Si Si7 0.130381 0.830354 0.395607
Si Si8 0.629660 0.171775 0.646662
O O1 0.048506 0.180742 0.917528
O O2 0.020277 0.243890 0.830949
O O3 0.911749 0.000000 0.007584
O O4 0.785631 0.243409 0.198989
O O5 0.454990 0.500000 0.323236
O O6 0.566059 0.242667 0.183152
O O7 0.303033 0.289645 0.564785
O O8 0.307952 0.301027 0.439268
O O9 0.052030 0.799573 0.559055
O O10 0.105430 0.734412 0.607715
O O11 0.012105 0.000000 0.697216
O O12 0.828554 0.769794 0.915338
O O13 0.579904 0.202875 0.289845
O O14 0.662786 0.000000 0.103785
O O15 0.298979 0.183633 0.681771
O O16 0.514668 0.277282 0.486673
O O17 0.510567 0.000000 0.459592
O O18 0.277511 0.000000 0.614790
O O19 0.165325 0.000000 0.341402
O O20 0.590758 0.000000 0.698642
#
# Coordination Sequence:
#
# PCOD8053124 Si02
#       8
#     4   4   4   4   4   4   4   4
#     4  10  19  34  57  80 104 137 173 210 257 309
#     4   9  17  29  49  80 109 128 156 206 261 306
#     4  10  22  38  53  72 103 142 180 216 255 303
#     4   9  18  34  55  76  99 132 174 212 250 305
#     4   9  17  32  55  79 100 128 169 214 260 310
#     4   8  16  31  52  77 101 129 168 209 251 305
#     4  11  23  36  50  74 107 140 177 218 257 301
#     4  10  20  34  55  82 107 132 169 215 259 307
#
# _framework density 18.581727999999998
#
# number of rings (size 3 to 8) (size 9 to 14) (size 15 to 20)
#    0.000    2.500    0.000    3.000    0.000    6.500 
#    0.000    1.250    0.000    6.000    0.000    0.000 
#    0.000    0.000    0.000    0.000    0.000    0.000 
#
# Total GULP energy -198318.155151 kJ/mol
# GULP energy per Si atom -12394.884697 kJ/mol
# Density = 1.853943 g / cm^3
# Si number density = 18.581728 Si / 1000 Ang^3
#
#
#
# Elastic Constant Matrix: (Units=GPa)
#
#
# Indices 1 2 3 4 5 6 
#
# 1 124.4969 69.3797 58.8510 0.0001 -28.1780 0.0000
# 2 69.3797 95.2633 36.7633 -0.0049 -11.6085 0.0000
# 3 58.8510 36.7633 37.0992 -0.0050 -13.0949 -0.0002
# 4 0.0001 -0.0049 -0.0050 25.1515 0.0002 -5.3626
# 5 -28.1780 -11.6085 -13.0949 0.0002 27.3892 0.0002
# 6 0.0000 0.0000 -0.0002 -5.3626 0.0002 31.3033
#
#
#
# Elastic Compliance Matrix: (Units=1/GPa)
#
#
# Indices 1 2 3 4 5 6 
#
# 1 0.037767 -0.007397 -0.048087 -0.000012 0.012729 -0.000002
# 2 -0.007397 0.018470 -0.007810 0.000002 -0.003516 0.000000
# 3 -0.048087 -0.007810 0.111092 0.000022 0.000332 0.000004
# 4 -0.000012 0.000002 0.000022 0.041266 -0.000001 0.007069
# 5 0.012729 -0.003516 0.000332 -0.000001 0.048274 -0.000001
# 6 -0.000002 0.000000 0.000004 0.007069 -0.000001 0.033157
#
#
# Mechanical properties :
#
#
# Convention : Reuss Voigt Hill
#
# Bulk Modulus (GPa) = 24.54520 65.20526 44.87523
# Shear Modulus (GPa) = 11.62266 22.89317 17.25792
#
# Velocity S-wave (km/s) = 2.50369 3.51383 3.05086
# Velocity P-wave (km/s) = 4.64714 7.18540 6.05086
#
# Compressibility (1/GPa) = 0.04074117
#
# Stress axis : x y z
#
# Youngs Moduli (GPa) = 26.47839 54.14266 9.00152
#
# Poissons Ratio (x) = 0.40048 0.43286
# Poissons Ratio (y) = 0.19585 0.07030
# Poissons Ratio (z) = 1.27327 0.42284
#
# Static dielectric constant tensor:
#      x y z
#    x 3.503380 0.000000 -0.445560 
#    y 0.000000 3.487820 0.000000 
#    z -0.445560 0.000000 3.369600 
# 
# 
# High freq. dielectric constant tensor:
#      x y z
#    x 1.715790 0.000000 -0.037580 
#    y 0.000000 1.726810 0.000000 
#    z -0.037580 0.000000 1.701770 
# 
# From -- ./inp_files/31059.got.cif
#   From: 2010.03.12/outbox.cif.g09.slc.cpg/sg8_16_cif.got.tgz:31059.got - 2010.03.31 10:45:26.
