data_PCOD8053310
_publ_section_title
;
Structure prediction by ZEFSAII (Michael W. Deem and Ramdas Pophale) SiO2 
 PCOD8053310
Probable space group: C M
;
_chemical_formula_sum "Si O2"
_cell_formula_units_Z 32
_cell_length_a 25.671461
_cell_length_b 8.648768
_cell_length_c 24.453905
_cell_angle_alpha 90.000000
_cell_angle_beta 162.282086
_cell_angle_gamma 90.000000
_cell_volume 1652.338832
_symmetry_space_group_name_H-M "C M"
_symmetry_group_IT_number 8
_symmetry_cell_setting 'monoclinic'
loop_
_space_group_symop_operation_xyz
x,y,z
x,-y,z
1/2+x,1/2+y,z
1/2+x,1/2-y,z
loop_
_atom_site_type_symbol
_atom_site_label
_atom_site_fract_x
_atom_site_fract_y
_atom_site_fract_z
Si Si1 0.031880 0.316167 0.931420
Si Si2 0.840898 0.315280 0.046168
Si Si3 0.220814 0.183545 0.692917
Si Si4 0.222873 0.684721 0.428139
Si Si5 0.342957 0.316456 0.315054
Si Si6 0.331737 0.172697 0.917489
Si Si7 0.232003 0.672698 0.317748
Si Si8 0.531876 0.316310 0.811241
O O1 0.031867 0.500000 0.928344
O O2 0.863196 0.251505 0.793660
O O3 0.031866 0.249987 0.871203
O O4 0.200587 0.251519 0.131040
O O5 0.839698 0.500000 0.041348
O O6 0.031886 0.259516 0.254786
O O7 0.795191 0.247057 0.939854
O O8 0.701327 0.254148 0.949640
O O9 0.244284 0.255724 0.777590
O O10 0.031889 0.228480 0.482098
O O11 0.245002 0.000000 0.721221
O O12 0.224090 0.500000 0.425739
O O13 0.268567 0.752939 0.413223
O O14 0.362448 0.745862 0.610752
O O15 0.318778 0.500000 0.294994
O O16 0.319439 0.244266 0.352737
O O17 0.257031 0.000000 0.846439
O O18 0.531869 0.169303 0.105513
O O19 0.306710 0.500000 0.396107
O O20 0.531869 0.500000 0.813203
#
# Coordination Sequence:
#
# PCOD8053310 Si02
#       8
#     4   4   4   4   4   4   4   4
#     4  10  20  34  46  64  96 126 153 188 224 264
#     4   8  15  26  41  65  95 119 143 184 233 272
#     4   9  16  25  41  65  92 120 148 183 230 275
#     4   8  15  26  41  65  95 119 143 184 233 272
#     4   9  16  25  41  65  92 120 148 183 230 275
#     4   8  12  21  38  62  94 119 136 177 238 280
#     4   8  12  21  38  62  94 119 136 177 238 280
#     4  10  20  32  48  68  90 124 161 186 216 268
#
# _framework density 19.366489000000001
#
# number of rings (size 3 to 8) (size 9 to 14) (size 15 to 20)
#    0.000    3.250    1.250    1.500    1.750    1.000 
#    0.000    0.000    0.000    0.000    0.000    1.750 
#    0.000    0.000    0.000    0.000    0.000    0.000 
#
# Total GULP energy -198211.161850 kJ/mol
# GULP energy per Si atom -12388.197616 kJ/mol
# Density = 1.932241 g / cm^3
# Si number density = 19.366489 Si / 1000 Ang^3
#
#
#
# Elastic Constant Matrix: (Units=GPa)
#
#
# Indices 1 2 3 4 5 6 
#
# 1 179.2663 9.2142 112.3280 -0.0025 -2.3411 -0.0013
# 2 9.2142 4.1782 9.6056 -0.0022 0.1088 -0.0014
# 3 112.3280 9.6056 169.2110 -0.0024 -0.5649 -0.0002
# 4 -0.0025 -0.0022 -0.0024 5.4771 -0.0015 -3.8819
# 5 -2.3411 0.1088 -0.5649 -0.0015 29.8919 0.0002
# 6 -0.0013 -0.0014 -0.0002 -3.8819 0.0002 19.1495
#
#
#
# Elastic Compliance Matrix: (Units=1/GPa)
#
#
# Indices 1 2 3 4 5 6 
#
# 1 0.009772 -0.007659 -0.006050 -0.000001 0.000679 0.000000
# 2 -0.007659 0.281312 -0.010891 0.000139 -0.001830 0.000049
# 3 -0.006050 -0.010891 0.010543 -0.000004 -0.000235 -0.000002
# 4 -0.000001 0.000139 -0.000004 0.213214 0.000010 0.043222
# 5 0.000679 -0.001830 -0.000235 0.000010 0.033509 0.000002
# 6 0.000000 0.000049 -0.000002 0.043222 0.000002 0.060983
#
#
# Mechanical properties :
#
#
# Convention : Reuss Voigt Hill
#
# Bulk Modulus (GPa) = 3.96153 68.32789 36.14471
# Shear Modulus (GPa) = 6.73243 25.67087 16.20165
#
# Velocity S-wave (km/s) = 1.86651 3.64473 2.89551
# Velocity P-wave (km/s) = 2.58750 7.28493 5.46651
#
# Compressibility (1/GPa) = 0.25242766
#
# Stress axis : x y z
#
# Youngs Moduli (GPa) = 102.33840 3.55477 94.84783
#
# Poissons Ratio (x) = 0.02723 0.57379
# Poissons Ratio (y) = 0.78378 1.03300
# Poissons Ratio (z) = 0.61911 0.03872
#
# Static dielectric constant tensor:
#      x y z
#    x 3.746020 -0.000010 0.016490 
#    y -0.000010 2.651600 0.000010 
#    z 0.016490 0.000010 3.804470 
# 
# 
# High freq. dielectric constant tensor:
#      x y z
#    x 1.762960 0.000000 0.000660 
#    y 0.000000 1.653820 0.000000 
#    z 0.000660 0.000000 1.765310 
# 
# From -- ./inp_files/16219.got.cif
#   From: 2010.03.12/outbox.cif.g09.slc.cpg/sg8_9_cif.got.tgz:16219.got - 2010.03.31 10:45:26.
