data_PCOD8053593
_publ_section_title
;
Structure prediction by ZEFSAII (Michael W. Deem and Ramdas Pophale) SiO2 
 PCOD8053593
Probable space group: C M
;
_chemical_formula_sum "Si O2"
_cell_formula_units_Z 32
_cell_length_a 24.173410
_cell_length_b 8.624146
_cell_length_c 14.117264
_cell_angle_alpha 90.000000
_cell_angle_beta 31.018091
_cell_angle_gamma 90.000000
_cell_volume 1516.603407
_symmetry_space_group_name_H-M "C M"
_symmetry_group_IT_number 8
_symmetry_cell_setting 'monoclinic'
loop_
_space_group_symop_operation_xyz
x,y,z
x,-y,z
1/2+x,1/2+y,z
1/2+x,1/2-y,z
loop_
_atom_site_type_symbol
_atom_site_label
_atom_site_fract_x
_atom_site_fract_y
_atom_site_fract_z
Si Si1 0.380320 0.683304 0.753900
Si Si2 0.644835 0.318292 0.676592
Si Si3 0.816275 0.328416 0.133550
Si Si4 0.953461 0.316523 0.460091
Si Si5 0.519985 0.174158 0.698944
Si Si6 0.968042 0.315898 0.070202
Si Si7 0.371363 0.681212 0.387740
Si Si8 0.188361 0.318596 0.168120
O O1 0.378648 0.500000 0.740450
O O2 0.375725 0.772231 0.660921
O O3 0.488967 0.731111 0.650109
O O4 0.276375 0.743546 0.964300
O O5 0.621820 0.500000 0.715033
O O6 0.617308 0.257782 0.611168
O O7 0.767891 0.284003 0.517233
O O8 0.575321 0.233580 0.858791
O O9 0.768687 0.500000 0.214720
O O10 0.860214 0.266719 0.169901
O O11 0.721654 0.225589 0.227062
O O12 0.918961 0.329128 0.915771
O O13 0.950085 0.500000 0.445754
O O14 0.914828 0.222468 0.426632
O O15 0.072244 0.252645 0.311169
O O16 0.554572 0.000000 0.619479
O O17 0.971841 0.500000 0.079641
O O18 0.963158 0.227535 0.177350
O O19 0.343959 0.500000 0.422209
O O20 0.183933 0.500000 0.169336
#
# Coordination Sequence:
#
# PCOD8053593 Si02
#       8
#     4   4   4   4   4   4   4   4
#     4  10  20  37  60  88 118 152 193 240 293 353
#     4  11  22  39  63  91 121 157 197 244 301 360
#     4   8  16  31  56  87 118 148 184 229 282 343
#     4  11  24  42  59  81 114 154 199 248 297 352
#     4   9  17  33  57  88 121 154 191 237 292 353
#     4  10  21  40  63  90 123 158 194 241 297 356
#     4  12  26  43  61  85 116 156 205 254 299 354
#     4   9  20  37  59  84 115 151 187 231 287 343
#
# _framework density 21.099781
#
# number of rings (size 3 to 8) (size 9 to 14) (size 15 to 20)
#    0.000    2.000    0.000    4.500    0.000    7.000 
#    0.000    6.250    0.000    0.000    0.000    0.000 
#    0.000    0.000    0.000    0.000    0.000    0.000 
#
# Total GULP energy -198417.735556 kJ/mol
# GULP energy per Si atom -12401.108472 kJ/mol
# Density = 2.105176 g / cm^3
# Si number density = 21.099781 Si / 1000 Ang^3
#
#
#
# Elastic Constant Matrix: (Units=GPa)
#
#
# Indices 1 2 3 4 5 6 
#
# 1 89.1886 19.1730 8.3449 0.0000 9.2984 0.0000
# 2 19.1730 77.9927 11.7588 -0.0005 1.6920 0.0001
# 3 8.3449 11.7588 35.0883 -0.0002 -0.1000 0.0001
# 4 0.0000 -0.0005 -0.0002 23.2085 0.0002 -0.8227
# 5 9.2984 1.6920 -0.1000 0.0002 34.9251 -0.0001
# 6 0.0000 0.0001 0.0001 -0.8227 -0.0001 39.5524
#
#
#
# Elastic Compliance Matrix: (Units=1/GPa)
#
#
# Indices 1 2 3 4 5 6 
#
# 1 0.012301 -0.002647 -0.002048 0.000000 -0.003153 0.000000
# 2 -0.002647 0.014089 -0.004092 0.000000 0.000010 0.000000
# 3 -0.002048 -0.004092 0.030360 0.000000 0.000830 0.000000
# 4 0.000000 0.000000 0.000000 0.043120 0.000000 0.000897
# 5 -0.003153 0.000010 0.000830 0.000000 0.029474 0.000000
# 6 0.000000 0.000000 0.000000 0.000897 0.000000 0.025302
#
#
# Mechanical properties :
#
#
# Convention : Reuss Voigt Hill
#
# Bulk Modulus (GPa) = 25.52469 31.20254 28.36362
# Shear Modulus (GPa) = 26.98646 30.40339 28.69493
#
# Velocity S-wave (km/s) = 3.58018 3.80008 3.69177
# Velocity P-wave (km/s) = 5.40497 5.83732 5.62530
#
# Compressibility (1/GPa) = 0.03917775
#
# Stress axis : x y z
#
# Youngs Moduli (GPa) = 81.29091 70.97666 32.93794
#
# Poissons Ratio (x) = 0.18787 0.06744
# Poissons Ratio (y) = 0.21518 0.13478
# Poissons Ratio (z) = 0.16645 0.29044
#
# Static dielectric constant tensor:
#      x y z
#    x 4.015640 0.000000 0.000050 
#    y 0.000000 3.759920 0.000000 
#    z 0.000050 0.000000 3.814100 
# 
# 
# High freq. dielectric constant tensor:
#      x y z
#    x 1.828430 0.000000 0.005800 
#    y 0.000000 1.827220 0.000000 
#    z 0.005800 0.000000 1.821610 
# 
# From -- ./inp_files/28194.got.cif
#   From: 2010.03.12/outbox.cif.g09.slc.cpg/sg8_15_cif.got.tgz:28194.got - 2010.03.31 10:45:26.
