data_PCOD8053185
_publ_section_title
;
Structure prediction by ZEFSAII (Michael W. Deem and Ramdas Pophale) SiO2 
 PCOD8053185
Probable space group: C M
;
_chemical_formula_sum "Si O2"
_cell_formula_units_Z 32
_cell_length_a 14.479908
_cell_length_b 8.692072
_cell_length_c 14.198499
_cell_angle_alpha 90.000000
_cell_angle_beta 75.597739
_cell_angle_gamma 90.000000
_cell_volume 1730.868470
_symmetry_space_group_name_H-M "C M"
_symmetry_group_IT_number 8
_symmetry_cell_setting 'monoclinic'
loop_
_space_group_symop_operation_xyz
x,y,z
x,-y,z
1/2+x,1/2+y,z
1/2+x,1/2-y,z
loop_
_atom_site_type_symbol
_atom_site_label
_atom_site_fract_x
_atom_site_fract_y
_atom_site_fract_z
Si Si1 0.659020 0.319027 0.851930
Si Si2 0.773471 0.682004 0.003288
Si Si3 0.827652 0.672654 0.359166
Si Si4 0.424210 0.321623 0.504771
Si Si5 0.450092 0.317179 0.854988
Si Si6 0.621525 0.671930 0.384794
Si Si7 0.742127 0.820113 0.212295
Si Si8 0.848718 0.680531 0.707975
O O1 0.649222 0.500000 0.848962
O O2 0.693565 0.268533 0.947194
O O3 0.555538 0.249439 0.852435
O O4 0.740647 0.264228 0.757547
O O5 0.781578 0.500000 0.009549
O O6 0.876614 0.746211 0.948205
O O7 0.740200 0.752953 0.109116
O O8 0.871129 0.500000 0.348731
O O9 0.884966 0.787023 0.411033
O O10 0.717638 0.669342 0.423665
O O11 0.826902 0.739938 0.252322
O O12 0.409867 0.500000 0.533734
O O13 0.535352 0.271886 0.472886
O O14 0.371042 0.217860 0.594411
O O15 0.446850 0.500000 0.863980
O O16 0.423758 0.267935 0.755623
O O17 0.597844 0.500000 0.353146
O O18 0.640255 0.781092 0.288689
O O19 0.760160 0.000000 0.204074
O O20 0.859053 0.500000 0.725100
#
# Coordination Sequence:
#
# PCOD8053185 Si02
#       8
#     4   4   4   4   4   4   4   4
#     4   8  18  36  57  78 106 143 179 215 270 331
#     4  10  19  36  57  80 111 146 178 218 274 333
#     4   9  19  37  55  76 107 146 181 223 273 324
#     4  11  21  36  57  83 109 145 187 228 272 325
#     4  10  19  36  58  82 106 138 182 229 270 324
#     4   8  19  37  54  74 108 147 180 220 276 324
#     4  10  19  35  57  82 110 144 184 230 270 317
#     4  10  21  37  55  79 111 147 179 221 275 330
#
# _framework density 18.487829999999999
#
# number of rings (size 3 to 8) (size 9 to 14) (size 15 to 20)
#    0.750    1.750    0.000    3.375    0.000    2.000 
#    2.250   12.500    0.000    0.000    0.000    0.000 
#    0.000    0.000    0.000    0.000    0.000    0.000 
#
# Total GULP energy -198286.968557 kJ/mol
# GULP energy per Si atom -12392.935535 kJ/mol
# Density = 1.844575 g / cm^3
# Si number density = 18.487830 Si / 1000 Ang^3
#
#
#
# Elastic Constant Matrix: (Units=GPa)
#
#
# Indices 1 2 3 4 5 6 
#
# 1 94.1819 25.5956 10.5932 0.0000 0.0767 0.0000
# 2 25.5956 76.5653 23.6729 0.0000 -4.4389 0.0000
# 3 10.5932 23.6729 64.9071 0.0000 -1.3895 0.0000
# 4 0.0000 0.0000 0.0000 34.7545 0.0000 1.8937
# 5 0.0767 -4.4389 -1.3895 0.0000 20.5329 0.0000
# 6 0.0000 0.0000 0.0000 1.8937 0.0000 24.6051
#
#
#
# Elastic Compliance Matrix: (Units=1/GPa)
#
#
# Indices 1 2 3 4 5 6 
#
# 1 0.011712 -0.003799 -0.000545 0.000000 -0.000902 0.000000
# 2 -0.003799 0.016118 -0.005191 0.000000 0.003147 0.000000
# 3 -0.000545 -0.005191 0.017390 0.000000 0.000057 0.000000
# 4 0.000000 0.000000 0.000000 0.028894 0.000000 -0.002224
# 5 -0.000902 0.003147 0.000057 0.000000 0.049390 0.000000
# 6 0.000000 0.000000 0.000000 -0.002224 0.000000 0.040813
#
#
# Mechanical properties :
#
#
# Convention : Reuss Voigt Hill
#
# Bulk Modulus (GPa) = 38.24146 39.48642 38.86394
# Shear Modulus (GPa) = 26.02731 27.69802 26.86266
#
# Velocity S-wave (km/s) = 3.75615 3.87483 3.81595
# Velocity P-wave (km/s) = 6.28817 6.43611 6.36257
#
# Compressibility (1/GPa) = 0.02614963
#
# Stress axis : x y z
#
# Youngs Moduli (GPa) = 85.38049 62.04122 57.50370
#
# Poissons Ratio (x) = 0.23570 0.03135
# Poissons Ratio (y) = 0.32437 0.29852
# Poissons Ratio (z) = 0.04655 0.32207
#
# Static dielectric constant tensor:
#      x y z
#    x 3.544520 0.000000 -0.094860 
#    y 0.000000 3.305110 0.000000 
#    z -0.094860 0.000000 3.299210 
# 
# 
# High freq. dielectric constant tensor:
#      x y z
#    x 1.709450 0.000000 -0.001320 
#    y 0.000000 1.717130 0.000000 
#    z -0.001320 0.000000 1.707830 
# 
# From -- ./inp_files/26434.got.cif
#   From: 2010.03.12/outbox.cif.g09.slc.cpg/sg8_14_cif.got.tgz:26434.got - 2010.03.31 10:45:26.
