data_PCOD8053432
_publ_section_title
;
Structure prediction by ZEFSAII (Michael W. Deem and Ramdas Pophale) SiO2 
 PCOD8053432
Probable space group: C M
;
_chemical_formula_sum "Si O2"
_cell_formula_units_Z 32
_cell_length_a 28.367995
_cell_length_b 9.158846
_cell_length_c 7.114840
_cell_angle_alpha 90.000000
_cell_angle_beta 105.079715
_cell_angle_gamma 90.000000
_cell_volume 1784.908514
_symmetry_space_group_name_H-M "C M"
_symmetry_group_IT_number 8
_symmetry_cell_setting 'monoclinic'
loop_
_space_group_symop_operation_xyz
x,y,z
x,-y,z
1/2+x,1/2+y,z
1/2+x,1/2-y,z
loop_
_atom_site_type_symbol
_atom_site_label
_atom_site_fract_x
_atom_site_fract_y
_atom_site_fract_z
Si Si1 0.897900 0.664986 0.435610
Si Si2 0.217389 0.325068 0.596685
Si Si3 0.534322 0.665149 0.125021
Si Si4 0.716483 0.668288 0.992119
Si Si5 0.645028 0.328471 0.248139
Si Si6 0.788882 0.671353 0.397420
Si Si7 0.445760 0.834511 0.105706
Si Si8 0.453569 0.663377 0.772611
O O1 0.904368 0.500000 0.512056
O O2 0.844714 0.723411 0.436991
O O3 0.904453 0.676795 0.219892
O O4 0.941953 0.759963 0.564978
O O5 0.217178 0.500000 0.591506
O O6 0.169991 0.263237 0.440040
O O7 0.265341 0.264162 0.541321
O O8 0.216886 0.272263 0.811773
O O9 0.533542 0.500000 0.202164
O O10 0.589137 0.725250 0.178721
O O11 0.498373 0.762319 0.219296
O O12 0.511357 0.669740 0.887942
O O13 0.716521 0.500000 0.925013
O O14 0.668917 0.702807 0.069929
O O15 0.763310 0.702414 0.170911
O O16 0.650011 0.500000 0.301680
O O17 0.783997 0.500000 0.441549
O O18 0.456689 0.000000 0.060659
O O19 0.423355 0.749143 0.903661
O O20 0.433764 0.500000 0.742801
#
# Coordination Sequence:
#
# PCOD8053432 Si02
#       8
#     4   4   4   4   4   4   4   4
#     4  10  20  35  56  80 104 139 181 220 262 308
#     4  11  22  35  53  82 113 136 166 216 274 323
#     4   8  17  35  55  78 107 141 177 218 262 304
#     4   9  18  35  58  79 101 135 178 221 259 310
#     4   9  18  37  60  78 102 140 184 219 253 307
#     4   9  20  38  58  77 102 139 183 221 255 308
#     4   9  18  33  52  76 108 140 175 218 261 306
#     4   9  19  34  52  76 107 140 176 217 260 306
#
# _framework density 17.928089
#
# number of rings (size 3 to 8) (size 9 to 14) (size 15 to 20)
#    0.750    2.000    0.000    2.250    0.000    5.000 
#    2.250    2.500    0.000    0.000    0.000    0.000 
#    0.000    0.000    0.000    0.000    0.000    0.000 
#
# Total GULP energy -198256.235988 kJ/mol
# GULP energy per Si atom -12391.014749 kJ/mol
# Density = 1.788728 g / cm^3
# Si number density = 17.928089 Si / 1000 Ang^3
#
#
#
# Elastic Constant Matrix: (Units=GPa)
#
#
# Indices 1 2 3 4 5 6 
#
# 1 81.8492 27.5826 20.1110 0.0000 -1.0733 0.0000
# 2 27.5826 92.9438 43.3749 0.0000 -3.1521 0.0000
# 3 20.1110 43.3749 81.8468 0.0000 -2.9192 0.0000
# 4 0.0000 0.0000 0.0000 27.9908 0.0000 3.2480
# 5 -1.0733 -3.1521 -2.9192 0.0000 18.5047 0.0000
# 6 0.0000 0.0000 0.0000 3.2480 0.0000 17.1317
#
#
#
# Elastic Compliance Matrix: (Units=1/GPa)
#
#
# Indices 1 2 3 4 5 6 
#
# 1 0.013734 -0.003323 -0.001614 0.000000 -0.000024 0.000000
# 2 -0.003323 0.015127 -0.007155 0.000000 0.001255 0.000000
# 3 -0.001614 -0.007155 0.016452 0.000000 0.001283 0.000000
# 4 0.000000 0.000000 0.000000 0.036530 0.000000 -0.006926
# 5 -0.000024 0.001255 0.001283 0.000000 0.054455 0.000000
# 6 0.000000 0.000000 0.000000 -0.006926 0.000000 0.059684
#
#
# Mechanical properties :
#
#
# Convention : Reuss Voigt Hill
#
# Bulk Modulus (GPa) = 47.33141 48.75299 48.04220
# Shear Modulus (GPa) = 22.00599 23.76353 22.88476
#
# Velocity S-wave (km/s) = 3.50731 3.64468 3.57666
# Velocity P-wave (km/s) = 6.54673 6.70554 6.62661
#
# Compressibility (1/GPa) = 0.02112762
#
# Stress axis : x y z
#
# Youngs Moduli (GPa) = 72.81294 66.10582 60.78138
#
# Poissons Ratio (x) = 0.21968 0.09812
# Poissons Ratio (y) = 0.24197 0.43492
# Poissons Ratio (z) = 0.11754 0.47301
#
# Static dielectric constant tensor:
#      x y z
#    x 3.261740 0.000000 0.044430 
#    y 0.000000 3.284260 0.000000 
#    z 0.044430 0.000000 3.085310 
# 
# 
# High freq. dielectric constant tensor:
#      x y z
#    x 1.684820 0.000000 0.003240 
#    y 0.000000 1.692700 0.000000 
#    z 0.003240 0.000000 1.681300 
# 
# From -- ./inp_files/6424.got.cif
#   From: 2010.03.12/outbox.cif.g09.slc.cpg/sg8_4_cif.got.tgz:6424.got - 2010.03.31 10:45:26.
