data_PCOD8053701
_publ_section_title
;
Structure prediction by ZEFSAII (Michael W. Deem and Ramdas Pophale) SiO2 
 PCOD8053701
Probable space group: C M
;
_chemical_formula_sum "Si O2"
_cell_formula_units_Z 32
_cell_length_a 23.994432
_cell_length_b 8.853746
_cell_length_c 19.674814
_cell_angle_alpha 90.000000
_cell_angle_beta 157.135964
_cell_angle_gamma 90.000000
_cell_volume 1624.015701
_symmetry_space_group_name_H-M "C M"
_symmetry_group_IT_number 8
_symmetry_cell_setting 'monoclinic'
loop_
_space_group_symop_operation_xyz
x,y,z
x,-y,z
1/2+x,1/2+y,z
1/2+x,1/2-y,z
loop_
_atom_site_type_symbol
_atom_site_label
_atom_site_fract_x
_atom_site_fract_y
_atom_site_fract_z
Si Si1 0.417760 0.830837 0.359710
Si Si2 0.903568 0.676681 0.829283
Si Si3 0.166898 0.167758 0.183726
Si Si4 0.204346 0.179371 0.722329
Si Si5 0.691367 0.176324 0.351619
Si Si6 0.376896 0.177090 0.049848
Si Si7 0.932665 0.321227 0.710398
Si Si8 0.764361 0.822014 0.060806
O O1 0.304713 0.835698 0.292241
O O2 0.546159 0.742766 0.539866
O O3 0.464156 0.000000 0.390809
O O4 0.359442 0.749876 0.227019
O O5 0.887029 0.500000 0.812578
O O6 0.787333 0.747434 0.749931
O O7 0.885849 0.733207 0.732742
O O8 0.060492 0.714682 0.030903
O O9 0.207094 0.223948 0.302876
O O10 0.099227 0.000000 0.112400
O O11 0.200133 0.000000 0.716003
O O12 0.285243 0.232664 0.881683
O O13 0.544275 0.215652 0.225848
O O14 0.831373 0.219844 0.550808
O O15 0.694507 0.000000 0.336395
O O16 0.354706 0.000000 0.037845
O O17 0.321571 0.267003 0.052722
O O18 0.908157 0.500000 0.671290
O O19 0.097751 0.276759 0.882005
O O20 0.784201 0.000000 0.088204
#
# Coordination Sequence:
#
# PCOD8053701 Si02
#       8
#     4   4   4   4   4   4   4   4
#     4  11  25  42  62  92 127 160 204 256 306 363
#     4  10  20  41  67  90 120 156 204 259 307 364
#     4  11  23  40  64  92 123 158 203 258 309 360
#     4  10  22  41  65  92 122 161 207 251 307 367
#     4  11  24  42  65  91 123 164 207 251 306 366
#     4  10  23  43  63  90 127 163 203 253 303 362
#     4  10  23  41  63  93 125 158 203 257 307 363
#     4  11  24  42  65  90 123 166 207 249 305 367
#
# _framework density 19.704243000000002
#
# number of rings (size 3 to 8) (size 9 to 14) (size 15 to 20)
#    0.000    1.500    2.500    1.500    3.500    5.000 
#    0.000    0.000    0.000    0.000    0.000    0.000 
#    0.000    0.000    0.000    0.000    0.000    0.000 
#
# Total GULP energy -198403.845162 kJ/mol
# GULP energy per Si atom -12400.240323 kJ/mol
# Density = 1.965940 g / cm^3
# Si number density = 19.704243 Si / 1000 Ang^3
#
#
#
# Elastic Constant Matrix: (Units=GPa)
#
#
# Indices 1 2 3 4 5 6 
#
# 1 98.3850 47.0423 8.4731 0.0001 -11.5884 0.0000
# 2 47.0423 -20.2053 6.4994 -0.0001 1.4313 0.0000
# 3 8.4731 6.4994 78.9486 0.0000 -3.1188 0.0000
# 4 0.0001 -0.0001 0.0000 -21.9359 0.0001 24.7428
# 5 -11.5884 1.4313 -3.1188 0.0001 29.3502 0.0000
# 6 0.0000 0.0000 0.0000 24.7428 0.0000 20.1874
#
#
#
# Elastic Compliance Matrix: (Units=1/GPa)
#
#
# Indices 1 2 3 4 5 6 
#
# 1 0.005022 0.011326 -0.001421 0.000000 0.001280 0.000000
# 2 0.011326 -0.022447 0.000856 0.000000 0.005657 0.000000
# 3 -0.001421 0.000856 0.012778 0.000000 0.000755 0.000000
# 4 0.000000 0.000000 0.000000 -0.019134 0.000000 0.023452
# 5 0.001280 0.005657 0.000755 0.000000 0.034381 0.000000
# 6 0.000000 0.000000 0.000000 0.023452 0.000000 0.020792
#
#
# Mechanical properties :
#
#
# Convention : Reuss Voigt Hill
#
# Bulk Modulus (GPa) = 59.26062 31.23974 45.25018
# Shear Modulus (GPa) = 322.69663 11.86124 167.27893
#
# Velocity S-wave (km/s) = 12.81115 2.45616 9.22384
# Velocity P-wave (km/s) = 15.77893 4.89207 11.68133
#
# Compressibility (1/GPa) = 0.01687461
#
# Stress axis : x y z
#
# Youngs Moduli (GPa) = 199.12752 -44.54891 78.25751
#
# Poissons Ratio (x) = 0.50455 0.11119
# Poissons Ratio (y) = -2.25526 -0.06698
# Poissons Ratio (z) = 0.28292 0.03813
#
# Static dielectric constant tensor:
#      x y z
#    x 3.955590 0.000000 -0.005600 
#    y 0.000000 3.735230 0.000000 
#    z -0.005600 0.000000 3.652790 
# 
# 
# High freq. dielectric constant tensor:
#      x y z
#    x 1.784450 0.000000 -0.002720 
#    y 0.000000 1.766960 0.000000 
#    z -0.002720 0.000000 1.775500 
# 
# From -- ./inp_files/31667.got.cif
#   From: 2010.03.12/outbox.cif.g09.slc.cpg/sg8_16_cif.got.tgz:31667.got - 2010.03.31 10:45:26.
