data_PCOD8053543
_publ_section_title
;
Structure prediction by ZEFSAII (Michael W. Deem and Ramdas Pophale) SiO2 
 PCOD8053543
Probable space group: C M
;
_chemical_formula_sum "Si O2"
_cell_formula_units_Z 26
_cell_length_a 13.356096
_cell_length_b 12.343918
_cell_length_c 10.500521
_cell_angle_alpha 90.000000
_cell_angle_beta 54.046071
_cell_angle_gamma 90.000000
_cell_volume 1401.375613
_symmetry_space_group_name_H-M "C M"
_symmetry_group_IT_number 8
_symmetry_cell_setting 'monoclinic'
loop_
_space_group_symop_operation_xyz
x,y,z
x,-y,z
1/2+x,1/2+y,z
1/2+x,1/2-y,z
loop_
_atom_site_type_symbol
_atom_site_label
_atom_site_fract_x
_atom_site_fract_y
_atom_site_fract_z
Si Si1 0.305760 0.382039 0.189020
Si Si2 0.243330 0.189139 0.402487
Si Si3 0.548525 0.625359 0.877654
Si Si4 0.749598 0.783290 0.675612
Si Si5 0.680530 0.000000 0.078179
Si Si6 0.922380 0.500000 0.185606
Si Si7 0.132955 0.500000 0.836209
Si Si8 0.974827 0.876978 0.652185
O O1 0.298162 0.500000 0.264044
O O2 0.234737 0.295095 0.323232
O O3 0.239599 0.393096 0.099732
O O4 0.449722 0.351202 0.062434
O O5 0.278006 0.229707 0.517815
O O6 0.110964 0.133191 0.490730
O O7 0.343242 0.107457 0.268887
O O8 0.589033 0.500000 0.842486
O O9 0.668758 0.697396 0.816826
O O10 0.484744 0.658290 0.791704
O O11 0.668097 0.893963 0.727227
O O12 0.879196 0.799736 0.650063
O O13 0.532457 0.000000 0.207585
O O14 0.718315 0.000000 0.900904
O O15 0.988196 0.500000 0.994305
O O16 0.930578 0.000000 0.667842
#
# Coordination Sequence:
#
# PCOD8053543 Si02
#       8
#     4   4   4   4   2   2   2   4
#     4   9  19  36  59  84 116 149 192 242 286 352
#     4  11  23  37  58  89 120 155 192 249 300 345
#     4   9  19  38  59  83 111 153 198 240 288 351
#     4  11  22  33  62  86 118 151 197 245 292 354
#     4   8  20  35  63  81 109 154 202 231 293 352
#     4  10  22  39  59  87 116 153 208 238 288 353
#     4  10  20  36  60  90 105 157 200 241 281 351
#     4  10  20  37  58  81 112 152 197 237 296 347
#
# _framework density 18.553197000000001
#
# number of rings (size 3 to 8) (size 9 to 14) (size 15 to 20)
#    0.923    1.231    1.538    1.846    4.308    0.000 
#    0.000    0.769    1.692    0.000    6.000    0.000 
#    0.000    0.000    0.000    0.000    0.000    0.000 
#
# Total GULP energy -161092.568200 kJ/mol
# GULP energy per Si atom -12391.736015 kJ/mol
# Density = 1.851097 g / cm^3
# Si number density = 18.553197 Si / 1000 Ang^3
#
#
#
# Elastic Constant Matrix: (Units=GPa)
#
#
# Indices 1 2 3 4 5 6 
#
# 1 80.6057 22.9910 10.9670 0.0000 -20.2505 0.0000
# 2 22.9910 72.3928 22.0444 0.0000 -8.5515 0.0000
# 3 10.9670 22.0444 55.5654 0.0000 -14.9016 0.0000
# 4 0.0000 0.0000 0.0000 32.2330 0.0000 -5.9096
# 5 -20.2505 -8.5515 -14.9016 0.0000 26.4710 0.0000
# 6 0.0000 0.0000 0.0000 -5.9096 0.0000 28.1916
#
#
#
# Elastic Compliance Matrix: (Units=1/GPa)
#
#
# Indices 1 2 3 4 5 6 
#
# 1 0.016459 -0.004316 0.001727 0.000000 0.012170 0.000000
# 2 -0.004316 0.016920 -0.006219 0.000000 -0.001337 0.000000
# 3 0.001727 -0.006219 0.023484 0.000000 0.012532 0.000000
# 4 0.000000 0.000000 0.000000 0.032264 0.000000 0.006763
# 5 0.012170 -0.001337 0.012532 0.000000 0.053710 0.000000
# 6 0.000000 0.000000 0.000000 0.006763 0.000000 0.036889
#
#
# Mechanical properties :
#
#
# Convention : Reuss Voigt Hill
#
# Bulk Modulus (GPa) = 25.47888 35.61874 30.54881
# Shear Modulus (GPa) = 23.76134 27.54990 25.65562
#
# Velocity S-wave (km/s) = 3.58259 3.85764 3.72265
# Velocity P-wave (km/s) = 5.55661 6.25153 5.91429
#
# Compressibility (1/GPa) = 0.03924820
#
# Stress axis : x y z
#
# Youngs Moduli (GPa) = 60.75545 59.10129 42.58166
#
# Poissons Ratio (x) = 0.25506 -0.07355
# Poissons Ratio (y) = 0.26220 0.26483
# Poissons Ratio (z) = -0.10494 0.36757
#
# Static dielectric constant tensor:
#      x y z
#    x 3.136420 0.000000 -0.203030 
#    y 0.000000 3.392170 0.000000 
#    z -0.203030 0.000000 3.444840 
# 
# 
# High freq. dielectric constant tensor:
#      x y z
#    x 1.694920 0.000000 -0.023240 
#    y 0.000000 1.719910 0.000000 
#    z -0.023240 0.000000 1.724360 
# 
# From -- ./inp_files/21812.got.cif
#   From: 2010.03.12/outbox.cif.g09.slc.cpg/sg8_11_cif.got.tgz:21812.got - 2010.03.31 10:45:26.
