data_PCOD8053000
_publ_section_title
;
Structure prediction by ZEFSAII (Michael W. Deem and Ramdas Pophale) SiO2 
 PCOD8053000
Probable space group: C M
;
_chemical_formula_sum "Si O2"
_cell_formula_units_Z 32
_cell_length_a 28.555963
_cell_length_b 9.076822
_cell_length_c 14.239188
_cell_angle_alpha 90.000000
_cell_angle_beta 29.438773
_cell_angle_gamma 90.000000
_cell_volume 1813.983667
_symmetry_space_group_name_H-M "C M"
_symmetry_group_IT_number 8
_symmetry_cell_setting 'monoclinic'
loop_
_space_group_symop_operation_xyz
x,y,z
x,-y,z
1/2+x,1/2+y,z
1/2+x,1/2-y,z
loop_
_atom_site_type_symbol
_atom_site_label
_atom_site_fract_x
_atom_site_fract_y
_atom_site_fract_z
Si Si1 0.706400 0.672807 0.068790
Si Si2 0.886215 0.161898 0.254866
Si Si3 0.894913 0.328089 0.850076
Si Si4 0.585313 0.664744 0.845122
Si Si5 0.775176 0.673188 0.594842
Si Si6 0.813498 0.827195 0.721220
Si Si7 0.936623 0.829827 0.965734
Si Si8 0.502258 0.327942 0.503637
O O1 0.702765 0.500000 0.052586
O O2 0.604200 0.728295 0.286278
O O3 0.788751 0.711220 0.000088
O O4 0.731013 0.756741 0.929678
O O5 0.847021 0.295452 0.384488
O O6 0.864286 0.184326 0.181381
O O7 0.847649 0.000000 0.354070
O O8 0.000633 0.165083 0.069699
O O9 0.914242 0.500000 0.812105
O O10 0.977349 0.252242 0.644514
O O11 0.901469 0.274321 0.945028
O O12 0.621921 0.500000 0.761785
O O13 0.675711 0.746806 0.732178
O O14 0.541828 0.723001 0.821041
O O15 0.770865 0.500000 0.625132
O O16 0.809140 0.758611 0.626552
O O17 0.919215 0.790819 0.574496
O O18 0.794914 0.000000 0.749183
O O19 0.940697 0.000000 0.924912
O O20 0.507818 0.500000 0.516138
#
# Coordination Sequence:
#
# PCOD8053000 Si02
#       8
#     4   4   4   4   4   4   4   4
#     4   9  19  37  56  76 101 133 172 210 249 302
#     4   8  17  35  53  70  98 136 174 210 244 294
#     4  10  19  32  53  81 108 129 163 216 260 292
#     4   7  16  34  52  69  96 137 175 202 239 300
#     4  11  20  33  54  78 102 134 172 212 256 298
#     4  10  21  35  53  77 104 134 169 210 255 303
#     4   8  16  35  56  71 100 142 174 203 246 303
#     4   9  19  37  57  74  99 139 175 201 245 314
#
# _framework density 17.640730999999999
#
# number of rings (size 3 to 8) (size 9 to 14) (size 15 to 20)
#    0.750    2.250    0.000    1.125    0.000    3.000 
#    2.250    7.500    0.000    0.000    0.000    0.000 
#    0.000    0.000    0.000    0.000    0.000    0.000 
#
# Total GULP energy -198209.888533 kJ/mol
# GULP energy per Si atom -12388.118033 kJ/mol
# Density = 1.760058 g / cm^3
# Si number density = 17.640731 Si / 1000 Ang^3
#
#
#
# Elastic Constant Matrix: (Units=GPa)
#
#
# Indices 1 2 3 4 5 6 
#
# 1 102.9509 36.8731 47.1328 0.0000 9.1614 0.0000
# 2 36.8731 48.1414 36.6962 0.0000 4.5718 0.0000
# 3 47.1328 36.6962 116.8019 0.0000 0.9458 0.0000
# 4 0.0000 0.0000 0.0000 29.8282 0.0000 7.2934
# 5 9.1614 4.5718 0.9458 0.0000 22.9160 0.0000
# 6 0.0000 0.0000 0.0000 7.2934 0.0000 30.6716
#
#
#
# Elastic Compliance Matrix: (Units=1/GPa)
#
#
# Indices 1 2 3 4 5 6 
#
# 1 0.014510 -0.008276 -0.003223 0.000000 -0.004017 0.000000
# 2 -0.008276 0.032642 -0.006892 0.000000 -0.002919 0.000000
# 3 -0.003223 -0.006892 0.012010 0.000000 0.002168 0.000000
# 4 0.000000 0.000000 0.000000 0.035595 0.000000 -0.008464
# 5 -0.004017 -0.002919 0.002168 0.000000 0.045737 0.000000
# 6 0.000000 0.000000 0.000000 -0.008464 0.000000 0.034616
#
#
# Mechanical properties :
#
#
# Convention : Reuss Voigt Hill
#
# Bulk Modulus (GPa) = 44.68191 56.58872 50.63531
# Shear Modulus (GPa) = 22.79454 26.49595 24.64525
#
# Velocity S-wave (km/s) = 3.59855 3.87974 3.74179
# Velocity P-wave (km/s) = 6.53069 7.22620 6.88723
#
# Compressibility (1/GPa) = 0.02238042
#
# Stress axis : x y z
#
# Youngs Moduli (GPa) = 68.91608 30.63570 83.26610
#
# Poissons Ratio (x) = 0.25354 0.26834
# Poissons Ratio (y) = 0.57035 0.57387
# Poissons Ratio (z) = 0.22210 0.21114
#
# Static dielectric constant tensor:
#      x y z
#    x 3.234940 0.000000 -0.118630 
#    y 0.000000 3.116130 0.000000 
#    z -0.118630 0.000000 3.194510 
# 
# 
# High freq. dielectric constant tensor:
#      x y z
#    x 1.679950 0.000000 -0.000950 
#    y 0.000000 1.672040 0.000000 
#    z -0.000950 0.000000 1.671540 
# 
# From -- ./inp_files/28376.got.cif
#   From: 2010.03.12/outbox.cif.g09.slc.cpg/sg8_15_cif.got.tgz:28376.got - 2010.03.31 10:45:26.
