data_PCOD8053191
_publ_section_title
;
Structure prediction by ZEFSAII (Michael W. Deem and Ramdas Pophale) SiO2 
 PCOD8053191
Probable space group: C M
;
_chemical_formula_sum "Si O2"
_cell_formula_units_Z 32
_cell_length_a 25.221394
_cell_length_b 8.548077
_cell_length_c 12.548840
_cell_angle_alpha 90.000000
_cell_angle_beta 35.936838
_cell_angle_gamma 90.000000
_cell_volume 1587.815579
_symmetry_space_group_name_H-M "C M"
_symmetry_group_IT_number 8
_symmetry_cell_setting 'monoclinic'
loop_
_space_group_symop_operation_xyz
x,y,z
x,-y,z
1/2+x,1/2+y,z
1/2+x,1/2-y,z
loop_
_atom_site_type_symbol
_atom_site_label
_atom_site_fract_x
_atom_site_fract_y
_atom_site_fract_z
Si Si1 0.138030 0.319107 0.672120
Si Si2 0.163420 0.319552 0.390157
Si Si3 0.842082 0.681337 0.024025
Si Si4 0.775191 0.816270 0.922156
Si Si5 0.958065 0.182781 0.011940
Si Si6 0.337180 0.686299 0.402564
Si Si7 0.399723 0.685946 0.528437
Si Si8 0.091577 0.184855 0.300254
O O1 0.129327 0.500000 0.718302
O O2 0.119851 0.294431 0.576209
O O3 0.235963 0.253209 0.545569
O O4 0.063582 0.220557 0.858005
O O5 0.190713 0.500000 0.327844
O O6 0.253539 0.216314 0.237976
O O7 0.093583 0.265988 0.412968
O O8 0.847621 0.500000 0.985630
O O9 0.838153 0.778700 0.921028
O O10 0.928556 0.730017 0.952035
O O11 0.678464 0.731112 0.088360
O O12 0.757368 0.000000 0.944928
O O13 0.827263 0.753584 0.733062
O O14 0.902902 0.249050 0.202798
O O15 0.940852 0.000000 0.026182
O O16 0.338898 0.500000 0.399915
O O17 0.371575 0.753952 0.459307
O O18 0.399001 0.500000 0.528525
O O19 0.500724 0.745054 0.390736
O O20 0.090921 0.000000 0.318164
#
# Coordination Sequence:
#
# PCOD8053191 Si02
#       8
#     4   4   4   4   4   4   4   4
#     4  10  21  37  58  85 115 151 192 236 288 340
#     4  10  19  35  57  84 117 154 189 232 289 344
#     4  11  21  35  57  85 119 153 188 237 290 338
#     4  10  20  36  57  85 115 150 191 233 284 343
#     4  11  22  37  59  86 115 152 193 234 288 345
#     4   9  19  40  61  80 114 154 191 236 287 340
#     4   9  20  37  60  84 111 152 197 233 279 342
#     4  10  20  35  55  85 116 150 189 235 285 336
#
# _framework density 20.153473999999999
#
# number of rings (size 3 to 8) (size 9 to 14) (size 15 to 20)
#    0.000    2.000    1.250    4.125    1.750    2.000 
#    0.000    1.875    0.000    7.500    0.000    0.000 
#    0.000    0.000    0.000    0.000    0.000    0.000 
#
# Total GULP energy -198423.968599 kJ/mol
# GULP energy per Si atom -12401.498037 kJ/mol
# Density = 2.010760 g / cm^3
# Si number density = 20.153474 Si / 1000 Ang^3
#
#
#
# Elastic Constant Matrix: (Units=GPa)
#
#
# Indices 1 2 3 4 5 6 
#
# 1 145.5192 18.7329 81.0920 0.0000 -7.3640 0.0000
# 2 18.7329 42.8508 14.0856 0.0000 -0.4694 0.0000
# 3 81.0920 14.0856 137.1475 0.0000 -7.7593 0.0000
# 4 0.0000 0.0000 0.0000 27.9655 0.0000 -6.4730
# 5 -7.3640 -0.4694 -7.7593 0.0000 28.8211 0.0000
# 6 0.0000 0.0000 0.0000 -6.4730 0.0000 16.8673
#
#
#
# Elastic Compliance Matrix: (Units=1/GPa)
#
#
# Indices 1 2 3 4 5 6 
#
# 1 0.010563 -0.002663 -0.005912 0.000000 0.001064 0.000000
# 2 -0.002663 0.024826 -0.001006 0.000000 -0.000547 0.000000
# 3 -0.005912 -0.001006 0.010971 0.000000 0.001427 0.000000
# 4 0.000000 0.000000 0.000000 0.039244 0.000000 0.015060
# 5 0.001064 -0.000547 0.001427 0.000000 0.035344 0.000000
# 6 0.000000 0.000000 0.000000 0.015060 0.000000 0.065066
#
#
# Mechanical properties :
#
#
# Convention : Reuss Voigt Hill
#
# Bulk Modulus (GPa) = 36.76765 61.48206 49.12486
# Shear Modulus (GPa) = 23.33811 28.83791 26.08801
#
# Velocity S-wave (km/s) = 3.40666 3.78685 3.60177
# Velocity P-wave (km/s) = 5.81010 7.04936 6.45951
#
# Compressibility (1/GPa) = 0.02719782
#
# Stress axis : x y z
#
# Youngs Moduli (GPa) = 94.66904 40.28090 91.14841
#
# Poissons Ratio (x) = 0.10726 0.53887
# Poissons Ratio (y) = 0.25209 0.09171
# Poissons Ratio (z) = 0.55969 0.04053
#
# Static dielectric constant tensor:
#      x y z
#    x 3.812700 0.000000 0.001850 
#    y 0.000000 3.411270 0.000000 
#    z 0.001850 0.000000 3.698560 
# 
# 
# High freq. dielectric constant tensor:
#      x y z
#    x 1.784070 0.000000 -0.003110 
#    y 0.000000 1.764730 0.000000 
#    z -0.003110 0.000000 1.791910 
# 
# From -- ./inp_files/28315.got.cif
#   From: 2010.03.12/outbox.cif.g09.slc.cpg/sg8_15_cif.got.tgz:28315.got - 2010.03.31 10:45:26.
