data_PCOD8053816
_publ_section_title
;
Structure prediction by ZEFSAII (Michael W. Deem and Ramdas Pophale) SiO2 
 PCOD8053816
Probable space group: C M
;
_chemical_formula_sum "Si O2"
_cell_formula_units_Z 32
_cell_length_a 20.393541
_cell_length_b 8.880461
_cell_length_c 12.096201
_cell_angle_alpha 90.000000
_cell_angle_beta 127.582232
_cell_angle_gamma 90.000000
_cell_volume 1736.060313
_symmetry_space_group_name_H-M "C M"
_symmetry_group_IT_number 8
_symmetry_cell_setting 'monoclinic'
loop_
_space_group_symop_operation_xyz
x,y,z
x,-y,z
1/2+x,1/2+y,z
1/2+x,1/2-y,z
loop_
_atom_site_type_symbol
_atom_site_label
_atom_site_fract_x
_atom_site_fract_y
_atom_site_fract_z
Si Si1 0.243280 0.176558 0.153520
Si Si2 0.096820 0.322285 0.893442
Si Si3 0.338966 0.825512 0.859851
Si Si4 0.888122 0.677516 0.149586
Si Si5 0.149937 0.174201 0.721640
Si Si6 0.511845 0.173315 0.454228
Si Si7 0.862907 0.671112 0.469553
Si Si8 0.920385 0.824242 0.738724
O O1 0.305656 0.241143 0.123853
O O2 0.282031 0.209749 0.313699
O O3 0.226667 0.000000 0.119658
O O4 0.157000 0.263936 0.052546
O O5 0.094453 0.500000 0.891561
O O6 0.128933 0.268338 0.808253
O O7 0.005669 0.264710 0.824662
O O8 0.242860 0.794185 0.780251
O O9 0.369774 0.717994 0.795520
O O10 0.354896 0.000000 0.846495
O O11 0.389602 0.779175 0.022522
O O12 0.883290 0.500000 0.163499
O O13 0.971145 0.733623 0.297517
O O14 0.091189 0.224463 0.560505
O O15 0.135606 0.000000 0.734770
O O16 0.445535 0.192985 0.483418
O O17 0.539954 0.000000 0.473288
O O18 0.857855 0.500000 0.507542
O O19 0.864671 0.781705 0.575620
O O20 0.939127 0.000000 0.756938
#
# Coordination Sequence:
#
# PCOD8053816 Si02
#       8
#     4   4   4   4   4   4   4   4
#     4   9  17  34  59  87 115 144 184 233 285 336
#     4  12  23  36  57  85 116 150 192 237 283 334
#     4  10  21  39  60  80 111 153 192 228 283 345
#     4   8  15  32  57  83 111 147 184 223 279 338
#     4  11  21  35  58  86 114 147 188 236 282 332
#     4   9  17  31  56  86 114 144 182 230 280 334
#     4   9  18  34  58  85 115 150 185 228 285 341
#     4  12  25  39  57  82 116 153 195 239 281 334
#
# _framework density 18.432538999999998
#
# number of rings (size 3 to 8) (size 9 to 14) (size 15 to 20)
#    0.000    2.000    2.500    4.125    0.000    1.500 
#    0.000    3.750    0.000    3.000    0.000    0.000 
#    0.000    0.000    0.000    0.000    0.000    0.000 
#
# Total GULP energy -198407.428355 kJ/mol
# GULP energy per Si atom -12400.464272 kJ/mol
# Density = 1.839059 g / cm^3
# Si number density = 18.432539 Si / 1000 Ang^3
#
#
#
# Elastic Constant Matrix: (Units=GPa)
#
#
# Indices 1 2 3 4 5 6 
#
# 1 67.7530 45.1324 50.6842 0.0000 -0.9736 0.0000
# 2 45.1324 103.2395 57.5322 0.0000 5.7119 0.0000
# 3 50.6842 57.5322 146.0906 0.0000 8.8995 0.0000
# 4 0.0000 0.0000 0.0000 31.4614 0.0000 3.4578
# 5 -0.9736 5.7119 8.8995 0.0000 23.8574 0.0000
# 6 0.0000 0.0000 0.0000 3.4578 0.0000 24.8926
#
#
#
# Elastic Compliance Matrix: (Units=1/GPa)
#
#
# Indices 1 2 3 4 5 6 
#
# 1 0.024193 -0.007693 -0.005665 0.000000 0.004942 0.000000
# 2 -0.007693 0.014888 -0.003027 0.000000 -0.002749 0.000000
# 3 -0.005665 -0.003027 0.010204 0.000000 -0.003313 0.000000
# 4 0.000000 0.000000 0.000000 0.032278 0.000000 -0.004484
# 5 0.004942 -0.002749 -0.003313 0.000000 0.044012 0.000000
# 6 0.000000 0.000000 0.000000 -0.004484 0.000000 0.040795
#
#
# Mechanical properties :
#
#
# Convention : Reuss Voigt Hill
#
# Bulk Modulus (GPa) = 60.54652 69.30895 64.92773
# Shear Modulus (GPa) = 24.43274 26.95790 25.69532
#
# Velocity S-wave (km/s) = 3.64472 3.82844 3.73771
# Velocity P-wave (km/s) = 7.11554 7.56476 7.34359
#
# Compressibility (1/GPa) = 0.01651623
#
# Stress axis : x y z
#
# Youngs Moduli (GPa) = 41.33498 67.16844 97.99876
#
# Poissons Ratio (x) = 0.51670 0.55516
# Poissons Ratio (y) = 0.31797 0.29661
# Poissons Ratio (z) = 0.23416 0.20330
#
# Static dielectric constant tensor:
#      x y z
#    x 3.192900 0.000000 0.067990 
#    y 0.000000 3.238260 0.000000 
#    z 0.067990 0.000000 3.817940 
# 
# 
# High freq. dielectric constant tensor:
#      x y z
#    x 1.685230 0.000000 0.007190 
#    y 0.000000 1.700560 0.000000 
#    z 0.007190 0.000000 1.735680 
# 
# From -- ./inp_files/23862.got.cif
#   From: 2010.03.12/outbox.cif.g09.slc.cpg/sg8_12_cif.got.tgz:23862.got - 2010.03.31 10:45:26.
