data_PCOD8053983
_publ_section_title
;
Structure prediction by ZEFSAII (Michael W. Deem and Ramdas Pophale) SiO2 
 PCOD8053983
Probable space group: C M
;
_chemical_formula_sum "Si O2"
_cell_formula_units_Z 32
_cell_length_a 8.996534
_cell_length_b 18.666544
_cell_length_c 11.863633
_cell_angle_alpha 90.000000
_cell_angle_beta 50.351940
_cell_angle_gamma 90.000000
_cell_volume 1534.035223
_symmetry_space_group_name_H-M "C M"
_symmetry_group_IT_number 8
_symmetry_cell_setting 'monoclinic'
loop_
_space_group_symop_operation_xyz
x,y,z
x,-y,z
1/2+x,1/2+y,z
1/2+x,1/2-y,z
loop_
_atom_site_type_symbol
_atom_site_label
_atom_site_fract_x
_atom_site_fract_y
_atom_site_fract_z
Si Si1 0.219230 0.804476 0.711230
Si Si2 0.052996 0.832259 0.144938
Si Si3 0.265954 0.418596 0.415417
Si Si4 0.327281 0.697129 0.038693
Si Si5 0.381268 0.081185 0.468760
Si Si6 0.078117 0.334324 0.695306
Si Si7 0.511875 0.917714 0.166057
Si Si8 0.395159 0.081224 0.972298
O O1 0.242767 0.868811 0.610445
O O2 0.231051 0.730396 0.635156
O O3 0.380006 0.807701 0.731124
O O4 0.005050 0.802624 0.866507
O O5 0.937019 0.862239 0.308914
O O6 0.898184 0.806270 0.131213
O O7 0.199319 0.768309 0.100385
O O8 0.178988 0.898902 0.036208
O O9 0.345020 0.500000 0.383830
O O10 0.173150 0.398090 0.579153
O O11 0.104054 0.411785 0.397263
O O12 0.205258 0.627863 0.066631
O O13 0.376051 0.103543 0.338681
O O14 0.306680 0.000000 0.522201
O O15 0.041916 0.366616 0.836809
O O16 0.576238 0.000000 0.148120
O O17 0.398456 0.904743 0.104822
O O18 0.442962 0.000000 0.916652
#
# Coordination Sequence:
#
# PCOD8053983 Si02
#       8
#     4   4   4   4   4   4   4   4
#     4  11  23  42  64  93 130 167 213 264 321 382
#     4  12  24  40  65  95 128 170 215 271 318 384
#     4  10  22  42  66  96 130 166 218 265 317 385
#     4  12  23  40  64  97 130 169 218 265 321 387
#     4   9  20  42  67  95 127 166 213 264 318 380
#     4  11  24  42  65  95 126 174 210 269 321 380
#     4  10  23  42  66  94 130 169 213 269 324 381
#     4  11  23  42  65  93 129 171 216 267 324 379
#
# _framework density 20.860016999999999
#
# number of rings (size 3 to 8) (size 9 to 14) (size 15 to 20)
#    0.000    1.250    3.750    1.500    3.500    1.500 
#    2.250    0.000    0.000    0.000    0.000    0.000 
#    0.000    0.000    0.000    0.000    0.000    0.000 
#
# Total GULP energy -198376.677807 kJ/mol
# GULP energy per Si atom -12398.542363 kJ/mol
# Density = 2.081254 g / cm^3
# Si number density = 20.860017 Si / 1000 Ang^3
#
#
#
# Elastic Constant Matrix: (Units=GPa)
#
#
# Indices 1 2 3 4 5 6 
#
# 1 71.6938 55.4166 32.1415 0.0000 6.2047 0.0000
# 2 55.4166 136.0559 65.3663 0.0000 0.8821 0.0000
# 3 32.1415 65.3663 115.3237 0.0000 6.0375 0.0000
# 4 0.0000 0.0000 0.0000 41.4240 0.0000 -3.3804
# 5 6.2047 0.8821 6.0375 0.0000 35.2916 0.0000
# 6 0.0000 0.0000 0.0000 -3.3804 0.0000 31.2396
#
#
#
# Elastic Compliance Matrix: (Units=1/GPa)
#
#
# Indices 1 2 3 4 5 6 
#
# 1 0.020877 -0.007928 -0.001153 0.000000 -0.003275 0.000000
# 2 -0.007928 0.013130 -0.005336 0.000000 0.001979 0.000000
# 3 -0.001153 -0.005336 0.012108 0.000000 -0.001735 0.000000
# 4 0.000000 0.000000 0.000000 0.024356 0.000000 0.002635
# 5 -0.003275 0.001979 -0.001735 0.000000 0.029159 0.000000
# 6 0.000000 0.000000 0.000000 0.002635 0.000000 0.032296
#
#
# Mechanical properties :
#
#
# Convention : Reuss Voigt Hill
#
# Bulk Modulus (GPa) = 57.87110 69.88024 63.87567
# Shear Modulus (GPa) = 30.02653 32.93430 31.48041
#
# Velocity S-wave (km/s) = 3.79810 3.97775 3.88896
# Velocity P-wave (km/s) = 6.85834 7.39385 7.13113
#
# Compressibility (1/GPa) = 0.01727978
#
# Stress axis : x y z
#
# Youngs Moduli (GPa) = 47.90040 76.16247 82.58918
#
# Poissons Ratio (x) = 0.60380 0.09526
# Poissons Ratio (y) = 0.37975 0.44071
# Poissons Ratio (z) = 0.05525 0.40641
#
# Static dielectric constant tensor:
#      x y z
#    x 3.749950 0.000000 0.106800 
#    y 0.000000 3.974070 0.000000 
#    z 0.106800 0.000000 3.734550 
# 
# 
# High freq. dielectric constant tensor:
#      x y z
#    x 1.804400 0.000000 0.010260 
#    y 0.000000 1.831310 0.000000 
#    z 0.010260 0.000000 1.819780 
# 
# From -- ./inp_files/19247.got.cif
#   From: 2010.03.12/outbox.cif.g09.slc.cpg/sg8_10_cif.got.tgz:19247.got - 2010.03.31 10:45:26.
