data_PCOD8053949
_publ_section_title
;
Structure prediction by ZEFSAII (Michael W. Deem and Ramdas Pophale) SiO2 
 PCOD8053949
Probable space group: C M
;
_chemical_formula_sum "Si O2"
_cell_formula_units_Z 20
_cell_length_a 13.313558
_cell_length_b 14.288226
_cell_length_c 7.288069
_cell_angle_alpha 90.000000
_cell_angle_beta 41.744937
_cell_angle_gamma 90.000000
_cell_volume 923.079226
_symmetry_space_group_name_H-M "C M"
_symmetry_group_IT_number 8
_symmetry_cell_setting 'monoclinic'
loop_
_space_group_symop_operation_xyz
x,y,z
x,-y,z
1/2+x,1/2+y,z
1/2+x,1/2-y,z
loop_
_atom_site_type_symbol
_atom_site_label
_atom_site_fract_x
_atom_site_fract_y
_atom_site_fract_z
Si Si1 0.625000 0.500000 0.860370
Si Si2 0.301213 0.000000 0.959535
Si Si3 0.581781 0.659765 0.304928
Si Si4 0.060082 0.800210 0.912960
Si Si5 0.884128 0.000000 0.518036
Si Si6 0.144429 0.500000 0.566278
Si Si7 0.216182 0.298221 0.389639
O O1 0.783733 0.500000 0.759251
O O2 0.603608 0.404513 0.773518
O O3 0.492905 0.500000 0.192071
O O4 0.466324 0.000000 0.816395
O O5 0.224564 0.906990 0.144199
O O6 0.429230 0.597977 0.556994
O O7 0.594733 0.745760 0.426950
O O8 0.585992 0.702666 0.095177
O O9 0.171350 0.727236 0.660955
O O10 0.887436 0.771421 0.107798
O O11 0.711643 0.000000 0.683641
O O12 0.201637 0.409185 0.379153
#
# Coordination Sequence:
#
# PCOD8053949 Si02
#       7
#     2   2   4   4   2   2   4
#     4   8  16  40  60  85 126 169 198 249 327 369
#     4   8  18  35  61  90 125 161 201 265 310 364
#     4   9  20  41  63  91 122 168 211 247 317 378
#     4  10  22  40  64  92 128 164 209 260 311 374
#     4   8  16  39  61  82 129 165 193 262 317 362
#     4  12  20  38  60  93 132 159 206 266 318 351
#     4  12  23  38  66  93 124 169 212 254 313 376
#
# _framework density 21.666609999999999
#
# number of rings (size 3 to 8) (size 9 to 14) (size 15 to 20)
#    0.000    2.800    4.000    1.200    0.000    6.400 
#    0.000    2.000    0.000    0.000    0.000    0.000 
#    0.000    0.000    0.000    0.000    0.000    0.000 
#
# Total GULP energy -123903.124139 kJ/mol
# GULP energy per Si atom -12390.312414 kJ/mol
# Density = 2.161730 g / cm^3
# Si number density = 21.666610 Si / 1000 Ang^3
#
#
#
# Elastic Constant Matrix: (Units=GPa)
#
#
# Indices 1 2 3 4 5 6 
#
# 1 123.4170 48.2309 29.1478 0.0000 -26.3551 0.0000
# 2 48.2309 133.2701 21.7646 0.0000 3.4196 0.0000
# 3 29.1478 21.7646 55.1158 0.0000 -16.0185 0.0000
# 4 0.0000 0.0000 0.0000 12.3527 0.0000 2.2994
# 5 -26.3551 3.4196 -16.0185 0.0000 41.3307 0.0000
# 6 0.0000 0.0000 0.0000 2.2994 0.0000 41.4117
#
#
#
# Elastic Compliance Matrix: (Units=1/GPa)
#
#
# Indices 1 2 3 4 5 6 
#
# 1 0.011738 -0.003987 -0.002662 0.000000 0.006783 0.000000
# 2 -0.003987 0.009545 -0.002963 0.000000 -0.004481 0.000000
# 3 -0.002662 -0.002963 0.022876 0.000000 0.007414 0.000000
# 4 0.000000 0.000000 0.000000 0.081799 0.000000 -0.004542
# 5 0.006783 -0.004481 0.007414 0.000000 0.031765 0.000000
# 6 0.000000 0.000000 0.000000 -0.004542 0.000000 0.024400
#
#
# Mechanical properties :
#
#
# Convention : Reuss Voigt Hill
#
# Bulk Modulus (GPa) = 40.10328 56.67661 48.38994
# Shear Modulus (GPa) = 23.84825 33.19634 28.52229
#
# Velocity S-wave (km/s) = 3.32127 3.91851 3.63218
# Velocity P-wave (km/s) = 5.76690 6.83288 6.32240
#
# Compressibility (1/GPa) = 0.02493562
#
# Stress axis : x y z
#
# Youngs Moduli (GPa) = 85.19340 104.76181 43.71402
#
# Poissons Ratio (x) = 0.41773 0.11635
# Poissons Ratio (y) = 0.33970 0.12952
# Poissons Ratio (z) = 0.22675 0.31040
#
# Static dielectric constant tensor:
#      x y z
#    x 3.984900 0.000000 -0.263370 
#    y 0.000000 4.373780 0.000000 
#    z -0.263370 0.000000 3.357290 
# 
# 
# High freq. dielectric constant tensor:
#      x y z
#    x 1.847020 0.000000 -0.020950 
#    y 0.000000 1.865300 0.000000 
#    z -0.020950 0.000000 1.798650 
# 
# From -- ./inp_files/10550.got.cif
#   From: 2010.03.12/outbox.cif.g09.slc.cpg/sg8_6_cif.got.tgz:10550.got - 2010.03.31 10:45:26.
