data_PCOD8053943
_publ_section_title
;
Structure prediction by ZEFSAII (Michael W. Deem and Ramdas Pophale) SiO2 
 PCOD8053943
Probable space group: C M
;
_chemical_formula_sum "Si O2"
_cell_formula_units_Z 28
_cell_length_a 14.568813
_cell_length_b 9.306896
_cell_length_c 11.730181
_cell_angle_alpha 90.000000
_cell_angle_beta 57.775442
_cell_angle_gamma 90.000000
_cell_volume 1345.507053
_symmetry_space_group_name_H-M "C M"
_symmetry_group_IT_number 8
_symmetry_cell_setting 'monoclinic'
loop_
_space_group_symop_operation_xyz
x,y,z
x,-y,z
1/2+x,1/2+y,z
1/2+x,1/2-y,z
loop_
_atom_site_type_symbol
_atom_site_label
_atom_site_fract_x
_atom_site_fract_y
_atom_site_fract_z
Si Si1 0.555830 0.339566 0.606550
Si Si2 0.362800 0.338815 0.176389
Si Si3 0.807506 0.163687 0.806242
Si Si4 0.631695 0.751198 0.318785
Si Si5 0.418179 0.162168 0.351348
Si Si6 0.285616 0.160083 0.037476
Si Si7 0.736677 0.833406 0.604254
O O1 0.575075 0.500000 0.642171
O O2 0.431138 0.293835 0.697879
O O3 0.589811 0.342944 0.451615
O O4 0.622173 0.223706 0.634925
O O5 0.410177 0.500000 0.137152
O O6 0.234004 0.347186 0.294611
O O7 0.428563 0.247993 0.226099
O O8 0.374990 0.257221 0.046191
O O9 0.736384 0.185968 0.740360
O O10 0.799007 0.000000 0.855166
O O11 0.758795 0.267139 0.934678
O O12 0.534551 0.848390 0.335099
O O13 0.675647 0.650915 0.186321
O O14 0.334146 0.242098 0.487930
O O15 0.377022 0.000000 0.354392
O O16 0.331202 0.000000 0.987763
O O17 0.752729 0.000000 0.559651
#
# Coordination Sequence:
#
# PCOD8053943 Si02
#       7
#     4   4   4   4   4   4   4
#     4  11  22  41  67  93 123 161 206 258 309 364
#     4  10  22  40  62  89 123 160 201 252 305 364
#     4  10  23  43  63  87 125 169 206 253 310 366
#     4  10  23  39  65  92 122 161 202 256 304 365
#     4  12  23  37  62  95 126 161 205 258 309 365
#     4  10  22  41  66  92 123 164 206 255 308 366
#     4  11  23  39  61  92 126 164 206 254 309 366
#
# _framework density 20.809999999999999
#
# number of rings (size 3 to 8) (size 9 to 14) (size 15 to 20)
#    0.857    0.571    2.857    2.571    0.000    4.000 
#    2.571    0.000    0.000    0.000    0.000    0.000 
#    0.000    0.000    0.000    0.000    0.000    0.000 
#
# Total GULP energy -173556.601957 kJ/mol
# GULP energy per Si atom -12396.900140 kJ/mol
# Density = 2.076264 g / cm^3
# Si number density = 20.810000 Si / 1000 Ang^3
#
#
#
# Elastic Constant Matrix: (Units=GPa)
#
#
# Indices 1 2 3 4 5 6 
#
# 1 98.1896 39.4249 21.8780 0.0000 12.2383 0.0000
# 2 39.4249 161.5204 43.4393 0.0000 22.9542 0.0000
# 3 21.8780 43.4393 91.3536 0.0000 19.3443 0.0000
# 4 0.0000 0.0000 0.0000 29.3323 0.0000 3.4517
# 5 12.2383 22.9542 19.3443 0.0000 28.9104 0.0000
# 6 0.0000 0.0000 0.0000 3.4517 0.0000 23.0505
#
#
#
# Elastic Compliance Matrix: (Units=1/GPa)
#
#
# Indices 1 2 3 4 5 6 
#
# 1 0.011628 -0.002165 -0.001255 0.000000 -0.002364 0.000000
# 2 -0.002165 0.007908 -0.002454 0.000000 -0.003720 0.000000
# 3 -0.001255 -0.002454 0.013851 0.000000 -0.006788 0.000000
# 4 0.000000 0.000000 0.000000 0.034704 0.000000 -0.005197
# 5 -0.002364 -0.003720 -0.006788 0.000000 0.043087 0.000000
# 6 0.000000 0.000000 0.000000 -0.005197 0.000000 0.044161
#
#
# Mechanical properties :
#
#
# Convention : Reuss Voigt Hill
#
# Bulk Modulus (GPa) = 46.21067 62.28310 54.24688
# Shear Modulus (GPa) = 28.68620 32.68006 30.68313
#
# Velocity S-wave (km/s) = 3.71682 3.96713 3.84401
# Velocity P-wave (km/s) = 6.37761 7.13992 6.76950
#
# Compressibility (1/GPa) = 0.02164003
#
# Stress axis : x y z
#
# Youngs Moduli (GPa) = 86.00090 126.44908 72.19465
#
# Poissons Ratio (x) = 0.27373 0.09059
# Poissons Ratio (y) = 0.18617 0.17718
# Poissons Ratio (z) = 0.10791 0.31033
#
# Static dielectric constant tensor:
#      x y z
#    x 3.690060 0.000000 0.178670 
#    y 0.000000 3.608130 0.000000 
#    z 0.178670 0.000000 3.560340 
# 
# 
# High freq. dielectric constant tensor:
#      x y z
#    x 1.808160 0.000000 0.018220 
#    y 0.000000 1.814660 0.000000 
#    z 0.018220 0.000000 1.800040 
# 
# From -- ./inp_files/21462.got.cif
#   From: 2010.03.12/outbox.cif.g09.slc.cpg/sg8_11_cif.got.tgz:21462.got - 2010.03.31 10:45:26.
