data_PCOD8053577
_publ_section_title
;
Structure prediction by ZEFSAII (Michael W. Deem and Ramdas Pophale) SiO2 
 PCOD8053577
Probable space group: C M
;
_chemical_formula_sum "Si O2"
_cell_formula_units_Z 32
_cell_length_a 25.265879
_cell_length_b 8.975323
_cell_length_c 16.697626
_cell_angle_alpha 90.000000
_cell_angle_beta 154.283818
_cell_angle_gamma 90.000000
_cell_volume 1643.018479
_symmetry_space_group_name_H-M "C M"
_symmetry_group_IT_number 8
_symmetry_cell_setting 'monoclinic'
loop_
_space_group_symop_operation_xyz
x,y,z
x,-y,z
1/2+x,1/2+y,z
1/2+x,1/2-y,z
loop_
_atom_site_type_symbol
_atom_site_label
_atom_site_fract_x
_atom_site_fract_y
_atom_site_fract_z
Si Si1 0.173600 0.324084 0.320490
Si Si2 0.733003 0.177387 0.823617
Si Si3 0.288802 0.174126 0.061950
Si Si4 0.958554 0.671399 0.432741
Si Si5 0.053107 0.832120 0.824194
Si Si6 0.839284 0.168266 0.408958
Si Si7 0.400688 0.176818 0.922629
Si Si8 0.876840 0.178189 0.718941
O O1 0.188550 0.500000 0.333092
O O2 0.232273 0.259023 0.318047
O O3 0.249944 0.274165 0.502666
O O4 0.033637 0.274426 0.137039
O O5 0.593902 0.237691 0.629225
O O6 0.800638 0.243483 0.839543
O O7 0.739663 0.000000 0.829126
O O8 0.798143 0.235671 0.992437
O O9 0.415637 0.195766 0.282461
O O10 0.264887 0.000000 0.009733
O O11 0.179744 0.243149 0.968517
O O12 0.961847 0.500000 0.460272
O O13 0.856788 0.742875 0.351071
O O14 0.964183 0.823523 0.627884
O O15 0.988938 0.763221 0.815742
O O16 0.084239 0.000000 0.890065
O O17 0.806610 0.000000 0.340582
O O18 0.384080 0.232328 0.810222
O O19 0.384081 0.000000 0.903681
O O20 0.881764 0.000000 0.739543
#
# Coordination Sequence:
#
# PCOD8053577 Si02
#       8
#     4   4   4   4   4   4   4   4
#     4   8  18  36  57  82 114 149 184 224 279 336
#     4  11  24  42  57  79 114 151 191 237 282 327
#     4  10  20  37  59  84 111 148 189 228 277 337
#     4  10  22  36  55  84 116 146 182 230 285 333
#     4   8  15  30  56  84 112 145 181 218 269 335
#     4   9  16  32  58  84 113 148 183 223 273 335
#     4  11  23  39  59  83 111 150 193 234 278 331
#     4   9  18  36  59  84 113 149 185 226 277 334
#
# _framework density 19.476348000000002
#
# number of rings (size 3 to 8) (size 9 to 14) (size 15 to 20)
#    0.000    2.500    1.250    2.250    1.750    2.000 
#    0.000   10.000    0.000    0.000    0.000    0.000 
#    0.000    0.000    0.000    0.000    0.000    0.000 
#
# Total GULP energy -198324.252225 kJ/mol
# GULP energy per Si atom -12395.265764 kJ/mol
# Density = 1.943202 g / cm^3
# Si number density = 19.476348 Si / 1000 Ang^3
#
#
#
# Elastic Constant Matrix: (Units=GPa)
#
#
# Indices 1 2 3 4 5 6 
#
# 1 103.5931 31.6806 27.7502 0.0000 -12.4648 0.0000
# 2 31.6806 48.7114 24.9658 0.0000 -4.4077 0.0000
# 3 27.7502 24.9658 66.1680 0.0000 -8.9655 0.0000
# 4 0.0000 0.0000 0.0000 22.8780 0.0000 -6.3029
# 5 -12.4648 -4.4077 -8.9655 0.0000 28.1502 0.0000
# 6 0.0000 0.0000 0.0000 -6.3029 0.0000 32.4077
#
#
#
# Elastic Compliance Matrix: (Units=1/GPa)
#
#
# Indices 1 2 3 4 5 6 
#
# 1 0.012815 -0.006816 -0.002277 0.000000 0.003882 0.000000
# 2 -0.006816 0.029102 -0.008270 0.000000 -0.001095 0.000000
# 3 -0.002277 -0.008270 0.019727 0.000000 0.003980 0.000000
# 4 0.000000 0.000000 0.000000 0.046185 0.000000 0.008982
# 5 0.003882 -0.001095 0.003980 0.000000 0.038339 0.000000
# 6 0.000000 0.000000 0.000000 0.008982 0.000000 0.032604
#
#
# Mechanical properties :
#
#
# Convention : Reuss Voigt Hill
#
# Bulk Modulus (GPa) = 37.14981 43.02953 40.08967
# Shear Modulus (GPa) = 22.47501 25.62557 24.05029
#
# Velocity S-wave (km/s) = 3.40069 3.63123 3.51785
# Velocity P-wave (km/s) = 5.87668 6.30256 6.09334
#
# Compressibility (1/GPa) = 0.02691804
#
# Stress axis : x y z
#
# Youngs Moduli (GPa) = 78.03608 34.36227 50.69082
#
# Poissons Ratio (x) = 0.23422 0.11540
# Poissons Ratio (y) = 0.53191 0.41922
# Poissons Ratio (z) = 0.17765 0.28418
#
# Static dielectric constant tensor:
#      x y z
#    x 3.616490 0.000000 0.165930 
#    y 0.000000 3.232830 0.000000 
#    z 0.165930 0.000000 3.675140 
# 
# 
# High freq. dielectric constant tensor:
#      x y z
#    x 1.762240 0.000000 0.000390 
#    y 0.000000 1.724760 0.000000 
#    z 0.000390 0.000000 1.763100 
# 
# From -- ./inp_files/28189.got.cif
#   From: 2010.03.12/outbox.cif.g09.slc.cpg/sg8_15_cif.got.tgz:28189.got - 2010.03.31 10:45:26.
