data_PCOD8053081
_publ_section_title
;
Structure prediction by ZEFSAII (Michael W. Deem and Ramdas Pophale) SiO2 
 PCOD8053081
Probable space group: C M
;
_chemical_formula_sum "Si O2"
_cell_formula_units_Z 32
_cell_length_a 15.010372
_cell_length_b 9.305567
_cell_length_c 22.190261
_cell_angle_alpha 90.000000
_cell_angle_beta 147.453634
_cell_angle_gamma 90.000000
_cell_volume 1667.494466
_symmetry_space_group_name_H-M "C M"
_symmetry_group_IT_number 8
_symmetry_cell_setting 'monoclinic'
loop_
_space_group_symop_operation_xyz
x,y,z
x,-y,z
1/2+x,1/2+y,z
1/2+x,1/2-y,z
loop_
_atom_site_type_symbol
_atom_site_label
_atom_site_fract_x
_atom_site_fract_y
_atom_site_fract_z
Si Si1 0.185550 0.336061 0.634280
Si Si2 0.269174 0.164700 0.063080
Si Si3 0.699705 0.836515 0.847054
Si Si4 0.978446 0.669128 0.066816
Si Si5 0.491037 0.836351 0.847732
Si Si6 0.805559 0.666637 0.221254
Si Si7 0.449981 0.836638 0.603484
Si Si8 0.145261 0.330617 0.475137
O O1 0.250424 0.500000 0.670163
O O2 0.315277 0.240753 0.744712
O O3 0.010568 0.325729 0.569092
O O4 0.158692 0.277456 0.551634
O O5 0.409087 0.206906 0.093924
O O6 0.338824 0.192719 0.169411
O O7 0.216044 0.000000 0.023155
O O8 0.105457 0.260666 0.962713
O O9 0.574434 0.822588 0.830606
O O10 0.599743 0.782760 0.731667
O O11 0.763638 0.000000 0.875723
O O12 0.858015 0.734945 0.947102
O O13 0.991624 0.500000 0.063497
O O14 0.157610 0.738928 0.163081
O O15 0.464562 0.000000 0.852539
O O16 0.765658 0.500000 0.211473
O O17 0.969308 0.718938 0.348974
O O18 0.288680 0.740053 0.517432
O O19 0.404568 0.000000 0.595435
O O20 0.166006 0.500000 0.481470
#
# Coordination Sequence:
#
# PCOD8053081 Si02
#       8
#     4   4   4   4   4   4   4   4
#     4  10  21  36  56  83 114 148 185 227 281 336
#     4   9  20  38  57  79 112 151 186 225 280 337
#     4   9  18  34  55  80 114 150 181 221 280 342
#     4  10  21  36  56  85 113 143 187 237 280 325
#     4  10  19  33  56  85 115 144 183 232 279 329
#     4  10  22  40  60  80 111 155 192 226 279 340
#     4  10  21  37  57  82 112 150 188 226 282 339
#     4  10  22  40  59  82 113 149 192 236 275 326
#
# _framework density 19.190469
#
# number of rings (size 3 to 8) (size 9 to 14) (size 15 to 20)
#    0.000    2.250    1.250    0.750    1.750    4.000 
#    0.000    0.000    0.000    0.000    0.000    0.000 
#    0.000    0.000    0.000    0.000    0.000    0.000 
#
# Total GULP energy -198455.861597 kJ/mol
# GULP energy per Si atom -12403.491350 kJ/mol
# Density = 1.914679 g / cm^3
# Si number density = 19.190469 Si / 1000 Ang^3
#
#
#
# Elastic Constant Matrix: (Units=GPa)
#
#
# Indices 1 2 3 4 5 6 
#
# 1 70.1879 36.9421 45.6467 -0.0002 11.7113 -0.0001
# 2 36.9421 81.9849 61.7325 0.0001 12.8057 0.0000
# 3 45.6467 61.7325 133.1583 0.0014 16.4663 0.0001
# 4 -0.0002 0.0001 0.0014 30.3069 0.0003 10.0072
# 5 11.7113 12.8057 16.4663 0.0003 25.2539 0.0000
# 6 -0.0001 0.0000 0.0001 10.0072 0.0000 27.7008
#
#
#
# Elastic Compliance Matrix: (Units=1/GPa)
#
#
# Indices 1 2 3 4 5 6 
#
# 1 0.020422 -0.005643 -0.003880 0.000000 -0.004079 0.000000
# 2 -0.005643 0.020712 -0.007279 0.000000 -0.003139 0.000000
# 3 -0.003880 -0.007279 0.012547 -0.000001 -0.002691 0.000000
# 4 0.000000 0.000000 -0.000001 0.037465 0.000000 -0.013535
# 5 -0.004079 -0.003139 -0.002691 0.000000 0.044836 0.000000
# 6 0.000000 0.000000 0.000000 -0.013535 0.000000 0.040990
#
#
# Mechanical properties :
#
#
# Convention : Reuss Voigt Hill
#
# Bulk Modulus (GPa) = 49.81166 63.77485 56.79326
# Shear Modulus (GPa) = 23.01313 26.05298 24.53305
#
# Velocity S-wave (km/s) = 3.46670 3.68856 3.57935
# Velocity P-wave (km/s) = 6.48358 7.17254 6.83674
#
# Compressibility (1/GPa) = 0.02007562
#
# Stress axis : x y z
#
# Youngs Moduli (GPa) = 48.96771 48.28209 79.69850
#
# Poissons Ratio (x) = 0.27247 0.30922
# Poissons Ratio (y) = 0.27634 0.58014
# Poissons Ratio (z) = 0.18999 0.35146
#
# Static dielectric constant tensor:
#      x y z
#    x 3.520660 0.000000 -0.099840 
#    y 0.000000 3.493260 0.000000 
#    z -0.099840 0.000000 3.425100 
# 
# 
# High freq. dielectric constant tensor:
#      x y z
#    x 1.751840 0.000000 -0.002130 
#    y 0.000000 1.742190 0.000000 
#    z -0.002130 0.000000 1.737850 
# 
# From -- ./inp_files/21515.got.cif
#   From: 2010.03.12/outbox.cif.g09.slc.cpg/sg8_11_cif.got.tgz:21515.got - 2010.03.31 10:45:26.
