data_PCOD8053358
_publ_section_title
;
Structure prediction by ZEFSAII (Michael W. Deem and Ramdas Pophale) SiO2 
 PCOD8053358
Probable space group: C M
;
_chemical_formula_sum "Si O2"
_cell_formula_units_Z 32
_cell_length_a 20.007894
_cell_length_b 8.836954
_cell_length_c 25.146847
_cell_angle_alpha 90.000000
_cell_angle_beta 156.840020
_cell_angle_gamma 90.000000
_cell_volume 1748.683668
_symmetry_space_group_name_H-M "C M"
_symmetry_group_IT_number 8
_symmetry_cell_setting 'monoclinic'
loop_
_space_group_symop_operation_xyz
x,y,z
x,-y,z
1/2+x,1/2+y,z
1/2+x,1/2-y,z
loop_
_atom_site_type_symbol
_atom_site_label
_atom_site_fract_x
_atom_site_fract_y
_atom_site_fract_z
Si Si1 0.365810 0.673608 0.397940
Si Si2 0.715534 0.676281 0.936883
Si Si3 0.112682 0.825310 0.488804
Si Si4 0.385003 0.675077 0.758640
Si Si5 0.709228 0.676732 0.445166
Si Si6 0.691406 0.676100 0.707032
Si Si7 0.060310 0.178446 0.226509
Si Si8 0.088691 0.679283 0.736848
O O1 0.307690 0.500000 0.361817
O O2 0.434739 0.705345 0.388616
O O3 0.515091 0.713511 0.548453
O O4 0.207511 0.783583 0.291727
O O5 0.725967 0.500000 0.931032
O O6 0.576292 0.709627 0.880323
O O7 0.672997 0.763117 0.852077
O O8 0.892298 0.733699 0.088613
O O9 0.261444 0.721660 0.620347
O O10 0.092894 0.788542 0.411749
O O11 0.167795 0.000000 0.538247
O O12 0.355709 0.500000 0.749995
O O13 0.347289 0.769643 0.784315
O O14 0.731296 0.500000 0.451726
O O15 0.618845 0.743761 0.326845
O O16 0.897369 0.746044 0.591227
O O17 0.712811 0.500000 0.733991
O O18 0.700194 0.764312 0.768869
O O19 0.025523 0.000000 0.201221
O O20 0.088511 0.500000 0.738188
#
# Coordination Sequence:
#
# PCOD8053358 Si02
#       8
#     4   4   4   4   4   4   4   4
#     4   9  18  32  53  80 112 147 181 227 280 332
#     4  11  24  40  56  81 116 153 192 235 284 339
#     4   9  17  33  56  82 111 144 184 230 283 336
#     4  10  20  34  54  81 113 147 187 235 283 332
#     4   9  18  33  56  85 112 140 184 233 277 329
#     4  10  20  34  56  85 116 148 186 232 282 336
#     4  11  22  37  57  81 111 151 191 231 283 342
#     4  11  20  35  60  87 115 146 187 239 282 332
#
# _framework density 18.299479999999999
#
# number of rings (size 3 to 8) (size 9 to 14) (size 15 to 20)
#    0.000    2.000    2.500    2.625    0.000    3.500 
#    0.000    2.500    0.000    4.500    0.000    0.000 
#    0.000    0.000    0.000    0.000    0.000    0.000 
#
# Total GULP energy -198423.179500 kJ/mol
# GULP energy per Si atom -12401.448719 kJ/mol
# Density = 1.825783 g / cm^3
# Si number density = 18.299480 Si / 1000 Ang^3
#
#
#
# Elastic Constant Matrix: (Units=GPa)
#
#
# Indices 1 2 3 4 5 6 
#
# 1 142.5884 46.0830 62.2720 0.0025 2.2806 -0.0005
# 2 46.0830 66.1749 35.1822 -0.0290 6.7307 -0.0042
# 3 62.2720 35.1822 94.7622 -0.0412 0.6730 -0.0074
# 4 0.0025 -0.0290 -0.0412 26.7911 -0.0020 2.4207
# 5 2.2806 6.7307 0.6730 -0.0020 26.2083 0.0020
# 6 -0.0005 -0.0042 -0.0074 2.4207 0.0020 29.4035
#
#
#
# Elastic Compliance Matrix: (Units=1/GPa)
#
#
# Indices 1 2 3 4 5 6 
#
# 1 0.010905 -0.004765 -0.005400 -0.000014 0.000413 -0.000001
# 2 -0.004765 0.021496 -0.004814 0.000016 -0.004982 0.000001
# 3 -0.005400 -0.004814 0.015879 0.000020 0.001298 0.000001
# 4 -0.000014 0.000016 0.000020 0.037606 0.000000 -0.003096
# 5 0.000413 -0.004982 0.001298 0.000000 0.039366 -0.000003
# 6 -0.000001 0.000001 0.000001 -0.003096 -0.000003 0.034264
#
#
# Mechanical properties :
#
#
# Convention : Reuss Voigt Hill
#
# Bulk Modulus (GPa) = 54.57881 65.62219 60.10050
# Shear Modulus (GPa) = 25.56481 27.14649 26.35565
#
# Velocity S-wave (km/s) = 3.74173 3.85575 3.79917
# Velocity P-wave (km/s) = 6.96832 7.46729 7.22211
#
# Compressibility (1/GPa) = 0.01832213
#
# Stress axis : x y z
#
# Youngs Moduli (GPa) = 91.70228 46.52031 62.97545
#
# Poissons Ratio (x) = 0.22168 0.34005
# Poissons Ratio (y) = 0.43698 0.30316
# Poissons Ratio (z) = 0.49517 0.22395
#
# Static dielectric constant tensor:
#      x y z
#    x 3.583320 0.000000 0.061280 
#    y 0.000000 3.307910 -0.000010 
#    z 0.061280 -0.000010 3.165660 
# 
# 
# High freq. dielectric constant tensor:
#      x y z
#    x 1.725410 0.000000 0.007700 
#    y 0.000000 1.707250 0.000000 
#    z 0.007700 0.000000 1.679210 
# 
# From -- ./inp_files/15821.got.cif
#   From: 2010.03.12/outbox.cif.g09.slc.cpg/sg8_8_cif.got.tgz:15821.got - 2010.03.31 10:45:26.
