data_PCOD8053114
_publ_section_title
;
Structure prediction by ZEFSAII (Michael W. Deem and Ramdas Pophale) SiO2 
 PCOD8053114
Probable space group: C M
;
_chemical_formula_sum "Si O2"
_cell_formula_units_Z 32
_cell_length_a 20.622075
_cell_length_b 8.766077
_cell_length_c 25.410630
_cell_angle_alpha 90.000000
_cell_angle_beta 22.226866
_cell_angle_gamma 90.000000
_cell_volume 1737.643119
_symmetry_space_group_name_H-M "C M"
_symmetry_group_IT_number 8
_symmetry_cell_setting 'monoclinic'
loop_
_space_group_symop_operation_xyz
x,y,z
x,-y,z
1/2+x,1/2+y,z
1/2+x,1/2-y,z
loop_
_atom_site_type_symbol
_atom_site_label
_atom_site_fract_x
_atom_site_fract_y
_atom_site_fract_z
Si Si1 0.948120 0.320418 0.714850
Si Si2 0.731753 0.179597 0.585792
Si Si3 0.911871 0.680259 0.015035
Si Si4 0.497087 0.818679 0.561241
Si Si5 0.274270 0.323736 0.273013
Si Si6 0.589844 0.178249 0.988868
Si Si7 0.166994 0.819192 0.746392
Si Si8 0.588168 0.823151 0.303769
O O1 0.930345 0.500000 0.724167
O O2 0.995586 0.253461 0.621577
O O3 0.767632 0.256443 0.870299
O O4 0.094337 0.271292 0.645327
O O5 0.685145 0.273353 0.672512
O O6 0.915925 0.227169 0.425069
O O7 0.727337 0.000000 0.600924
O O8 0.885590 0.500000 0.033088
O O9 0.727183 0.759844 0.158203
O O10 0.029105 0.730858 0.976492
O O11 0.998692 0.739309 0.896526
O O12 0.670304 0.763389 0.401987
O O13 0.331206 0.756658 0.654943
O O14 0.492886 0.000000 0.562938
O O15 0.326077 0.500000 0.239145
O O16 0.151764 0.297344 0.315249
O O17 0.447932 0.227255 0.138154
O O18 0.616565 0.000000 0.971728
O O19 0.147961 0.000000 0.765395
O O20 0.552488 0.000000 0.318971
#
# Coordination Sequence:
#
# PCOD8053114 Si02
#       8
#     4   4   4   4   4   4   4   4
#     4  10  21  38  58  79 110 152 188 221 272 338
#     4  11  23  37  55  82 116 151 186 232 284 332
#     4  10  20  34  54  85 117 144 181 234 286 327
#     4   9  17  33  57  83 105 136 187 231 266 321
#     4   9  17  32  55  81 106 138 182 230 274 326
#     4  10  20  33  52  82 114 144 179 228 280 323
#     4  11  20  35  59  84 110 145 190 236 275 330
#     4  10  19  34  56  82 110 148 191 228 275 333
#
# _framework density 18.415749000000002
#
# number of rings (size 3 to 8) (size 9 to 14) (size 15 to 20)
#    0.000    2.000    2.500    1.875    0.000    2.500 
#    0.000    1.875    0.000    6.000    0.000    0.000 
#    0.000    0.000    0.000    0.000    0.000    0.000 
#
# Total GULP energy -198450.985060 kJ/mol
# GULP energy per Si atom -12403.186566 kJ/mol
# Density = 1.837383 g / cm^3
# Si number density = 18.415749 Si / 1000 Ang^3
#
#
#
# Elastic Constant Matrix: (Units=GPa)
#
#
# Indices 1 2 3 4 5 6 
#
# 1 90.1842 24.4857 58.2807 -0.0092 0.6809 -0.0048
# 2 24.4857 28.4955 15.5564 -0.0097 -6.2518 -0.0023
# 3 58.2807 15.5564 138.4752 -0.0010 3.3209 -0.0046
# 4 -0.0092 -0.0097 -0.0010 33.5420 -0.0024 0.7617
# 5 0.6809 -6.2518 3.3209 -0.0024 27.5873 0.0015
# 6 -0.0048 -0.0023 -0.0046 0.7617 0.0015 22.2492
#
#
#
# Elastic Compliance Matrix: (Units=1/GPa)
#
#
# Indices 1 2 3 4 5 6 
#
# 1 0.018837 -0.013305 -0.006368 0.000001 -0.002713 0.000002
# 2 -0.013305 0.049155 -0.000198 0.000011 0.011492 0.000001
# 3 -0.006368 -0.000198 0.009950 -0.000002 -0.001085 0.000001
# 4 0.000001 0.000011 -0.000002 0.029837 0.000005 -0.001021
# 5 -0.002713 0.011492 -0.001085 0.000005 0.039050 -0.000003
# 6 0.000002 0.000001 0.000001 -0.001021 -0.000003 0.044980
#
#
# Mechanical properties :
#
#
# Convention : Reuss Voigt Hill
#
# Bulk Modulus (GPa) = 26.17809 50.42226 38.30017
# Shear Modulus (GPa) = 20.46795 27.26452 23.86623
#
# Velocity S-wave (km/s) = 3.33744 3.85190 3.60386
# Velocity P-wave (km/s) = 5.39419 6.87185 6.17736
#
# Compressibility (1/GPa) = 0.03819989
#
# Stress axis : x y z
#
# Youngs Moduli (GPa) = 53.08818 20.34369 100.50290
#
# Poissons Ratio (x) = 0.27067 0.64001
# Poissons Ratio (y) = 0.70633 0.01991
# Poissons Ratio (z) = 0.33807 0.00403
#
# Static dielectric constant tensor:
#      x y z
#    x 3.279490 0.000000 0.102710 
#    y 0.000000 3.247020 0.000020 
#    z 0.102710 0.000020 3.537630 
# 
# 
# High freq. dielectric constant tensor:
#      x y z
#    x 1.686240 0.000000 0.010520 
#    y 0.000000 1.708610 0.000000 
#    z 0.010520 0.000000 1.729640 
# 
# From -- ./inp_files/29779.got.cif
#   From: 2010.03.12/outbox.cif.g09.slc.cpg/sg8_15_cif.got.tgz:29779.got - 2010.03.31 10:45:26.
