data_PCOD8053477
_publ_section_title
;
Structure prediction by ZEFSAII (Michael W. Deem and Ramdas Pophale) SiO2 
 PCOD8053477
Probable space group: C M
;
_chemical_formula_sum "Si O2"
_cell_formula_units_Z 32
_cell_length_a 15.328369
_cell_length_b 8.677612
_cell_length_c 22.732327
_cell_angle_alpha 90.000000
_cell_angle_beta 31.481944
_cell_angle_gamma 90.000000
_cell_volume 1579.071347
_symmetry_space_group_name_H-M "C M"
_symmetry_group_IT_number 8
_symmetry_cell_setting 'monoclinic'
loop_
_space_group_symop_operation_xyz
x,y,z
x,-y,z
1/2+x,1/2+y,z
1/2+x,1/2-y,z
loop_
_atom_site_type_symbol
_atom_site_label
_atom_site_fract_x
_atom_site_fract_y
_atom_site_fract_z
Si Si1 0.405630 0.179185 0.500000
Si Si2 0.721726 0.821005 0.244675
Si Si3 0.936750 0.678514 0.027728
Si Si4 0.898042 0.323682 0.249736
Si Si5 0.630452 0.817704 0.479551
Si Si6 0.076430 0.681279 0.641770
Si Si7 0.776261 0.824027 0.014793
Si Si8 0.261198 0.818583 0.896060
O O1 0.535591 0.221602 0.373298
O O2 0.483729 0.226513 0.518105
O O3 0.236388 0.271343 0.587793
O O4 0.362789 0.000000 0.523575
O O5 0.769765 0.719562 0.160582
O O6 0.851162 0.785873 0.222473
O O7 0.735802 0.000000 0.219947
O O8 0.981552 0.500000 0.008601
O O9 0.904505 0.720139 0.978312
O O10 0.087596 0.780608 0.964893
O O11 0.850366 0.500000 0.261915
O O12 0.801380 0.268273 0.363547
O O13 0.094054 0.307371 0.148623
O O14 0.581651 0.754631 0.572043
O O15 0.663391 0.000000 0.459206
O O16 0.070663 0.500000 0.641875
O O17 0.909983 0.743144 0.768865
O O18 0.776622 0.769969 0.947982
O O19 0.837371 0.000000 0.982030
O O20 0.273053 0.000000 0.900765
#
# Coordination Sequence:
#
# PCOD8053477 Si02
#       8
#     4   4   4   4   4   4   4   4
#     4   9  20  37  59  88 121 160 202 245 298 360
#     4  10  20  37  61  89 127 165 200 248 311 369
#     4  12  25  40  62  93 124 162 209 256 313 372
#     4  10  20  35  59  91 125 158 203 253 304 363
#     4   9  20  39  59  85 122 163 200 242 305 367
#     4  10  23  41  63  90 120 159 206 251 302 365
#     4  11  24  41  62  91 125 163 209 257 309 369
#     4  11  24  44  65  89 126 166 209 260 310 365
#
# _framework density 20.265075
#
# number of rings (size 3 to 8) (size 9 to 14) (size 15 to 20)
#    0.000    1.750    1.250    3.375    1.750    6.500 
#    0.000    1.250    0.000    0.000    0.000    0.000 
#    0.000    0.000    0.000    0.000    0.000    0.000 
#
# Total GULP energy -198455.806214 kJ/mol
# GULP energy per Si atom -12403.487888 kJ/mol
# Density = 2.021895 g / cm^3
# Si number density = 20.265075 Si / 1000 Ang^3
#
#
#
# Elastic Constant Matrix: (Units=GPa)
#
#
# Indices 1 2 3 4 5 6 
#
# 1 107.1992 11.5464 53.1881 -0.0001 9.5775 0.0000
# 2 11.5464 44.8465 29.5184 0.0001 1.4576 0.0001
# 3 53.1881 29.5184 112.9715 -0.0010 16.3209 0.0007
# 4 -0.0001 0.0001 -0.0010 26.6520 0.0008 -4.9972
# 5 9.5775 1.4576 16.3209 0.0008 19.6951 0.0000
# 6 0.0000 0.0001 0.0007 -4.9972 0.0000 31.1767
#
#
#
# Elastic Compliance Matrix: (Units=1/GPa)
#
#
# Indices 1 2 3 4 5 6 
#
# 1 0.012219 0.000681 -0.005754 0.000000 -0.001224 0.000000
# 2 0.000681 0.027301 -0.008082 0.000000 0.004346 0.000000
# 3 -0.005754 -0.008082 0.014975 0.000001 -0.009013 0.000000
# 4 0.000000 0.000000 0.000001 0.038683 -0.000002 0.006200
# 5 -0.001224 0.004346 -0.009013 -0.000002 0.058517 0.000000
# 6 0.000000 0.000000 0.000000 0.006200 0.000000 0.033069
#
#
# Mechanical properties :
#
#
# Convention : Reuss Voigt Hill
#
# Bulk Modulus (GPa) = 35.47939 50.39144 42.93542
# Shear Modulus (GPa) = 22.67886 26.88905 24.78395
#
# Velocity S-wave (km/s) = 3.34894 3.64657 3.50092
# Velocity P-wave (km/s) = 5.70084 6.53070 6.12983
#
# Compressibility (1/GPa) = 0.02818538
#
# Stress axis : x y z
#
# Youngs Moduli (GPa) = 81.83695 36.62820 66.77907
#
# Poissons Ratio (x) = -0.02495 0.38426
# Poissons Ratio (y) = -0.05574 0.53972
# Poissons Ratio (z) = 0.47090 0.29603
#
# Static dielectric constant tensor:
#      x y z
#    x 3.652920 0.000000 0.151540 
#    y 0.000000 3.602340 0.000000 
#    z 0.151540 0.000000 3.892240 
# 
# 
# High freq. dielectric constant tensor:
#      x y z
#    x 1.794380 0.000000 0.004840 
#    y 0.000000 1.789550 0.000000 
#    z 0.004840 0.000000 1.788670 
# 
# From -- ./inp_files/28202.got.cif
#   From: 2010.03.12/outbox.cif.g09.slc.cpg/sg8_15_cif.got.tgz:28202.got - 2010.03.31 10:45:26.
