data_PCOD8053140
_publ_section_title
;
Structure prediction by ZEFSAII (Michael W. Deem and Ramdas Pophale) SiO2 
 PCOD8053140
Probable space group: C M
;
_chemical_formula_sum "Si O2"
_cell_formula_units_Z 32
_cell_length_a 20.370223
_cell_length_b 8.950684
_cell_length_c 25.183086
_cell_angle_alpha 90.000000
_cell_angle_beta 157.852196
_cell_angle_gamma 90.000000
_cell_volume 1731.007885
_symmetry_space_group_name_H-M "C M"
_symmetry_group_IT_number 8
_symmetry_cell_setting 'monoclinic'
loop_
_space_group_symop_operation_xyz
x,y,z
x,-y,z
1/2+x,1/2+y,z
1/2+x,1/2-y,z
loop_
_atom_site_type_symbol
_atom_site_label
_atom_site_fract_x
_atom_site_fract_y
_atom_site_fract_z
Si Si1 0.837830 0.824963 0.297810
Si Si2 0.486734 0.328234 0.712826
Si Si3 0.873023 0.326836 0.434347
Si Si4 0.621812 0.828430 0.713613
Si Si5 0.590638 0.828985 0.408554
Si Si6 0.062696 0.324734 0.264966
Si Si7 0.482267 0.330238 0.026290
Si Si8 0.792731 0.828067 0.995140
O O1 0.903949 0.744966 0.400473
O O2 0.642268 0.778982 0.135545
O O3 0.964203 0.781029 0.344817
O O4 0.844256 0.000000 0.312010
O O5 0.544117 0.500000 0.759173
O O6 0.514683 0.274826 0.673444
O O7 0.285142 0.307558 0.576660
O O8 0.599872 0.233828 0.839244
O O9 0.828513 0.500000 0.393082
O O10 0.711921 0.254120 0.343299
O O11 0.049748 0.303152 0.600448
O O12 0.596838 0.000000 0.713802
O O13 0.827474 0.789454 0.869067
O O14 0.584885 0.783037 0.342813
O O15 0.529159 0.000000 0.369971
O O16 0.075591 0.500000 0.264378
O O17 0.875713 0.264273 0.105662
O O18 0.545869 0.500000 0.065820
O O19 0.412598 0.305822 0.033412
O O20 0.777158 0.000000 0.000010
#
# Coordination Sequence:
#
# PCOD8053140 Si02
#       8
#     4   4   4   4   4   4   4   4
#     4  12  25  38  57  84 115 154 196 238 283 342
#     4  10  19  34  57  85 115 149 187 235 287 337
#     4  11  21  36  59  86 117 151 188 237 290 343
#     4   9  19  34  57  86 113 146 188 232 285 343
#     4  10  23  41  59  82 116 154 190 234 292 346
#     4  11  21  36  59  88 115 146 193 242 284 336
#     4   9  18  35  56  81 114 150 187 230 284 341
#     4  10  20  34  56  86 117 152 187 232 285 338
#
# _framework density 18.486339000000001
#
# number of rings (size 3 to 8) (size 9 to 14) (size 15 to 20)
#    0.000    1.750    2.500    3.375    0.000    4.500 
#    0.000    1.250    0.000    3.000    0.000    0.000 
#    0.000    0.000    0.000    0.000    0.000    0.000 
#
# Total GULP energy -198457.355919 kJ/mol
# GULP energy per Si atom -12403.584745 kJ/mol
# Density = 1.844426 g / cm^3
# Si number density = 18.486339 Si / 1000 Ang^3
#
#
#
# Elastic Constant Matrix: (Units=GPa)
#
#
# Indices 1 2 3 4 5 6 
#
# 1 55.9086 36.9142 36.8968 0.0165 -7.5085 0.0016
# 2 36.9142 107.4222 47.2918 -0.0099 -5.0442 0.0052
# 3 36.8968 47.2918 116.5110 0.0068 -14.3965 0.0001
# 4 0.0165 -0.0099 0.0068 31.2856 -0.0013 0.6067
# 5 -7.5085 -5.0442 -14.3965 -0.0013 24.9312 0.0012
# 6 0.0016 0.0052 0.0001 0.6067 0.0012 29.5101
#
#
#
# Elastic Compliance Matrix: (Units=1/GPa)
#
#
# Indices 1 2 3 4 5 6 
#
# 1 0.026082 -0.006517 -0.005176 -0.000015 0.003548 0.000000
# 2 -0.006517 0.012967 -0.003357 0.000008 -0.001278 -0.000002
# 3 -0.005176 -0.003357 0.012177 -0.000001 0.004794 0.000001
# 4 -0.000015 0.000008 -0.000001 0.031976 -0.000001 -0.000657
# 5 0.003548 -0.001278 0.004794 -0.000001 0.043688 -0.000002
# 6 0.000000 -0.000002 0.000001 -0.000657 -0.000002 0.033900
#
#
# Mechanical properties :
#
#
# Convention : Reuss Voigt Hill
#
# Bulk Modulus (GPa) = 47.33826 58.00526 52.67176
# Shear Modulus (GPa) = 25.26114 27.72797 26.49456
#
# Velocity S-wave (km/s) = 3.70060 3.87708 3.78987
# Velocity P-wave (km/s) = 6.62737 7.17550 6.90687
#
# Compressibility (1/GPa) = 0.02112456
#
# Stress axis : x y z
#
# Youngs Moduli (GPa) = 38.34102 77.12109 82.12256
#
# Poissons Ratio (x) = 0.50263 0.42505
# Poissons Ratio (y) = 0.24989 0.27569
# Poissons Ratio (z) = 0.19845 0.25890
#
# Static dielectric constant tensor:
#      x y z
#    x 3.136320 -0.000010 -0.239960 
#    y -0.000010 3.472900 0.000030 
#    z -0.239960 0.000030 3.704690 
# 
# 
# High freq. dielectric constant tensor:
#      x y z
#    x 1.685220 0.000000 -0.014530 
#    y 0.000000 1.726010 0.000000 
#    z -0.014530 0.000000 1.732980 
# 
# From -- ./inp_files/33059.got.cif
#   From: 2010.03.12/outbox.cif.g09.slc.cpg/sg8_17_cif.got.tgz:33059.got - 2010.03.31 10:45:26.
