data_PCOD8053460
_publ_section_title
;
Structure prediction by ZEFSAII (Michael W. Deem and Ramdas Pophale) SiO2 
 PCOD8053460
Probable space group: C M
;
_chemical_formula_sum "Si O2"
_cell_formula_units_Z 32
_cell_length_a 21.814443
_cell_length_b 9.108056
_cell_length_c 10.933407
_cell_angle_alpha 90.000000
_cell_angle_beta 50.212052
_cell_angle_gamma 90.000000
_cell_volume 1669.256020
_symmetry_space_group_name_H-M "C M"
_symmetry_group_IT_number 8
_symmetry_cell_setting 'monoclinic'
loop_
_space_group_symop_operation_xyz
x,y,z
x,-y,z
1/2+x,1/2+y,z
1/2+x,1/2-y,z
loop_
_atom_site_type_symbol
_atom_site_label
_atom_site_fract_x
_atom_site_fract_y
_atom_site_fract_z
Si Si1 0.454440 0.329481 0.383150
Si Si2 0.336208 0.169422 0.155887
Si Si3 0.997238 0.331406 0.092384
Si Si4 0.184457 0.327090 0.447775
Si Si5 0.035908 0.829273 0.534269
Si Si6 0.308079 0.171169 0.673973
Si Si7 0.161754 0.670219 0.756191
Si Si8 0.890217 0.330814 0.820950
O O1 0.435343 0.500000 0.391673
O O2 0.501351 0.270316 0.206116
O O3 0.509742 0.298448 0.428997
O O4 0.370273 0.246449 0.502178
O O5 0.419967 0.204845 0.111584
O O6 0.271699 0.274652 0.298383
O O7 0.311336 0.000000 0.206212
O O8 0.342830 0.208332 0.004233
O O9 0.998214 0.500000 0.134094
O O10 0.072496 0.294378 0.911957
O O11 0.177427 0.500000 0.438112
O O12 0.120049 0.249529 0.443872
O O13 0.169310 0.280239 0.606493
O O14 0.970191 0.765057 0.710794
O O15 0.045746 0.000000 0.549676
O O16 0.220859 0.236276 0.764855
O O17 0.331306 0.204304 0.784214
O O18 0.307873 0.000000 0.644188
O O19 0.183589 0.500000 0.744297
O O20 0.917803 0.500000 0.785842
#
# Coordination Sequence:
#
# PCOD8053460 Si02
#       8
#     4   4   4   4   4   4   4   4
#     4  10  21  37  57  82 113 146 180 224 275 323
#     4  10  21  38  58  81 112 146 181 225 275 324
#     4  10  21  37  58  82 109 145 185 225 272 325
#     4  11  23  38  57  81 110 145 184 226 274 326
#     4  10  21  37  58  83 111 144 182 225 273 324
#     4  10  20  35  58  85 111 145 186 223 266 323
#     4  10  22  39  57  80 112 146 181 226 277 323
#     4   9  19  37  59  82 112 147 181 222 272 324
#
# _framework density 19.170216
#
# number of rings (size 3 to 8) (size 9 to 14) (size 15 to 20)
#    0.000    2.000    0.000    3.000    0.000    9.500 
#    0.000    5.000    0.000    0.000    0.000    0.000 
#    0.000    0.000    0.000    0.000    0.000    0.000 
#
# Total GULP energy -198505.245212 kJ/mol
# GULP energy per Si atom -12406.577826 kJ/mol
# Density = 1.912658 g / cm^3
# Si number density = 19.170216 Si / 1000 Ang^3
#
#
#
# Elastic Constant Matrix: (Units=GPa)
#
#
# Indices 1 2 3 4 5 6 
#
# 1 104.2817 59.4674 60.3662 0.0000 -15.5081 0.0000
# 2 59.4674 89.9494 58.6447 0.0000 -5.5647 0.0000
# 3 60.3662 58.6447 136.9443 0.0000 -0.4843 0.0000
# 4 0.0000 0.0000 0.0000 35.4348 0.0000 -5.8711
# 5 -15.5081 -5.5647 -0.4843 0.0000 33.9654 0.0000
# 6 0.0000 0.0000 0.0000 -5.8711 0.0000 33.7299
#
#
#
# Elastic Compliance Matrix: (Units=1/GPa)
#
#
# Indices 1 2 3 4 5 6 
#
# 1 0.017996 -0.008775 -0.004151 0.000000 0.006720 0.000000
# 2 -0.008775 0.019906 -0.004659 0.000000 -0.000812 0.000000
# 3 -0.004151 -0.004659 0.011118 0.000000 -0.002500 0.000000
# 4 0.000000 0.000000 0.000000 0.029059 0.000000 0.005058
# 5 0.006720 -0.000812 -0.002500 0.000000 0.032341 0.000000
# 6 0.000000 0.000000 0.000000 0.005058 0.000000 0.030528
#
#
# Mechanical properties :
#
#
# Convention : Reuss Voigt Hill
#
# Bulk Modulus (GPa) = 72.20512 76.45911 74.33212
# Shear Modulus (GPa) = 27.66458 30.80584 29.23521
#
# Velocity S-wave (km/s) = 3.80294 4.01304 3.90940
# Velocity P-wave (km/s) = 7.55183 7.83860 7.69655
#
# Compressibility (1/GPa) = 0.01384943
#
# Stress axis : x y z
#
# Youngs Moduli (GPa) = 55.56831 50.23490 89.94020
#
# Poissons Ratio (x) = 0.44083 0.37334
# Poissons Ratio (y) = 0.48763 0.41906
# Poissons Ratio (z) = 0.23067 0.23406
#
# Static dielectric constant tensor:
#      x y z
#    x 3.527020 0.000000 0.063240 
#    y 0.000000 3.524850 0.000000 
#    z 0.063240 0.000000 3.485120 
# 
# 
# High freq. dielectric constant tensor:
#      x y z
#    x 1.753000 0.000000 0.002040 
#    y 0.000000 1.748480 0.000000 
#    z 0.002040 0.000000 1.747550 
# 
# From -- ./inp_files/23853.got.cif
#   From: 2010.03.12/outbox.cif.g09.slc.cpg/sg8_12_cif.got.tgz:23853.got - 2010.03.31 10:45:26.
