data_PCOD8053805
_publ_section_title
;
Structure prediction by ZEFSAII (Michael W. Deem and Ramdas Pophale) SiO2 
 PCOD8053805
Probable space group: C M
;
_chemical_formula_sum "Si O2"
_cell_formula_units_Z 32
_cell_length_a 32.638516
_cell_length_b 8.802379
_cell_length_c 12.356133
_cell_angle_alpha 90.000000
_cell_angle_beta 153.247420
_cell_angle_gamma 90.000000
_cell_volume 1597.935876
_symmetry_space_group_name_H-M "C M"
_symmetry_group_IT_number 8
_symmetry_cell_setting 'monoclinic'
loop_
_space_group_symop_operation_xyz
x,y,z
x,-y,z
1/2+x,1/2+y,z
1/2+x,1/2-y,z
loop_
_atom_site_type_symbol
_atom_site_label
_atom_site_fract_x
_atom_site_fract_y
_atom_site_fract_z
Si Si1 0.846160 0.176676 0.845650
Si Si2 0.021021 0.180643 0.649559
Si Si3 0.666994 0.324400 0.451899
Si Si4 0.406160 0.820321 0.561496
Si Si5 0.957595 0.677532 0.287653
Si Si6 0.963556 0.177534 0.914570
Si Si7 0.214842 0.175438 0.029450
Si Si8 0.132786 0.174338 0.614326
O O1 0.743338 0.224715 0.571509
O O2 0.912722 0.220620 0.905023
O O3 0.851717 0.000000 0.884410
O O4 0.872446 0.268436 0.015568
O O5 0.986283 0.243446 0.681519
O O6 0.956352 0.239401 0.400634
O O7 0.124150 0.242936 0.873003
O O8 0.019116 0.000000 0.645299
O O9 0.685925 0.500000 0.472509
O O10 0.674963 0.288412 0.598181
O O11 0.568850 0.277029 0.175204
O O12 0.419708 0.778537 0.717859
O O13 0.410872 0.000000 0.555602
O O14 0.308287 0.750907 0.293502
O O15 0.949290 0.500000 0.289752
O O16 0.048389 0.715647 0.435374
O O17 0.951917 0.000000 0.860016
O O18 0.209117 0.200908 0.886364
O O19 0.218543 0.000000 0.068216
O O20 0.096465 0.000000 0.532770
#
# Coordination Sequence:
#
# PCOD8053805 Si02
#       8
#     4   4   4   4   4   4   4   4
#     4  11  23  40  61  89 121 158 205 253 305 360
#     4  10  21  40  62  87 120 161 200 244 305 365
#     4  10  21  38  62  89 118 159 204 248 307 367
#     4  11  23  39  62  91 119 156 205 254 296 356
#     4  11  21  35  59  91 126 160 198 248 304 362
#     4  10  23  44  62  81 120 166 203 246 303 365
#     4   8  18  36  59  85 118 156 194 237 296 359
#     4   9  17  36  61  85 120 162 197 244 306 362
#
# _framework density 20.025836000000002
#
# number of rings (size 3 to 8) (size 9 to 14) (size 15 to 20)
#    0.000    2.000    1.250    3.000    1.750    3.000 
#    0.000   10.000    0.000    0.000    0.000    0.000 
#    0.000    0.000    0.000    0.000    0.000    0.000 
#
# Total GULP energy -198429.085626 kJ/mol
# GULP energy per Si atom -12401.817852 kJ/mol
# Density = 1.998026 g / cm^3
# Si number density = 20.025836 Si / 1000 Ang^3
#
#
#
# Elastic Constant Matrix: (Units=GPa)
#
#
# Indices 1 2 3 4 5 6 
#
# 1 55.1833 31.0976 34.9987 0.0000 -2.7582 0.0000
# 2 31.0976 70.8214 29.9656 0.0000 -2.1322 0.0000
# 3 34.9987 29.9656 119.3917 0.0000 -1.2519 0.0000
# 4 0.0000 0.0000 0.0000 30.9994 0.0000 -2.3731
# 5 -2.7582 -2.1322 -1.2519 0.0000 29.3498 0.0000
# 6 0.0000 0.0000 0.0000 -2.3731 0.0000 31.0313
#
#
#
# Elastic Compliance Matrix: (Units=1/GPa)
#
#
# Indices 1 2 3 4 5 6 
#
# 1 0.027061 -0.009493 -0.005533 0.000000 0.001618 0.000000
# 2 -0.009493 0.019156 -0.002021 0.000000 0.000413 0.000000
# 3 -0.005533 -0.002021 0.010503 0.000000 -0.000219 0.000000
# 4 0.000000 0.000000 0.000000 0.032449 0.000000 0.002481
# 5 0.001618 0.000413 -0.000219 0.000000 0.034245 0.000000
# 6 0.000000 0.000000 0.000000 0.002481 0.000000 0.032415
#
#
# Mechanical properties :
#
#
# Convention : Reuss Voigt Hill
#
# Bulk Modulus (GPa) = 44.19664 48.61337 46.40501
# Shear Modulus (GPa) = 25.32117 28.23171 26.77644
#
# Velocity S-wave (km/s) = 3.55973 3.75876 3.66060
# Velocity P-wave (km/s) = 6.24606 6.57006 6.41011
#
# Compressibility (1/GPa) = 0.02262615
#
# Stress axis : x y z
#
# Youngs Moduli (GPa) = 36.95354 52.20386 95.21341
#
# Poissons Ratio (x) = 0.49555 0.52684
# Poissons Ratio (y) = 0.35078 0.19241
# Poissons Ratio (z) = 0.20447 0.10549
#
# Static dielectric constant tensor:
#      x y z
#    x 3.575890 0.000000 0.067640 
#    y 0.000000 3.418480 0.000000 
#    z 0.067640 0.000000 3.787620 
# 
# 
# High freq. dielectric constant tensor:
#      x y z
#    x 1.778910 0.000000 0.003360 
#    y 0.000000 1.764880 0.000000 
#    z 0.003360 0.000000 1.786730 
# 
# From -- ./inp_files/24824.got.cif
#   From: 2010.03.12/outbox.cif.g09.slc.cpg/sg8_13_cif.got.tgz:24824.got - 2010.03.31 10:45:26.
