data_PCOD8053412
_publ_section_title
;
Structure prediction by ZEFSAII (Michael W. Deem and Ramdas Pophale) SiO2 
 PCOD8053412
Probable space group: C M
;
_chemical_formula_sum "Si O2"
_cell_formula_units_Z 32
_cell_length_a 16.044929
_cell_length_b 9.058512
_cell_length_c 23.087260
_cell_angle_alpha 90.000000
_cell_angle_beta 149.475466
_cell_angle_gamma 90.000000
_cell_volume 1704.321343
_symmetry_space_group_name_H-M "C M"
_symmetry_group_IT_number 8
_symmetry_cell_setting 'monoclinic'
loop_
_space_group_symop_operation_xyz
x,y,z
x,-y,z
1/2+x,1/2+y,z
1/2+x,1/2-y,z
loop_
_atom_site_type_symbol
_atom_site_label
_atom_site_fract_x
_atom_site_fract_y
_atom_site_fract_z
Si Si1 0.120950 0.824820 0.136890
Si Si2 0.780717 0.672712 0.792843
Si Si3 0.626828 0.831891 0.605151
Si Si4 0.955677 0.330644 0.391412
Si Si5 0.262365 0.830097 0.587992
Si Si6 0.127724 0.334588 0.798422
Si Si7 0.611245 0.675538 0.997625
Si Si8 0.803279 0.830355 0.017012
O O1 0.285801 0.763977 0.266535
O O2 0.124162 0.770307 0.072215
O O3 0.965157 0.767443 0.080646
O O4 0.117173 0.000000 0.135474
O O5 0.801531 0.500000 0.797349
O O6 0.625541 0.735250 0.662846
O O7 0.741540 0.714170 0.835584
O O8 0.946889 0.753596 0.872464
O O9 0.461846 0.819051 0.466233
O O10 0.773923 0.762449 0.654655
O O11 0.664586 0.000000 0.644426
O O12 0.976923 0.500000 0.384263
O O13 0.112481 0.238586 0.459647
O O14 0.439953 0.813282 0.665225
O O15 0.222005 0.000000 0.577248
O O16 0.188020 0.500000 0.817103
O O17 0.150767 0.315588 0.881089
O O18 0.606231 0.500000 0.989830
O O19 0.764737 0.735859 0.051681
O O20 0.829739 0.000000 0.051823
#
# Coordination Sequence:
#
# PCOD8053412 Si02
#       8
#     4   4   4   4   4   4   4   4
#     4   9  18  38  63  84 114 156 200 239 288 349
#     4  12  23  34  53  82 118 150 191 243 292 347
#     4   9  18  33  55  78 106 145 188 227 278 340
#     4   8  17  34  58  81 106 152 198 234 280 341
#     4   9  17  31  53  81 109 143 186 230 282 335
#     4  10  20  35  54  78 114 154 191 234 291 350
#     4  11  22  38  60  86 118 155 194 238 296 351
#     4  10  20  37  60  86 117 155 194 239 293 347
#
# _framework density 18.775801000000001
#
# number of rings (size 3 to 8) (size 9 to 14) (size 15 to 20)
#    0.750    1.500    1.250    2.625    0.000    2.500 
#    0.000    3.125    0.000    4.500    0.000    0.000 
#    0.000    0.000    0.000    0.000    0.000    0.000 
#
# Total GULP energy -198212.171225 kJ/mol
# GULP energy per Si atom -12388.260702 kJ/mol
# Density = 1.873307 g / cm^3
# Si number density = 18.775801 Si / 1000 Ang^3
#
#
#
# Elastic Constant Matrix: (Units=GPa)
#
#
# Indices 1 2 3 4 5 6 
#
# 1 108.5589 43.7048 43.6939 0.0001 1.3589 0.0000
# 2 43.7048 93.8415 40.0725 0.0000 0.5064 0.0000
# 3 43.6939 40.0725 112.2563 0.0000 8.8557 0.0001
# 4 0.0001 0.0000 0.0000 21.6270 0.0001 0.4653
# 5 1.3589 0.5064 8.8557 0.0001 26.5439 0.0001
# 6 0.0000 0.0000 0.0001 0.4653 0.0001 32.3080
#
#
#
# Elastic Compliance Matrix: (Units=1/GPa)
#
#
# Indices 1 2 3 4 5 6 
#
# 1 0.012260 -0.004314 -0.003275 0.000000 0.000547 0.000000
# 2 -0.004314 0.014134 -0.003453 0.000000 0.001103 0.000000
# 3 -0.003275 -0.003453 0.011705 0.000000 -0.003672 0.000000
# 4 0.000000 0.000000 0.000000 0.046253 0.000000 -0.000666
# 5 0.000547 0.001103 -0.003672 0.000000 0.038849 0.000000
# 6 0.000000 0.000000 0.000000 -0.000666 0.000000 0.030962
#
#
# Mechanical properties :
#
#
# Convention : Reuss Voigt Hill
#
# Bulk Modulus (GPa) = 62.44464 63.28877 62.86670
# Shear Modulus (GPa) = 27.53512 28.57481 28.05497
#
# Velocity S-wave (km/s) = 3.83367 3.90538 3.86969
# Velocity P-wave (km/s) = 7.27505 7.35641 7.31584
#
# Compressibility (1/GPa) = 0.01601419
#
# Stress axis : x y z
#
# Youngs Moduli (GPa) = 81.56769 70.75032 85.43107
#
# Poissons Ratio (x) = 0.30523 0.27979
# Poissons Ratio (y) = 0.35190 0.29502
# Poissons Ratio (z) = 0.26714 0.24433
#
# Static dielectric constant tensor:
#      x y z
#    x 3.229930 0.000000 -0.010540 
#    y 0.000000 3.291160 0.000000 
#    z -0.010540 0.000000 3.483010 
# 
# 
# High freq. dielectric constant tensor:
#      x y z
#    x 1.707060 0.000000 -0.002130 
#    y 0.000000 1.718210 0.000000 
#    z -0.002130 0.000000 1.721110 
# 
# From -- ./inp_files/32130.got.cif
#   From: 2010.03.12/outbox.cif.g09.slc.cpg/sg8_17_cif.got.tgz:32130.got - 2010.03.31 10:45:26.
