data_PCOD8053262
_publ_section_title
;
Structure prediction by ZEFSAII (Michael W. Deem and Ramdas Pophale) SiO2 
 PCOD8053262
Probable space group: C M
;
_chemical_formula_sum "Si O2"
_cell_formula_units_Z 32
_cell_length_a 15.335516
_cell_length_b 8.529897
_cell_length_c 11.839740
_cell_angle_alpha 90.000000
_cell_angle_beta 88.884645
_cell_angle_gamma 90.000000
_cell_volume 1548.467351
_symmetry_space_group_name_H-M "C M"
_symmetry_group_IT_number 8
_symmetry_cell_setting 'monoclinic'
loop_
_space_group_symop_operation_xyz
x,y,z
x,-y,z
1/2+x,1/2+y,z
1/2+x,1/2-y,z
loop_
_atom_site_type_symbol
_atom_site_label
_atom_site_fract_x
_atom_site_fract_y
_atom_site_fract_z
Si Si1 0.314920 0.319973 0.185520
Si Si2 0.155151 0.181049 0.318800
Si Si3 0.013548 0.685152 0.723129
Si Si4 0.764409 0.318382 0.962291
Si Si5 0.669706 0.815723 0.563008
Si Si6 0.493065 0.820521 0.198865
Si Si7 0.578453 0.817579 0.961843
Si Si8 0.318275 0.814760 0.710675
O O1 0.291251 0.500000 0.207208
O O2 0.241583 0.215240 0.245672
O O3 0.409509 0.282692 0.235952
O O4 0.318189 0.280915 0.052412
O O5 0.173010 0.222359 0.447344
O O6 0.074230 0.280426 0.275770
O O7 0.131640 0.000000 0.306778
O O8 0.017823 0.500000 0.725332
O O9 0.087338 0.749800 0.636631
O O10 0.031545 0.744612 0.849820
O O11 0.917896 0.738529 0.684781
O O12 0.786131 0.500000 0.981194
O O13 0.662463 0.287974 0.981504
O O14 0.793930 0.264258 0.837926
O O15 0.758621 0.781959 0.627101
O O16 0.661753 0.000000 0.539590
O O17 0.468344 0.000000 0.220615
O O18 0.513810 0.789920 0.067219
O O19 0.606341 0.000000 0.951938
O O20 0.304538 0.000000 0.692743
#
# Coordination Sequence:
#
# PCOD8053262 Si02
#       8
#     4   4   4   4   4   4   4   4
#     4  12  25  42  65  94 128 167 212 262 316 377
#     4  12  26  45  66  90 124 165 214 269 319 375
#     4   9  19  37  62  89 122 163 203 244 302 372
#     4  11  21  35  61  94 130 166 206 257 314 373
#     4  11  23  41  64  89 120 162 212 263 314 371
#     4  11  23  41  67  97 129 166 207 256 316 382
#     4  10  19  36  63  92 126 166 203 246 310 382
#     4  10  21  39  62  91 125 165 207 253 309 374
#
# _framework density 20.665596000000001
#
# number of rings (size 3 to 8) (size 9 to 14) (size 15 to 20)
#    0.000    1.250    2.500    4.125    0.000    4.000 
#    0.000    5.625    0.000    0.000    0.000    0.000 
#    0.000    0.000    0.000    0.000    0.000    0.000 
#
# Total GULP energy -198485.748479 kJ/mol
# GULP energy per Si atom -12405.359280 kJ/mol
# Density = 2.061856 g / cm^3
# Si number density = 20.665596 Si / 1000 Ang^3
#
#
#
# Elastic Constant Matrix: (Units=GPa)
#
#
# Indices 1 2 3 4 5 6 
#
# 1 129.3991 10.5014 33.8319 0.0000 11.9025 0.0000
# 2 10.5014 54.0759 20.2617 0.0000 -0.6238 0.0000
# 3 33.8319 20.2617 104.4853 0.0000 9.6205 0.0000
# 4 0.0000 0.0000 0.0000 30.0240 0.0000 4.6031
# 5 11.9025 -0.6238 9.6205 0.0000 8.4537 0.0000
# 6 0.0000 0.0000 0.0000 4.6031 0.0000 33.5038
#
#
#
# Elastic Compliance Matrix: (Units=1/GPa)
#
#
# Indices 1 2 3 4 5 6 
#
# 1 0.009320 -0.001291 -0.001732 0.000000 -0.011247 0.000000
# 2 -0.001291 0.020451 -0.004305 0.000000 0.008226 0.000000
# 3 -0.001732 -0.004305 0.012032 0.000000 -0.011572 0.000000
# 4 0.000000 0.000000 0.000000 0.034023 0.000000 -0.004674
# 5 -0.011247 0.008226 -0.011572 0.000000 0.147902 0.000000
# 6 0.000000 0.000000 0.000000 -0.004674 0.000000 0.030490
#
#
# Mechanical properties :
#
#
# Convention : Reuss Voigt Hill
#
# Bulk Modulus (GPa) = 36.83634 46.35003 41.59319
# Shear Modulus (GPa) = 17.99058 29.28732 23.63895
#
# Velocity S-wave (km/s) = 2.95372 3.76866 3.38580
# Velocity P-wave (km/s) = 5.43105 6.43540 5.95444
#
# Compressibility (1/GPa) = 0.02714710
#
# Stress axis : x y z
#
# Youngs Moduli (GPa) = 107.29497 48.89670 83.11240
#
# Poissons Ratio (x) = 0.06311 0.14395
# Poissons Ratio (y) = 0.13849 0.35783
# Poissons Ratio (z) = 0.18583 0.21052
#
# Static dielectric constant tensor:
#      x y z
#    x 3.871160 0.000000 -0.045250 
#    y 0.000000 3.577400 0.000000 
#    z -0.045250 0.000000 3.822470 
# 
# 
# High freq. dielectric constant tensor:
#      x y z
#    x 1.820510 0.000000 0.003090 
#    y 0.000000 1.795780 0.000000 
#    z 0.003090 0.000000 1.808570 
# 
# From -- ./inp_files/21544.got.cif
#   From: 2010.03.12/outbox.cif.g09.slc.cpg/sg8_11_cif.got.tgz:21544.got - 2010.03.31 10:45:26.
