data_PCOD8053488
_publ_section_title
;
Structure prediction by ZEFSAII (Michael W. Deem and Ramdas Pophale) SiO2 
 PCOD8053488
Probable space group: C M
;
_chemical_formula_sum "Si O2"
_cell_formula_units_Z 32
_cell_length_a 14.507278
_cell_length_b 8.905368
_cell_length_c 28.848932
_cell_angle_alpha 90.000000
_cell_angle_beta 27.847989
_cell_angle_gamma 90.000000
_cell_volume 1741.016391
_symmetry_space_group_name_H-M "C M"
_symmetry_group_IT_number 8
_symmetry_cell_setting 'monoclinic'
loop_
_space_group_symop_operation_xyz
x,y,z
x,-y,z
1/2+x,1/2+y,z
1/2+x,1/2-y,z
loop_
_atom_site_type_symbol
_atom_site_label
_atom_site_fract_x
_atom_site_fract_y
_atom_site_fract_z
Si Si1 0.414400 0.671383 0.696800
Si Si2 0.406231 0.824485 0.069704
Si Si3 0.708107 0.177684 0.507063
Si Si4 0.176046 0.823653 0.427417
Si Si5 0.473422 0.325693 0.230085
Si Si6 0.603965 0.324129 0.070170
Si Si7 0.020665 0.320893 0.918968
Si Si8 0.330257 0.170670 0.538932
O O1 0.377667 0.500000 0.696700
O O2 0.484759 0.769436 0.620987
O O3 0.218151 0.741933 0.806673
O O4 0.594228 0.675251 0.654738
O O5 0.174306 0.788495 0.168398
O O6 0.495749 0.749823 0.075216
O O7 0.442552 0.000000 0.058169
O O8 0.512071 0.762307 0.975885
O O9 0.768376 0.239810 0.430345
O O10 0.863834 0.252185 0.473552
O O11 0.724801 0.000000 0.500746
O O12 0.300078 0.777490 0.327178
O O13 0.950479 0.767154 0.522760
O O14 0.180512 0.000000 0.433383
O O15 0.418629 0.500000 0.260646
O O16 0.491989 0.284762 0.167649
O O17 0.603769 0.500000 0.061548
O O18 0.830143 0.265768 0.974506
O O19 0.021613 0.500000 0.920193
O O20 0.409706 0.000000 0.502928
#
# Coordination Sequence:
#
# PCOD8053488 Si02
#       8
#     4   4   4   4   4   4   4   4
#     4   8  16  34  57  77 107 146 179 217 265 314
#     4   9  18  34  56  79 105 138 175 215 262 317
#     4  10  20  36  55  77 108 142 180 224 266 316
#     4  12  23  36  56  81 107 143 183 224 272 323
#     4   9  20  37  54  74 105 143 177 215 267 323
#     4   9  18  34  56  79 105 138 174 215 264 317
#     4   8  15  33  56  77 107 144 175 207 259 319
#     4   9  19  36  56  78 106 142 179 223 267 313
#
# _framework density 18.380067
#
# number of rings (size 3 to 8) (size 9 to 14) (size 15 to 20)
#    0.750    2.000    0.000    3.750    0.000    2.000 
#    2.250    5.625    0.000    0.000    0.000    0.000 
#    0.000    0.000    0.000    0.000    0.000    0.000 
#
# Total GULP energy -198269.283525 kJ/mol
# GULP energy per Si atom -12391.830220 kJ/mol
# Density = 1.833823 g / cm^3
# Si number density = 18.380067 Si / 1000 Ang^3
#
#
#
# Elastic Constant Matrix: (Units=GPa)
#
#
# Indices 1 2 3 4 5 6 
#
# 1 101.2414 21.7122 12.1871 -0.0016 1.7950 -0.0012
# 2 21.7122 68.5415 17.0015 -0.0015 2.7283 -0.0012
# 3 12.1871 17.0015 67.6593 -0.0072 1.3073 -0.0006
# 4 -0.0016 -0.0015 -0.0072 22.3982 -0.0022 0.4486
# 5 1.7950 2.7283 1.3073 -0.0022 18.9008 -0.0002
# 6 -0.0012 -0.0012 -0.0006 0.4486 -0.0002 35.5130
#
#
#
# Elastic Compliance Matrix: (Units=1/GPa)
#
#
# Indices 1 2 3 4 5 6 
#
# 1 0.010684 -0.003082 -0.001141 0.000000 -0.000491 0.000000
# 2 -0.003082 0.016523 -0.003561 0.000000 -0.001846 0.000000
# 3 -0.001141 -0.003561 0.015889 0.000005 -0.000477 0.000000
# 4 0.000000 0.000000 0.000005 0.044658 0.000005 -0.000564
# 5 -0.000491 -0.001846 -0.000477 0.000005 0.053254 0.000000
# 6 0.000000 0.000000 0.000000 -0.000564 0.000000 0.028166
#
#
# Mechanical properties :
#
#
# Convention : Reuss Voigt Hill
#
# Bulk Modulus (GPa) = 36.32503 37.69374 37.00939
# Shear Modulus (GPa) = 25.78412 27.79849 26.79131
#
# Velocity S-wave (km/s) = 3.74950 3.89321 3.82203
# Velocity P-wave (km/s) = 6.20896 6.38451 6.29735
#
# Compressibility (1/GPa) = 0.02752922
#
# Stress axis : x y z
#
# Youngs Moduli (GPa) = 93.59471 60.52233 62.93494
#
# Poissons Ratio (x) = 0.18653 0.07178
# Poissons Ratio (y) = 0.28847 0.22412
# Poissons Ratio (z) = 0.10675 0.21552
#
# Static dielectric constant tensor:
#      x y z
#    x 3.348770 0.000000 -0.021270 
#    y 0.000000 3.141550 0.000000 
#    z -0.021270 0.000000 3.402480 
# 
# 
# High freq. dielectric constant tensor:
#      x y z
#    x 1.706960 0.000000 -0.003080 
#    y 0.000000 1.698400 0.000000 
#    z -0.003080 0.000000 1.703430 
# 
# From -- ./inp_files/26443.got.cif
#   From: 2010.03.12/outbox.cif.g09.slc.cpg/sg8_14_cif.got.tgz:26443.got - 2010.03.31 10:45:26.
