data_PCOD8053335
_publ_section_title
;
Structure prediction by ZEFSAII (Michael W. Deem and Ramdas Pophale) SiO2 
 PCOD8053335
Probable space group: C M
;
_chemical_formula_sum "Si O2"
_cell_formula_units_Z 32
_cell_length_a 12.789531
_cell_length_b 25.982552
_cell_length_c 13.409447
_cell_angle_alpha 90.000000
_cell_angle_beta 158.220122
_cell_angle_gamma 90.000000
_cell_volume 1653.369995
_symmetry_space_group_name_H-M "C M"
_symmetry_group_IT_number 8
_symmetry_cell_setting 'monoclinic'
loop_
_space_group_symop_operation_xyz
x,y,z
x,-y,z
1/2+x,1/2+y,z
1/2+x,1/2-y,z
loop_
_atom_site_type_symbol
_atom_site_label
_atom_site_fract_x
_atom_site_fract_y
_atom_site_fract_z
Si Si1 0.112640 0.820494 0.185840
Si Si2 0.000111 0.679608 0.704170
Si Si3 0.207109 0.846341 0.643467
Si Si4 0.513280 0.716919 0.810569
Si Si5 0.132851 0.283214 0.113238
Si Si6 0.951121 0.442322 0.162148
Si Si7 0.441699 0.846631 0.282334
Si Si8 0.571773 0.442389 0.643481
O O1 0.278611 0.840330 0.428224
O O2 0.133333 0.757876 0.203071
O O3 0.235904 0.846101 0.195283
O O4 0.797500 0.839849 0.925759
O O5 0.920164 0.653701 0.738550
O O6 0.000193 0.742311 0.709125
O O7 0.931025 0.812763 0.372651
O O8 0.142571 0.904870 0.614474
O O9 0.372729 0.823291 0.887074
O O10 0.230215 0.682735 0.564009
O O11 0.562564 0.750115 0.953200
O O12 0.786634 0.679933 0.049474
O O13 0.892702 0.500000 0.151065
O O14 0.983122 0.405542 0.286636
O O15 0.237816 0.440298 0.354660
O O16 0.705879 0.425300 0.868116
O O17 0.677116 0.500000 0.709589
#
# Coordination Sequence:
#
# PCOD8053335 Si02
#       8
#     4   4   4   4   4   4   4   4
#     4  11  21  33  50  76 111 145 176 212 256 315
#     4  11  21  33  50  76 111 145 176 212 256 315
#     4  11  21  36  56  78 108 144 181 220 269 324
#     4  10  20  34  50  75 108 143 181 217 253 308
#     4  10  20  34  50  75 108 143 181 217 253 308
#     4  10  22  39  59  83 107 135 179 234 286 327
#     4  11  21  36  56  78 108 144 181 220 269 324
#     4  10  22  39  59  83 107 135 179 234 286 327
#
# _framework density 19.354409
#
# number of rings (size 3 to 8) (size 9 to 14) (size 15 to 20)
#    0.000    1.500    0.000    9.000    0.000    6.000 
#    0.000    0.000    0.000    1.500    0.000    0.000 
#    0.000    0.000    0.000    0.000    0.000    0.000 
#
# Total GULP energy -198297.930157 kJ/mol
# GULP energy per Si atom -12393.620635 kJ/mol
# Density = 1.931036 g / cm^3
# Si number density = 19.354409 Si / 1000 Ang^3
#
#
#
# Elastic Constant Matrix: (Units=GPa)
#
#
# Indices 1 2 3 4 5 6 
#
# 1 64.6471 46.3021 22.3965 0.0066 -1.1343 -0.0046
# 2 46.3021 100.4498 23.1899 0.0041 -0.9265 0.0001
# 3 22.3965 23.1899 104.2532 0.0115 9.5911 -0.0014
# 4 0.0066 0.0041 0.0115 22.9445 0.0027 -1.0845
# 5 -1.1343 -0.9265 9.5911 0.0027 24.1784 -0.0030
# 6 -0.0046 0.0001 -0.0014 -1.0845 -0.0030 29.0623
#
#
#
# Elastic Compliance Matrix: (Units=1/GPa)
#
#
# Indices 1 2 3 4 5 6 
#
# 1 0.023942 -0.010320 -0.003025 -0.000004 0.001928 0.000004
# 2 -0.010320 0.014987 -0.001168 0.000001 0.000553 -0.000002
# 3 -0.003025 -0.001168 0.010917 -0.000004 -0.004517 -0.000001
# 4 -0.000004 0.000001 -0.000004 0.043661 -0.000003 0.001629
# 5 0.001928 0.000553 -0.004517 -0.000003 0.043263 0.000004
# 6 0.000004 -0.000002 -0.000001 0.001629 0.000004 0.034470
#
#
# Mechanical properties :
#
#
# Convention : Reuss Voigt Hill
#
# Bulk Modulus (GPa) = 48.02906 50.34746 49.18826
# Shear Modulus (GPa) = 24.13084 27.06782 25.59933
#
# Velocity S-wave (km/s) = 3.53482 3.74376 3.64079
# Velocity P-wave (km/s) = 6.44433 6.69011 6.56837
#
# Compressibility (1/GPa) = 0.02082073
#
# Stress axis : x y z
#
# Youngs Moduli (GPa) = 41.76805 66.72581 91.59837
#
# Poissons Ratio (x) = 0.68859 0.27711
# Poissons Ratio (y) = 0.43103 0.10695
# Poissons Ratio (z) = 0.12636 0.07791
#
# Static dielectric constant tensor:
#      x y z
#    x 3.305190 0.000000 -0.028290 
#    y 0.000000 3.678580 -0.000020 
#    z -0.028290 -0.000020 3.930730 
# 
# 
# High freq. dielectric constant tensor:
#      x y z
#    x 1.733730 0.000000 0.001650 
#    y 0.000000 1.724650 0.000000 
#    z 0.001650 0.000000 1.782590 
# 
# From -- ./inp_files/27097.got.cif
#   From: 2010.03.12/outbox.cif.g09.slc.cpg/sg8_14_cif.got.tgz:27097.got - 2010.03.31 10:45:26.
