data_PCOD8053632
_publ_section_title
;
Structure prediction by ZEFSAII (Michael W. Deem and Ramdas Pophale) SiO2 
 PCOD8053632
Probable space group: C M
;
_chemical_formula_sum "Si O2"
_cell_formula_units_Z 28
_cell_length_a 14.829678
_cell_length_b 9.269162
_cell_length_c 11.820815
_cell_angle_alpha 90.000000
_cell_angle_beta 122.501787
_cell_angle_gamma 90.000000
_cell_volume 1370.377365
_symmetry_space_group_name_H-M "C M"
_symmetry_group_IT_number 8
_symmetry_cell_setting 'monoclinic'
loop_
_space_group_symop_operation_xyz
x,y,z
x,-y,z
1/2+x,1/2+y,z
1/2+x,1/2-y,z
loop_
_atom_site_type_symbol
_atom_site_label
_atom_site_fract_x
_atom_site_fract_y
_atom_site_fract_z
Si Si1 0.563440 0.838670 0.916760
Si Si2 0.820009 0.336849 0.347421
Si Si3 0.697735 0.840126 0.608195
Si Si4 0.635828 0.660509 0.775305
Si Si5 0.407852 0.254659 0.640080
Si Si6 0.582446 0.326707 0.154155
Si Si7 0.007595 0.328650 0.316946
O O1 0.653839 0.757798 0.900558
O O2 0.454190 0.851226 0.769029
O O3 0.601035 0.000000 0.975712
O O4 0.539799 0.739063 0.008638
O O5 0.805872 0.500000 0.300861
O O6 0.861339 0.333193 0.503480
O O7 0.703141 0.265963 0.255032
O O8 0.905894 0.269005 0.318989
O O9 0.698319 0.731549 0.713483
O O10 0.814128 0.850377 0.630370
O O11 0.613264 0.787016 0.458347
O O12 0.665389 0.000000 0.629748
O O13 0.682124 0.500000 0.825629
O O14 0.507810 0.648506 0.663960
O O15 0.573232 0.500000 0.147043
O O16 0.507931 0.261044 0.201505
O O17 0.002839 0.500000 0.289750
#
# Coordination Sequence:
#
# PCOD8053632 Si02
#       7
#     4   4   4   4   4   4   4
#     4  10  22  42  65  86 118 165 204 245 300 363
#     4  10  20  38  63  91 119 154 199 248 302 356
#     4  11  21  36  62  93 124 158 198 249 302 357
#     4  10  22  38  59  88 122 155 197 251 299 350
#     4  10  21  38  64  91 120 155 199 254 298 351
#     4  11  23  40  61  88 122 158 197 253 304 354
#     4  10  20  38  60  87 121 159 200 242 293 363
#
# _framework density 20.43233
#
# number of rings (size 3 to 8) (size 9 to 14) (size 15 to 20)
#    0.857    0.857    2.857    2.143    0.000    1.714 
#    2.571    1.429    0.000    0.000    0.000    0.000 
#    0.000    0.000    0.000    0.000    0.000    0.000 
#
# Total GULP energy -173502.676731 kJ/mol
# GULP energy per Si atom -12393.048338 kJ/mol
# Density = 2.038582 g / cm^3
# Si number density = 20.432330 Si / 1000 Ang^3
#
#
#
# Elastic Constant Matrix: (Units=GPa)
#
#
# Indices 1 2 3 4 5 6 
#
# 1 113.2377 26.2464 35.7866 0.0000 -19.6405 0.0000
# 2 26.2464 107.0687 30.5786 0.0000 -23.4470 0.0000
# 3 35.7866 30.5786 97.6541 0.0000 -26.5555 0.0000
# 4 0.0000 0.0000 0.0000 26.3198 0.0000 -7.5669
# 5 -19.6405 -23.4470 -26.5555 0.0000 35.7643 0.0000
# 6 0.0000 0.0000 0.0000 -7.5669 0.0000 26.3404
#
#
#
# Elastic Compliance Matrix: (Units=1/GPa)
#
#
# Indices 1 2 3 4 5 6 
#
# 1 0.010459 -0.001144 -0.002652 0.000000 0.003024 0.000000
# 2 -0.001144 0.011302 -0.001598 0.000000 0.005594 0.000000
# 3 -0.002652 -0.001598 0.013823 0.000000 0.007759 0.000000
# 4 0.000000 0.000000 0.000000 0.041415 0.000000 0.011897
# 5 0.003024 0.005594 0.007759 0.000000 0.039051 0.000000
# 6 0.000000 0.000000 0.000000 0.011897 0.000000 0.041382
#
#
# Mechanical properties :
#
#
# Convention : Reuss Voigt Hill
#
# Bulk Modulus (GPa) = 40.33218 55.90929 48.12074
# Shear Modulus (GPa) = 28.33103 32.70815 30.51959
#
# Velocity S-wave (km/s) = 3.72772 4.00535 3.86902
# Velocity P-wave (km/s) = 6.18951 6.98663 6.60012
#
# Compressibility (1/GPa) = 0.02479410
#
# Stress axis : x y z
#
# Youngs Moduli (GPa) = 95.61266 88.48096 72.34525
#
# Poissons Ratio (x) = 0.10123 0.19187
# Poissons Ratio (y) = 0.10939 0.11564
# Poissons Ratio (z) = 0.25357 0.14143
#
# Static dielectric constant tensor:
#      x y z
#    x 3.737450 0.000000 -0.050770 
#    y 0.000000 3.386490 0.000000 
#    z -0.050770 0.000000 3.508190 
# 
# 
# High freq. dielectric constant tensor:
#      x y z
#    x 1.798020 0.000000 -0.014450 
#    y 0.000000 1.783120 0.000000 
#    z -0.014450 0.000000 1.785250 
# 
# From -- ./inp_files/21616.got.cif
#   From: 2010.03.12/outbox.cif.g09.slc.cpg/sg8_11_cif.got.tgz:21616.got - 2010.03.31 10:45:26.
