data_PCOD8053023
_publ_section_title
;
Structure prediction by ZEFSAII (Michael W. Deem and Ramdas Pophale) SiO2 
 PCOD8053023
Probable space group: C M
;
_chemical_formula_sum "Si O2"
_cell_formula_units_Z 32
_cell_length_a 25.200150
_cell_length_b 8.729191
_cell_length_c 16.793698
_cell_angle_alpha 90.000000
_cell_angle_beta 25.716474
_cell_angle_gamma 90.000000
_cell_volume 1602.991711
_symmetry_space_group_name_H-M "C M"
_symmetry_group_IT_number 8
_symmetry_cell_setting 'monoclinic'
loop_
_space_group_symop_operation_xyz
x,y,z
x,-y,z
1/2+x,1/2+y,z
1/2+x,1/2-y,z
loop_
_atom_site_type_symbol
_atom_site_label
_atom_site_fract_x
_atom_site_fract_y
_atom_site_fract_z
Si Si1 0.267070 0.319322 0.767470
Si Si2 0.024739 0.318798 0.393346
Si Si3 0.638501 0.680580 0.539035
Si Si4 0.565464 0.822181 0.162668
Si Si5 0.392056 0.178565 0.260346
Si Si6 0.594144 0.675184 0.884061
Si Si7 0.957477 0.177926 0.912958
Si Si8 0.700103 0.319726 0.282318
O O1 0.279154 0.500000 0.756076
O O2 0.400228 0.247822 0.597752
O O3 0.207917 0.275257 0.762122
O O4 0.179082 0.254714 0.957373
O O5 0.012334 0.500000 0.406288
O O6 0.052818 0.248467 0.267478
O O7 0.136736 0.271803 0.297310
O O8 0.645822 0.500000 0.523811
O O9 0.753362 0.735260 0.437260
O O10 0.512938 0.729409 0.752319
O O11 0.645078 0.744235 0.440128
O O12 0.437612 0.793688 0.289147
O O13 0.592112 0.000000 0.137440
O O14 0.410479 0.000000 0.212413
O O15 0.469840 0.281644 0.096082
O O16 0.628563 0.500000 0.854500
O O17 0.568134 0.702449 0.825966
O O18 0.915799 0.000000 0.968942
O O19 0.844245 0.286371 0.085705
O O20 0.677688 0.500000 0.302252
#
# Coordination Sequence:
#
# PCOD8053023 Si02
#       8
#     4   4   4   4   4   4   4   4
#     4  10  21  39  60  85 116 153 193 233 280 342
#     4  11  23  40  62  86 113 151 195 241 285 334
#     4   9  19  35  59  84 111 152 195 231 278 345
#     4   8  18  35  59  84 112 151 192 228 275 343
#     4   9  16  33  59  83 113 152 192 231 278 341
#     4  10  19  32  56  88 122 150 182 235 293 337
#     4  10  21  37  59  86 114 151 195 237 281 339
#     4  11  23  41  60  82 115 154 194 238 286 339
#
# _framework density 19.962672999999999
#
# number of rings (size 3 to 8) (size 9 to 14) (size 15 to 20)
#    0.000    2.250    1.250    2.250    1.750    1.500 
#    0.000   13.125    0.000    0.000    0.000    0.000 
#    0.000    0.000    0.000    0.000    0.000    0.000 
#
# Total GULP energy -198353.449512 kJ/mol
# GULP energy per Si atom -12397.090595 kJ/mol
# Density = 1.991724 g / cm^3
# Si number density = 19.962673 Si / 1000 Ang^3
#
#
#
# Elastic Constant Matrix: (Units=GPa)
#
#
# Indices 1 2 3 4 5 6 
#
# 1 107.0284 24.8781 38.9797 -0.0006 14.3497 0.0001
# 2 24.8781 47.4755 20.6234 0.0017 2.6225 -0.0005
# 3 38.9797 20.6234 82.3596 0.0001 15.3488 -0.0001
# 4 -0.0006 0.0017 0.0001 25.7650 0.0000 -7.1679
# 5 14.3497 2.6225 15.3488 0.0000 32.8713 0.0000
# 6 0.0001 -0.0005 -0.0001 -7.1679 0.0000 28.9876
#
#
#
# Elastic Compliance Matrix: (Units=1/GPa)
#
#
# Indices 1 2 3 4 5 6 
#
# 1 0.012301 -0.004484 -0.004124 0.000001 -0.003087 0.000000
# 2 -0.004484 0.025297 -0.004601 -0.000002 0.002088 0.000000
# 3 -0.004124 -0.004601 0.016257 0.000000 -0.005423 0.000000
# 4 0.000001 -0.000002 0.000000 0.041680 0.000000 0.010306
# 5 -0.003087 0.002088 -0.005423 0.000000 0.034135 0.000000
# 6 0.000000 0.000000 0.000000 0.010306 0.000000 0.037046
#
#
# Mechanical properties :
#
#
# Convention : Reuss Voigt Hill
#
# Bulk Modulus (GPa) = 36.44860 45.09175 40.77018
# Shear Modulus (GPa) = 24.71826 27.68359 26.20093
#
# Velocity S-wave (km/s) = 3.52266 3.72797 3.62677
# Velocity P-wave (km/s) = 5.90284 6.41619 6.16486
#
# Compressibility (1/GPa) = 0.02743589
#
# Stress axis : x y z
#
# Youngs Moduli (GPa) = 81.29131 39.53074 61.51343
#
# Poissons Ratio (x) = 0.17726 0.25368
# Poissons Ratio (y) = 0.36453 0.28304
# Poissons Ratio (z) = 0.33524 0.18189
#
# Static dielectric constant tensor:
#      x y z
#    x 3.818930 0.000000 0.238440 
#    y 0.000000 3.348560 0.000000 
#    z 0.238440 0.000000 3.801920 
# 
# 
# High freq. dielectric constant tensor:
#      x y z
#    x 1.781570 0.000000 0.003630 
#    y 0.000000 1.751960 0.000000 
#    z 0.003630 0.000000 1.779160 
# 
# From -- ./inp_files/24797.got.cif
#   From: 2010.03.12/outbox.cif.g09.slc.cpg/sg8_13_cif.got.tgz:24797.got - 2010.03.31 10:45:26.
