data_PCOD8053134
_publ_section_title
;
Structure prediction by ZEFSAII (Michael W. Deem and Ramdas Pophale) SiO2 
 PCOD8053134
Probable space group: C M
;
_chemical_formula_sum "Si O2"
_cell_formula_units_Z 32
_cell_length_a 20.036619
_cell_length_b 8.770892
_cell_length_c 24.875580
_cell_angle_alpha 90.000000
_cell_angle_beta 156.709145
_cell_angle_gamma 90.000000
_cell_volume 1728.529836
_symmetry_space_group_name_H-M "C M"
_symmetry_group_IT_number 8
_symmetry_cell_setting 'monoclinic'
loop_
_space_group_symop_operation_xyz
x,y,z
x,-y,z
1/2+x,1/2+y,z
1/2+x,1/2-y,z
loop_
_atom_site_type_symbol
_atom_site_label
_atom_site_fract_x
_atom_site_fract_y
_atom_site_fract_z
Si Si1 0.209140 0.319748 0.051770
Si Si2 0.131082 0.322787 0.832912
Si Si3 0.414025 0.820574 0.113655
Si Si4 0.062224 0.819948 0.557292
Si Si5 0.897824 0.321862 0.752647
Si Si6 0.586307 0.678309 0.063864
Si Si7 0.697442 0.822462 0.762461
Si Si8 0.708347 0.320508 0.271074
O O1 0.223363 0.500000 0.059072
O O2 0.367389 0.249745 0.137069
O O3 0.208021 0.265701 0.112427
O O4 0.038841 0.255687 0.897478
O O5 0.179630 0.500000 0.877072
O O6 0.107997 0.285235 0.753237
O O7 0.955544 0.283884 0.734148
O O8 0.284577 0.228568 0.971318
O O9 0.600470 0.762707 0.237106
O O10 0.414810 0.000000 0.119379
O O11 0.213948 0.756320 0.631307
O O12 0.105298 0.781725 0.650769
O O13 0.900700 0.728967 0.418392
O O14 0.032137 0.000000 0.529232
O O15 0.887979 0.500000 0.755564
O O16 0.614612 0.500000 0.077101
O O17 0.639342 0.731615 0.162183
O O18 0.392787 0.724515 0.910853
O O19 0.676879 0.000000 0.732309
O O20 0.691294 0.500000 0.266517
#
# Coordination Sequence:
#
# PCOD8053134 Si02
#       8
#     4   4   4   4   4   4   4   4
#     4  10  19  34  57  84 114 149 186 232 285 341
#     4   9  17  34  57  82 111 149 191 232 280 337
#     4  11  21  34  55  85 116 147 186 239 289 337
#     4  11  22  37  55  83 116 150 191 239 284 337
#     4   8  16  31  53  79 109 143 182 226 274 327
#     4  10  20  35  57  85 114 145 192 243 282 329
#     4  10  19  34  57  84 113 148 189 235 284 337
#     4  11  23  41  59  80 113 157 195 234 286 345
#
# _framework density 18.512841000000002
#
# number of rings (size 3 to 8) (size 9 to 14) (size 15 to 20)
#    0.000    2.000    2.500    3.000    0.000    1.500 
#    0.000    1.875    0.000    4.500    0.000    0.000 
#    0.000    0.000    0.000    0.000    0.000    0.000 
#
# Total GULP energy -198409.018336 kJ/mol
# GULP energy per Si atom -12400.563646 kJ/mol
# Density = 1.847070 g / cm^3
# Si number density = 18.512841 Si / 1000 Ang^3
#
#
#
# Elastic Constant Matrix: (Units=GPa)
#
#
# Indices 1 2 3 4 5 6 
#
# 1 138.0801 46.6439 38.1872 -0.0058 20.3946 -0.0005
# 2 46.6439 67.0858 28.1836 0.0005 3.6182 0.0003
# 3 38.1872 28.1836 73.8042 -0.0025 11.7571 -0.0010
# 4 -0.0058 0.0005 -0.0025 26.4078 -0.0008 1.1035
# 5 20.3946 3.6182 11.7571 -0.0008 29.3671 0.0000
# 6 -0.0005 0.0003 -0.0010 1.1035 0.0000 30.1296
#
#
#
# Elastic Compliance Matrix: (Units=1/GPa)
#
#
# Indices 1 2 3 4 5 6 
#
# 1 0.010859 -0.006272 -0.002291 0.000002 -0.005851 0.000000
# 2 -0.006272 0.021386 -0.005550 -0.000002 0.003942 0.000000
# 3 -0.002291 -0.005550 0.017615 0.000001 -0.004777 0.000001
# 4 0.000002 -0.000002 0.000001 0.037926 -0.000001 -0.001389
# 5 -0.005851 0.003942 -0.004777 -0.000001 0.039542 0.000000
# 6 0.000000 0.000000 0.000001 -0.001389 0.000000 0.033241
#
#
# Mechanical properties :
#
#
# Convention : Reuss Voigt Hill
#
# Bulk Modulus (GPa) = 46.22283 56.11105 51.16694
# Shear Modulus (GPa) = 25.50963 28.24461 26.87712
#
# Velocity S-wave (km/s) = 3.71609 3.91023 3.81440
# Velocity P-wave (km/s) = 6.59050 7.12472 6.86281
#
# Compressibility (1/GPa) = 0.02163433
#
# Stress axis : x y z
#
# Youngs Moduli (GPa) = 92.09236 46.76017 56.76924
#
# Poissons Ratio (x) = 0.29327 0.13008
# Poissons Ratio (y) = 0.57758 0.31504
# Poissons Ratio (z) = 0.21102 0.25950
#
# Static dielectric constant tensor:
#      x y z
#    x 3.709100 0.000000 0.187070 
#    y 0.000000 3.248040 -0.000010 
#    z 0.187070 -0.000010 3.249280 
# 
# 
# High freq. dielectric constant tensor:
#      x y z
#    x 1.734530 0.000000 0.014850 
#    y 0.000000 1.710040 0.000000 
#    z 0.014850 0.000000 1.689210 
# 
# From -- ./inp_files/23759.got.cif
#   From: 2010.03.12/outbox.cif.g09.slc.cpg/sg8_12_cif.got.tgz:23759.got - 2010.03.31 10:45:26.
