data_PCOD8053399
_publ_section_title
;
Structure prediction by ZEFSAII (Michael W. Deem and Ramdas Pophale) SiO2 
 PCOD8053399
Probable space group: C M
;
_chemical_formula_sum "Si O2"
_cell_formula_units_Z 32
_cell_length_a 28.212206
_cell_length_b 8.869477
_cell_length_c 14.196926
_cell_angle_alpha 90.000000
_cell_angle_beta 29.772214
_cell_angle_gamma 90.000000
_cell_volume 1763.985664
_symmetry_space_group_name_H-M "C M"
_symmetry_group_IT_number 8
_symmetry_cell_setting 'monoclinic'
loop_
_space_group_symop_operation_xyz
x,y,z
x,-y,z
1/2+x,1/2+y,z
1/2+x,1/2-y,z
loop_
_atom_site_type_symbol
_atom_site_label
_atom_site_fract_x
_atom_site_fract_y
_atom_site_fract_z
Si Si1 0.486820 0.828459 0.404260
Si Si2 0.180035 0.822441 0.085109
Si Si3 0.962686 0.678889 0.886753
Si Si4 0.352989 0.821581 0.256309
Si Si5 0.799506 0.177623 0.727677
Si Si6 0.162192 0.822127 0.486646
Si Si7 0.273622 0.178570 0.114334
Si Si8 0.867917 0.671905 0.439071
O O1 0.571127 0.720839 0.292539
O O2 0.391087 0.760770 0.617645
O O3 0.469552 0.822483 0.319886
O O4 0.503906 0.000000 0.408926
O O5 0.243463 0.763751 0.063306
O O6 0.190282 0.000000 0.051369
O O7 0.207888 0.731870 0.943313
O O8 0.971920 0.500000 0.870054
O O9 0.063498 0.746558 0.685065
O O10 0.929240 0.738683 0.047778
O O11 0.880981 0.733028 0.953684
O O12 0.244828 0.773292 0.417706
O O13 0.379049 0.758536 0.315306
O O14 0.360257 0.000000 0.241994
O O15 0.791259 0.230446 0.632254
O O16 0.810667 0.000000 0.714014
O O17 0.196759 0.764008 0.324280
O O18 0.146503 0.000000 0.514561
O O19 0.270883 0.000000 0.123001
O O20 0.830198 0.500000 0.498508
#
# Coordination Sequence:
#
# PCOD8053399 Si02
#       8
#     4   4   4   4   4   4   4   4
#     4   9  19  35  53  74 103 135 174 215 255 301
#     4  11  20  34  55  77 103 138 177 215 259 306
#     4   9  17  33  54  76 101 131 166 204 250 303
#     4   8  15  32  55  73 100 138 167 197 249 309
#     4  10  20  35  52  74 104 137 174 215 257 303
#     4   9  17  33  54  76 101 130 166 206 250 302
#     4   8  18  34  52  73 101 136 168 202 251 308
#     4   8  16  34  55  73 101 139 172 208 255 302
#
# _framework density 18.140736
#
# number of rings (size 3 to 8) (size 9 to 14) (size 15 to 20)
#    0.750    2.250    0.000    3.000    0.000    1.000 
#    2.250    8.750    0.000    0.000    0.000    0.000 
#    0.000    0.000    0.000    0.000    0.000    0.000 
#
# Total GULP energy -198230.746547 kJ/mol
# GULP energy per Si atom -12389.421659 kJ/mol
# Density = 1.809945 g / cm^3
# Si number density = 18.140736 Si / 1000 Ang^3
#
#
#
# Elastic Constant Matrix: (Units=GPa)
#
#
# Indices 1 2 3 4 5 6 
#
# 1 64.3301 23.5083 19.6552 0.0000 4.2439 0.0000
# 2 23.5083 61.9329 24.7224 0.0000 3.0396 0.0000
# 3 19.6552 24.7224 95.4518 0.0000 -7.7977 0.0000
# 4 0.0000 0.0000 0.0000 32.2006 0.0000 -6.1209
# 5 4.2439 3.0396 -7.7977 0.0000 24.7899 0.0000
# 6 0.0000 0.0000 0.0000 -6.1209 0.0000 16.5242
#
#
#
# Elastic Compliance Matrix: (Units=1/GPa)
#
#
# Indices 1 2 3 4 5 6 
#
# 1 0.018713 -0.005906 -0.002593 0.000000 -0.003295 0.000000
# 2 -0.005906 0.020223 -0.004251 0.000000 -0.002806 0.000000
# 3 -0.002593 -0.004251 0.012512 0.000000 0.004901 0.000000
# 4 0.000000 0.000000 0.000000 0.033408 0.000000 0.012375
# 5 -0.003295 -0.002806 0.004901 0.000000 0.042789 0.000000
# 6 0.000000 0.000000 0.000000 0.012375 0.000000 0.065101
#
#
# Mechanical properties :
#
#
# Convention : Reuss Voigt Hill
#
# Bulk Modulus (GPa) = 38.53890 39.72071 39.12980
# Shear Modulus (GPa) = 22.03681 24.95822 23.49751
#
# Velocity S-wave (km/s) = 3.48914 3.71322 3.60292
# Velocity P-wave (km/s) = 6.12557 6.35038 6.23899
#
# Compressibility (1/GPa) = 0.02594781
#
# Stress axis : x y z
#
# Youngs Moduli (GPa) = 53.43966 49.44887 79.92521
#
# Poissons Ratio (x) = 0.29206 0.20722
# Poissons Ratio (y) = 0.31563 0.33975
# Poissons Ratio (z) = 0.13855 0.21020
#
# Static dielectric constant tensor:
#      x y z
#    x 3.587990 0.000000 0.161920 
#    y 0.000000 3.008920 0.000000 
#    z 0.161920 0.000000 3.293140 
# 
# 
# High freq. dielectric constant tensor:
#      x y z
#    x 1.695110 0.000000 0.004020 
#    y 0.000000 1.679000 0.000000 
#    z 0.004020 0.000000 1.696190 
# 
# From -- ./inp_files/26447.got.cif
#   From: 2010.03.12/outbox.cif.g09.slc.cpg/sg8_14_cif.got.tgz:26447.got - 2010.03.31 10:45:26.
