data_PCOD8053700
_publ_section_title
;
Structure prediction by ZEFSAII (Michael W. Deem and Ramdas Pophale) SiO2 
 PCOD8053700
Probable space group: C M
;
_chemical_formula_sum "Si O2"
_cell_formula_units_Z 32
_cell_length_a 18.949678
_cell_length_b 8.891635
_cell_length_c 11.853787
_cell_angle_alpha 90.000000
_cell_angle_beta 52.802314
_cell_angle_gamma 90.000000
_cell_volume 1590.948004
_symmetry_space_group_name_H-M "C M"
_symmetry_group_IT_number 8
_symmetry_cell_setting 'monoclinic'
loop_
_space_group_symop_operation_xyz
x,y,z
x,-y,z
1/2+x,1/2+y,z
1/2+x,1/2-y,z
loop_
_atom_site_type_symbol
_atom_site_label
_atom_site_fract_x
_atom_site_fract_y
_atom_site_fract_z
Si Si1 0.182840 0.328900 0.716320
Si Si2 0.447287 0.176242 0.699741
Si Si3 0.468626 0.326280 0.238649
Si Si4 0.313366 0.677252 0.989664
Si Si5 0.881973 0.831924 0.552924
Si Si6 0.130190 0.177339 0.548303
Si Si7 0.797019 0.176777 0.267089
Si Si8 0.149612 0.322325 0.999579
O O1 0.147549 0.500000 0.738574
O O2 0.286374 0.321281 0.586935
O O3 0.132155 0.223603 0.677608
O O4 0.166825 0.263712 0.856606
O O5 0.388251 0.211703 0.646828
O O6 0.541135 0.253264 0.583283
O O7 0.459915 0.000000 0.702761
O O8 0.400335 0.241690 0.856498
O O9 0.487321 0.500000 0.193562
O O10 0.451713 0.299350 0.387152
O O11 0.386503 0.268855 0.242535
O O12 0.554198 0.230229 0.129924
O O13 0.325566 0.500000 0.960610
O O14 0.304731 0.719908 0.128660
O O15 0.226224 0.738829 0.008796
O O16 0.894819 0.000000 0.591364
O O17 0.213467 0.238229 0.398988
O O18 0.127204 0.000000 0.539534
O O19 0.781855 0.000000 0.300299
O O20 0.152995 0.500000 0.998726
#
# Coordination Sequence:
#
# PCOD8053700 Si02
#       8
#     4   4   4   4   4   4   4   4
#     4  10  20  41  67  89 122 163 206 256 312 366
#     4  12  26  42  64  93 126 164 211 260 311 371
#     4  10  22  39  62  92 126 163 202 252 308 365
#     4  10  22  43  66  90 125 167 208 253 310 370
#     4  10  20  41  67  89 122 163 206 256 312 366
#     4  12  26  42  64  93 126 164 211 260 311 371
#     4  10  22  43  66  90 125 167 208 253 310 370
#     4  10  22  39  62  92 126 163 202 252 308 365
#
# _framework density 20.113793000000001
#
# number of rings (size 3 to 8) (size 9 to 14) (size 15 to 20)
#    0.000    1.500    2.500    2.250    3.500    3.000 
#    0.000    0.000    0.000    0.000    0.000    0.000 
#    0.000    0.000    0.000    0.000    0.000    0.000 
#
# Total GULP energy -198467.799739 kJ/mol
# GULP energy per Si atom -12404.237484 kJ/mol
# Density = 2.006801 g / cm^3
# Si number density = 20.113793 Si / 1000 Ang^3
#
#
#
# Elastic Constant Matrix: (Units=GPa)
#
#
# Indices 1 2 3 4 5 6 
#
# 1 78.5106 29.2375 31.0516 0.0000 0.4609 0.0000
# 2 29.2375 70.3173 34.3529 0.0000 2.2708 0.0000
# 3 31.0516 34.3529 98.7994 0.0000 -1.4727 0.0000
# 4 0.0000 0.0000 0.0000 33.5860 0.0000 -6.0694
# 5 0.4609 2.2708 -1.4727 0.0000 36.6058 0.0000
# 6 0.0000 0.0000 0.0000 -6.0694 0.0000 29.3932
#
#
#
# Elastic Compliance Matrix: (Units=1/GPa)
#
#
# Indices 1 2 3 4 5 6 
#
# 1 0.015892 -0.005020 -0.003250 0.000000 -0.000019 0.000000
# 2 -0.005020 0.018779 -0.004971 0.000000 -0.001302 0.000000
# 3 -0.003250 -0.004971 0.012884 0.000000 0.000868 0.000000
# 4 0.000000 0.000000 0.000000 0.030928 0.000000 0.006386
# 5 -0.000019 -0.001302 0.000868 0.000000 0.027434 0.000000
# 6 0.000000 0.000000 0.000000 0.006386 0.000000 0.035340
#
#
# Mechanical properties :
#
#
# Convention : Reuss Voigt Hill
#
# Bulk Modulus (GPa) = 47.45139 48.54572 47.99856
# Shear Modulus (GPa) = 28.61008 30.11601 29.36304
#
# Velocity S-wave (km/s) = 3.77558 3.87367 3.82494
# Velocity P-wave (km/s) = 6.53065 6.64793 6.58955
#
# Compressibility (1/GPa) = 0.02107420
#
# Stress axis : x y z
#
# Youngs Moduli (GPa) = 62.92563 53.25071 77.61354
#
# Poissons Ratio (x) = 0.26729 0.25221
# Poissons Ratio (y) = 0.31586 0.38585
# Poissons Ratio (z) = 0.20448 0.26473
#
# Static dielectric constant tensor:
#      x y z
#    x 3.753310 0.000000 0.061650 
#    y 0.000000 3.460270 0.000000 
#    z 0.061650 0.000000 3.708970 
# 
# 
# High freq. dielectric constant tensor:
#      x y z
#    x 1.793270 0.000000 0.001700 
#    y 0.000000 1.768210 0.000000 
#    z 0.001700 0.000000 1.797930 
# 
# From -- ./inp_files/23890.got.cif
#   From: 2010.03.12/outbox.cif.g09.slc.cpg/sg8_12_cif.got.tgz:23890.got - 2010.03.31 10:45:26.
