data_PCOD8053054
_publ_section_title
;
Structure prediction by ZEFSAII (Michael W. Deem and Ramdas Pophale) SiO2 
 PCOD8053054
Probable space group: C M
;
_chemical_formula_sum "Si O2"
_cell_formula_units_Z 24
_cell_length_a 18.892339
_cell_length_b 9.093372
_cell_length_c 12.149770
_cell_angle_alpha 90.000000
_cell_angle_beta 38.822682
_cell_angle_gamma 90.000000
_cell_volume 1308.535543
_symmetry_space_group_name_H-M "C M"
_symmetry_group_IT_number 8
_symmetry_cell_setting 'monoclinic'
loop_
_space_group_symop_operation_xyz
x,y,z
x,-y,z
1/2+x,1/2+y,z
1/2+x,1/2-y,z
loop_
_atom_site_type_symbol
_atom_site_label
_atom_site_fract_x
_atom_site_fract_y
_atom_site_fract_z
Si Si1 0.198850 0.331797 0.286820
Si Si2 0.180166 0.825557 0.647923
Si Si3 0.016345 0.671234 0.684625
Si Si4 0.114628 0.174340 0.967907
Si Si5 0.859806 0.827013 0.289217
Si Si6 0.259129 0.174017 0.995764
O O1 0.208137 0.500000 0.237502
O O2 0.080553 0.301466 0.491746
O O3 0.302050 0.290520 0.242427
O O4 0.203054 0.230899 0.175121
O O5 0.072228 0.765520 0.713284
O O6 0.296360 0.758035 0.463232
O O7 0.182933 0.000000 0.632089
O O8 0.168956 0.774124 0.787595
O O9 0.024586 0.500000 0.707506
O O10 0.888276 0.726071 0.826933
O O11 0.986933 0.233511 0.132466
O O12 0.111179 0.000000 0.976569
O O13 0.189389 0.238660 0.976981
O O14 0.851252 0.000000 0.324234
O O15 0.251887 0.000000 0.005864
#
# Coordination Sequence:
#
# PCOD8053054 Si02
#       6
#     4   4   4   4   4   4
#     4   9  18  33  52  73  98 131 167 205 251 294
#     4  10  19  33  55  78  98 126 169 212 244 287
#     4   9  19  35  53  73 101 134 164 201 251 298
#     4   9  19  34  51  73 103 136 164 198 250 300
#     4   9  18  35  55  73  99 133 165 202 251 298
#     4  10  20  34  52  74 101 134 169 202 241 295
#
# _framework density 18.341114999999999
#
# number of rings (size 3 to 8) (size 9 to 14) (size 15 to 20)
#    0.000    2.667    0.000    2.500    0.000    6.000 
#    0.000    5.833    0.000    0.000    0.000    0.000 
#    0.000    0.000    0.000    0.000    0.000    0.000 
#
# Total GULP energy -148814.283170 kJ/mol
# GULP energy per Si atom -12401.190264 kJ/mol
# Density = 1.829937 g / cm^3
# Si number density = 18.341115 Si / 1000 Ang^3
#
#
#
# Elastic Constant Matrix: (Units=GPa)
#
#
# Indices 1 2 3 4 5 6 
#
# 1 111.0481 28.5180 76.8857 0.0000 17.5949 0.0000
# 2 28.5180 37.4534 34.9971 0.0000 8.3181 0.0000
# 3 76.8857 34.9971 129.5668 0.0000 17.3357 0.0000
# 4 0.0000 0.0000 0.0000 29.9508 0.0000 5.1639
# 5 17.5949 8.3181 17.3357 0.0000 21.9116 0.0000
# 6 0.0000 0.0000 0.0000 5.1639 0.0000 21.3721
#
#
#
# Elastic Compliance Matrix: (Units=1/GPa)
#
#
# Indices 1 2 3 4 5 6 
#
# 1 0.016339 -0.003824 -0.007943 0.000000 -0.005385 0.000000
# 2 -0.003824 0.037490 -0.007118 0.000000 -0.005531 0.000000
# 3 -0.007943 -0.007118 0.014694 0.000000 -0.002546 0.000000
# 4 0.000000 0.000000 0.000000 0.034839 0.000000 -0.008418
# 5 -0.005385 -0.005531 -0.002546 0.000000 0.054076 0.000000
# 6 0.000000 0.000000 0.000000 -0.008418 0.000000 0.048824
#
#
# Mechanical properties :
#
#
# Convention : Reuss Voigt Hill
#
# Bulk Modulus (GPa) = 32.51338 62.09665 47.30502
# Shear Modulus (GPa) = 19.66316 23.82475 21.74396
#
# Velocity S-wave (km/s) = 3.27782 3.60805 3.44689
# Velocity P-wave (km/s) = 5.66489 7.16152 6.45672
#
# Compressibility (1/GPa) = 0.03075657
#
# Stress axis : x y z
#
# Youngs Moduli (GPa) = 61.20164 26.67361 68.05335
#
# Poissons Ratio (x) = 0.10199 0.54052
# Poissons Ratio (y) = 0.23401 0.48437
# Poissons Ratio (z) = 0.48610 0.18985
#
# Static dielectric constant tensor:
#      x y z
#    x 3.530280 0.000000 -0.102810 
#    y 0.000000 3.134480 0.000000 
#    z -0.102810 0.000000 3.489320 
# 
# 
# High freq. dielectric constant tensor:
#      x y z
#    x 1.708380 0.000000 -0.003460 
#    y 0.000000 1.689580 0.000000 
#    z -0.003460 0.000000 1.723560 
# 
# From -- ./inp_files/21663.got.cif
#   From: 2010.03.12/outbox.cif.g09.slc.cpg/sg8_11_cif.got.tgz:21663.got - 2010.03.31 10:45:26.
