data_PCOD8053651
_publ_section_title
;
Structure prediction by ZEFSAII (Michael W. Deem and Ramdas Pophale) SiO2 
 PCOD8053651
Probable space group: C M
;
_chemical_formula_sum "Si O2"
_cell_formula_units_Z 32
_cell_length_a 17.784173
_cell_length_b 13.180658
_cell_length_c 12.079160
_cell_angle_alpha 90.000000
_cell_angle_beta 149.498149
_cell_angle_gamma 90.000000
_cell_volume 1437.143690
_symmetry_space_group_name_H-M "C M"
_symmetry_group_IT_number 8
_symmetry_cell_setting 'monoclinic'
loop_
_space_group_symop_operation_xyz
x,y,z
x,-y,z
1/2+x,1/2+y,z
1/2+x,1/2-y,z
loop_
_atom_site_type_symbol
_atom_site_label
_atom_site_fract_x
_atom_site_fract_y
_atom_site_fract_z
Si Si1 0.926190 0.616628 0.722810
Si Si2 0.724520 0.379726 0.266851
Si Si3 0.771742 0.383963 0.077569
Si Si4 0.209078 0.199775 0.607211
Si Si5 0.050787 0.116704 0.615041
Si Si6 0.897346 0.805673 0.130882
Si Si7 0.249434 0.614327 0.149040
Si Si8 0.386751 0.380501 0.880342
O O1 0.953505 0.500000 0.727842
O O2 0.835184 0.664580 0.502137
O O3 0.837581 0.625236 0.725811
O O4 0.088375 0.669905 0.947193
O O5 0.731234 0.500000 0.276386
O O6 0.769369 0.341627 0.200235
O O7 0.555198 0.347100 0.072274
O O8 0.829542 0.500000 0.145571
O O9 0.878090 0.312603 0.140147
O O10 0.608362 0.375619 0.814250
O O11 0.162680 0.178113 0.675839
O O12 0.271274 0.314172 0.661633
O O13 0.071942 0.175121 0.354361
O O14 0.881444 0.160795 0.394760
O O15 0.049055 0.000000 0.571452
O O16 0.809328 0.879593 0.100735
O O17 0.838625 0.840194 0.938992
O O18 0.223663 0.500000 0.155123
O O19 0.358928 0.500000 0.827552
#
# Coordination Sequence:
#
# PCOD8053651 Si02
#       8
#     4   4   4   4   4   4   4   4
#     4  10  20  38  63  94 127 166 217 269 318 375
#     4   9  20  39  63  90 125 170 211 259 318 379
#     4  10  21  39  63  91 127 167 211 257 317 385
#     4  11  22  37  62  95 126 164 212 262 322 380
#     4   9  18  37  62  89 123 162 207 261 323 382
#     4  11  22  39  62  92 125 166 210 258 317 382
#     4   9  20  36  59  92 122 158 209 269 320 366
#     4  11  23  41  63  93 131 171 214 261 322 385
#
# _framework density 22.266387999999999
#
# number of rings (size 3 to 8) (size 9 to 14) (size 15 to 20)
#    0.000    2.000    2.500    0.750    1.750    2.500 
#    0.000    2.500    0.000    1.500    0.000    0.875 
#    0.000    0.000    0.000    0.000    0.000    0.000 
#
# Total GULP energy -198215.202515 kJ/mol
# GULP energy per Si atom -12388.450157 kJ/mol
# Density = 2.221571 g / cm^3
# Si number density = 22.266388 Si / 1000 Ang^3
#
#
#
# Elastic Constant Matrix: (Units=GPa)
#
#
# Indices 1 2 3 4 5 6 
#
# 1 72.9923 1.8821 56.6614 0.0000 9.2885 0.0000
# 2 1.8821 58.8558 17.6537 0.0000 4.0906 0.0000
# 3 56.6614 17.6537 109.0446 0.0000 28.0411 0.0000
# 4 0.0000 0.0000 0.0000 19.0478 0.0000 0.0454
# 5 9.2885 4.0906 28.0411 0.0000 39.7341 0.0000
# 6 0.0000 0.0000 0.0000 0.0454 0.0000 24.0279
#
#
#
# Elastic Compliance Matrix: (Units=1/GPa)
#
#
# Indices 1 2 3 4 5 6 
#
# 1 0.023967 0.003152 -0.013976 0.000000 0.003936 0.000000
# 2 0.003152 0.018274 -0.004793 0.000000 0.000764 0.000000
# 3 -0.013976 -0.004793 0.019843 0.000000 -0.010243 0.000000
# 4 0.000000 0.000000 0.000000 0.052500 0.000000 -0.000099
# 5 0.003936 0.000764 -0.010243 0.000000 0.031397 0.000000
# 6 0.000000 0.000000 0.000000 -0.000099 0.000000 0.041618
#
#
# Mechanical properties :
#
#
# Convention : Reuss Voigt Hill
#
# Bulk Modulus (GPa) = 32.41465 43.69857 38.05661
# Shear Modulus (GPa) = 21.82290 27.54167 24.68228
#
# Velocity S-wave (km/s) = 3.13402 3.52080 3.33303
# Velocity P-wave (km/s) = 5.26169 6.01631 5.65161
#
# Compressibility (1/GPa) = 0.03085025
#
# Stress axis : x y z
#
# Youngs Moduli (GPa) = 41.72368 54.72134 50.39617
#
# Poissons Ratio (x) = -0.17249 0.70435
# Poissons Ratio (y) = -0.13152 0.24155
# Poissons Ratio (z) = 0.58314 0.26228
#
# Static dielectric constant tensor:
#      x y z
#    x 3.775460 0.000000 0.021610 
#    y 0.000000 3.900140 0.000000 
#    z 0.021610 0.000000 4.397680 
# 
# 
# High freq. dielectric constant tensor:
#      x y z
#    x 1.857880 0.000000 0.004890 
#    y 0.000000 1.870680 0.000000 
#    z 0.004890 0.000000 1.884860 
# 
# From -- ./inp_files/23321.got.cif
#   From: 2010.03.12/outbox.cif.g09.slc.cpg/sg8_12_cif.got.tgz:23321.got - 2010.03.31 10:45:26.
