data_PCOD8053083
_publ_section_title
;
Structure prediction by ZEFSAII (Michael W. Deem and Ramdas Pophale) SiO2 
 PCOD8053083
Probable space group: C M
;
_chemical_formula_sum "Si O2"
_cell_formula_units_Z 32
_cell_length_a 19.872808
_cell_length_b 8.839825
_cell_length_c 24.720557
_cell_angle_alpha 90.000000
_cell_angle_beta 23.263018
_cell_angle_gamma 90.000000
_cell_volume 1715.165907
_symmetry_space_group_name_H-M "C M"
_symmetry_group_IT_number 8
_symmetry_cell_setting 'monoclinic'
loop_
_space_group_symop_operation_xyz
x,y,z
x,-y,z
1/2+x,1/2+y,z
1/2+x,1/2-y,z
loop_
_atom_site_type_symbol
_atom_site_label
_atom_site_fract_x
_atom_site_fract_y
_atom_site_fract_z
Si Si1 0.023200 0.176872 0.954340
Si Si2 0.106411 0.678953 0.003015
Si Si3 0.493971 0.323759 0.710822
Si Si4 0.483789 0.321705 0.201862
Si Si5 0.136561 0.176560 0.487802
Si Si6 0.339417 0.822132 0.646091
Si Si7 0.133123 0.675317 0.709084
Si Si8 0.818190 0.325288 0.017294
O O1 0.195423 0.223865 0.795884
O O2 0.014702 0.000000 0.971516
O O3 0.013471 0.262628 0.018058
O O4 0.861047 0.226259 0.038336
O O5 0.098314 0.500000 0.009348
O O6 0.004241 0.742369 0.129194
O O7 0.301372 0.736333 0.860131
O O8 0.506817 0.500000 0.715465
O O9 0.550487 0.288317 0.608529
O O10 0.619100 0.232901 0.658097
O O11 0.482525 0.500000 0.193255
O O12 0.311573 0.267356 0.356810
O O13 0.635270 0.273880 0.130333
O O14 0.012617 0.235935 0.532417
O O15 0.171308 0.000000 0.453371
O O16 0.281616 0.767778 0.629515
O O17 0.373143 0.000000 0.620426
O O18 0.182582 0.500000 0.673261
O O19 0.952816 0.707597 0.870531
O O20 0.821360 0.500000 0.032137
#
# Coordination Sequence:
#
# PCOD8053083 Si02
#       8
#     4   4   4   4   4   4   4   4
#     4  10  20  33  56  87 116 146 189 241 288 336
#     4  11  21  36  59  86 116 151 192 240 286 338
#     4  10  21  36  57  85 116 148 191 240 285 337
#     4  11  23  40  59  85 118 154 192 236 287 344
#     4  11  23  40  59  84 117 156 194 234 286 346
#     4  10  20  35  56  84 117 152 190 237 288 340
#     4  10  19  33  57  86 115 147 188 240 288 338
#     4   9  19  35  55  81 115 150 186 232 288 343
#
# _framework density 18.657088000000002
#
# number of rings (size 3 to 8) (size 9 to 14) (size 15 to 20)
#    0.000    1.750    2.500    2.250    0.000    4.000 
#    0.000    1.250    0.000    3.000    0.000    0.000 
#    0.000    0.000    0.000    0.000    0.000    0.000 
#
# Total GULP energy -198493.081616 kJ/mol
# GULP energy per Si atom -12405.817601 kJ/mol
# Density = 1.861462 g / cm^3
# Si number density = 18.657088 Si / 1000 Ang^3
#
#
#
# Elastic Constant Matrix: (Units=GPa)
#
#
# Indices 1 2 3 4 5 6 
#
# 1 114.3654 43.9168 26.2596 -0.0057 -17.5413 0.0017
# 2 43.9168 65.5778 20.7189 -0.0162 -5.8644 -0.0010
# 3 26.2596 20.7189 60.7202 -0.0244 -14.7260 0.0001
# 4 -0.0057 -0.0162 -0.0244 29.2610 -0.0043 -1.7929
# 5 -17.5413 -5.8644 -14.7260 -0.0043 27.2996 0.0011
# 6 0.0017 -0.0010 0.0001 -1.7929 0.0011 36.6099
#
#
#
# Elastic Compliance Matrix: (Units=1/GPa)
#
#
# Indices 1 2 3 4 5 6 
#
# 1 0.012933 -0.007643 -0.001574 -0.000002 0.005819 -0.000001
# 2 -0.007643 0.021618 -0.004758 0.000006 -0.002834 0.000001
# 3 -0.001574 -0.004758 0.021031 0.000016 0.009312 0.000000
# 4 -0.000002 0.000006 0.000016 0.034278 0.000014 0.001679
# 5 0.005819 -0.002834 0.009312 0.000014 0.044784 -0.000001
# 6 -0.000001 0.000001 0.000000 0.001679 -0.000001 0.027397
#
#
# Mechanical properties :
#
#
# Convention : Reuss Voigt Hill
#
# Bulk Modulus (GPa) = 36.19071 46.93932 41.56501
# Shear Modulus (GPa) = 25.10016 28.61865 26.85941
#
# Velocity S-wave (km/s) = 3.67187 3.92079 3.79837
# Velocity P-wave (km/s) = 6.11693 6.76095 6.44698
#
# Compressibility (1/GPa) = 0.02763140
#
# Stress axis : x y z
#
# Youngs Moduli (GPa) = 77.32220 46.25853 47.54795
#
# Poissons Ratio (x) = 0.35357 0.07483
# Poissons Ratio (y) = 0.59101 0.22624
# Poissons Ratio (z) = 0.12168 0.22010
#
# Static dielectric constant tensor:
#      x y z
#    x 3.459240 0.000000 -0.112790 
#    y 0.000000 3.427660 0.000020 
#    z -0.112790 0.000020 3.228270 
# 
# 
# High freq. dielectric constant tensor:
#      x y z
#    x 1.735420 0.000000 -0.011030 
#    y 0.000000 1.733950 0.000000 
#    z -0.011030 0.000000 1.697420 
# 
# From -- ./inp_files/30043.got.cif
#   From: 2010.03.12/outbox.cif.g09.slc.cpg/sg8_16_cif.got.tgz:30043.got - 2010.03.31 10:45:26.
