data_PCOD8053224
_publ_section_title
;
Structure prediction by ZEFSAII (Michael W. Deem and Ramdas Pophale) SiO2 
 PCOD8053224
Probable space group: C M
;
_chemical_formula_sum "Si O2"
_cell_formula_units_Z 32
_cell_length_a 24.966515
_cell_length_b 8.626087
_cell_length_c 16.552125
_cell_angle_alpha 90.000000
_cell_angle_beta 26.196963
_cell_angle_gamma 90.000000
_cell_volume 1573.675542
_symmetry_space_group_name_H-M "C M"
_symmetry_group_IT_number 8
_symmetry_cell_setting 'monoclinic'
loop_
_space_group_symop_operation_xyz
x,y,z
x,-y,z
1/2+x,1/2+y,z
1/2+x,1/2-y,z
loop_
_atom_site_type_symbol
_atom_site_label
_atom_site_fract_x
_atom_site_fract_y
_atom_site_fract_z
Si Si1 0.083750 0.823379 0.058490
Si Si2 0.493411 0.316266 0.709311
Si Si3 0.006971 0.179716 0.437057
Si Si4 0.194403 0.181451 0.315020
Si Si5 0.461312 0.182684 0.925203
Si Si6 0.657200 0.179601 0.794041
Si Si7 0.833247 0.321781 0.798410
Si Si8 0.912575 0.320747 0.409391
O O1 0.957590 0.773230 0.270159
O O2 0.074518 0.000000 0.041043
O O3 0.107956 0.715581 0.949283
O O4 0.188998 0.803685 0.983392
O O5 0.480812 0.500000 0.717962
O O6 0.612243 0.253136 0.499831
O O7 0.373634 0.237337 0.832314
O O8 0.507169 0.267620 0.782976
O O9 0.131726 0.220528 0.314097
O O10 0.894633 0.215530 0.647497
O O11 0.998682 0.282711 0.368572
O O12 0.000746 0.000000 0.420490
O O13 0.330050 0.250942 0.129963
O O14 0.203732 0.000000 0.315625
O O15 0.454022 0.000000 0.917894
O O16 0.553939 0.224806 0.870254
O O17 0.774759 0.279955 0.615688
O O18 0.692439 0.000000 0.740849
O O19 0.873169 0.500000 0.732381
O O20 0.922836 0.500000 0.374925
#
# Coordination Sequence:
#
# PCOD8053224 Si02
#       8
#     4   4   4   4   4   4   4   4
#     4  11  24  41  63  91 123 163 210 260 314 372
#     4  10  21  37  59  90 124 162 202 250 303 363
#     4  10  19  35  61  90 125 162 201 252 311 373
#     4   8  18  37  59  85 120 158 195 240 301 362
#     4  10  22  41  64  89 119 162 208 252 305 368
#     4  11  24  43  65  90 125 166 212 263 311 370
#     4  10  20  36  60  89 125 164 201 251 312 370
#     4  12  25  40  61  90 125 165 209 258 313 376
#
# _framework density 20.334558999999999
#
# number of rings (size 3 to 8) (size 9 to 14) (size 15 to 20)
#    0.000    1.750    1.250    3.750    1.750    3.500 
#    0.000    4.375    0.000    0.000    0.000    0.000 
#    0.000    0.000    0.000    0.000    0.000    0.000 
#
# Total GULP energy -198441.335623 kJ/mol
# GULP energy per Si atom -12402.583476 kJ/mol
# Density = 2.028828 g / cm^3
# Si number density = 20.334559 Si / 1000 Ang^3
#
#
#
# Elastic Constant Matrix: (Units=GPa)
#
#
# Indices 1 2 3 4 5 6 
#
# 1 113.4532 37.3267 52.9103 -0.0004 -4.0329 0.0003
# 2 37.3267 61.6370 14.7980 -0.0017 -3.6521 0.0013
# 3 52.9103 14.7980 102.9690 -0.0012 5.3966 0.0010
# 4 -0.0004 -0.0017 -0.0012 28.1859 0.0010 7.9899
# 5 -4.0329 -3.6521 5.3966 0.0010 15.9245 -0.0008
# 6 0.0003 0.0013 0.0010 7.9899 -0.0008 28.1883
#
#
#
# Elastic Compliance Matrix: (Units=1/GPa)
#
#
# Indices 1 2 3 4 5 6 
#
# 1 0.014277 -0.006812 -0.006582 -0.000001 0.004284 0.000001
# 2 -0.006812 0.020416 0.000419 0.000001 0.002815 -0.000001
# 3 -0.006582 0.000419 0.013353 0.000001 -0.006096 -0.000001
# 4 -0.000001 0.000001 0.000001 0.038578 -0.000003 -0.010935
# 5 0.004284 0.002815 -0.006096 -0.000003 0.066593 0.000003
# 6 0.000001 -0.000001 -0.000001 -0.010935 0.000003 0.038575
#
#
# Mechanical properties :
#
#
# Convention : Reuss Voigt Hill
#
# Bulk Modulus (GPa) = 45.25776 54.23656 49.74716
# Shear Modulus (GPa) = 22.21160 25.99469 24.10314
#
# Velocity S-wave (km/s) = 3.30859 3.57928 3.44660
# Velocity P-wave (km/s) = 6.07459 6.61904 6.35265
#
# Compressibility (1/GPa) = 0.02209566
#
# Stress axis : x y z
#
# Youngs Moduli (GPa) = 70.04157 48.98216 74.88945
#
# Poissons Ratio (x) = 0.33367 0.49291
# Poissons Ratio (y) = 0.47713 -0.03137
# Poissons Ratio (z) = 0.46100 -0.02052
#
# Static dielectric constant tensor:
#      x y z
#    x 3.732220 0.000000 -0.089210 
#    y 0.000000 3.570130 0.000000 
#    z -0.089210 0.000000 3.763850 
# 
# 
# High freq. dielectric constant tensor:
#      x y z
#    x 1.791250 0.000000 0.000980 
#    y 0.000000 1.788480 0.000000 
#    z 0.000980 0.000000 1.796960 
# 
# From -- ./inp_files/28182.got.cif
#   From: 2010.03.12/outbox.cif.g09.slc.cpg/sg8_15_cif.got.tgz:28182.got - 2010.03.31 10:45:26.
