data_PCOD8053512
_publ_section_title
;
Structure prediction by ZEFSAII (Michael W. Deem and Ramdas Pophale) SiO2 
 PCOD8053512
Probable space group: C M
;
_chemical_formula_sum "Si O2"
_cell_formula_units_Z 32
_cell_length_a 20.004239
_cell_length_b 8.423936
_cell_length_c 19.772260
_cell_angle_alpha 90.000000
_cell_angle_beta 150.582738
_cell_angle_gamma 90.000000
_cell_volume 1636.522148
_symmetry_space_group_name_H-M "C M"
_symmetry_group_IT_number 8
_symmetry_cell_setting 'monoclinic'
loop_
_space_group_symop_operation_xyz
x,y,z
x,-y,z
1/2+x,1/2+y,z
1/2+x,1/2-y,z
loop_
_atom_site_type_symbol
_atom_site_label
_atom_site_fract_x
_atom_site_fract_y
_atom_site_fract_z
Si Si1 0.257820 0.814374 0.480130
Si Si2 0.599421 0.816806 0.460622
Si Si3 0.579439 0.318980 0.954695
Si Si4 0.300490 0.817179 0.745246
Si Si5 0.314479 0.318784 0.245912
Si Si6 0.140768 0.685797 0.724374
Si Si7 0.355443 0.315316 0.433172
Si Si8 0.042583 0.815758 0.770507
O O1 0.143579 0.728028 0.423816
O O2 0.250536 0.742107 0.398220
O O3 0.405529 0.786017 0.642839
O O4 0.226904 0.000000 0.450700
O O5 0.723194 0.786309 0.621060
O O6 0.471643 0.711249 0.368530
O O7 0.558093 0.000000 0.427291
O O8 0.532340 0.500000 0.922133
O O9 0.461709 0.207629 0.880540
O O10 0.607937 0.281067 0.900987
O O11 0.719232 0.292688 0.117428
O O12 0.257823 0.765854 0.782802
O O13 0.263931 0.000000 0.700782
O O14 0.279801 0.500000 0.198170
O O15 0.286907 0.282133 0.300538
O O16 0.168015 0.500000 0.753118
O O17 0.148579 0.761266 0.806266
O O18 0.994606 0.716406 0.561357
O O19 0.391673 0.500000 0.474480
O O20 0.005045 0.000000 0.727688
#
# Coordination Sequence:
#
# PCOD8053512 Si02
#       8
#     4   4   4   4   4   4   4   4
#     4  11  21  34  58  89 120 153 196 247 298 349
#     4  12  23  38  61  89 121 155 200 250 297 351
#     4  11  24  41  62  88 122 161 199 243 299 358
#     4  12  23  38  61  89 121 155 200 250 297 351
#     4  11  24  41  62  88 122 161 199 243 299 358
#     4  11  21  34  58  89 120 153 196 247 298 349
#     4  10  20  36  58  85 120 157 196 243 297 352
#     4  10  20  36  58  85 120 157 196 243 297 352
#
# _framework density 19.553661000000002
#
# number of rings (size 3 to 8) (size 9 to 14) (size 15 to 20)
#    0.000    1.000    2.500    7.500    0.000    3.000 
#    0.000    1.250    0.000    7.500    0.000    0.000 
#    0.000    0.000    0.000    0.000    0.000    0.000 
#
# Total GULP energy -198498.809208 kJ/mol
# GULP energy per Si atom -12406.175576 kJ/mol
# Density = 1.950916 g / cm^3
# Si number density = 19.553661 Si / 1000 Ang^3
#
#
#
# Elastic Constant Matrix: (Units=GPa)
#
#
# Indices 1 2 3 4 5 6 
#
# 1 145.3996 38.8716 37.3294 0.0000 -14.8738 0.0000
# 2 38.8716 90.5842 14.3132 0.0000 -11.2373 0.0000
# 3 37.3294 14.3132 70.8901 0.0000 -13.9380 0.0000
# 4 0.0000 0.0000 0.0000 27.6952 0.0000 0.8051
# 5 -14.8738 -11.2373 -13.9380 0.0000 27.4613 0.0000
# 6 0.0000 0.0000 0.0000 0.8051 0.0000 32.7044
#
#
#
# Elastic Compliance Matrix: (Units=1/GPa)
#
#
# Indices 1 2 3 4 5 6 
#
# 1 0.008796 -0.002983 -0.003702 0.000000 0.001664 0.000000
# 2 -0.002983 0.012801 -0.000335 0.000000 0.003452 0.000000
# 3 -0.003702 -0.000335 0.017443 0.000000 0.006711 0.000000
# 4 0.000000 0.000000 0.000000 0.036133 0.000000 -0.000890
# 5 0.001664 0.003452 0.006711 0.000000 0.042135 0.000000
# 6 0.000000 0.000000 0.000000 -0.000890 0.000000 0.030599
#
#
# Mechanical properties :
#
#
# Convention : Reuss Voigt Hill
#
# Bulk Modulus (GPa) = 40.00132 54.21137 47.10634
# Shear Modulus (GPa) = 29.36337 31.99616 30.67977
#
# Velocity S-wave (km/s) = 3.87936 4.04954 3.96536
# Velocity P-wave (km/s) = 6.36926 7.04625 6.71629
#
# Compressibility (1/GPa) = 0.02499917
#
# Stress axis : x y z
#
# Youngs Moduli (GPa) = 113.69015 78.12046 57.32974
#
# Poissons Ratio (x) = 0.23304 0.21225
# Poissons Ratio (y) = 0.33914 0.01920
# Poissons Ratio (z) = 0.42090 0.02617
#
# Static dielectric constant tensor:
#      x y z
#    x 3.966400 0.000000 -0.154660 
#    y 0.000000 3.605400 0.000000 
#    z -0.154660 0.000000 3.112880 
# 
# 
# High freq. dielectric constant tensor:
#      x y z
#    x 1.781440 0.000000 -0.010520 
#    y 0.000000 1.778490 0.000000 
#    z -0.010520 0.000000 1.720230 
# 
# From -- ./inp_files/31348.got.cif
#   From: 2010.03.12/outbox.cif.g09.slc.cpg/sg8_16_cif.got.tgz:31348.got - 2010.03.31 10:45:26.
