data_PCOD8053177
_publ_section_title
;
Structure prediction by ZEFSAII (Michael W. Deem and Ramdas Pophale) SiO2 
 PCOD8053177
Probable space group: C M
;
_chemical_formula_sum "Si O2"
_cell_formula_units_Z 32
_cell_length_a 20.759372
_cell_length_b 9.057589
_cell_length_c 25.533022
_cell_angle_alpha 90.000000
_cell_angle_beta 21.929331
_cell_angle_gamma 90.000000
_cell_volume 1792.983487
_symmetry_space_group_name_H-M "C M"
_symmetry_group_IT_number 8
_symmetry_cell_setting 'monoclinic'
loop_
_space_group_symop_operation_xyz
x,y,z
x,-y,z
1/2+x,1/2+y,z
1/2+x,1/2-y,z
loop_
_atom_site_type_symbol
_atom_site_label
_atom_site_fract_x
_atom_site_fract_y
_atom_site_fract_z
Si Si1 0.782580 0.327008 0.790690
Si Si2 0.671747 0.828115 0.179075
Si Si3 0.935465 0.169935 0.772997
Si Si4 0.435363 0.825654 0.054555
Si Si5 0.697494 0.827215 0.042726
Si Si6 0.375040 0.174579 0.219132
Si Si7 0.638272 0.172542 0.472499
Si Si8 0.283650 0.167923 0.460658
O O1 0.747583 0.500000 0.820225
O O2 0.831166 0.270507 0.811545
O O3 0.937251 0.289556 0.633791
O O4 0.610797 0.246442 0.900146
O O5 0.776163 0.730848 0.140882
O O6 0.470427 0.803355 0.344545
O O7 0.723971 0.000000 0.144761
O O8 0.709290 0.763604 0.092471
O O9 0.873598 0.210276 0.878373
O O10 0.140594 0.197269 0.613629
O O11 0.886337 0.000000 0.797415
O O12 0.404268 0.774839 0.137597
O O13 0.450929 0.000000 0.037667
O O14 0.667194 0.000000 0.071334
O O15 0.534371 0.763926 0.133624
O O16 0.199407 0.247664 0.373303
O O17 0.356334 0.000000 0.236755
O O18 0.753108 0.227098 0.434500
O O19 0.667919 0.000000 0.444096
O O20 0.270654 0.000000 0.449463
#
# Coordination Sequence:
#
# PCOD8053177 Si02
#       8
#     4   4   4   4   4   4   4   4
#     4  10  20  34  52  79 112 142 174 218 273 319
#     4  10  20  35  53  75 108 145 178 217 265 317
#     4   9  16  30  54  81 106 136 179 222 259 309
#     4  11  23  38  56  78 107 145 183 220 266 321
#     4   9  16  31  54  79 105 136 177 220 259 307
#     4  10  19  35  56  79 106 140 183 223 263 316
#     4  10  20  32  52  83 112 137 173 225 272 311
#     4   9  17  31  53  78 106 143 179 213 261 318
#
# _framework density 17.847348
#
# number of rings (size 3 to 8) (size 9 to 14) (size 15 to 20)
#    0.000    2.250    2.500    1.125    0.000    3.000 
#    0.000    1.875    0.000    3.000    0.000    0.000 
#    0.000    0.000    0.000    0.000    0.000    0.000 
#
# Total GULP energy -198388.197190 kJ/mol
# GULP energy per Si atom -12399.262324 kJ/mol
# Density = 1.780673 g / cm^3
# Si number density = 17.847348 Si / 1000 Ang^3
#
#
#
# Elastic Constant Matrix: (Units=GPa)
#
#
# Indices 1 2 3 4 5 6 
#
# 1 95.0793 35.6390 58.8114 0.0083 0.9882 0.0010
# 2 35.6390 56.4983 46.1783 -0.0020 -0.4216 -0.0001
# 3 58.8114 46.1783 135.9680 -0.0221 6.1638 -0.0016
# 4 0.0083 -0.0020 -0.0221 25.4394 0.0051 -3.9410
# 5 0.9882 -0.4216 6.1638 0.0051 27.9941 0.0009
# 6 0.0010 -0.0001 -0.0016 -3.9410 0.0009 25.0663
#
#
#
# Elastic Compliance Matrix: (Units=1/GPa)
#
#
# Indices 1 2 3 4 5 6 
#
# 1 0.015721 -0.006009 -0.004778 -0.000010 0.000406 -0.000003
# 2 -0.006009 0.026935 -0.006643 -0.000002 0.002080 0.000000
# 3 -0.004778 -0.006643 0.011792 0.000012 -0.002528 0.000003
# 4 -0.000010 -0.000002 0.000012 0.040291 -0.000010 0.006335
# 5 0.000406 0.002080 -0.002528 -0.000010 0.036295 -0.000003
# 6 -0.000003 0.000000 0.000003 0.006335 -0.000003 0.040890
#
#
# Mechanical properties :
#
#
# Convention : Reuss Voigt Hill
#
# Bulk Modulus (GPa) = 51.04914 63.20035 57.12475
# Shear Modulus (GPa) = 23.43977 25.49440 24.46709
#
# Velocity S-wave (km/s) = 3.62795 3.78361 3.70660
# Velocity P-wave (km/s) = 6.79813 7.38756 7.09897
#
# Compressibility (1/GPa) = 0.01958897
#
# Stress axis : x y z
#
# Youngs Moduli (GPa) = 63.61025 37.12611 84.80360
#
# Poissons Ratio (x) = 0.22308 0.40515
# Poissons Ratio (y) = 0.38222 0.56337
# Poissons Ratio (z) = 0.30390 0.24664
#
# Static dielectric constant tensor:
#      x y z
#    x 3.104210 0.000000 0.167910 
#    y 0.000000 3.191920 0.000010 
#    z 0.167910 0.000010 3.603600 
# 
# 
# High freq. dielectric constant tensor:
#      x y z
#    x 1.660010 0.000000 0.012410 
#    y 0.000000 1.678200 0.000000 
#    z 0.012410 0.000000 1.707650 
# 
# From -- ./inp_files/31319.got.cif
#   From: 2010.03.12/outbox.cif.g09.slc.cpg/sg8_16_cif.got.tgz:31319.got - 2010.03.31 10:45:26.
