data_PCOD8053933
_publ_section_title
;
Structure prediction by ZEFSAII (Michael W. Deem and Ramdas Pophale) SiO2 
 PCOD8053933
Probable space group: C M
;
_chemical_formula_sum "Si O2"
_cell_formula_units_Z 32
_cell_length_a 9.886733
_cell_length_b 8.991936
_cell_length_c 17.400868
_cell_angle_alpha 90.000000
_cell_angle_beta 89.420741
_cell_angle_gamma 90.000000
_cell_volume 1546.873253
_symmetry_space_group_name_H-M "C M"
_symmetry_group_IT_number 8
_symmetry_cell_setting 'monoclinic'
loop_
_space_group_symop_operation_xyz
x,y,z
x,-y,z
1/2+x,1/2+y,z
1/2+x,1/2-y,z
loop_
_atom_site_type_symbol
_atom_site_label
_atom_site_fract_x
_atom_site_fract_y
_atom_site_fract_z
Si Si1 0.332130 0.328926 0.884390
Si Si2 0.408737 0.828142 0.389503
Si Si3 0.136759 0.171891 0.478933
Si Si4 0.891307 0.671596 0.725954
Si Si5 0.661823 0.171713 0.636485
Si Si6 0.884239 0.827699 0.232641
Si Si7 0.158086 0.171582 0.144387
Si Si8 0.099445 0.829488 0.971739
O O1 0.316006 0.500000 0.860389
O O2 0.375017 0.239233 0.809544
O O3 0.190040 0.272558 0.916925
O O4 0.443804 0.305976 0.949574
O O5 0.540049 0.737490 0.414112
O O6 0.356277 0.767142 0.308748
O O7 0.291335 0.806759 0.452707
O O8 0.447853 0.000000 0.379992
O O9 0.110457 0.256749 0.558048
O O10 0.100539 0.000000 0.490471
O O11 0.849099 0.500000 0.727993
O O12 0.797861 0.750947 0.663949
O O13 0.046751 0.693019 0.701205
O O14 0.692637 0.000000 0.620679
O O15 0.782664 0.774563 0.167055
O O16 0.036018 0.800202 0.203543
O O17 0.857446 0.000000 0.250246
O O18 0.203355 0.000000 0.145725
O O19 0.112443 0.220114 0.059692
O O20 0.144129 0.000000 0.959618
#
# Coordination Sequence:
#
# PCOD8053933 Si02
#       8
#     4   4   4   4   4   4   4   4
#     4  11  23  39  61  89 119 154 198 244 291 348
#     4  11  24  41  61  88 121 157 199 244 292 350
#     4  11  24  41  62  89 121 157 197 243 294 349
#     4  11  24  41  61  88 121 156 196 242 293 350
#     4  11  24  41  63  91 120 154 198 244 292 350
#     4  11  23  39  61  89 119 154 198 245 294 350
#     4  10  22  40  60  86 120 155 195 243 294 351
#     4  10  22  40  61  86 119 157 195 241 296 350
#
# _framework density 20.686892
#
# number of rings (size 3 to 8) (size 9 to 14) (size 15 to 20)
#    0.000    1.250    0.000    5.250    0.000   15.500 
#    0.000    0.000    0.000    0.000    0.000    0.000 
#    0.000    0.000    0.000    0.000    0.000    0.000 
#
# Total GULP energy -198540.932965 kJ/mol
# GULP energy per Si atom -12408.808310 kJ/mol
# Density = 2.063981 g / cm^3
# Si number density = 20.686892 Si / 1000 Ang^3
#
#
#
# Elastic Constant Matrix: (Units=GPa)
#
#
# Indices 1 2 3 4 5 6 
#
# 1 60.5558 40.6346 -1.8793 0.0000 8.2007 0.0000
# 2 40.6346 128.5783 37.9868 0.0000 -3.1764 0.0000
# 3 -1.8793 37.9868 93.4022 0.0000 2.8228 0.0000
# 4 0.0000 0.0000 0.0000 37.8974 0.0000 6.5423
# 5 8.2007 -3.1764 2.8228 0.0000 37.5425 0.0000
# 6 0.0000 0.0000 0.0000 6.5423 0.0000 34.8857
#
#
#
# Elastic Compliance Matrix: (Units=1/GPa)
#
#
# Indices 1 2 3 4 5 6 
#
# 1 0.023380 -0.008792 0.004232 0.000000 -0.006169 0.000000
# 2 -0.008792 0.012185 -0.005233 0.000000 0.003345 0.000000
# 3 0.004232 -0.005233 0.012991 0.000000 -0.002344 0.000000
# 4 0.000000 0.000000 0.000000 0.027270 0.000000 -0.005114
# 5 -0.006169 0.003345 -0.002344 0.000000 0.028443 0.000000
# 6 0.000000 0.000000 0.000000 -0.005114 0.000000 0.029624
#
#
# Mechanical properties :
#
#
# Convention : Reuss Voigt Hill
#
# Bulk Modulus (GPa) = 34.51844 48.44672 41.48258
# Shear Modulus (GPa) = 30.64958 35.78473 33.21716
#
# Velocity S-wave (km/s) = 3.85332 4.16363 4.01148
# Velocity P-wave (km/s) = 6.04316 6.82527 6.44609
#
# Compressibility (1/GPa) = 0.02897002
#
# Stress axis : x y z
#
# Youngs Moduli (GPa) = 42.77187 82.07122 76.97733
#
# Poissons Ratio (x) = 0.72153 -0.32580
# Poissons Ratio (y) = 0.37603 0.40286
# Poissons Ratio (z) = -0.18103 0.42952
#
# Static dielectric constant tensor:
#      x y z
#    x 3.703200 0.000000 0.032250 
#    y 0.000000 3.842940 0.000000 
#    z 0.032250 0.000000 3.776810 
# 
# 
# High freq. dielectric constant tensor:
#      x y z
#    x 1.816590 0.000000 0.003200 
#    y 0.000000 1.819410 0.000000 
#    z 0.003200 0.000000 1.822220 
# 
# From -- ./inp_files/25839.got.cif
#   From: 2010.03.12/outbox.cif.g09.slc.cpg/sg8_13_cif.got.tgz:25839.got - 2010.03.31 10:45:26.
