data_PCOD8053021
_publ_section_title
;
Structure prediction by ZEFSAII (Michael W. Deem and Ramdas Pophale) SiO2 
 PCOD8053021
Probable space group: C M
;
_chemical_formula_sum "Si O2"
_cell_formula_units_Z 32
_cell_length_a 33.337934
_cell_length_b 8.994788
_cell_length_c 12.490892
_cell_angle_alpha 90.000000
_cell_angle_beta 26.285588
_cell_angle_gamma 90.000000
_cell_volume 1658.729153
_symmetry_space_group_name_H-M "C M"
_symmetry_group_IT_number 8
_symmetry_cell_setting 'monoclinic'
loop_
_space_group_symop_operation_xyz
x,y,z
x,-y,z
1/2+x,1/2+y,z
1/2+x,1/2-y,z
loop_
_atom_site_type_symbol
_atom_site_label
_atom_site_fract_x
_atom_site_fract_y
_atom_site_fract_z
Si Si1 0.137760 0.672735 0.250000
Si Si2 0.959239 0.174907 0.609603
Si Si3 0.391398 0.325619 0.002025
Si Si4 0.892896 0.175830 0.345213
Si Si5 0.568555 0.827509 0.646113
Si Si6 0.590900 0.670896 0.799658
Si Si7 0.278014 0.170688 0.438837
Si Si8 0.334625 0.676978 0.717127
O O1 0.129553 0.500000 0.242656
O O2 0.131136 0.701375 0.393153
O O3 0.058113 0.752685 0.375739
O O4 0.233832 0.738328 0.981583
O O5 0.901329 0.216688 0.853661
O O6 0.904314 0.238073 0.639598
O O7 0.974304 0.000000 0.566675
O O8 0.376955 0.500000 0.053828
O O9 0.479791 0.274409 0.854853
O O10 0.307834 0.237527 0.252888
O O11 0.822149 0.242731 0.431182
O O12 0.866942 0.235495 0.524782
O O13 0.883314 0.000000 0.362441
O O14 0.995620 0.226549 0.076307
O O15 0.619865 0.773932 0.629864
O O16 0.541205 0.000000 0.719425
O O17 0.584276 0.500000 0.777659
O O18 0.668806 0.687649 0.703623
O O19 0.308204 0.000000 0.373738
O O20 0.333556 0.500000 0.726362
#
# Coordination Sequence:
#
# PCOD8053021 Si02
#       8
#     4   4   4   4   4   4   4   4
#     4   9  19  35  55  82 115 145 181 230 280 327
#     4   9  19  35  57  83 112 146 186 227 273 336
#     4  10  19  33  56  83 116 150 185 228 280 338
#     4  10  21  40  61  79 108 152 194 231 277 335
#     4  10  19  32  56  84 115 149 183 229 283 333
#     4  10  22  37  54  80 113 148 187 233 282 334
#     4  11  23  37  55  83 115 147 187 238 286 329
#     4   9  19  37  60  82 108 149 193 228 271 332
#
# _framework density 19.291879000000002
#
# number of rings (size 3 to 8) (size 9 to 14) (size 15 to 20)
#    0.000    2.250    1.250    1.125    1.750    3.000 
#    0.000    3.125    0.000    0.000    0.000    0.000 
#    0.000    0.000    0.000    0.000    0.000    0.000 
#
# Total GULP energy -198407.126174 kJ/mol
# GULP energy per Si atom -12400.445386 kJ/mol
# Density = 1.924797 g / cm^3
# Si number density = 19.291879 Si / 1000 Ang^3
#
#
#
# Elastic Constant Matrix: (Units=GPa)
#
#
# Indices 1 2 3 4 5 6 
#
# 1 146.2534 34.2060 82.8043 0.0000 -3.8221 0.0000
# 2 34.2060 35.8565 31.0018 0.0000 1.2573 0.0000
# 3 82.8043 31.0018 128.5227 0.0000 -2.9918 0.0000
# 4 0.0000 0.0000 0.0000 23.1694 0.0000 -3.9711
# 5 -3.8221 1.2573 -2.9918 0.0000 28.1631 0.0000
# 6 0.0000 0.0000 0.0000 -3.9711 0.0000 24.2830
#
#
#
# Elastic Compliance Matrix: (Units=1/GPa)
#
#
# Indices 1 2 3 4 5 6 
#
# 1 0.011700 -0.005952 -0.006074 0.000000 0.001208 0.000000
# 2 -0.005952 0.038440 -0.005510 0.000000 -0.003109 0.000000
# 3 -0.006074 -0.005510 0.013042 0.000000 0.000807 0.000000
# 4 0.000000 0.000000 0.000000 0.044405 0.000000 0.007262
# 5 0.001208 -0.003109 0.000807 0.000000 0.035896 0.000000
# 6 0.000000 0.000000 0.000000 0.007262 0.000000 0.042369
#
#
# Mechanical properties :
#
#
# Convention : Reuss Voigt Hill
#
# Bulk Modulus (GPa) = 35.57496 67.40630 51.49063
# Shear Modulus (GPa) = 21.71134 25.96448 23.83791
#
# Velocity S-wave (km/s) = 3.35836 3.67260 3.51899
# Velocity P-wave (km/s) = 5.78952 7.28012 6.57718
#
# Compressibility (1/GPa) = 0.02810966
#
# Stress axis : x y z
#
# Youngs Moduli (GPa) = 85.46862 26.01457 76.67460
#
# Poissons Ratio (x) = 0.15484 0.46574
# Poissons Ratio (y) = 0.50872 0.42247
# Poissons Ratio (z) = 0.51916 0.14334
#
# Static dielectric constant tensor:
#      x y z
#    x 3.540250 0.000000 0.044080 
#    y 0.000000 3.344650 0.000000 
#    z 0.044080 0.000000 3.645120 
# 
# 
# High freq. dielectric constant tensor:
#      x y z
#    x 1.750880 0.000000 -0.004350 
#    y 0.000000 1.734490 0.000000 
#    z -0.004350 0.000000 1.751640 
# 
# From -- ./inp_files/24361.got.cif
#   From: 2010.03.12/outbox.cif.g09.slc.cpg/sg8_13_cif.got.tgz:24361.got - 2010.03.31 10:45:26.
