data_PCOD8053167
_publ_section_title
;
Structure prediction by ZEFSAII (Michael W. Deem and Ramdas Pophale) SiO2 
 PCOD8053167
Probable space group: C M
;
_chemical_formula_sum "Si O2"
_cell_formula_units_Z 32
_cell_length_a 17.154639
_cell_length_b 15.281597
_cell_length_c 11.725678
_cell_angle_alpha 90.000000
_cell_angle_beta 31.021912
_cell_angle_gamma 90.000000
_cell_volume 1584.177812
_symmetry_space_group_name_H-M "C M"
_symmetry_group_IT_number 8
_symmetry_cell_setting 'monoclinic'
loop_
_space_group_symop_operation_xyz
x,y,z
x,-y,z
1/2+x,1/2+y,z
1/2+x,1/2-y,z
loop_
_atom_site_type_symbol
_atom_site_label
_atom_site_fract_x
_atom_site_fract_y
_atom_site_fract_z
Si Si1 0.228900 0.904463 0.185340
Si Si2 0.310080 0.099599 0.675814
Si Si3 0.812041 0.222526 0.566675
Si Si4 0.299442 0.326148 0.996225
Si Si5 0.611512 0.098632 0.438584
Si Si6 0.120600 0.831631 0.104767
Si Si7 0.028284 0.303681 0.770643
Si Si8 0.903852 0.901043 0.650114
O O1 0.170128 0.909140 0.127969
O O2 0.080933 0.871626 0.441531
O O3 0.277705 0.000000 0.164937
O O4 0.378018 0.846849 0.014491
O O5 0.340645 0.171988 0.539926
O O6 0.444996 0.099172 0.596198
O O7 0.284084 0.000000 0.660545
O O8 0.164409 0.138845 0.923197
O O9 0.649512 0.203673 0.718023
O O10 0.820019 0.171429 0.677354
O O11 0.941167 0.183746 0.322999
O O12 0.225636 0.356477 0.206840
O O13 0.198341 0.253889 0.060506
O O14 0.469540 0.291167 0.805742
O O15 0.322727 0.403537 0.875386
O O16 0.603798 0.146440 0.569597
O O17 0.667652 0.000000 0.389864
O O18 0.893366 0.000000 0.612609
#
# Coordination Sequence:
#
# PCOD8053167 Si02
#       8
#     4   4   4   4   4   4   4   4
#     4   9  18  35  60  89 117 156 207 254 303 368
#     4  11  21  39  67  94 122 165 217 264 311 376
#     4  11  23  41  58  98 128 162 203 263 326 374
#     4  11  21  39  61  90 123 165 211 252 307 372
#     4  11  22  39  65  94 121 162 219 265 304 371
#     4  10  19  34  62  86 122 158 204 252 305 372
#     4  11  24  36  63  89 129 163 201 261 321 374
#     4  10  21  39  65  92 124 163 210 257 311 379
#
# _framework density 20.199753000000001
#
# number of rings (size 3 to 8) (size 9 to 14) (size 15 to 20)
#    0.000    1.500    5.000    1.125    3.500    2.500 
#    0.000    2.500    0.000    0.000    0.000    0.000 
#    0.000    0.000    0.000    0.000    0.000    0.000 
#
# Total GULP energy -198258.685376 kJ/mol
# GULP energy per Si atom -12391.167836 kJ/mol
# Density = 2.015378 g / cm^3
# Si number density = 20.199753 Si / 1000 Ang^3
#
#
#
# Elastic Constant Matrix: (Units=GPa)
#
#
# Indices 1 2 3 4 5 6 
#
# 1 69.3360 43.9692 36.7906 0.0000 -17.2912 0.0000
# 2 43.9692 126.1645 41.2452 0.0000 0.7645 0.0000
# 3 36.7906 41.2452 99.2183 0.0000 3.4763 0.0000
# 4 0.0000 0.0000 0.0000 23.9972 0.0000 5.4164
# 5 -17.2912 0.7645 3.4763 0.0000 33.9186 0.0000
# 6 0.0000 0.0000 0.0000 5.4164 0.0000 11.5461
#
#
#
# Elastic Compliance Matrix: (Units=1/GPa)
#
#
# Indices 1 2 3 4 5 6 
#
# 1 0.026225 -0.006809 -0.007394 0.000000 0.014281 0.000000
# 2 -0.006809 0.010942 -0.001900 0.000000 -0.003523 0.000000
# 3 -0.007394 -0.001900 0.013791 0.000000 -0.005140 0.000000
# 4 0.000000 0.000000 0.000000 0.046606 0.000000 -0.021864
# 5 0.014281 -0.003523 -0.005140 0.000000 0.037369 0.000000
# 6 0.000000 0.000000 0.000000 -0.021864 0.000000 0.096866
#
#
# Mechanical properties :
#
#
# Convention : Reuss Voigt Hill
#
# Bulk Modulus (GPa) = 53.33156 59.85875 56.59516
# Shear Modulus (GPa) = 18.50101 25.40662 21.95382
#
# Velocity S-wave (km/s) = 3.02967 3.55035 3.30030
# Velocity P-wave (km/s) = 6.22077 6.81941 6.52696
#
# Compressibility (1/GPa) = 0.01875062
#
# Stress axis : x y z
#
# Youngs Moduli (GPa) = 38.13128 91.39362 72.51281
#
# Poissons Ratio (x) = 0.62229 0.53618
# Poissons Ratio (y) = 0.25963 0.13779
# Poissons Ratio (z) = 0.28195 0.17367
#
# Static dielectric constant tensor:
#      x y z
#    x 3.206270 0.000000 -0.008730 
#    y 0.000000 3.903460 0.000000 
#    z -0.008730 0.000000 3.853660 
# 
# 
# High freq. dielectric constant tensor:
#      x y z
#    x 1.739510 0.000000 -0.000820 
#    y 0.000000 1.796770 0.000000 
#    z -0.000820 0.000000 1.802610 
# 
# From -- ./inp_files/23327.got.cif
#   From: 2010.03.12/outbox.cif.g09.slc.cpg/sg8_12_cif.got.tgz:23327.got - 2010.03.31 10:45:26.
