data_PCOD8053241
_publ_section_title
;
Structure prediction by ZEFSAII (Michael W. Deem and Ramdas Pophale) SiO2 
 PCOD8053241
Probable space group: C M
;
_chemical_formula_sum "Si O2"
_cell_formula_units_Z 24
_cell_length_a 15.241501
_cell_length_b 8.271857
_cell_length_c 18.037222
_cell_angle_alpha 90.000000
_cell_angle_beta 31.352740
_cell_angle_gamma 90.000000
_cell_volume 1183.201601
_symmetry_space_group_name_H-M "C M"
_symmetry_group_IT_number 8
_symmetry_cell_setting 'monoclinic'
loop_
_space_group_symop_operation_xyz
x,y,z
x,-y,z
1/2+x,1/2+y,z
1/2+x,1/2-y,z
loop_
_atom_site_type_symbol
_atom_site_label
_atom_site_fract_x
_atom_site_fract_y
_atom_site_fract_z
Si Si1 0.789950 0.187393 0.318080
Si Si2 0.627581 0.191756 0.833934
Si Si3 0.942467 0.312815 0.352414
Si Si4 0.612159 0.811320 0.011822
Si Si5 0.942763 0.187781 0.512742
Si Si6 0.768307 0.312023 0.040990
O O1 0.602128 0.209943 0.424386
O O2 0.807414 0.255565 0.388711
O O3 0.839728 0.000000 0.282188
O O4 0.916261 0.281282 0.172206
O O5 0.649790 0.252071 0.902107
O O6 0.452018 0.258823 0.927737
O O7 0.782055 0.256580 0.673426
O O8 0.621404 0.000000 0.835319
O O9 0.915037 0.500000 0.389907
O O10 0.908929 0.210944 0.450405
O O11 0.131947 0.286069 0.186876
O O12 0.734606 0.713143 0.978140
O O13 0.651248 0.000000 0.991843
O O14 0.974459 0.000000 0.507186
O O15 0.752531 0.500000 0.073066
#
# Coordination Sequence:
#
# PCOD8053241 Si02
#       6
#     4   4   4   4   4   4
#     4  11  22  38  59  86 113 147 190 234 279 331
#     4   9  21  37  56  80 112 149 184 221 278 338
#     4  11  22  38  59  86 113 147 190 234 279 331
#     4  10  19  36  59  84 110 144 185 231 279 330
#     4  11  22  39  58  82 116 153 186 229 280 334
#     4  10  19  36  59  84 110 144 185 231 279 330
#
# _framework density 20.283947000000001
#
# number of rings (size 3 to 8) (size 9 to 14) (size 15 to 20)
#    0.000    1.667    0.000    7.500    0.000    2.667 
#    0.000   12.500    0.000    0.000    0.000    0.000 
#    0.000    0.000    0.000    0.000    0.000    0.000 
#
# Total GULP energy -148857.818142 kJ/mol
# GULP energy per Si atom -12404.818178 kJ/mol
# Density = 2.023778 g / cm^3
# Si number density = 20.283947 Si / 1000 Ang^3
#
#
#
# Elastic Constant Matrix: (Units=GPa)
#
#
# Indices 1 2 3 4 5 6 
#
# 1 110.5732 5.1513 62.6185 0.0008 26.5354 -0.0002
# 2 5.1513 55.3528 -2.8949 0.0010 -1.5319 -0.0002
# 3 62.6185 -2.8949 93.6603 0.0027 24.2245 -0.0006
# 4 0.0008 0.0010 0.0027 22.5412 -0.0011 0.1318
# 5 26.5354 -1.5319 24.2245 -0.0011 21.9103 0.0002
# 6 -0.0002 -0.0002 -0.0006 0.1318 0.0002 34.4770
#
#
#
# Elastic Compliance Matrix: (Units=1/GPa)
#
#
# Indices 1 2 3 4 5 6 
#
# 1 0.016440 -0.002264 -0.008222 0.000000 -0.010978 0.000000
# 2 -0.002264 0.018420 0.001457 -0.000001 0.002418 0.000000
# 3 -0.008222 0.001457 0.019070 -0.000003 -0.011025 0.000000
# 4 0.000000 -0.000001 -0.000003 0.044364 0.000005 -0.000170
# 5 -0.010978 0.002418 -0.011025 0.000005 0.071296 -0.000001
# 6 0.000000 0.000000 0.000000 -0.000170 -0.000001 0.029005
#
#
# Mechanical properties :
#
#
# Convention : Reuss Voigt Hill
#
# Bulk Modulus (GPa) = 27.87556 43.25959 35.56758
# Shear Modulus (GPa) = 21.87137 28.76645 25.31891
#
# Velocity S-wave (km/s) = 3.28725 3.76997 3.53685
# Velocity P-wave (km/s) = 5.30853 6.35008 5.85252
#
# Compressibility (1/GPa) = 0.03587372
#
# Stress axis : x y z
#
# Youngs Moduli (GPa) = 60.82775 54.28958 52.43734
#
# Poissons Ratio (x) = 0.12290 0.43113
# Poissons Ratio (y) = 0.13770 -0.07642
# Poissons Ratio (z) = 0.50011 -0.07912
#
# Static dielectric constant tensor:
#      x y z
#    x 3.840600 0.000000 0.057310 
#    y 0.000000 3.489480 0.000000 
#    z 0.057310 0.000000 3.715050 
# 
# 
# High freq. dielectric constant tensor:
#      x y z
#    x 1.805450 0.000000 0.002480 
#    y 0.000000 1.786940 0.000000 
#    z 0.002480 0.000000 1.782450 
# 
# From -- ./inp_files/14239.got.cif
#   From: 2010.03.12/outbox.cif.g09.slc.cpg/sg8_8_cif.got.tgz:14239.got - 2010.03.31 10:45:26.
