data_PCOD8053940
_publ_section_title
;
Structure prediction by ZEFSAII (Michael W. Deem and Ramdas Pophale) SiO2 
 PCOD8053940
Probable space group: C M
;
_chemical_formula_sum "Si O2"
_cell_formula_units_Z 32
_cell_length_a 15.284580
_cell_length_b 8.427566
_cell_length_c 22.551901
_cell_angle_alpha 90.000000
_cell_angle_beta 147.784930
_cell_angle_gamma 90.000000
_cell_volume 1548.626023
_symmetry_space_group_name_H-M "C M"
_symmetry_group_IT_number 8
_symmetry_cell_setting 'monoclinic'
loop_
_space_group_symop_operation_xyz
x,y,z
x,-y,z
1/2+x,1/2+y,z
1/2+x,1/2-y,z
loop_
_atom_site_type_symbol
_atom_site_label
_atom_site_fract_x
_atom_site_fract_y
_atom_site_fract_z
Si Si1 0.283710 0.680914 0.930700
Si Si2 0.261607 0.185174 0.790657
Si Si3 0.120323 0.684984 0.158145
Si Si4 0.949579 0.811776 0.540571
Si Si5 0.809119 0.684100 0.159145
Si Si6 0.606852 0.183052 0.944510
Si Si7 0.922805 0.314515 0.394397
Si Si8 0.112990 0.186849 0.393198
O O1 0.310455 0.500000 0.926179
O O2 0.246253 0.783206 0.851527
O O3 0.440931 0.740116 0.057336
O O4 0.129912 0.699375 0.887022
O O5 0.105587 0.255142 0.666512
O O6 0.264907 0.000000 0.781355
O O7 0.430471 0.257188 0.861126
O O8 0.110780 0.500000 0.167546
O O9 0.193052 0.710888 0.134515
O O10 0.234699 0.769058 0.272531
O O11 0.960654 0.732082 0.482960
O O12 0.791898 0.759958 0.487613
O O13 0.950792 0.000000 0.533874
O O14 0.790691 0.500000 0.165014
O O15 0.751160 0.717610 0.059218
O O16 0.996918 0.736530 0.276193
O O17 0.621119 0.000000 0.972534
O O18 0.949237 0.500000 0.399993
O O19 0.045629 0.223725 0.420326
O O20 0.120155 0.000000 0.387575
#
# Coordination Sequence:
#
# PCOD8053940 Si02
#       8
#     4   4   4   4   4   4   4   4
#     4  11  23  38  61  93 126 163 210 258 310 374
#     4  10  23  44  66  88 124 169 211 260 315 371
#     4  11  21  37  61  89 128 168 205 255 317 377
#     4  11  24  43  66  94 127 169 217 264 314 378
#     4  11  21  36  61  93 127 162 205 260 315 375
#     4  10  22  40  61  89 125 165 205 252 314 378
#     4  11  23  41  64  94 128 165 211 264 319 377
#     4  11  23  41  64  92 127 169 210 261 320 378
#
# _framework density 20.663478000000001
#
# number of rings (size 3 to 8) (size 9 to 14) (size 15 to 20)
#    0.000    1.250    1.250    6.750    1.750    3.000 
#    0.000    1.250    0.000    0.000    0.000    0.000 
#    0.000    0.000    0.000    0.000    0.000    0.000 
#
# Total GULP energy -198463.940255 kJ/mol
# GULP energy per Si atom -12403.996266 kJ/mol
# Density = 2.061645 g / cm^3
# Si number density = 20.663478 Si / 1000 Ang^3
#
#
#
# Elastic Constant Matrix: (Units=GPa)
#
#
# Indices 1 2 3 4 5 6 
#
# 1 94.0988 -0.4769 58.8278 0.0001 -2.9358 0.0000
# 2 -0.4769 46.5963 13.4445 0.0002 6.0889 0.0000
# 3 58.8278 13.4445 145.4013 0.0003 -2.5272 0.0000
# 4 0.0001 0.0002 0.0003 25.9669 0.0000 -0.9781
# 5 -2.9358 6.0889 -2.5272 0.0000 25.6311 0.0000
# 6 0.0000 0.0000 0.0000 -0.9781 0.0000 31.8278
#
#
#
# Elastic Compliance Matrix: (Units=1/GPa)
#
#
# Indices 1 2 3 4 5 6 
#
# 1 0.014393 0.001789 -0.005978 0.000000 0.000634 0.000000
# 2 0.001789 0.023058 -0.002953 0.000000 -0.005564 0.000000
# 3 -0.005978 -0.002953 0.009586 0.000000 0.000962 0.000000
# 4 0.000000 0.000000 0.000000 0.038555 0.000000 0.001185
# 5 0.000634 -0.005564 0.000962 0.000000 0.040504 0.000000
# 6 0.000000 0.000000 0.000000 0.001185 0.000000 0.031455
#
#
# Mechanical properties :
#
#
# Convention : Reuss Voigt Hill
#
# Bulk Modulus (GPa) = 30.52997 47.74303 39.13650
# Shear Modulus (GPa) = 27.35939 30.97190 29.16565
#
# Velocity S-wave (km/s) = 3.64269 3.87573 3.76101
# Velocity P-wave (km/s) = 5.70081 6.57142 6.15153
#
# Compressibility (1/GPa) = 0.03275470
#
# Stress axis : x y z
#
# Youngs Moduli (GPa) = 69.47798 43.36846 104.32138
#
# Poissons Ratio (x) = -0.07759 0.62360
# Poissons Ratio (y) = -0.12431 0.30803
# Poissons Ratio (z) = 0.41532 0.12805
#
# Static dielectric constant tensor:
#      x y z
#    x 3.648970 0.000000 0.079300 
#    y 0.000000 3.719230 0.000000 
#    z 0.079300 0.000000 3.972040 
# 
# 
# High freq. dielectric constant tensor:
#      x y z
#    x 1.810600 0.000000 0.001920 
#    y 0.000000 1.813320 0.000000 
#    z 0.001920 0.000000 1.806600 
# 
# From -- ./inp_files/31989.got.cif
#   From: 2010.03.12/outbox.cif.g09.slc.cpg/sg8_16_cif.got.tgz:31989.got - 2010.03.31 10:45:26.
