data_PCOD8053041
_publ_section_title
;
Structure prediction by ZEFSAII (Michael W. Deem and Ramdas Pophale) SiO2 
 PCOD8053041
Probable space group: C M
;
_chemical_formula_sum "Si O2"
_cell_formula_units_Z 32
_cell_length_a 5.466775
_cell_length_b 26.741883
_cell_length_c 11.551432
_cell_angle_alpha 90.000000
_cell_angle_beta 116.122905
_cell_angle_gamma 90.000000
_cell_volume 1516.224764
_symmetry_space_group_name_H-M "C M"
_symmetry_group_IT_number 8
_symmetry_cell_setting 'monoclinic'
loop_
_space_group_symop_operation_xyz
x,y,z
x,-y,z
1/2+x,1/2+y,z
1/2+x,1/2-y,z
loop_
_atom_site_type_symbol
_atom_site_label
_atom_site_fract_x
_atom_site_fract_y
_atom_site_fract_z
Si Si1 0.896720 0.555098 0.724230
Si Si2 0.120098 0.623317 0.593537
Si Si3 0.511086 0.558037 0.252423
Si Si4 0.627611 0.376816 0.837482
Si Si5 0.292579 0.772363 0.815106
Si Si6 0.449295 0.444158 0.982624
Si Si7 0.504780 0.233105 0.524226
Si Si8 0.139886 0.440143 0.386562
O O1 0.805074 0.500000 0.666958
O O2 0.677604 0.575676 0.766887
O O3 0.897728 0.587773 0.607925
O O4 0.185412 0.554388 0.848268
O O5 0.331023 0.642711 0.735769
O O6 0.975170 0.673570 0.522190
O O7 0.261357 0.590930 0.520506
O O8 0.524246 0.500000 0.278535
O O9 0.823004 0.577830 0.314892
O O10 0.310384 0.579521 0.310211
O O11 0.377383 0.570331 0.099505
O O12 0.832885 0.331087 0.855755
O O13 0.640349 0.399822 0.970071
O O14 0.601008 0.750918 0.876752
O O15 0.150438 0.762201 0.661899
O O16 0.589204 0.500000 0.010176
O O17 0.193357 0.253434 0.451912
O O18 0.165697 0.500000 0.409507
#
# Coordination Sequence:
#
# PCOD8053041 Si02
#       8
#     4   4   4   4   4   4   4   4
#     4  10  21  33  50  80 118 153 182 219 279 344
#     4  11  22  34  53  81 119 146 184 225 284 343
#     4   9  20  39  58  76 107 147 197 237 264 311
#     4  11  21  32  56  82 116 148 181 227 283 343
#     4  10  19  34  52  76 111 141 184 224 268 330
#     4   9  20  36  54  81 111 149 191 232 273 323
#     4  10  19  33  53  77 109 141 184 225 268 327
#     4  10  22  37  56  81 109 151 189 229 274 323
#
# _framework density 21.105049000000001
#
# number of rings (size 3 to 8) (size 9 to 14) (size 15 to 20)
#    0.000    2.000    2.500    2.250    5.250    1.500 
#    0.000    0.000    0.000    0.000    0.000    5.250 
#    0.000    0.000    0.000    0.000    0.000    0.000 
#
# Total GULP energy -198238.264958 kJ/mol
# GULP energy per Si atom -12389.891560 kJ/mol
# Density = 2.105701 g / cm^3
# Si number density = 21.105049 Si / 1000 Ang^3
#
#
#
# Elastic Constant Matrix: (Units=GPa)
#
#
# Indices 1 2 3 4 5 6 
#
# 1 136.3077 24.2108 21.5853 0.0000 -25.5996 0.0000
# 2 24.2108 94.6082 17.1377 0.0000 -12.3160 0.0000
# 3 21.5853 17.1377 56.7518 0.0000 -25.4875 0.0000
# 4 0.0000 0.0000 0.0000 12.1697 0.0000 -4.1439
# 5 -25.5996 -12.3160 -25.4875 0.0000 27.1563 0.0000
# 6 0.0000 0.0000 0.0000 -4.1439 0.0000 25.6674
#
#
#
# Elastic Compliance Matrix: (Units=1/GPa)
#
#
# Indices 1 2 3 4 5 6 
#
# 1 0.009085 -0.001343 0.000904 0.000000 0.008804 0.000000
# 2 -0.001343 0.011552 -0.002063 0.000000 0.002038 0.000000
# 3 0.000904 -0.002063 0.030877 0.000000 0.028896 0.000000
# 4 0.000000 0.000000 0.000000 0.086952 0.000000 0.014038
# 5 0.008804 0.002038 0.028896 0.000000 0.073167 0.000000
# 6 0.000000 0.000000 0.000000 0.014038 0.000000 0.041226
#
#
# Mechanical properties :
#
#
# Convention : Reuss Voigt Hill
#
# Bulk Modulus (GPa) = 21.50022 45.94835 33.72429
# Shear Modulus (GPa) = 18.29043 27.98092 23.13567
#
# Velocity S-wave (km/s) = 2.94706 3.64509 3.31451
# Velocity P-wave (km/s) = 4.66793 6.28762 5.53732
#
# Compressibility (1/GPa) = 0.04651115
#
# Stress axis : x y z
#
# Youngs Moduli (GPa) = 110.07061 86.56208 32.38643
#
# Poissons Ratio (x) = 0.11622 -0.02927
# Poissons Ratio (y) = 0.14778 0.06681
# Poissons Ratio (z) = -0.09947 0.17856
#
# Static dielectric constant tensor:
#      x y z
#    x 4.318370 0.000000 -0.274840 
#    y 0.000000 3.789750 0.000000 
#    z -0.274840 0.000000 3.415380 
# 
# 
# High freq. dielectric constant tensor:
#      x y z
#    x 1.839770 0.000000 -0.022880 
#    y 0.000000 1.817290 0.000000 
#    z -0.022880 0.000000 1.767680 
# 
# From -- ./inp_files/18163.got.cif
#   From: 2010.03.12/outbox.cif.g09.slc.cpg/sg8_10_cif.got.tgz:18163.got - 2010.03.31 10:45:26.
