data_PCOD8053276
_publ_section_title
;
Structure prediction by ZEFSAII (Michael W. Deem and Ramdas Pophale) SiO2 
 PCOD8053276
Probable space group: C M
;
_chemical_formula_sum "Si O2"
_cell_formula_units_Z 32
_cell_length_a 19.434391
_cell_length_b 9.080170
_cell_length_c 12.098433
_cell_angle_alpha 90.000000
_cell_angle_beta 51.756307
_cell_angle_gamma 90.000000
_cell_volume 1676.782308
_symmetry_space_group_name_H-M "C M"
_symmetry_group_IT_number 8
_symmetry_cell_setting 'monoclinic'
loop_
_space_group_symop_operation_xyz
x,y,z
x,-y,z
1/2+x,1/2+y,z
1/2+x,1/2-y,z
loop_
_atom_site_type_symbol
_atom_site_label
_atom_site_fract_x
_atom_site_fract_y
_atom_site_fract_z
Si Si1 0.073410 0.675040 0.645330
Si Si2 0.074294 0.324885 0.896692
Si Si3 0.419672 0.824956 0.643019
Si Si4 0.223312 0.329473 0.334446
Si Si5 0.959397 0.332649 0.365707
Si Si6 0.160267 0.664439 0.156592
Si Si7 0.400173 0.824720 0.195704
Si Si8 0.223094 0.172971 0.892036
O O1 0.069674 0.500000 0.646519
O O2 0.074603 0.732468 0.769851
O O3 0.162000 0.728541 0.495349
O O4 0.987627 0.738346 0.666791
O O5 0.083825 0.500000 0.894141
O O6 0.156657 0.255663 0.877359
O O7 0.983401 0.270731 0.041487
O O8 0.441979 0.753830 0.500438
O O9 0.321397 0.777098 0.767245
O O10 0.431031 0.000000 0.628920
O O11 0.246796 0.500000 0.327765
O O12 0.169962 0.300982 0.275712
O O13 0.312009 0.238828 0.232695
O O14 0.928653 0.500000 0.410948
O O15 0.906029 0.263140 0.315997
O O16 0.058950 0.323798 0.227832
O O17 0.194961 0.500000 0.094636
O O18 0.210287 0.782653 0.032307
O O19 0.396699 0.000000 0.196953
O O20 0.209289 0.000000 0.891431
#
# Coordination Sequence:
#
# PCOD8053276 Si02
#       8
#     4   4   4   4   4   4   4   4
#     4   9  18  35  57  80 109 146 185 223 266 326
#     4  10  21  38  58  79 110 151 187 219 267 332
#     4   9  18  33  55  81 107 140 186 229 268 322
#     4  10  21  36  58  85 110 143 183 229 276 318
#     4   9  16  33  57  77 101 142 190 225 261 321
#     4  10  19  37  61  79 105 145 188 226 269 329
#     4  10  21  35  56  81 109 148 186 224 270 326
#     4  11  23  35  56  86 113 141 179 233 281 316
#
# _framework density 19.084171000000001
#
# number of rings (size 3 to 8) (size 9 to 14) (size 15 to 20)
#    0.000    2.250    2.500    0.375    3.500    1.000 
#    0.000    0.000    0.000    3.000    0.000    0.000 
#    0.000    0.000    0.000    0.000    0.000    0.000 
#
# Total GULP energy -198356.116325 kJ/mol
# GULP energy per Si atom -12397.257270 kJ/mol
# Density = 1.904073 g / cm^3
# Si number density = 19.084171 Si / 1000 Ang^3
#
#
#
# Elastic Constant Matrix: (Units=GPa)
#
#
# Indices 1 2 3 4 5 6 
#
# 1 95.1126 23.7335 47.2975 0.0000 -5.7263 0.0000
# 2 23.7335 23.3560 25.5077 0.0000 -0.5454 0.0000
# 3 47.2975 25.5077 133.9593 0.0000 5.2924 0.0000
# 4 0.0000 0.0000 0.0000 17.0127 0.0000 -2.4718
# 5 -5.7263 -0.5454 5.2924 0.0000 32.3704 0.0000
# 6 0.0000 0.0000 0.0000 -2.4718 0.0000 24.0850
#
#
#
# Elastic Compliance Matrix: (Units=1/GPa)
#
#
# Indices 1 2 3 4 5 6 
#
# 1 0.015284 -0.011913 -0.003248 0.000000 0.003034 0.000000
# 2 -0.011913 0.063563 -0.007907 0.000000 0.000256 0.000000
# 3 -0.003248 -0.007907 0.010211 0.000000 -0.002377 0.000000
# 4 0.000000 0.000000 0.000000 0.059670 0.000000 0.006124
# 5 0.003034 0.000256 -0.002377 0.000000 0.031822 0.000000
# 6 0.000000 0.000000 0.000000 0.006124 0.000000 0.042148
#
#
# Mechanical properties :
#
#
# Convention : Reuss Voigt Hill
#
# Bulk Modulus (GPa) = 23.29815 49.50056 36.39935
# Shear Modulus (GPa) = 17.65894 25.08623 21.37259
#
# Velocity S-wave (km/s) = 3.04521 3.62954 3.35014
# Velocity P-wave (km/s) = 4.95973 6.59993 5.83773
#
# Compressibility (1/GPa) = 0.04292187
#
# Stress axis : x y z
#
# Youngs Moduli (GPa) = 65.42614 15.73239 97.93136
#
# Poissons Ratio (x) = 0.18743 0.31807
# Poissons Ratio (y) = 0.77945 0.77435
# Poissons Ratio (z) = 0.21250 0.12440
#
# Static dielectric constant tensor:
#      x y z
#    x 3.595080 0.000000 0.151930 
#    y 0.000000 3.037590 0.000000 
#    z 0.151930 0.000000 3.704870 
# 
# 
# High freq. dielectric constant tensor:
#      x y z
#    x 1.754810 0.000000 0.007050 
#    y 0.000000 1.689730 0.000000 
#    z 0.007050 0.000000 1.756370 
# 
# From -- ./inp_files/23132.got.cif
#   From: 2010.03.12/outbox.cif.g09.slc.cpg/sg8_12_cif.got.tgz:23132.got - 2010.03.31 10:45:26.
