data_PCOD8053404
_publ_section_title
;
Structure prediction by ZEFSAII (Michael W. Deem and Ramdas Pophale) SiO2 
 PCOD8053404
Probable space group: C M
;
_chemical_formula_sum "Si O2"
_cell_formula_units_Z 32
_cell_length_a 14.137230
_cell_length_b 8.612861
_cell_length_c 15.932183
_cell_angle_alpha 90.000000
_cell_angle_beta 62.434054
_cell_angle_gamma 90.000000
_cell_volume 1719.710705
_symmetry_space_group_name_H-M "C M"
_symmetry_group_IT_number 8
_symmetry_cell_setting 'monoclinic'
loop_
_space_group_symop_operation_xyz
x,y,z
x,-y,z
1/2+x,1/2+y,z
1/2+x,1/2-y,z
loop_
_atom_site_type_symbol
_atom_site_label
_atom_site_fract_x
_atom_site_fract_y
_atom_site_fract_z
Si Si1 0.441420 0.681222 0.683800
Si Si2 0.917733 0.682866 0.029527
Si Si3 0.240187 0.316125 0.660291
Si Si4 0.186685 0.818576 0.179463
Si Si5 0.262158 0.681063 0.317805
Si Si6 0.171423 0.181021 0.520656
Si Si7 0.479036 0.182547 0.185251
Si Si8 0.013461 0.682919 0.820191
O O1 0.432283 0.500000 0.704293
O O2 0.341897 0.741859 0.670712
O O3 0.548803 0.723263 0.589959
O O4 0.437950 0.762416 0.775598
O O5 0.929757 0.500000 0.019704
O O6 0.793115 0.728503 0.084815
O O7 0.977469 0.741743 0.089150
O O8 0.971690 0.758375 0.924711
O O9 0.241829 0.500000 0.643595
O O10 0.244031 0.229003 0.569864
O O11 0.135054 0.263823 0.754736
O O12 0.201764 0.777297 0.270628
O O13 0.091673 0.719665 0.179769
O O14 0.160631 0.000000 0.182268
O O15 0.253735 0.500000 0.300731
O O16 0.204863 0.716552 0.428385
O O17 0.385708 0.730903 0.274471
O O18 0.187551 0.000000 0.494428
O O19 0.455621 0.000000 0.199475
O O20 0.005744 0.500000 0.828693
#
# Coordination Sequence:
#
# PCOD8053404 Si02
#       8
#     4   4   4   4   4   4   4   4
#     4   9  19  34  51  74 104 135 169 214 262 307
#     4   8  17  33  52  75 105 139 173 214 261 309
#     4   9  18  33  52  74 102 136 174 213 257 310
#     4  10  20  36  55  77 108 142 178 219 263 311
#     4  11  22  37  56  78 105 138 177 218 266 318
#     4  10  20  35  53  74 103 135 170 215 265 313
#     4  10  20  36  56  79 107 138 176 219 266 317
#     4   9  17  32  53  75 102 137 175 214 256 303
#
# _framework density 18.607780999999999
#
# number of rings (size 3 to 8) (size 9 to 14) (size 15 to 20)
#    0.000    2.500    0.000    3.000    0.000    3.000 
#    0.000    8.750    0.000    0.000    0.000    0.000 
#    0.000    0.000    0.000    0.000    0.000    0.000 
#
# Total GULP energy -198420.788237 kJ/mol
# GULP energy per Si atom -12401.299265 kJ/mol
# Density = 1.856543 g / cm^3
# Si number density = 18.607781 Si / 1000 Ang^3
#
#
#
# Elastic Constant Matrix: (Units=GPa)
#
#
# Indices 1 2 3 4 5 6 
#
# 1 127.7923 12.2065 47.7793 0.0000 5.7955 0.0000
# 2 12.2065 35.4413 20.7892 0.0000 -0.8569 0.0000
# 3 47.7793 20.7892 131.8448 0.0000 5.6053 0.0000
# 4 0.0000 0.0000 0.0000 23.8352 0.0000 3.7396
# 5 5.7955 -0.8569 5.6053 0.0000 14.4820 0.0000
# 6 0.0000 0.0000 0.0000 3.7396 0.0000 29.7002
#
#
#
# Elastic Compliance Matrix: (Units=1/GPa)
#
#
# Indices 1 2 3 4 5 6 
#
# 1 0.009203 -0.001478 -0.002991 0.000000 -0.002613 0.000000
# 2 -0.001478 0.031536 -0.004617 0.000000 0.004245 0.000000
# 3 -0.002991 -0.004617 0.009514 0.000000 -0.002759 0.000000
# 4 0.000000 0.000000 0.000000 0.042800 0.000000 -0.005389
# 5 -0.002613 0.004245 -0.002759 0.000000 0.071416 0.000000
# 6 0.000000 0.000000 0.000000 -0.005389 0.000000 0.034348
#
#
# Mechanical properties :
#
#
# Convention : Reuss Voigt Hill
#
# Bulk Modulus (GPa) = 31.17238 50.73649 40.95443
# Shear Modulus (GPa) = 21.96026 27.89037 24.92532
#
# Velocity S-wave (km/s) = 3.43908 3.87571 3.66390
# Velocity P-wave (km/s) = 5.70600 6.88139 6.32108
#
# Compressibility (1/GPa) = 0.03207968
#
# Stress axis : x y z
#
# Youngs Moduli (GPa) = 108.65821 31.70995 105.10954
#
# Poissons Ratio (x) = 0.04688 0.31438
# Poissons Ratio (y) = 0.16064 0.48532
# Poissons Ratio (z) = 0.32499 0.14641
#
# Static dielectric constant tensor:
#      x y z
#    x 3.468810 0.000000 0.016730 
#    y 0.000000 3.270890 0.000000 
#    z 0.016730 0.000000 3.637230 
# 
# 
# High freq. dielectric constant tensor:
#      x y z
#    x 1.723130 0.000000 0.002860 
#    y 0.000000 1.712800 0.000000 
#    z 0.002860 0.000000 1.725740 
# 
# From -- ./inp_files/26538.got.cif
#   From: 2010.03.12/outbox.cif.g09.slc.cpg/sg8_14_cif.got.tgz:26538.got - 2010.03.31 10:45:26.
