data_PCOD8053174
_publ_section_title
;
Structure prediction by ZEFSAII (Michael W. Deem and Ramdas Pophale) SiO2 
 PCOD8053174
Probable space group: C M
;
_chemical_formula_sum "Si O2"
_cell_formula_units_Z 32
_cell_length_a 14.150577
_cell_length_b 8.888160
_cell_length_c 19.984963
_cell_angle_alpha 90.000000
_cell_angle_beta 44.922630
_cell_angle_gamma 90.000000
_cell_volume 1774.954058
_symmetry_space_group_name_H-M "C M"
_symmetry_group_IT_number 8
_symmetry_cell_setting 'monoclinic'
loop_
_space_group_symop_operation_xyz
x,y,z
x,-y,z
1/2+x,1/2+y,z
1/2+x,1/2-y,z
loop_
_atom_site_type_symbol
_atom_site_label
_atom_site_fract_x
_atom_site_fract_y
_atom_site_fract_z
Si Si1 0.046440 0.820684 0.988720
Si Si2 0.056069 0.329243 0.488720
Si Si3 0.053924 0.675189 0.334943
Si Si4 0.755039 0.677253 0.488720
Si Si5 0.265686 0.177398 0.134319
Si Si6 0.746370 0.675189 0.642497
Si Si7 0.556884 0.177398 0.843121
Si Si8 0.757205 0.323258 0.988720
O O1 0.093556 0.760186 0.893416
O O2 0.152765 0.753503 0.988720
O O3 0.042908 0.000000 0.988720
O O4 0.902947 0.760186 0.084024
O O5 0.092164 0.500000 0.488718
O O6 0.087938 0.296996 0.395480
O O7 0.146863 0.223943 0.488720
O O8 0.901460 0.296999 0.581960
O O9 0.071673 0.500000 0.307540
O O10 0.152093 0.776572 0.242759
O O11 0.903669 0.733850 0.394619
O O12 0.764184 0.500000 0.488722
O O13 0.715469 0.733852 0.582820
O O14 0.291278 0.000000 0.124878
O O15 0.220848 0.227805 0.082350
O O16 0.709312 0.500000 0.669900
O O17 0.660172 0.776572 0.734681
O O18 0.408108 0.227805 0.895090
O O19 0.563595 0.000000 0.852561
O O20 0.745779 0.500000 0.988719
#
# Coordination Sequence:
#
# PCOD8053174 Si02
#       8
#     4   4   4   4   4   4   4   4
#     4  10  19  35  56  75 100 137 171 204 252 310
#     4   9  19  35  54  74 102 137 173 209 252 306
#     4   9  19  36  53  73 103 139 171 205 254 310
#     4   9  19  35  54  76 104 133 171 217 254 294
#     4  10  20  35  53  77 105 132 168 215 254 295
#     4   9  19  36  53  73 103 139 171 205 254 310
#     4  10  20  35  53  77 105 132 168 215 254 295
#     4   8  18  35  52  71 100 133 165 202 250 302
#
# _framework density 18.028637
#
# number of rings (size 3 to 8) (size 9 to 14) (size 15 to 20)
#    0.000    2.750    0.000    3.375    0.000    4.000 
#    0.000   17.500    0.000    0.000    0.000    0.000 
#    0.000    0.000    0.000    0.000    0.000    0.000 
#
# Total GULP energy -198376.697660 kJ/mol
# GULP energy per Si atom -12398.543604 kJ/mol
# Density = 1.798760 g / cm^3
# Si number density = 18.028637 Si / 1000 Ang^3
#
#
#
# Elastic Constant Matrix: (Units=GPa)
#
#
# Indices 1 2 3 4 5 6 
#
# 1 134.3936 29.1849 53.5503 0.0000 -2.1966 0.0000
# 2 29.1849 52.6014 37.0464 0.0000 0.3004 0.0000
# 3 53.5503 37.0464 137.8659 0.0000 2.3292 0.0000
# 4 0.0000 0.0000 0.0000 31.2282 0.0000 0.0596
# 5 -2.1966 0.3004 2.3292 0.0000 11.8824 0.0000
# 6 0.0000 0.0000 0.0000 0.0596 0.0000 29.6696
#
#
#
# Elastic Compliance Matrix: (Units=1/GPa)
#
#
# Indices 1 2 3 4 5 6 
#
# 1 0.009285 -0.003203 -0.002785 0.000000 0.002343 0.000000
# 2 -0.003203 0.024559 -0.005352 0.000000 -0.000164 0.000000
# 3 -0.002785 -0.005352 0.009812 0.000000 -0.002303 0.000000
# 4 0.000000 0.000000 0.000000 0.032022 0.000000 -0.000064
# 5 0.002343 -0.000164 -0.002303 0.000000 0.085047 0.000000
# 6 0.000000 0.000000 0.000000 -0.000064 0.000000 0.033705
#
#
# Mechanical properties :
#
#
# Convention : Reuss Voigt Hill
#
# Bulk Modulus (GPa) = 47.67747 62.71378 55.19563
# Shear Modulus (GPa) = 22.31129 28.22801 25.26965
#
# Velocity S-wave (km/s) = 3.52170 3.96123 3.74791
# Velocity P-wave (km/s) = 6.56043 7.46880 7.02930
#
# Compressibility (1/GPa) = 0.02097427
#
# Stress axis : x y z
#
# Youngs Moduli (GPa) = 107.70638 40.71898 101.91202
#
# Poissons Ratio (x) = 0.13043 0.28384
# Poissons Ratio (y) = 0.34500 0.54546
# Poissons Ratio (z) = 0.29998 0.21794
#
# Static dielectric constant tensor:
#      x y z
#    x 3.495840 0.000000 -0.006500 
#    y 0.000000 3.143630 0.000000 
#    z -0.006500 0.000000 3.326150 
# 
# 
# High freq. dielectric constant tensor:
#      x y z
#    x 1.702220 0.000000 0.000010 
#    y 0.000000 1.688010 0.000000 
#    z 0.000010 0.000000 1.702580 
# 
# From -- ./inp_files/26441.got.cif
#   From: 2010.03.12/outbox.cif.g09.slc.cpg/sg8_14_cif.got.tgz:26441.got - 2010.03.31 10:45:26.
