data_PCOD8053489
_publ_section_title
;
Structure prediction by ZEFSAII (Michael W. Deem and Ramdas Pophale) SiO2 
 PCOD8053489
Probable space group: C M
;
_chemical_formula_sum "Si O2"
_cell_formula_units_Z 32
_cell_length_a 28.403503
_cell_length_b 8.474855
_cell_length_c 15.650294
_cell_angle_alpha 90.000000
_cell_angle_beta 26.836357
_cell_angle_gamma 90.000000
_cell_volume 1700.710577
_symmetry_space_group_name_H-M "C M"
_symmetry_group_IT_number 8
_symmetry_cell_setting 'monoclinic'
loop_
_space_group_symop_operation_xyz
x,y,z
x,-y,z
1/2+x,1/2+y,z
1/2+x,1/2-y,z
loop_
_atom_site_type_symbol
_atom_site_label
_atom_site_fract_x
_atom_site_fract_y
_atom_site_fract_z
Si Si1 0.010340 0.313206 0.843130
Si Si2 0.728847 0.813195 0.423838
Si Si3 0.687958 0.187291 0.138029
Si Si4 0.303173 0.313508 0.121117
Si Si5 0.557278 0.813347 0.116663
Si Si6 0.270465 0.815460 0.831060
Si Si7 0.478186 0.314628 0.416486
Si Si8 0.935823 0.686503 0.146758
O O1 0.012532 0.500000 0.837253
O O2 0.119733 0.242244 0.633573
O O3 0.920124 0.253538 0.925733
O O4 0.990793 0.251633 0.971148
O O5 0.748828 0.749029 0.295544
O O6 0.819548 0.756326 0.340730
O O7 0.725282 0.000000 0.430388
O O8 0.737157 0.245735 0.147251
O O9 0.568258 0.243064 0.330942
O O10 0.693352 0.000000 0.117829
O O11 0.753468 0.268220 0.956713
O O12 0.309224 0.500000 0.112581
O O13 0.483678 0.766293 0.314810
O O14 0.502065 0.753220 0.119921
O O15 0.575787 0.000000 0.086992
O O16 0.668424 0.727426 0.941658
O O17 0.367148 0.718261 0.638009
O O18 0.294255 0.000000 0.785222
O O19 0.496628 0.500000 0.376134
O O20 0.927337 0.500000 0.161328
#
# Coordination Sequence:
#
# PCOD8053489 Si02
#       8
#     4   4   4   4   4   4   4   4
#     4   9  18  33  52  75 104 138 175 213 254 303
#     4   9  18  33  52  75 104 138 175 213 254 303
#     4  10  20  36  55  78 109 141 177 220 264 312
#     4   9  19  34  52  76 105 136 171 214 260 305
#     4  10  20  36  55  78 109 141 177 220 264 312
#     4  11  22  37  56  79 106 138 177 218 266 318
#     4  11  22  37  56  79 106 138 177 218 266 318
#     4   9  19  34  52  76 105 136 171 214 260 305
#
# _framework density 18.815664000000002
#
# number of rings (size 3 to 8) (size 9 to 14) (size 15 to 20)
#    0.000    2.250    0.000    4.500    0.000    4.500 
#    0.000    2.500    0.000    0.000    0.000    0.000 
#    0.000    0.000    0.000    0.000    0.000    0.000 
#
# Total GULP energy -198432.128486 kJ/mol
# GULP energy per Si atom -12402.008030 kJ/mol
# Density = 1.877284 g / cm^3
# Si number density = 18.815664 Si / 1000 Ang^3
#
#
#
# Elastic Constant Matrix: (Units=GPa)
#
#
# Indices 1 2 3 4 5 6 
#
# 1 164.7553 23.0037 63.8983 0.0000 -11.3232 0.0000
# 2 23.0037 41.8112 6.3159 -0.0001 -1.7282 0.0000
# 3 63.8983 6.3159 137.7602 0.0000 -15.6373 0.0000
# 4 0.0000 -0.0001 0.0000 29.8369 0.0000 -4.4009
# 5 -11.3232 -1.7282 -15.6373 0.0000 16.3362 0.0000
# 6 0.0000 0.0000 0.0000 -4.4009 0.0000 28.2177
#
#
#
# Elastic Compliance Matrix: (Units=1/GPa)
#
#
# Indices 1 2 3 4 5 6 
#
# 1 0.008030 -0.003834 -0.003324 0.000000 0.001978 0.000000
# 2 -0.003834 0.025955 0.000671 0.000000 0.000731 0.000000
# 3 -0.003324 0.000671 0.009555 0.000000 0.006913 0.000000
# 4 0.000000 0.000000 0.000000 0.034305 0.000000 0.005350
# 5 0.001978 0.000731 0.006913 0.000000 0.069279 0.000000
# 6 0.000000 0.000000 0.000000 0.005350 0.000000 0.036273
#
#
# Mechanical properties :
#
#
# Convention : Reuss Voigt Hill
#
# Bulk Modulus (GPa) = 32.71588 58.97360 45.84474
# Shear Modulus (GPa) = 24.20599 31.61874 27.91237
#
# Velocity S-wave (km/s) = 3.59065 4.10377 3.85576
# Velocity P-wave (km/s) = 5.88351 7.33931 6.65136
#
# Compressibility (1/GPa) = 0.03056619
#
# Stress axis : x y z
#
# Youngs Moduli (GPa) = 124.52954 38.52778 104.65867
#
# Poissons Ratio (x) = 0.14772 0.34793
# Poissons Ratio (y) = 0.47746 -0.07027
# Poissons Ratio (z) = 0.41398 -0.02587
#
# Static dielectric constant tensor:
#      x y z
#    x 3.649910 0.000000 0.026760 
#    y 0.000000 3.352750 0.000000 
#    z 0.026760 0.000000 3.573250 
# 
# 
# High freq. dielectric constant tensor:
#      x y z
#    x 1.733520 0.000000 -0.004980 
#    y 0.000000 1.730180 0.000000 
#    z -0.004980 0.000000 1.732840 
# 
# From -- ./inp_files/26451.got.cif
#   From: 2010.03.12/outbox.cif.g09.slc.cpg/sg8_14_cif.got.tgz:26451.got - 2010.03.31 10:45:26.
