data_PCOD8053170
_publ_section_title
;
Structure prediction by ZEFSAII (Michael W. Deem and Ramdas Pophale) SiO2 
 PCOD8053170
Probable space group: C M
;
_chemical_formula_sum "Si O2"
_cell_formula_units_Z 28
_cell_length_a 24.473818
_cell_length_b 12.053456
_cell_length_c 5.231337
_cell_angle_alpha 90.000000
_cell_angle_beta 102.616769
_cell_angle_gamma 90.000000
_cell_volume 1505.949321
_symmetry_space_group_name_H-M "C M"
_symmetry_group_IT_number 8
_symmetry_cell_setting 'monoclinic'
loop_
_space_group_symop_operation_xyz
x,y,z
x,-y,z
1/2+x,1/2+y,z
1/2+x,1/2-y,z
loop_
_atom_site_type_symbol
_atom_site_label
_atom_site_fract_x
_atom_site_fract_y
_atom_site_fract_z
Si Si1 0.195900 0.239003 0.777420
Si Si2 0.390489 0.702271 0.916686
Si Si3 0.710127 0.122293 0.289042
Si Si4 0.310946 0.130483 0.021427
Si Si5 0.832615 0.172989 0.351770
Si Si6 0.578875 0.370251 0.631892
Si Si7 0.014520 0.132786 0.065847
O O1 0.195008 0.324083 0.543464
O O2 0.252644 0.166491 0.828227
O O3 0.144047 0.157310 0.695043
O O4 0.187570 0.304665 0.032645
O O5 0.363831 0.827312 0.903090
O O6 0.374083 0.649696 0.628557
O O7 0.363267 0.631463 0.122738
O O8 0.456852 0.700762 0.010005
O O9 0.776665 0.104189 0.336833
O O10 0.682539 0.000000 0.249368
O O11 0.313420 0.000000 0.070145
O O12 0.315941 0.195550 0.299063
O O13 0.573119 0.500000 0.627101
O O14 0.548588 0.324974 0.347274
O O15 0.548486 0.324529 0.853841
O O16 0.004029 0.000000 0.053675
#
# Coordination Sequence:
#
# PCOD8053170 Si02
#       7
#     4   4   4   4   4   4   4
#     4  11  21  38  57  87 113 150 186 234 280 337
#     4  10  19  35  54  81 114 144 187 228 282 328
#     4  11  21  36  55  81 117 150 183 227 278 337
#     4   9  20  35  56  83 116 147 184 228 282 337
#     4   9  19  34  49  83 111 146 186 217 280 329
#     4  10  21  38  60  86 113 148 187 232 286 331
#     4  10  21  36  57  85 114 149 189 232 282 333
#
# _framework density 18.592924
#
# number of rings (size 3 to 8) (size 9 to 14) (size 15 to 20)
#    0.857    1.143    1.429    2.571    0.000    1.714 
#    0.000    1.429    0.000    5.143    0.000    0.000 
#    0.000    0.000    0.000    0.000    0.000    0.000 
#
# Total GULP energy -173492.891612 kJ/mol
# GULP energy per Si atom -12392.349401 kJ/mol
# Density = 1.855061 g / cm^3
# Si number density = 18.592924 Si / 1000 Ang^3
#
#
#
# Elastic Constant Matrix: (Units=GPa)
#
#
# Indices 1 2 3 4 5 6 
#
# 1 109.5843 15.3019 42.6593 0.0000 7.4494 0.0000
# 2 15.3019 55.9354 13.9291 0.0000 1.1315 0.0000
# 3 42.6593 13.9291 149.7533 0.0000 -2.1483 0.0000
# 4 0.0000 0.0000 0.0000 10.8678 0.0000 -1.4682
# 5 7.4494 1.1315 -2.1483 0.0000 30.4683 0.0000
# 6 0.0000 0.0000 0.0000 -1.4682 0.0000 15.7950
#
#
#
# Elastic Compliance Matrix: (Units=1/GPa)
#
#
# Indices 1 2 3 4 5 6 
#
# 1 0.010743 -0.002161 -0.002899 0.000000 -0.002751 0.000000
# 2 -0.002161 0.018756 -0.001132 0.000000 -0.000248 0.000000
# 3 -0.002899 -0.001132 0.007627 0.000000 0.001289 0.000000
# 4 0.000000 0.000000 0.000000 0.093185 0.000000 0.008662
# 5 -0.002751 -0.000248 0.001289 0.000000 0.033594 0.000000
# 6 0.000000 0.000000 0.000000 0.008662 0.000000 0.064116
#
#
# Mechanical properties :
#
#
# Convention : Reuss Voigt Hill
#
# Bulk Modulus (GPa) = 40.41864 51.00595 45.71229
# Shear Modulus (GPa) = 20.10842 27.65174 23.88008
#
# Velocity S-wave (km/s) = 3.29220 3.86063 3.58769
# Velocity P-wave (km/s) = 6.01975 6.88224 6.46539
#
# Compressibility (1/GPa) = 0.02474106
#
# Stress axis : x y z
#
# Youngs Moduli (GPa) = 93.08774 53.31611 131.11029
#
# Poissons Ratio (x) = 0.11523 0.38003
# Poissons Ratio (y) = 0.20119 0.14847
# Poissons Ratio (z) = 0.26982 0.06038
#
# Static dielectric constant tensor:
#      x y z
#    x 3.426830 0.000000 -0.118330 
#    y 0.000000 3.044720 0.000000 
#    z -0.118330 0.000000 3.770900 
# 
# 
# High freq. dielectric constant tensor:
#      x y z
#    x 1.715550 0.000000 -0.005210 
#    y 0.000000 1.687490 0.000000 
#    z -0.005210 0.000000 1.738010 
# 
# From -- ./inp_files/5494.got.cif
#   From: 2010.03.12/outbox.cif.g09.slc.cpg/sg8_3_cif.got.tgz:5494.got - 2010.03.31 10:45:26.
