data_PCOD8053901
_publ_section_title
;
Structure prediction by ZEFSAII (Michael W. Deem and Ramdas Pophale) SiO2 
 PCOD8053901
Probable space group: C M
;
_chemical_formula_sum "Si O2"
_cell_formula_units_Z 28
_cell_length_a 14.704238
_cell_length_b 9.294104
_cell_length_c 18.781347
_cell_angle_alpha 90.000000
_cell_angle_beta 146.984613
_cell_angle_gamma 90.000000
_cell_volume 1398.508456
_symmetry_space_group_name_H-M "C M"
_symmetry_group_IT_number 8
_symmetry_cell_setting 'monoclinic'
loop_
_space_group_symop_operation_xyz
x,y,z
x,-y,z
1/2+x,1/2+y,z
1/2+x,1/2-y,z
loop_
_atom_site_type_symbol
_atom_site_label
_atom_site_fract_x
_atom_site_fract_y
_atom_site_fract_z
Si Si1 0.639230 0.328772 0.021360
Si Si2 0.141926 0.660865 0.436851
Si Si3 0.424733 0.838578 0.577608
Si Si4 0.329684 0.337389 0.027841
Si Si5 0.331482 0.662458 0.268439
Si Si6 0.174311 0.254108 0.306371
Si Si7 0.789916 0.830581 0.842774
O O1 0.665615 0.500000 0.043053
O O2 0.718987 0.267895 0.002540
O O3 0.720238 0.258089 0.143787
O O4 0.443606 0.282957 0.893523
O O5 0.140994 0.500000 0.468478
O O6 0.324226 0.734875 0.566494
O O7 0.102567 0.651523 0.325617
O O8 0.010605 0.760580 0.391913
O O9 0.329150 0.840979 0.438558
O O10 0.613653 0.777812 0.693875
O O11 0.428855 0.000000 0.611560
O O12 0.260266 0.500000 0.987582
O O13 0.522852 0.342684 0.178576
O O14 0.314421 0.271039 0.938841
O O15 0.353579 0.500000 0.252898
O O16 0.246268 0.649725 0.289765
O O17 0.793874 0.000000 0.851267
#
# Coordination Sequence:
#
# PCOD8053901 Si02
#       7
#     4   4   4   4   4   4   4
#     4  11  22  37  59  88 122 154 195 245 292 343
#     4  10  22  39  59  86 119 149 192 245 293 342
#     4   9  19  39  64  84 116 160 197 237 290 350
#     4  11  21  38  63  89 116 153 198 243 294 349
#     4  12  23  37  60  89 120 154 197 242 296 350
#     4  10  22  36  63  85 117 146 199 239 294 337
#     4   9  20  40  60  83 120 160 196 237 291 351
#
# _framework density 20.021331
#
# number of rings (size 3 to 8) (size 9 to 14) (size 15 to 20)
#    0.857    0.857    2.857    2.143    0.000    2.286 
#    2.571    2.143    0.000    0.000    0.000    0.000 
#    0.000    0.000    0.000    0.000    0.000    0.000 
#
# Total GULP energy -173481.495096 kJ/mol
# GULP energy per Si atom -12391.535364 kJ/mol
# Density = 1.997576 g / cm^3
# Si number density = 20.021331 Si / 1000 Ang^3
#
#
#
# Elastic Constant Matrix: (Units=GPa)
#
#
# Indices 1 2 3 4 5 6 
#
# 1 102.7695 30.3159 36.8160 -0.0001 17.5428 0.0000
# 2 30.3159 116.1616 30.4641 0.0000 19.8925 0.0000
# 3 36.8160 30.4641 136.5906 -0.0008 24.6639 -0.0001
# 4 -0.0001 0.0000 -0.0008 21.5910 -0.0001 3.5631
# 5 17.5428 19.8925 24.6639 -0.0001 32.7943 0.0000
# 6 0.0000 0.0000 -0.0001 3.5631 0.0000 26.0112
#
#
#
# Elastic Compliance Matrix: (Units=1/GPa)
#
#
# Indices 1 2 3 4 5 6 
#
# 1 0.011632 -0.001889 -0.002080 0.000000 -0.003513 0.000000
# 2 -0.001889 0.010105 -0.000949 0.000000 -0.004405 0.000000
# 3 -0.002080 -0.000949 0.009012 0.000000 -0.005090 0.000000
# 4 0.000000 0.000000 0.000000 0.047387 0.000000 -0.006491
# 5 -0.003513 -0.004405 -0.005090 0.000000 0.038872 0.000000
# 6 0.000000 0.000000 0.000000 -0.006491 0.000000 0.039334
#
#
# Mechanical properties :
#
#
# Convention : Reuss Voigt Hill
#
# Bulk Modulus (GPa) = 47.81439 61.19039 54.50239
# Shear Modulus (GPa) = 28.87670 33.27435 31.07552
#
# Velocity S-wave (km/s) = 3.80188 4.08112 3.94397
# Velocity P-wave (km/s) = 6.57312 7.26886 6.92973
#
# Compressibility (1/GPa) = 0.02091421
#
# Stress axis : x y z
#
# Youngs Moduli (GPa) = 85.96692 98.96122 110.95726
#
# Poissons Ratio (x) = 0.18692 0.23077
# Poissons Ratio (y) = 0.16238 0.10532
# Poissons Ratio (z) = 0.17879 0.09393
#
# Static dielectric constant tensor:
#      x y z
#    x 3.652630 0.000000 0.269870 
#    y 0.000000 3.324760 0.000000 
#    z 0.269870 0.000000 3.791840 
# 
# 
# High freq. dielectric constant tensor:
#      x y z
#    x 1.774610 0.000000 0.020960 
#    y 0.000000 1.764540 0.000000 
#    z 0.020960 0.000000 1.774500 
# 
# From -- ./inp_files/30768.got.cif
#   From: 2010.03.12/outbox.cif.g09.slc.cpg/sg8_16_cif.got.tgz:30768.got - 2010.03.31 10:45:26.
