data_PCOD8053405
_publ_section_title
;
Structure prediction by ZEFSAII (Michael W. Deem and Ramdas Pophale) SiO2 
 PCOD8053405
Probable space group: C M
;
_chemical_formula_sum "Si O2"
_cell_formula_units_Z 32
_cell_length_a 14.168480
_cell_length_b 8.745539
_cell_length_c 19.782612
_cell_angle_alpha 90.000000
_cell_angle_beta 45.835226
_cell_angle_gamma 90.000000
_cell_volume 1758.401221
_symmetry_space_group_name_H-M "C M"
_symmetry_group_IT_number 8
_symmetry_cell_setting 'monoclinic'
loop_
_space_group_symop_operation_xyz
x,y,z
x,-y,z
1/2+x,1/2+y,z
1/2+x,1/2-y,z
loop_
_atom_site_type_symbol
_atom_site_label
_atom_site_fract_x
_atom_site_fract_y
_atom_site_fract_z
Si Si1 0.053010 0.820062 0.407300
Si Si2 0.043706 0.821041 0.757906
Si Si3 0.772423 0.319292 0.892234
Si Si4 0.772367 0.319180 0.543054
Si Si5 0.754263 0.181118 0.410303
Si Si6 0.541113 0.319445 0.912996
Si Si7 0.768064 0.681554 0.047462
Si Si8 0.048033 0.820497 0.256412
O O1 0.152020 0.726620 0.404248
O O2 0.088558 0.776734 0.312473
O O3 0.905131 0.768186 0.497043
O O4 0.066236 0.000000 0.414526
O O5 0.165971 0.769103 0.651699
O O6 0.072140 0.770093 0.820663
O O7 0.911935 0.741603 0.796010
O O8 0.020157 0.000000 0.764476
O O9 0.776246 0.500000 0.886687
O O10 0.657899 0.254198 0.901371
O O11 0.744520 0.262183 0.982494
O O12 0.797714 0.500000 0.530124
O O13 0.717070 0.265517 0.498331
O O14 0.899945 0.236841 0.314829
O O15 0.751532 0.000000 0.424435
O O16 0.527923 0.500000 0.926856
O O17 0.405845 0.245281 0.006323
O O18 0.771944 0.500000 0.049923
O O19 0.651490 0.752298 0.152010
O O20 0.051501 0.000000 0.245263
#
# Coordination Sequence:
#
# PCOD8053405 Si02
#       8
#     4   4   4   4   4   4   4   4
#     4  10  20  35  53  75 103 136 171 211 254 302
#     4   9  19  34  51  71  99 130 163 204 249 294
#     4   9  18  31  50  73  99 131 166 202 244 292
#     4  10  20  35  53  75 102 135 172 212 255 303
#     4  10  20  35  54  76 102 134 168 211 260 306
#     4   9  18  33  49  71 101 130 162 204 248 293
#     4   9  17  32  51  72  98 131 168 205 243 290
#     4   8  17  33  51  71 100 133 166 205 251 298
#
# _framework density 18.198349
#
# number of rings (size 3 to 8) (size 9 to 14) (size 15 to 20)
#    0.000    2.750    0.000    1.875    0.000    3.500 
#    0.000    6.250    0.000    0.000    0.000    0.000 
#    0.000    0.000    0.000    0.000    0.000    0.000 
#
# Total GULP energy -198397.205817 kJ/mol
# GULP energy per Si atom -12399.825364 kJ/mol
# Density = 1.815693 g / cm^3
# Si number density = 18.198349 Si / 1000 Ang^3
#
#
#
# Elastic Constant Matrix: (Units=GPa)
#
#
# Indices 1 2 3 4 5 6 
#
# 1 128.6822 15.0151 57.0110 0.0000 -10.0640 0.0000
# 2 15.0151 21.9933 24.4986 0.0000 -1.5058 0.0000
# 3 57.0110 24.4986 152.5589 0.0000 -5.5820 0.0000
# 4 0.0000 0.0000 0.0000 24.7313 0.0000 -5.0209
# 5 -10.0640 -1.5058 -5.5820 0.0000 15.6578 0.0000
# 6 0.0000 0.0000 0.0000 -5.0209 0.0000 25.9218
#
#
#
# Elastic Compliance Matrix: (Units=1/GPa)
#
#
# Indices 1 2 3 4 5 6 
#
# 1 0.009847 -0.003028 -0.003012 0.000000 0.004964 0.000000
# 2 -0.003028 0.056378 -0.007898 0.000000 0.000660 0.000000
# 3 -0.003012 -0.007898 0.008967 0.000000 0.000501 0.000000
# 4 0.000000 0.000000 0.000000 0.042090 0.000000 0.008152
# 5 0.004964 0.000660 0.000501 0.000000 0.067299 0.000000
# 6 0.000000 0.000000 0.000000 0.008152 0.000000 0.040157
#
#
# Mechanical properties :
#
#
# Convention : Reuss Voigt Hill
#
# Bulk Modulus (GPa) = 21.13402 55.14265 38.13833
# Shear Modulus (GPa) = 18.62998 27.04283 22.83640
#
# Velocity S-wave (km/s) = 3.20303 3.85906 3.54625
# Velocity P-wave (km/s) = 5.03166 7.08683 6.14576
#
# Compressibility (1/GPa) = 0.04731708
#
# Stress axis : x y z
#
# Youngs Moduli (GPa) = 101.55352 17.73738 111.51963
#
# Poissons Ratio (x) = 0.05370 0.33589
# Poissons Ratio (y) = 0.30747 0.88077
# Poissons Ratio (z) = 0.30588 0.14009
#
# Static dielectric constant tensor:
#      x y z
#    x 3.447630 0.000000 0.005330 
#    y 0.000000 3.189480 0.000000 
#    z 0.005330 0.000000 3.624060 
# 
# 
# High freq. dielectric constant tensor:
#      x y z
#    x 1.707590 0.000000 -0.003580 
#    y 0.000000 1.693260 0.000000 
#    z -0.003580 0.000000 1.708980 
# 
# From -- ./inp_files/25862.got.cif
#   From: 2010.03.12/outbox.cif.g09.slc.cpg/sg8_13_cif.got.tgz:25862.got - 2010.03.31 10:45:26.
