data_PCOD8053520
_publ_section_title
;
Structure prediction by ZEFSAII (Michael W. Deem and Ramdas Pophale) SiO2 
 PCOD8053520
Probable space group: C M
;
_chemical_formula_sum "Si O2"
_cell_formula_units_Z 32
_cell_length_a 20.439965
_cell_length_b 8.688314
_cell_length_c 14.097740
_cell_angle_alpha 90.000000
_cell_angle_beta 140.384995
_cell_angle_gamma 90.000000
_cell_volume 1596.360612
_symmetry_space_group_name_H-M "C M"
_symmetry_group_IT_number 8
_symmetry_cell_setting 'monoclinic'
loop_
_space_group_symop_operation_xyz
x,y,z
x,-y,z
1/2+x,1/2+y,z
1/2+x,1/2-y,z
loop_
_atom_site_type_symbol
_atom_site_label
_atom_site_fract_x
_atom_site_fract_y
_atom_site_fract_z
Si Si1 0.829730 0.321358 0.701260
Si Si2 0.081993 0.823844 0.658476
Si Si3 0.643478 0.320681 0.357148
Si Si4 0.275117 0.677079 0.363132
Si Si5 0.793185 0.821587 0.855727
Si Si6 0.458576 0.176193 0.672217
Si Si7 0.430828 0.822308 0.167401
Si Si8 0.386638 0.673759 0.307583
O O1 0.822623 0.500000 0.722562
O O2 0.727041 0.273803 0.529621
O O3 0.839480 0.217092 0.804792
O O4 0.932621 0.289786 0.753702
O O5 0.173025 0.717056 0.723317
O O6 0.049714 0.780370 0.730652
O O7 0.986596 0.793696 0.482911
O O8 0.118136 0.000000 0.697136
O O9 0.648003 0.500000 0.338827
O O10 0.664524 0.226258 0.282231
O O11 0.532507 0.278968 0.272334
O O12 0.301445 0.500000 0.418806
O O13 0.353654 0.793685 0.499520
O O14 0.285275 0.697444 0.260516
O O15 0.810944 0.000000 0.897496
O O16 0.849374 0.720084 0.996713
O O17 0.491078 0.000000 0.694268
O O18 0.380104 0.790229 0.213028
O O19 0.459926 0.000000 0.191312
O O20 0.389826 0.500000 0.271276
#
# Coordination Sequence:
#
# PCOD8053520 Si02
#       8
#     4   4   4   4   4   4   4   4
#     4   9  19  36  58  84 114 145 178 222 273 322
#     4  10  20  36  59  85 114 145 180 225 273 324
#     4  10  20  36  59  85 114 145 180 225 273 324
#     4   9  17  31  54  84 115 144 177 222 272 321
#     4  12  25  39  56  78 109 147 187 230 274 326
#     4   9  17  31  54  84 115 144 177 222 272 321
#     4  12  25  39  56  78 109 147 187 230 274 326
#     4   9  19  36  58  84 114 145 178 222 273 322
#
# _framework density 20.045597000000001
#
# number of rings (size 3 to 8) (size 9 to 14) (size 15 to 20)
#    0.000    2.000    0.000    6.000    0.000    9.000 
#    0.000    1.250    0.000    7.500    0.000    0.000 
#    0.000    0.000    0.000    0.000    0.000    0.000 
#
# Total GULP energy -198386.547085 kJ/mol
# GULP energy per Si atom -12399.159193 kJ/mol
# Density = 1.999997 g / cm^3
# Si number density = 20.045597 Si / 1000 Ang^3
#
#
#
# Elastic Constant Matrix: (Units=GPa)
#
#
# Indices 1 2 3 4 5 6 
#
# 1 125.8063 39.6942 26.9087 0.0000 -24.3608 0.0000
# 2 39.6942 75.7694 24.1844 0.0000 -11.2872 0.0000
# 3 26.9087 24.1844 45.0181 0.0000 -16.7787 0.0000
# 4 0.0000 0.0000 0.0000 26.0121 0.0000 0.2813
# 5 -24.3608 -11.2872 -16.7787 0.0000 13.6016 0.0000
# 6 0.0000 0.0000 0.0000 0.2813 0.0000 38.3448
#
#
#
# Elastic Compliance Matrix: (Units=1/GPa)
#
#
# Indices 1 2 3 4 5 6 
#
# 1 0.013370 -0.004481 0.003618 0.000000 0.024690 0.000000
# 2 -0.004481 0.017612 -0.008009 0.000000 -0.003290 0.000000
# 3 0.003618 -0.008009 0.044965 0.000000 0.055301 0.000000
# 4 0.000000 0.000000 0.000000 0.038447 0.000000 -0.000282
# 5 0.024690 -0.003290 0.055301 0.000000 0.183228 0.000000
# 6 0.000000 0.000000 0.000000 -0.000282 0.000000 0.026081
#
#
# Mechanical properties :
#
#
# Convention : Reuss Voigt Hill
#
# Bulk Modulus (GPa) = 17.18174 47.57426 32.37800
# Shear Modulus (GPa) = 13.85630 25.97880 19.91755
#
# Velocity S-wave (km/s) = 2.63199 3.60388 3.15558
# Velocity P-wave (km/s) = 4.22214 6.41107 5.42809
#
# Compressibility (1/GPa) = 0.05820131
#
# Stress axis : x y z
#
# Youngs Moduli (GPa) = 74.79681 56.78060 22.23972
#
# Poissons Ratio (x) = 0.25443 -0.08046
# Poissons Ratio (y) = 0.33515 0.17812
# Poissons Ratio (z) = -0.27061 0.45477
#
# Static dielectric constant tensor:
#      x y z
#    x 4.089250 0.000000 -0.034420 
#    y 0.000000 3.618080 0.000000 
#    z -0.034420 0.000000 3.194670 
# 
# 
# High freq. dielectric constant tensor:
#      x y z
#    x 1.806030 0.000000 -0.003640 
#    y 0.000000 1.787390 0.000000 
#    z -0.003640 0.000000 1.732820 
# 
# From -- ./inp_files/27791.got.cif
#   From: 2010.03.12/outbox.cif.g09.slc.cpg/sg8_14_cif.got.tgz:27791.got - 2010.03.31 10:45:26.
