data_PCOD8053398
_publ_section_title
;
Structure prediction by ZEFSAII (Michael W. Deem and Ramdas Pophale) SiO2 
 PCOD8053398
Probable space group: C M
;
_chemical_formula_sum "Si O2"
_cell_formula_units_Z 32
_cell_length_a 22.929387
_cell_length_b 8.740390
_cell_length_c 28.409182
_cell_angle_alpha 90.000000
_cell_angle_beta 162.004120
_cell_angle_gamma 90.000000
_cell_volume 1759.009658
_symmetry_space_group_name_H-M "C M"
_symmetry_group_IT_number 8
_symmetry_cell_setting 'monoclinic'
loop_
_space_group_symop_operation_xyz
x,y,z
x,-y,z
1/2+x,1/2+y,z
1/2+x,1/2-y,z
loop_
_atom_site_type_symbol
_atom_site_label
_atom_site_fract_x
_atom_site_fract_y
_atom_site_fract_z
Si Si1 0.461050 0.328842 0.680150
Si Si2 0.424867 0.180137 0.402851
Si Si3 0.382983 0.332708 0.227513
Si Si4 0.707129 0.671155 0.553228
Si Si5 0.130602 0.332702 0.351284
Si Si6 0.706361 0.180134 0.793577
Si Si7 0.926103 0.817179 0.505549
Si Si8 0.113494 0.317181 0.099260
O O1 0.537856 0.500000 0.749132
O O2 0.398994 0.250035 0.681591
O O3 0.281226 0.338523 0.508536
O O4 0.624092 0.228000 0.781241
O O5 0.622355 0.228075 0.530421
O O6 0.438367 0.222959 0.467512
O O7 0.252268 0.274501 0.248378
O O8 0.392258 0.000000 0.371265
O O9 0.322052 0.500000 0.164538
O O10 0.560101 0.338521 0.398010
O O11 0.440496 0.250000 0.223113
O O12 0.207565 0.260883 0.121922
O O13 0.752731 0.500000 0.606616
O O14 0.061512 0.500000 0.284227
O O15 0.234517 0.260867 0.385376
O O16 0.606270 0.274526 0.675367
O O17 0.677910 0.000000 0.764065
O O18 0.924511 0.223003 0.960593
O O19 0.926203 0.000000 0.497575
O O20 0.081337 0.500000 0.075173
#
# Coordination Sequence:
#
# PCOD8053398 Si02
#       8
#     4   4   4   4   4   4   4   4
#     4   9  16  28  46  70  98 129 164 206 250 295
#     4  11  21  33  51  77 104 133 169 211 255 303
#     4   8  15  26  44  68  94 123 159 200 243 287
#     4   9  16  28  46  70  98 129 164 206 250 295
#     4   8  15  26  44  68  94 123 159 200 243 287
#     4  11  21  33  51  77 104 133 169 211 255 303
#     4  10  20  35  52  73 102 137 170 205 252 305
#     4  10  20  35  52  73 102 137 170 205 252 305
#
# _framework density 18.192053999999999
#
# number of rings (size 3 to 8) (size 9 to 14) (size 15 to 20)
#    0.000    2.500    0.000    5.250    0.000    7.000 
#    0.000    0.000    0.000    1.500    0.000    7.000 
#    0.000    0.000    0.000    0.000    0.000    0.000 
#
# Total GULP energy -198298.258527 kJ/mol
# GULP energy per Si atom -12393.641158 kJ/mol
# Density = 1.815065 g / cm^3
# Si number density = 18.192054 Si / 1000 Ang^3
#
#
#
# Elastic Constant Matrix: (Units=GPa)
#
#
# Indices 1 2 3 4 5 6 
#
# 1 123.2186 32.7284 36.6541 0.0173 27.0494 0.0002
# 2 32.7284 90.7848 12.8495 -0.0170 13.6864 0.0019
# 3 36.6541 12.8495 49.6983 -0.0766 23.5806 0.0106
# 4 0.0173 -0.0170 -0.0766 23.6343 0.0147 7.1116
# 5 27.0494 13.6864 23.5806 0.0147 26.0954 0.0023
# 6 0.0002 0.0019 0.0106 7.1116 0.0023 33.9450
#
#
#
# Elastic Compliance Matrix: (Units=1/GPa)
#
#
# Indices 1 2 3 4 5 6 
#
# 1 0.011641 -0.002553 -0.004964 -0.000025 -0.006242 0.000007
# 2 -0.002553 0.012522 0.000885 0.000018 -0.004721 -0.000004
# 3 -0.004964 0.000885 0.037344 0.000156 -0.029064 -0.000042
# 4 -0.000025 0.000018 0.000156 0.045159 -0.000150 -0.009461
# 5 -0.006242 -0.004721 -0.029064 -0.000150 0.073530 0.000036
# 6 0.000007 -0.000004 -0.000042 -0.009461 0.000036 0.031442
#
#
# Mechanical properties :
#
#
# Convention : Reuss Voigt Hill
#
# Bulk Modulus (GPa) = 20.72799 47.57397 34.15098
# Shear Modulus (GPa) = 20.74858 28.83293 24.79076
#
# Velocity S-wave (km/s) = 3.38084 3.98542 3.69551
# Velocity P-wave (km/s) = 5.16322 6.88374 6.08460
#
# Compressibility (1/GPa) = 0.04824395
#
# Stress axis : x y z
#
# Youngs Moduli (GPa) = 85.90674 79.86047 26.77824
#
# Poissons Ratio (x) = 0.20388 0.13292
# Poissons Ratio (y) = 0.21931 -0.02371
# Poissons Ratio (z) = 0.42641 -0.07072
#
# Static dielectric constant tensor:
#      x y z
#    x 3.541910 0.000010 0.409860 
#    y 0.000010 3.552940 -0.000030 
#    z 0.409860 -0.000030 2.948760 
# 
# 
# High freq. dielectric constant tensor:
#      x y z
#    x 1.708230 0.000000 0.037530 
#    y 0.000000 1.715140 0.000000 
#    z 0.037530 0.000000 1.653890 
# 
# From -- ./inp_files/24266.got.cif
#   From: 2010.03.12/outbox.cif.g09.slc.cpg/sg8_13_cif.got.tgz:24266.got - 2010.03.31 10:45:26.
