data_PCOD8053242
_publ_section_title
;
Structure prediction by ZEFSAII (Michael W. Deem and Ramdas Pophale) SiO2 
 PCOD8053242
Probable space group: C M
;
_chemical_formula_sum "Si O2"
_cell_formula_units_Z 32
_cell_length_a 25.042100
_cell_length_b 8.983436
_cell_length_c 23.957095
_cell_angle_alpha 90.000000
_cell_angle_beta 17.789598
_cell_angle_gamma 90.000000
_cell_volume 1646.609038
_symmetry_space_group_name_H-M "C M"
_symmetry_group_IT_number 8
_symmetry_cell_setting 'monoclinic'
loop_
_space_group_symop_operation_xyz
x,y,z
x,-y,z
1/2+x,1/2+y,z
1/2+x,1/2-y,z
loop_
_atom_site_type_symbol
_atom_site_label
_atom_site_fract_x
_atom_site_fract_y
_atom_site_fract_z
Si Si1 0.879050 0.824499 0.719010
Si Si2 0.875799 0.823803 0.848274
Si Si3 0.171619 0.672170 0.746241
Si Si4 0.184931 0.824449 0.618937
Si Si5 0.581215 0.824498 0.223616
Si Si6 0.074000 0.823826 0.953601
Si Si7 0.078685 0.170299 0.339081
Si Si8 0.229109 0.826150 0.307060
O O1 0.867520 0.763390 0.793641
O O2 0.071522 0.786933 0.505297
O O3 0.839841 0.000000 0.752865
O O4 0.739225 0.737008 0.822169
O O5 0.059172 0.775139 0.693629
O O6 0.865202 0.000000 0.857299
O O7 0.711249 0.759357 0.047049
O O8 0.116142 0.500000 0.803217
O O9 0.117276 0.740167 0.741040
O O10 0.375808 0.694778 0.554049
O O11 0.068203 0.759171 0.896891
O O12 0.382855 0.774820 0.406799
O O13 0.175757 0.000000 0.639791
O O14 0.641283 0.765842 0.224136
O O15 0.597635 0.000000 0.209577
O O16 0.896575 0.768337 0.160277
O O17 0.082229 0.000000 0.943826
O O18 0.181358 0.222117 0.291630
O O19 0.117489 0.000000 0.285819
O O20 0.274586 0.000000 0.265069
#
# Coordination Sequence:
#
# PCOD8053242 Si02
#       8
#     4   4   4   4   4   4   4   4
#     4  10  21  42  65  85 114 156 201 246 288 340
#     4   9  19  35  59  85 110 145 194 238 280 340
#     4  10  19  36  59  84 116 153 194 238 287 347
#     4   9  18  33  52  82 118 149 183 231 288 342
#     4   9  18  32  52  82 116 148 181 226 283 340
#     4  12  25  38  57  87 120 155 192 242 300 352
#     4   9  18  34  56  83 115 149 188 235 284 339
#     4  10  21  38  60  86 115 153 199 242 288 348
#
# _framework density 19.433878
#
# number of rings (size 3 to 8) (size 9 to 14) (size 15 to 20)
#    0.000    2.250    1.250    1.500    1.750    2.500 
#    0.000    5.000    0.000    3.000    0.000    0.000 
#    0.000    0.000    0.000    0.000    0.000    0.000 
#
# Total GULP energy -198423.491033 kJ/mol
# GULP energy per Si atom -12401.468190 kJ/mol
# Density = 1.938965 g / cm^3
# Si number density = 19.433878 Si / 1000 Ang^3
#
#
#
# Elastic Constant Matrix: (Units=GPa)
#
#
# Indices 1 2 3 4 5 6 
#
# 1 101.1875 36.6532 50.0628 0.0182 22.3805 -0.0101
# 2 36.6532 66.5879 41.3130 0.0508 5.2889 -0.0175
# 3 50.0628 41.3130 109.0645 0.0445 21.5921 -0.0158
# 4 0.0182 0.0508 0.0445 19.8848 -0.0147 -2.5374
# 5 22.3805 5.2889 21.5921 -0.0147 26.1826 0.0024
# 6 -0.0101 -0.0175 -0.0158 -2.5374 0.0024 24.3936
#
#
#
# Elastic Compliance Matrix: (Units=1/GPa)
#
#
# Indices 1 2 3 4 5 6 
#
# 1 0.015695 -0.006002 -0.003005 0.000001 -0.009725 0.000001
# 2 -0.006002 0.022075 -0.006860 -0.000030 0.006328 0.000005
# 3 -0.003005 -0.006860 0.014776 -0.000019 -0.008231 0.000002
# 4 0.000001 -0.000030 -0.000019 0.050966 0.000049 0.005301
# 5 -0.009725 0.006328 -0.008231 0.000049 0.052016 -0.000005
# 6 0.000001 0.000005 0.000002 0.005301 -0.000005 0.041546
#
#
# Mechanical properties :
#
#
# Convention : Reuss Voigt Hill
#
# Bulk Modulus (GPa) = 48.04968 59.21089 53.63028
# Shear Modulus (GPa) = 21.20941 24.01292 22.61116
#
# Velocity S-wave (km/s) = 3.30716 3.51895 3.41470
# Velocity P-wave (km/s) = 6.27387 6.85892 6.57291
#
# Compressibility (1/GPa) = 0.02081179
#
# Stress axis : x y z
#
# Youngs Moduli (GPa) = 63.71637 45.30047 67.67587
#
# Poissons Ratio (x) = 0.27190 0.20339
# Poissons Ratio (y) = 0.38243 0.46423
# Poissons Ratio (z) = 0.19149 0.31074
#
# Static dielectric constant tensor:
#      x y z
#    x 3.656960 -0.000030 0.098970 
#    y -0.000030 3.321870 0.000010 
#    z 0.098970 0.000010 3.777920 
# 
# 
# High freq. dielectric constant tensor:
#      x y z
#    x 1.752670 0.000000 -0.001150 
#    y 0.000000 1.731140 0.000000 
#    z -0.001150 0.000000 1.769070 
# 
# From -- ./inp_files/32358.got.cif
#   From: 2010.03.12/outbox.cif.g09.slc.cpg/sg8_17_cif.got.tgz:32358.got - 2010.03.31 10:45:26.
