data_PCOD8053686
_publ_section_title
;
Structure prediction by ZEFSAII (Michael W. Deem and Ramdas Pophale) SiO2 
 PCOD8053686
Probable space group: C M
;
_chemical_formula_sum "Si O2"
_cell_formula_units_Z 32
_cell_length_a 19.362614
_cell_length_b 8.875637
_cell_length_c 12.025316
_cell_angle_alpha 90.000000
_cell_angle_beta 128.205669
_cell_angle_gamma 90.000000
_cell_volume 1623.938830
_symmetry_space_group_name_H-M "C M"
_symmetry_group_IT_number 8
_symmetry_cell_setting 'monoclinic'
loop_
_space_group_symop_operation_xyz
x,y,z
x,-y,z
1/2+x,1/2+y,z
1/2+x,1/2-y,z
loop_
_atom_site_type_symbol
_atom_site_label
_atom_site_fract_x
_atom_site_fract_y
_atom_site_fract_z
Si Si1 0.030010 0.169882 0.548170
Si Si2 0.307699 0.677550 0.557707
Si Si3 0.955670 0.821064 0.121005
Si Si4 0.289458 0.322051 0.096373
Si Si5 0.957199 0.178718 0.872160
Si Si6 0.111574 0.175560 0.866182
Si Si7 0.355038 0.823943 0.373443
Si Si8 0.627147 0.327682 0.425601
O O1 0.063704 0.209038 0.703215
O O2 0.108121 0.185398 0.537617
O O3 0.954369 0.285458 0.437356
O O4 0.991108 0.000000 0.505216
O O5 0.317103 0.500000 0.552437
O O6 0.371513 0.736568 0.719834
O O7 0.337229 0.754823 0.474810
O O8 0.207983 0.719201 0.483417
O O9 0.870134 0.760485 0.101463
O O10 0.044092 0.768846 0.271517
O O11 0.951839 0.000000 0.114135
O O12 0.955535 0.754280 0.995467
O O13 0.294919 0.500000 0.115103
O O14 0.289814 0.246605 0.217946
O O15 0.198564 0.275424 0.949414
O O16 0.046648 0.230444 0.899815
O O17 0.955114 0.000000 0.874282
O O18 0.135992 0.000000 0.902953
O O19 0.338431 0.000000 0.360748
O O20 0.650267 0.500000 0.415846
#
# Coordination Sequence:
#
# PCOD8053686 Si02
#       8
#     4   4   4   4   4   4   4   4
#     4  10  20  40  64  87 122 165 206 253 309 359
#     4  11  23  40  62  89 124 161 203 253 309 365
#     4   9  19  37  60  85 119 161 200 241 296 359
#     4  11  23  40  62  89 124 161 203 253 309 365
#     4   9  19  37  60  85 119 161 200 241 296 359
#     4  10  21  38  61  88 121 161 205 251 303 361
#     4  12  24  40  64  89 118 157 212 263 307 363
#     4  10  21  38  61  88 121 161 205 251 303 361
#
# _framework density 19.705176999999999
#
# number of rings (size 3 to 8) (size 9 to 14) (size 15 to 20)
#    0.000    1.750    2.500    1.875    3.500    1.000 
#    0.000    0.000    0.000    3.000    0.000    0.000 
#    0.000    0.000    0.000    0.000    0.000    0.000 
#
# Total GULP energy -198439.575242 kJ/mol
# GULP energy per Si atom -12402.473453 kJ/mol
# Density = 1.966033 g / cm^3
# Si number density = 19.705177 Si / 1000 Ang^3
#
#
#
# Elastic Constant Matrix: (Units=GPa)
#
#
# Indices 1 2 3 4 5 6 
#
# 1 101.8872 28.1454 57.9705 0.0000 6.4933 0.0000
# 2 28.1454 65.0661 26.0836 0.0000 -1.2211 0.0000
# 3 57.9705 26.0836 88.1183 0.0000 -14.7050 0.0000
# 4 0.0000 0.0000 0.0000 23.7714 0.0000 7.8915
# 5 6.4933 -1.2211 -14.7050 0.0000 37.6942 0.0000
# 6 0.0000 0.0000 0.0000 7.8915 0.0000 30.3344
#
#
#
# Elastic Compliance Matrix: (Units=1/GPa)
#
#
# Indices 1 2 3 4 5 6 
#
# 1 0.018270 -0.003057 -0.012468 0.000000 -0.008110 0.000000
# 2 -0.003057 0.018035 -0.003361 0.000000 -0.000200 0.000000
# 3 -0.012468 -0.003361 0.022340 0.000000 0.010754 0.000000
# 4 0.000000 0.000000 0.000000 0.046044 0.000000 -0.011978
# 5 -0.008110 -0.000200 0.010754 0.000000 0.032115 0.000000
# 6 0.000000 0.000000 0.000000 -0.011978 0.000000 0.036082
#
#
# Mechanical properties :
#
#
# Convention : Reuss Voigt Hill
#
# Bulk Modulus (GPa) = 47.90718 53.27450 50.59084
# Shear Modulus (GPa) = 22.97647 27.88482 25.43064
#
# Velocity S-wave (km/s) = 3.41840 3.76586 3.59633
# Velocity P-wave (km/s) = 6.32023 6.78258 6.55549
#
# Compressibility (1/GPa) = 0.02087370
#
# Stress axis : x y z
#
# Youngs Moduli (GPa) = 54.73523 55.44820 44.76311
#
# Poissons Ratio (x) = 0.16951 0.55809
# Poissons Ratio (y) = 0.16733 0.15044
# Poissons Ratio (z) = 0.68242 0.18634
#
# Static dielectric constant tensor:
#      x y z
#    x 3.904380 0.000000 -0.131590 
#    y 0.000000 3.347850 0.000000 
#    z -0.131590 0.000000 3.791140 
# 
# 
# High freq. dielectric constant tensor:
#      x y z
#    x 1.777370 0.000000 -0.005520 
#    y 0.000000 1.736990 0.000000 
#    z -0.005520 0.000000 1.781410 
# 
# From -- ./inp_files/23868.got.cif
#   From: 2010.03.12/outbox.cif.g09.slc.cpg/sg8_12_cif.got.tgz:23868.got - 2010.03.31 10:45:26.
