data_PCOD8053378
_publ_section_title
;
Structure prediction by ZEFSAII (Michael W. Deem and Ramdas Pophale) SiO2 
 PCOD8053378
Probable space group: C M
;
_chemical_formula_sum "Si O2"
_cell_formula_units_Z 32
_cell_length_a 33.005980
_cell_length_b 9.228716
_cell_length_c 12.493787
_cell_angle_alpha 90.000000
_cell_angle_beta 26.380592
_cell_angle_gamma 90.000000
_cell_volume 1690.967866
_symmetry_space_group_name_H-M "C M"
_symmetry_group_IT_number 8
_symmetry_cell_setting 'monoclinic'
loop_
_space_group_symop_operation_xyz
x,y,z
x,-y,z
1/2+x,1/2+y,z
1/2+x,1/2-y,z
loop_
_atom_site_type_symbol
_atom_site_label
_atom_site_fract_x
_atom_site_fract_y
_atom_site_fract_z
Si Si1 0.505410 0.828357 0.943830
Si Si2 0.563070 0.333755 0.208077
Si Si3 0.946967 0.164007 0.681362
Si Si4 0.885864 0.327425 0.027368
Si Si5 0.250786 0.833143 0.853572
Si Si6 0.945499 0.672558 0.316424
Si Si7 0.248547 0.662584 0.066244
Si Si8 0.703225 0.828317 0.408145
O O1 0.609054 0.773517 0.682752
O O2 0.506651 0.000000 0.939491
O O3 0.439288 0.773791 0.006229
O O4 0.468178 0.768230 0.144449
O O5 0.536831 0.500000 0.244371
O O6 0.528242 0.292055 0.409360
O O7 0.521315 0.230857 0.217655
O O8 0.672312 0.310986 0.950083
O O9 0.957882 0.000000 0.699475
O O10 0.944094 0.273544 0.787666
O O11 0.856375 0.177264 0.825393
O O12 0.876253 0.500000 0.044181
O O13 0.785945 0.256209 0.268532
O O14 0.345410 0.767584 0.584805
O O15 0.265210 0.000000 0.846463
O O16 0.217679 0.761455 0.041710
O O17 0.948732 0.500000 0.311452
O O18 0.220020 0.500000 0.104381
O O19 0.198536 0.711826 0.293526
O O20 0.720682 0.000000 0.380529
#
# Coordination Sequence:
#
# PCOD8053378 Si02
#       8
#     4   4   4   4   4   4   4   4
#     4   9  20  38  58  78 109 150 186 221 269 326
#     4  10  21  37  55  79 111 147 181 222 277 327
#     4   9  18  34  54  77 113 150 176 216 274 330
#     4  10  20  34  56  85 111 139 180 229 273 319
#     4  10  21  34  53  81 110 140 176 225 278 318
#     4  10  21  39  58  79 109 146 187 228 268 318
#     4   9  17  31  54  78 106 141 178 219 267 324
#     4   9  19  37  56  77 109 149 182 218 272 326
#
# _framework density 18.924074000000001
#
# number of rings (size 3 to 8) (size 9 to 14) (size 15 to 20)
#    0.000    2.500    1.250    1.125    1.750    4.000 
#    0.000    4.375    0.000    0.000    0.000    0.000 
#    0.000    0.000    0.000    0.000    0.000    0.000 
#
# Total GULP energy -198393.624610 kJ/mol
# GULP energy per Si atom -12399.601538 kJ/mol
# Density = 1.888100 g / cm^3
# Si number density = 18.924074 Si / 1000 Ang^3
#
#
#
# Elastic Constant Matrix: (Units=GPa)
#
#
# Indices 1 2 3 4 5 6 
#
# 1 123.5325 43.6614 65.8392 0.0000 0.6905 0.0000
# 2 43.6614 47.4823 31.5919 0.0000 0.0907 0.0000
# 3 65.8392 31.5919 107.2375 0.0000 3.3121 0.0000
# 4 0.0000 0.0000 0.0000 21.6114 0.0000 -0.9704
# 5 0.6905 0.0907 3.3121 0.0000 22.9634 0.0000
# 6 0.0000 0.0000 0.0000 -0.9704 0.0000 27.5036
#
#
#
# Elastic Compliance Matrix: (Units=1/GPa)
#
#
# Indices 1 2 3 4 5 6 
#
# 1 0.014780 -0.009383 -0.006326 0.000000 0.000505 0.000000
# 2 -0.009383 0.032175 -0.003739 0.000000 0.000694 0.000000
# 3 -0.006326 -0.003739 0.014368 0.000000 -0.001867 0.000000
# 4 0.000000 0.000000 0.000000 0.046345 0.000000 0.001635
# 5 0.000505 0.000694 -0.001867 0.000000 0.043799 0.000000
# 6 0.000000 0.000000 0.000000 0.001635 0.000000 0.036417
#
#
# Mechanical properties :
#
#
# Convention : Reuss Voigt Hill
#
# Bulk Modulus (GPa) = 44.58896 62.27080 53.42988
# Shear Modulus (GPa) = 21.34425 23.55968 22.45196
#
# Velocity S-wave (km/s) = 3.36205 3.53222 3.44819
# Velocity P-wave (km/s) = 6.21967 7.04361 6.64443
#
# Compressibility (1/GPa) = 0.02242708
#
# Stress axis : x y z
#
# Youngs Moduli (GPa) = 67.65962 31.08009 69.59869
#
# Poissons Ratio (x) = 0.29162 0.44026
# Poissons Ratio (y) = 0.63484 0.26026
# Poissons Ratio (z) = 0.42799 0.11622
#
# Static dielectric constant tensor:
#      x y z
#    x 3.367140 0.000000 0.032480 
#    y 0.000000 3.238190 0.000000 
#    z 0.032480 0.000000 3.659400 
# 
# 
# High freq. dielectric constant tensor:
#      x y z
#    x 1.729030 0.000000 -0.004250 
#    y 0.000000 1.714270 0.000000 
#    z -0.004250 0.000000 1.743330 
# 
# From -- ./inp_files/21612.got.cif
#   From: 2010.03.12/outbox.cif.g09.slc.cpg/sg8_11_cif.got.tgz:21612.got - 2010.03.31 10:45:26.
