data_PCOD8053501
_publ_section_title
;
Structure prediction by ZEFSAII (Michael W. Deem and Ramdas Pophale) SiO2 
 PCOD8053501
Probable space group: C M
;
_chemical_formula_sum "Si O2"
_cell_formula_units_Z 32
_cell_length_a 15.477566
_cell_length_b 8.728592
_cell_length_c 22.890482
_cell_angle_alpha 90.000000
_cell_angle_beta 31.546557
_cell_angle_gamma 90.000000
_cell_volume 1617.939385
_symmetry_space_group_name_H-M "C M"
_symmetry_group_IT_number 8
_symmetry_cell_setting 'monoclinic'
loop_
_space_group_symop_operation_xyz
x,y,z
x,-y,z
1/2+x,1/2+y,z
1/2+x,1/2-y,z
loop_
_atom_site_type_symbol
_atom_site_label
_atom_site_fract_x
_atom_site_fract_y
_atom_site_fract_z
Si Si1 0.148400 0.675426 0.678090
Si Si2 0.787100 0.681754 0.031533
Si Si3 0.348244 0.178998 0.661993
Si Si4 0.774608 0.322235 0.906948
Si Si5 0.633558 0.180384 0.881098
Si Si6 0.940810 0.177937 0.430100
Si Si7 0.139270 0.181955 0.426831
Si Si8 0.467640 0.317400 0.284596
O O1 0.179053 0.500000 0.681346
O O2 0.207489 0.785584 0.695621
O O3 0.252645 0.709146 0.559324
O O4 0.957492 0.704775 0.775654
O O5 0.793996 0.500000 0.027007
O O6 0.636893 0.740497 0.157883
O O7 0.763788 0.741953 0.979021
O O8 0.958596 0.744737 0.958779
O O9 0.284020 0.237652 0.761225
O O10 0.519338 0.262353 0.547682
O O11 0.383932 0.000000 0.645167
O O12 0.724844 0.500000 0.933008
O O13 0.647928 0.224532 0.940985
O O14 0.646823 0.000000 0.864471
O O15 0.067859 0.243454 0.405615
O O16 0.964584 0.251759 0.352330
O O17 0.977328 0.000000 0.402717
O O18 0.319735 0.250413 0.331440
O O19 0.146165 0.000000 0.423948
O O20 0.452450 0.500000 0.293172
#
# Coordination Sequence:
#
# PCOD8053501 Si02
#       8
#     4   4   4   4   4   4   4   4
#     4   9  17  34  57  80 117 157 188 232 292 349
#     4   9  20  39  59  79 115 158 194 238 293 344
#     4  11  21  35  58  87 118 152 192 240 292 350
#     4  10  20  36  57  83 116 156 195 237 294 348
#     4  11  22  38  58  85 116 154 197 241 291 348
#     4   8  17  33  55  81 111 148 186 226 283 344
#     4  10  21  38  57  84 118 153 186 237 299 345
#     4  10  20  37  61  85 109 152 204 239 278 346
#
# _framework density 19.778244000000001
#
# number of rings (size 3 to 8) (size 9 to 14) (size 15 to 20)
#    0.000    2.250    1.250    2.625    1.750    1.500 
#    0.000    6.250    0.000    0.000    0.000    0.000 
#    0.000    0.000    0.000    0.000    0.000    0.000 
#
# Total GULP energy -198401.450471 kJ/mol
# GULP energy per Si atom -12400.090654 kJ/mol
# Density = 1.973323 g / cm^3
# Si number density = 19.778244 Si / 1000 Ang^3
#
#
#
# Elastic Constant Matrix: (Units=GPa)
#
#
# Indices 1 2 3 4 5 6 
#
# 1 133.0730 23.6571 69.3772 0.0000 11.4350 0.0000
# 2 23.6571 46.4053 26.2904 0.0000 -1.0858 -0.0001
# 3 69.3772 26.2904 130.3234 0.0002 10.8573 0.0000
# 4 0.0000 0.0000 0.0002 19.3249 -0.0002 -3.5509
# 5 11.4350 -1.0858 10.8573 -0.0002 28.9654 0.0000
# 6 0.0000 -0.0001 0.0000 -3.5509 0.0000 30.4538
#
#
#
# Elastic Compliance Matrix: (Units=1/GPa)
#
#
# Indices 1 2 3 4 5 6 
#
# 1 0.010824 -0.002744 -0.005000 0.000000 -0.002502 0.000000
# 2 -0.002744 0.025254 -0.003926 0.000000 0.003501 0.000000
# 3 -0.005000 -0.003926 0.011329 0.000000 -0.002419 0.000000
# 4 0.000000 0.000000 0.000000 0.052880 0.000000 0.006166
# 5 -0.002502 0.003501 -0.002419 0.000000 0.036550 0.000000
# 6 0.000000 0.000000 0.000000 0.006166 0.000000 0.033556
#
#
# Mechanical properties :
#
#
# Convention : Reuss Voigt Hill
#
# Bulk Modulus (GPa) = 41.54994 60.93901 51.24447
# Shear Modulus (GPa) = 24.78268 28.44730 26.61499
#
# Velocity S-wave (km/s) = 3.54365 3.79662 3.67232
# Velocity P-wave (km/s) = 6.14791 7.07793 6.62925
#
# Compressibility (1/GPa) = 0.02406742
#
# Stress axis : x y z
#
# Youngs Moduli (GPa) = 92.38419 39.59782 88.27200
#
# Poissons Ratio (x) = 0.10865 0.44139
# Poissons Ratio (y) = 0.25349 0.34652
# Poissons Ratio (z) = 0.46195 0.15544
#
# Static dielectric constant tensor:
#      x y z
#    x 3.734450 0.000000 0.102850 
#    y 0.000000 3.259410 0.000000 
#    z 0.102850 0.000000 3.720640 
# 
# 
# High freq. dielectric constant tensor:
#      x y z
#    x 1.777010 0.000000 0.002470 
#    y 0.000000 1.738950 0.000000 
#    z 0.002470 0.000000 1.770150 
# 
# From -- ./inp_files/24356.got.cif
#   From: 2010.03.12/outbox.cif.g09.slc.cpg/sg8_13_cif.got.tgz:24356.got - 2010.03.31 10:45:26.
