data_PCOD8053248
_publ_section_title
;
Structure prediction by ZEFSAII (Michael W. Deem and Ramdas Pophale) SiO2 
 PCOD8053248
Probable space group: C M
;
_chemical_formula_sum "Si O2"
_cell_formula_units_Z 28
_cell_length_a 20.240649
_cell_length_b 11.846768
_cell_length_c 17.262163
_cell_angle_alpha 90.000000
_cell_angle_beta 159.866789
_cell_angle_gamma 90.000000
_cell_volume 1424.739324
_symmetry_space_group_name_H-M "C M"
_symmetry_group_IT_number 8
_symmetry_cell_setting 'monoclinic'
loop_
_space_group_symop_operation_xyz
x,y,z
x,-y,z
1/2+x,1/2+y,z
1/2+x,1/2-y,z
loop_
_atom_site_type_symbol
_atom_site_label
_atom_site_fract_x
_atom_site_fract_y
_atom_site_fract_z
Si Si1 0.595670 0.131492 0.209080
Si Si2 0.656597 0.280743 0.421339
Si Si3 0.062659 0.297516 0.897796
Si Si4 0.222837 0.259199 0.766212
Si Si5 0.251106 0.371291 0.958222
Si Si6 0.821276 0.867811 0.717656
Si Si7 0.340796 0.626712 0.330518
O O1 0.682224 0.205520 0.372943
O O2 0.718416 0.165404 0.269418
O O3 0.613535 0.000000 0.249082
O O4 0.371762 0.159251 0.948878
O O5 0.480513 0.365245 0.220517
O O6 0.639270 0.192125 0.474418
O O7 0.851735 0.354070 0.650503
O O8 0.159006 0.285553 0.919245
O O9 0.201545 0.373047 0.102880
O O10 0.018874 0.178131 0.893820
O O11 0.313278 0.338262 0.799537
O O12 0.021788 0.207647 0.516948
O O13 0.186335 0.334983 0.801623
O O14 0.186108 0.500000 0.901707
O O15 0.812322 0.000000 0.696125
O O16 0.417967 0.500000 0.426226
#
# Coordination Sequence:
#
# PCOD8053248 Si02
#       7
#     4   4   4   4   4   4   4
#     4  10  19  36  60  88 121 158 198 248 301 346
#     4   9  21  38  62  87 119 153 203 248 292 357
#     4  10  22  40  59  88 124 153 204 250 287 363
#     4  11  22  40  60  90 126 155 202 247 293 365
#     4  11  23  40  63  90 122 160 196 246 304 356
#     4  10  21  41  63  84 120 161 196 246 300 349
#     4  11  22  37  61  89 122 160 199 247 299 350
#
# _framework density 19.652716999999999
#
# number of rings (size 3 to 8) (size 9 to 14) (size 15 to 20)
#    0.857    0.857    1.429    3.429    0.000    1.143 
#    0.000    7.143    0.000    0.000    0.000    0.000 
#    0.000    0.000    0.000    0.000    0.000    0.000 
#
# Total GULP energy -173500.908243 kJ/mol
# GULP energy per Si atom -12392.922017 kJ/mol
# Density = 1.960799 g / cm^3
# Si number density = 19.652717 Si / 1000 Ang^3
#
#
#
# Elastic Constant Matrix: (Units=GPa)
#
#
# Indices 1 2 3 4 5 6 
#
# 1 144.8186 38.1677 27.9769 0.0019 -10.7280 0.0013
# 2 38.1677 79.0419 23.4746 0.0052 1.8303 0.0035
# 3 27.9769 23.4746 111.5248 0.0083 -2.2780 0.0039
# 4 0.0019 0.0052 0.0083 14.9613 0.0046 4.8826
# 5 -10.7280 1.8303 -2.2780 0.0046 29.5090 0.0020
# 6 0.0013 0.0035 0.0039 4.8826 0.0020 19.3897
#
#
#
# Elastic Compliance Matrix: (Units=1/GPa)
#
#
# Indices 1 2 3 4 5 6 
#
# 1 0.008368 -0.003744 -0.001246 0.000000 0.003178 0.000000
# 2 -0.003744 0.015204 -0.002312 -0.000002 -0.002483 -0.000001
# 3 -0.001246 -0.002312 0.009775 -0.000004 0.000445 0.000000
# 4 0.000000 -0.000002 -0.000004 0.072824 -0.000010 -0.018338
# 5 0.003178 -0.002483 0.000445 -0.000010 0.035232 -0.000001
# 6 0.000000 -0.000001 0.000000 -0.018338 -0.000001 0.056192
#
#
# Mechanical properties :
#
#
# Convention : Reuss Voigt Hill
#
# Bulk Modulus (GPa) = 53.35471 57.18041 55.26756
# Shear Modulus (GPa) = 22.88900 29.15641 26.02270
#
# Velocity S-wave (km/s) = 3.41643 3.85591 3.64280
# Velocity P-wave (km/s) = 6.53991 6.99876 6.77322
#
# Compressibility (1/GPa) = 0.01874249
#
# Stress axis : x y z
#
# Youngs Moduli (GPa) = 119.49966 65.77397 102.30310
#
# Poissons Ratio (x) = 0.24628 0.12749
# Poissons Ratio (y) = 0.44745 0.23648
# Poissons Ratio (z) = 0.14892 0.15204
#
# Static dielectric constant tensor:
#      x y z
#    x 3.698760 0.000000 -0.115500 
#    y 0.000000 3.184130 -0.000010 
#    z -0.115500 -0.000010 3.530770 
# 
# 
# High freq. dielectric constant tensor:
#      x y z
#    x 1.781700 0.000000 -0.010620 
#    y 0.000000 1.740850 0.000000 
#    z -0.010620 0.000000 1.765130 
# 
# From -- ./inp_files/29880.got.cif
#   From: 2010.03.12/outbox.cif.g09.slc.cpg/sg8_15_cif.got.tgz:29880.got - 2010.03.31 10:45:26.
