data_PCOD8053598
_publ_section_title
;
Structure prediction by ZEFSAII (Michael W. Deem and Ramdas Pophale) SiO2 
 PCOD8053598
Probable space group: C M
;
_chemical_formula_sum "Si O2"
_cell_formula_units_Z 32
_cell_length_a 15.037774
_cell_length_b 8.520337
_cell_length_c 12.269675
_cell_angle_alpha 90.000000
_cell_angle_beta 90.035506
_cell_angle_gamma 90.000000
_cell_volume 1572.075147
_symmetry_space_group_name_H-M "C M"
_symmetry_group_IT_number 8
_symmetry_cell_setting 'monoclinic'
loop_
_space_group_symop_operation_xyz
x,y,z
x,-y,z
1/2+x,1/2+y,z
1/2+x,1/2-y,z
loop_
_atom_site_type_symbol
_atom_site_label
_atom_site_fract_x
_atom_site_fract_y
_atom_site_fract_z
Si Si1 0.463180 0.679708 0.675910
Si Si2 0.958747 0.822885 0.915253
Si Si3 0.123708 0.813305 0.528835
Si Si4 0.650157 0.818648 0.292914
Si Si5 0.303746 0.185712 0.159352
Si Si6 0.777445 0.677680 0.927191
Si Si7 0.998885 0.820301 0.149933
Si Si8 0.771749 0.685704 0.693190
O O1 0.440300 0.500000 0.651912
O O2 0.506536 0.697682 0.797838
O O3 0.534156 0.742161 0.589230
O O4 0.372249 0.773933 0.661255
O O5 0.884326 0.689390 0.922322
O O6 0.917226 0.000000 0.921679
O O7 0.022499 0.800523 0.020500
O O8 0.124546 0.729372 0.413988
O O9 0.206275 0.749983 0.600600
O O10 0.127483 0.000000 0.514310
O O11 0.737810 0.722824 0.258153
O O12 0.566125 0.786987 0.216194
O O13 0.674455 0.000000 0.287800
O O14 0.397559 0.271940 0.176222
O O15 0.321342 0.000000 0.152317
O O16 0.254216 0.248060 0.047081
O O17 0.744703 0.500000 0.926155
O O18 0.743996 0.758018 0.813532
O O19 0.012398 0.000000 0.186742
O O20 0.763239 0.500000 0.702008
#
# Coordination Sequence:
#
# PCOD8053598 Si02
#       8
#     4   4   4   4   4   4   4   4
#     4   9  18  34  57  83 111 142 176 218 271 329
#     4   8  15  29  53  84 113 140 172 214 268 331
#     4  10  22  39  56  76 106 145 189 232 275 326
#     4  12  26  41  56  78 110 149 197 242 279 326
#     4  10  20  37  61  87 116 148 183 226 279 335
#     4   8  15  29  53  84 113 140 172 214 268 331
#     4  10  20  37  61  87 116 148 183 226 279 335
#     4   9  18  34  57  83 111 142 176 218 271 329
#
# _framework density 20.355260999999999
#
# number of rings (size 3 to 8) (size 9 to 14) (size 15 to 20)
#    0.000    2.500    0.000    1.875    0.000    4.000 
#    0.000    6.250    0.000    1.500    0.000    0.000 
#    0.000    0.000    0.000    0.000    0.000    0.000 
#
# Total GULP energy -198222.367423 kJ/mol
# GULP energy per Si atom -12388.897964 kJ/mol
# Density = 2.030893 g / cm^3
# Si number density = 20.355261 Si / 1000 Ang^3
#
#
#
# Elastic Constant Matrix: (Units=GPa)
#
#
# Indices 1 2 3 4 5 6 
#
# 1 37.4868 4.2934 2.1182 0.0000 2.6113 0.0000
# 2 4.2934 40.6741 15.5516 0.0000 0.0078 0.0000
# 3 2.1182 15.5516 81.6305 0.0000 -3.5905 0.0000
# 4 0.0000 0.0000 0.0000 23.1556 0.0000 -0.6385
# 5 2.6113 0.0078 -3.5905 0.0000 34.5434 0.0000
# 6 0.0000 0.0000 0.0000 -0.6385 0.0000 27.0510
#
#
#
# Elastic Compliance Matrix: (Units=1/GPa)
#
#
# Indices 1 2 3 4 5 6 
#
# 1 0.027153 -0.002763 -0.000270 0.000000 -0.002080 0.000000
# 2 -0.002763 0.026808 -0.005050 0.000000 -0.000322 0.000000
# 3 -0.000270 -0.005050 0.013281 0.000000 0.001402 0.000000
# 4 0.000000 0.000000 0.000000 0.043214 0.000000 0.001020
# 5 -0.002080 -0.000322 0.001402 0.000000 0.029252 0.000000
# 6 0.000000 0.000000 0.000000 0.001020 0.000000 0.036991
#
#
# Mechanical properties :
#
#
# Convention : Reuss Voigt Hill
#
# Bulk Modulus (GPa) = 19.57807 22.63531 21.10669
# Shear Modulus (GPa) = 23.82206 26.13853 24.98029
#
# Velocity S-wave (km/s) = 3.42470 3.58734 3.50696
# Velocity P-wave (km/s) = 5.02764 5.32006 5.17591
#
# Compressibility (1/GPa) = 0.05107756
#
# Stress axis : x y z
#
# Youngs Moduli (GPa) = 36.82884 37.30214 75.29535
#
# Poissons Ratio (x) = 0.10305 0.02031
# Poissons Ratio (y) = 0.10174 0.38022
# Poissons Ratio (z) = 0.00993 0.18837
#
# Static dielectric constant tensor:
#      x y z
#    x 3.432630 0.000000 0.040560 
#    y 0.000000 3.513300 0.000000 
#    z 0.040560 0.000000 4.060780 
# 
# 
# High freq. dielectric constant tensor:
#      x y z
#    x 1.772090 0.000000 0.000210 
#    y 0.000000 1.778020 0.000000 
#    z 0.000210 0.000000 1.811130 
# 
# From -- ./inp_files/21567.got.cif
#   From: 2010.03.12/outbox.cif.g09.slc.cpg/sg8_11_cif.got.tgz:21567.got - 2010.03.31 10:45:26.
