data_PCOD8053951
_publ_section_title
;
Structure prediction by ZEFSAII (Michael W. Deem and Ramdas Pophale) SiO2 
 PCOD8053951
Probable space group: C M
;
_chemical_formula_sum "Si O2"
_cell_formula_units_Z 32
_cell_length_a 11.594962
_cell_length_b 13.594981
_cell_length_c 19.605864
_cell_angle_alpha 90.000000
_cell_angle_beta 151.217492
_cell_angle_gamma 90.000000
_cell_volume 1488.050581
_symmetry_space_group_name_H-M "C M"
_symmetry_group_IT_number 8
_symmetry_cell_setting 'monoclinic'
loop_
_space_group_symop_operation_xyz
x,y,z
x,-y,z
1/2+x,1/2+y,z
1/2+x,1/2-y,z
loop_
_atom_site_type_symbol
_atom_site_label
_atom_site_fract_x
_atom_site_fract_y
_atom_site_fract_z
Si Si1 0.211160 0.707570 0.507290
Si Si2 0.621814 0.112232 0.214471
Si Si3 0.889442 0.114978 0.990236
Si Si4 0.222723 0.886362 0.285522
Si Si5 0.041476 0.111530 0.339347
Si Si6 0.437548 0.386395 0.502069
Si Si7 0.914319 0.738586 0.746939
Si Si8 0.587139 0.384435 0.943822
O O1 0.282663 0.624310 0.490270
O O2 0.409297 0.712566 0.669395
O O3 0.960939 0.677837 0.411699
O O4 0.203612 0.814574 0.467310
O O5 0.761304 0.124733 0.214870
O O6 0.784151 0.158072 0.359250
O O7 0.580057 0.000000 0.213514
O O8 0.356920 0.158020 0.072784
O O9 0.641293 0.169353 0.871251
O O10 0.009396 0.138987 0.980260
O O11 0.838713 0.000000 0.972984
O O12 0.070499 0.152335 0.142522
O O13 0.067015 0.867251 0.272645
O O14 0.291531 0.000000 0.313199
O O15 0.125376 0.000000 0.400735
O O16 0.502057 0.500000 0.522899
O O17 0.678700 0.325706 0.635664
O O18 0.916528 0.825330 0.803892
O O19 0.564340 0.500000 0.914865
#
# Coordination Sequence:
#
# PCOD8053951 Si02
#       8
#     4   4   4   4   4   4   4   4
#     4  12  24  40  64  96 127 166 212 260 313 372
#     4   9  19  41  69  91 118 164 214 262 311 366
#     4  10  23  44  66  92 124 165 212 262 316 374
#     4  10  23  43  67  95 124 161 211 268 318 367
#     4  10  22  40  64  95 129 162 206 261 319 371
#     4  11  23  42  66  94 125 163 210 263 317 371
#     4  12  25  40  62  94 131 170 210 249 315 383
#     4  10  23  44  67  91 126 169 214 259 312 374
#
# _framework density 21.504643999999999
#
# number of rings (size 3 to 8) (size 9 to 14) (size 15 to 20)
#    0.000    1.500    1.250    3.000    1.750    4.500 
#    2.250    3.125    0.000    0.000    0.000    0.000 
#    0.000    0.000    0.000    0.000    0.000    0.000 
#
# Total GULP energy -198440.834869 kJ/mol
# GULP energy per Si atom -12402.552179 kJ/mol
# Density = 2.145570 g / cm^3
# Si number density = 21.504644 Si / 1000 Ang^3
#
#
#
# Elastic Constant Matrix: (Units=GPa)
#
#
# Indices 1 2 3 4 5 6 
#
# 1 117.5431 22.0926 29.3171 -0.0013 -13.2633 -0.0009
# 2 22.0926 64.1114 27.2026 -0.0080 -2.8100 -0.0038
# 3 29.3171 27.2026 105.5924 -0.0119 -11.0040 -0.0071
# 4 -0.0013 -0.0080 -0.0119 31.0549 -0.0055 0.4727
# 5 -13.2633 -2.8100 -11.0040 -0.0055 39.5603 -0.0026
# 6 -0.0009 -0.0038 -0.0071 0.4727 -0.0026 35.1748
#
#
#
# Elastic Compliance Matrix: (Units=1/GPa)
#
#
# Indices 1 2 3 4 5 6 
#
# 1 0.009710 -0.002474 -0.001790 0.000000 0.002582 0.000000
# 2 -0.002474 0.018142 -0.004057 0.000003 -0.000669 0.000001
# 3 -0.001790 -0.004057 0.011246 0.000004 0.002240 0.000002
# 4 0.000000 0.000003 0.000004 0.032208 0.000005 -0.000433
# 5 0.002582 -0.000669 0.002240 0.000005 0.026719 0.000002
# 6 0.000000 0.000001 0.000002 -0.000433 0.000002 0.028435
#
#
# Mechanical properties :
#
#
# Convention : Reuss Voigt Hill
#
# Bulk Modulus (GPa) = 44.52710 49.38573 46.95642
# Shear Modulus (GPa) = 33.20363 35.06699 34.13531
#
# Velocity S-wave (km/s) = 3.93367 4.04254 3.98847
# Velocity P-wave (km/s) = 6.43292 6.69361 6.56456
#
# Compressibility (1/GPa) = 0.02245823
#
# Stress axis : x y z
#
# Youngs Moduli (GPa) = 102.98508 55.12016 88.92217
#
# Poissons Ratio (x) = 0.13634 0.15914
# Poissons Ratio (y) = 0.25474 0.36073
# Poissons Ratio (z) = 0.18431 0.22361
#
# Static dielectric constant tensor:
#      x y z
#    x 3.987550 0.000000 -0.073680 
#    y 0.000000 3.935690 -0.000010 
#    z -0.073680 -0.000010 3.853790 
# 
# 
# High freq. dielectric constant tensor:
#      x y z
#    x 1.856130 0.000000 -0.002460 
#    y 0.000000 1.858440 0.000000 
#    z -0.002460 0.000000 1.831590 
# 
# From -- ./inp_files/28890.got.cif
#   From: 2010.03.12/outbox.cif.g09.slc.cpg/sg8_15_cif.got.tgz:28890.got - 2010.03.31 10:45:26.
