data_PCOD8053481
_publ_section_title
;
Structure prediction by ZEFSAII (Michael W. Deem and Ramdas Pophale) SiO2 
 PCOD8053481
Probable space group: C M
;
_chemical_formula_sum "Si O2"
_cell_formula_units_Z 32
_cell_length_a 23.609999
_cell_length_b 8.999125
_cell_length_c 14.201115
_cell_angle_alpha 90.000000
_cell_angle_beta 32.571025
_cell_angle_gamma 90.000000
_cell_volume 1624.348169
_symmetry_space_group_name_H-M "C M"
_symmetry_group_IT_number 8
_symmetry_cell_setting 'monoclinic'
loop_
_space_group_symop_operation_xyz
x,y,z
x,-y,z
1/2+x,1/2+y,z
1/2+x,1/2-y,z
loop_
_atom_site_type_symbol
_atom_site_label
_atom_site_fract_x
_atom_site_fract_y
_atom_site_fract_z
Si Si1 0.091140 0.174985 0.208090
Si Si2 0.932312 0.175161 0.921362
Si Si3 0.423112 0.174951 0.554885
Si Si4 0.536328 0.827401 0.096474
Si Si5 0.352770 0.829468 0.213976
Si Si6 0.172257 0.171805 0.605464
Si Si7 0.332687 0.173709 0.882207
Si Si8 0.243664 0.673467 0.688798
O O1 0.034784 0.230240 0.192426
O O2 0.035943 0.251899 0.374990
O O3 0.077362 0.000000 0.235053
O O4 0.212293 0.223394 0.038458
O O5 0.884033 0.236820 0.894026
O O6 0.053219 0.227997 0.758518
O O7 0.924510 0.000000 0.929738
O O8 0.864827 0.232343 0.103899
O O9 0.393427 0.218140 0.702457
O O10 0.339019 0.237769 0.599851
O O11 0.429010 0.000000 0.532637
O O12 0.436225 0.778243 0.175623
O O13 0.530625 0.000000 0.132738
O O14 0.639427 0.789398 0.892861
O O15 0.235327 0.807369 0.419219
O O16 0.374208 0.000000 0.156198
O O17 0.228392 0.272539 0.604111
O O18 0.175624 0.000000 0.633194
O O19 0.341120 0.000000 0.892426
O O20 0.270552 0.500000 0.651541
#
# Coordination Sequence:
#
# PCOD8053481 Si02
#       8
#     4   4   4   4   4   4   4   4
#     4  11  23  40  63  92 121 156 201 249 300 356
#     4  11  24  40  61  89 118 153 202 254 300 348
#     4  11  23  41  63  90 123 161 198 241 302 362
#     4  10  20  35  60  92 124 160 197 241 299 358
#     4  10  21  40  62  86 120 160 197 237 297 361
#     4  10  22  39  61  89 122 160 198 243 300 358
#     4  10  24  44  63  83 116 161 203 245 300 358
#     4  11  21  35  61  95 124 157 200 246 296 353
#
# _framework density 19.700209999999998
#
# number of rings (size 3 to 8) (size 9 to 14) (size 15 to 20)
#    0.000    1.500    2.500    2.250    0.000    6.000 
#    0.000    3.750    0.000    0.000    0.000    0.000 
#    0.000    0.000    0.000    0.000    0.000    0.000 
#
# Total GULP energy -198497.944880 kJ/mol
# GULP energy per Si atom -12406.121555 kJ/mol
# Density = 1.965537 g / cm^3
# Si number density = 19.700210 Si / 1000 Ang^3
#
#
#
# Elastic Constant Matrix: (Units=GPa)
#
#
# Indices 1 2 3 4 5 6 
#
# 1 116.1556 54.3680 36.4018 0.0000 21.9651 -0.0001
# 2 54.3680 72.3656 48.9110 -0.0005 11.0072 0.0002
# 3 36.4018 48.9110 110.6725 -0.0001 28.0897 0.0001
# 4 0.0000 -0.0005 -0.0001 33.2442 0.0001 0.7013
# 5 21.9651 11.0072 28.0897 0.0001 17.4120 0.0000
# 6 -0.0001 0.0002 0.0001 0.7013 0.0000 32.5329
#
#
#
# Elastic Compliance Matrix: (Units=1/GPa)
#
#
# Indices 1 2 3 4 5 6 
#
# 1 0.017621 -0.013949 0.006388 0.000000 -0.023717 0.000000
# 2 -0.013949 0.030822 -0.014485 0.000000 0.021480 0.000000
# 3 0.006388 -0.014485 0.022111 0.000000 -0.034572 0.000000
# 4 0.000000 0.000000 0.000000 0.030094 0.000000 -0.000649
# 5 -0.023717 0.021480 -0.034572 0.000000 0.129543 0.000000
# 6 0.000000 0.000000 0.000000 -0.000649 0.000000 0.030752
#
#
# Mechanical properties :
#
#
# Convention : Reuss Voigt Hill
#
# Bulk Modulus (GPa) = 37.79085 64.28392 51.03739
# Shear Modulus (GPa) = 15.93094 27.27200 21.60147
#
# Velocity S-wave (km/s) = 2.84679 3.72472 3.31495
# Velocity P-wave (km/s) = 5.47999 7.15542 6.37300
#
# Compressibility (1/GPa) = 0.02646143
#
# Stress axis : x y z
#
# Youngs Moduli (GPa) = 56.75092 32.44477 45.22686
#
# Poissons Ratio (x) = 0.45257 -0.28892
# Poissons Ratio (y) = 0.79161 0.65513
# Poissons Ratio (z) = -0.36254 0.46997
#
# Static dielectric constant tensor:
#      x y z
#    x 3.462870 0.000000 -0.019700 
#    y 0.000000 3.566810 0.000000 
#    z -0.019700 0.000000 3.921740 
# 
# 
# High freq. dielectric constant tensor:
#      x y z
#    x 1.761410 0.000000 0.002720 
#    y 0.000000 1.768520 0.000000 
#    z 0.002720 0.000000 1.786770 
# 
# From -- ./inp_files/26562.got.cif
#   From: 2010.03.12/outbox.cif.g09.slc.cpg/sg8_14_cif.got.tgz:26562.got - 2010.03.31 10:45:26.
