data_PCOD8053938
_publ_section_title
;
Structure prediction by ZEFSAII (Michael W. Deem and Ramdas Pophale) SiO2 
 PCOD8053938
Probable space group: C M
;
_chemical_formula_sum "Si O2"
_cell_formula_units_Z 28
_cell_length_a 10.235569
_cell_length_b 9.409849
_cell_length_c 17.141673
_cell_angle_alpha 90.000000
_cell_angle_beta 53.048928
_cell_angle_gamma 90.000000
_cell_volume 1319.397595
_symmetry_space_group_name_H-M "C M"
_symmetry_group_IT_number 8
_symmetry_cell_setting 'monoclinic'
loop_
_space_group_symop_operation_xyz
x,y,z
x,-y,z
1/2+x,1/2+y,z
1/2+x,1/2-y,z
loop_
_atom_site_type_symbol
_atom_site_label
_atom_site_fract_x
_atom_site_fract_y
_atom_site_fract_z
Si Si1 0.110180 0.342941 0.225560
Si Si2 0.965532 0.834435 0.141472
Si Si3 0.157690 0.154812 0.640370
Si Si4 0.641092 0.159492 0.512805
Si Si5 0.712069 0.663515 0.915144
Si Si6 0.954109 0.282315 0.440600
Si Si7 0.590789 0.166979 0.810999
O O1 0.121447 0.500000 0.183995
O O2 0.291734 0.278121 0.171624
O O3 0.006695 0.242997 0.206913
O O4 0.022789 0.360103 0.340328
O O5 0.951934 0.000000 0.166092
O O6 0.103908 0.800654 0.029026
O O7 0.056083 0.252634 0.614860
O O8 0.334799 0.121989 0.538206
O O9 0.178903 0.244403 0.711484
O O10 0.073668 0.000000 0.685291
O O11 0.839432 0.150684 0.454178
O O12 0.605643 0.247224 0.445130
O O13 0.572546 0.000000 0.535343
O O14 0.686459 0.500000 0.897250
O O15 0.658862 0.771962 0.867316
O O16 0.897380 0.692396 0.873881
O O17 0.634320 0.000000 0.789143
#
# Coordination Sequence:
#
# PCOD8053938 Si02
#       7
#     4   4   4   4   4   4   4
#     4  11  22  39  63  92 124 162 204 250 304 363
#     4  10  23  42  65  92 122 158 204 254 309 366
#     4  10  23  40  62  90 126 165 204 249 301 360
#     4  10  22  40  61  84 120 164 205 250 297 349
#     4  10  23  44  65  90 124 159 200 256 312 364
#     4  10  23  39  62  87 127 164 203 246 301 355
#     4  11  24  40  64  93 123 160 206 251 304 365
#
# _framework density 21.221806999999998
#
# number of rings (size 3 to 8) (size 9 to 14) (size 15 to 20)
#    0.857    0.857    0.000    3.857    2.000    4.571 
#    0.000    0.000    0.000    0.000    0.000    0.000 
#    0.000    0.000    0.000    0.000    0.000    0.000 
#
# Total GULP energy -173438.824969 kJ/mol
# GULP energy per Si atom -12388.487498 kJ/mol
# Density = 2.117351 g / cm^3
# Si number density = 21.221807 Si / 1000 Ang^3
#
#
#
# Elastic Constant Matrix: (Units=GPa)
#
#
# Indices 1 2 3 4 5 6 
#
# 1 87.1887 32.0236 12.7085 0.0000 21.5644 0.0000
# 2 32.0236 95.5484 32.2580 0.0000 17.9471 0.0000
# 3 12.7085 32.2580 88.5685 0.0000 9.8311 0.0000
# 4 0.0000 0.0000 0.0000 23.7863 0.0000 6.1094
# 5 21.5644 17.9471 9.8311 0.0000 40.4296 0.0000
# 6 0.0000 0.0000 0.0000 6.1094 0.0000 29.9152
#
#
#
# Elastic Compliance Matrix: (Units=1/GPa)
#
#
# Indices 1 2 3 4 5 6 
#
# 1 0.014300 -0.003647 -0.000058 0.000000 -0.005994 0.000000
# 2 -0.003647 0.013660 -0.004106 0.000000 -0.003120 0.000000
# 3 -0.000058 -0.004106 0.012938 0.000000 -0.001292 0.000000
# 4 0.000000 0.000000 0.000000 0.044368 0.000000 -0.009061
# 5 -0.005994 -0.003120 -0.001292 0.000000 0.029631 0.000000
# 6 0.000000 0.000000 0.000000 -0.009061 0.000000 0.035278
#
#
# Mechanical properties :
#
#
# Convention : Reuss Voigt Hill
#
# Bulk Modulus (GPa) = 39.56277 47.25398 43.40837
# Shear Modulus (GPa) = 28.69880 31.78058 30.23969
#
# Velocity S-wave (km/s) = 3.68139 3.87401 3.77893
# Velocity P-wave (km/s) = 6.06244 6.50582 6.28804
#
# Compressibility (1/GPa) = 0.02527629
#
# Stress axis : x y z
#
# Youngs Moduli (GPa) = 69.93020 73.20383 77.29259
#
# Poissons Ratio (x) = 0.26699 0.00450
# Poissons Ratio (y) = 0.25505 0.31734
# Poissons Ratio (z) = 0.00407 0.30055
#
# Static dielectric constant tensor:
#      x y z
#    x 3.913970 0.000000 0.006540 
#    y 0.000000 3.584210 0.000000 
#    z 0.006540 0.000000 3.805290 
# 
# 
# High freq. dielectric constant tensor:
#      x y z
#    x 1.840580 0.000000 0.005480 
#    y 0.000000 1.820220 0.000000 
#    z 0.005480 0.000000 1.831820 
# 
# From -- ./inp_files/25126.got.cif
#   From: 2010.03.12/outbox.cif.g09.slc.cpg/sg8_13_cif.got.tgz:25126.got - 2010.03.31 10:45:26.
