data_PCOD8053431
_publ_section_title
;
Structure prediction by ZEFSAII (Michael W. Deem and Ramdas Pophale) SiO2 
 PCOD8053431
Probable space group: C M
;
_chemical_formula_sum "Si O2"
_cell_formula_units_Z 32
_cell_length_a 22.142875
_cell_length_b 8.974253
_cell_length_c 11.103267
_cell_angle_alpha 90.000000
_cell_angle_beta 49.768399
_cell_angle_gamma 90.000000
_cell_volume 1684.449377
_symmetry_space_group_name_H-M "C M"
_symmetry_group_IT_number 8
_symmetry_cell_setting 'monoclinic'
loop_
_space_group_symop_operation_xyz
x,y,z
x,-y,z
1/2+x,1/2+y,z
1/2+x,1/2-y,z
loop_
_atom_site_type_symbol
_atom_site_label
_atom_site_fract_x
_atom_site_fract_y
_atom_site_fract_z
Si Si1 0.815440 0.825203 0.845760
Si Si2 0.385955 0.670515 0.006959
Si Si3 0.703330 0.323163 0.605041
Si Si4 0.020214 0.325772 0.217082
Si Si5 0.741759 0.675666 0.294637
Si Si6 0.355841 0.174102 0.554177
Si Si7 0.044468 0.173921 0.933408
Si Si8 0.667033 0.676668 0.142304
O O1 0.861155 0.764367 0.671135
O O2 0.800089 0.000000 0.852790
O O3 0.871435 0.785823 0.886799
O O4 0.730840 0.744163 0.967519
O O5 0.362807 0.500000 0.058820
O O6 0.330805 0.765830 0.165934
O O7 0.476941 0.701520 0.920980
O O8 0.701267 0.500000 0.603567
O O9 0.705162 0.260779 0.465821
O O10 0.780510 0.267080 0.576413
O O11 0.625406 0.263277 0.772184
O O12 0.039513 0.500000 0.195300
O O13 0.081260 0.240516 0.224133
O O14 0.933052 0.290221 0.377167
O O15 0.025301 0.267813 0.075420
O O16 0.747896 0.500000 0.292301
O O17 0.687794 0.726756 0.251803
O O18 0.348410 0.000000 0.593572
O O19 0.051405 0.000000 0.959389
O O20 0.667145 0.500000 0.126293
#
# Coordination Sequence:
#
# PCOD8053431 Si02
#       8
#     4   4   4   4   4   4   4   4
#     4  10  20  35  56  81 111 144 179 221 267 318
#     4   9  19  34  53  80 111 140 171 216 269 315
#     4   9  18  34  55  77 102 135 177 222 265 313
#     4  11  23  37  54  78 109 143 182 228 273 317
#     4   9  18  34  57  80 103 138 179 216 260 321
#     4  10  21  36  54  77 107 143 182 225 272 320
#     4  10  20  35  56  79 105 140 181 222 268 324
#     4  10  20  35  57  82 108 141 181 222 268 324
#
# _framework density 18.997305999999998
#
# number of rings (size 3 to 8) (size 9 to 14) (size 15 to 20)
#    0.000    2.250    0.000    2.625    0.000    5.500 
#    0.000    3.750    0.000    0.000    0.000    0.000 
#    0.000    0.000    0.000    0.000    0.000    0.000 
#
# Total GULP energy -198448.015039 kJ/mol
# GULP energy per Si atom -12403.000940 kJ/mol
# Density = 1.895407 g / cm^3
# Si number density = 18.997306 Si / 1000 Ang^3
#
#
#
# Elastic Constant Matrix: (Units=GPa)
#
#
# Indices 1 2 3 4 5 6 
#
# 1 119.3286 36.4578 72.3322 0.0000 -8.7364 0.0000
# 2 36.4578 53.4142 45.6729 0.0000 -0.2525 0.0000
# 3 72.3322 45.6729 155.6712 0.0000 5.2952 0.0000
# 4 0.0000 0.0000 0.0000 29.5857 0.0000 -0.0112
# 5 -8.7364 -0.2525 5.2952 0.0000 35.1750 0.0000
# 6 0.0000 0.0000 0.0000 -0.0112 0.0000 26.9396
#
#
#
# Elastic Compliance Matrix: (Units=1/GPa)
#
#
# Indices 1 2 3 4 5 6 
#
# 1 0.013028 -0.004784 -0.004784 0.000000 0.003922 0.000000
# 2 -0.004784 0.026806 -0.005637 0.000000 -0.000147 0.000000
# 3 -0.004784 -0.005637 0.010395 0.000000 -0.002793 0.000000
# 4 0.000000 0.000000 0.000000 0.033800 0.000000 0.000014
# 5 0.003922 -0.000147 -0.002793 0.000000 0.029823 0.000000
# 6 0.000000 0.000000 0.000000 0.000014 0.000000 0.037120
#
#
# Mechanical properties :
#
#
# Convention : Reuss Voigt Hill
#
# Bulk Modulus (GPa) = 50.45064 70.81556 60.63310
# Shear Modulus (GPa) = 26.59737 29.93679 28.26708
#
# Velocity S-wave (km/s) = 3.74580 3.97400 3.86158
# Velocity P-wave (km/s) = 6.73219 7.64293 7.20197
#
# Compressibility (1/GPa) = 0.01982135
#
# Stress axis : x y z
#
# Youngs Moduli (GPa) = 76.75492 37.30498 96.19727
#
# Poissons Ratio (x) = 0.17846 0.46016
# Poissons Ratio (y) = 0.36718 0.54226
# Poissons Ratio (z) = 0.36716 0.21029
#
# Static dielectric constant tensor:
#      x y z
#    x 3.658320 0.000000 0.046620 
#    y 0.000000 3.359210 0.000000 
#    z 0.046620 0.000000 3.591000 
# 
# 
# High freq. dielectric constant tensor:
#      x y z
#    x 1.749330 0.000000 0.003760 
#    y 0.000000 1.724900 0.000000 
#    z 0.003760 0.000000 1.741260 
# 
# From -- ./inp_files/23885.got.cif
#   From: 2010.03.12/outbox.cif.g09.slc.cpg/sg8_12_cif.got.tgz:23885.got - 2010.03.31 10:45:26.
