data_PCOD8053676
_publ_section_title
;
Structure prediction by ZEFSAII (Michael W. Deem and Ramdas Pophale) SiO2 
 PCOD8053676
Probable space group: C M
;
_chemical_formula_sum "Si O2"
_cell_formula_units_Z 24
_cell_length_a 20.142069
_cell_length_b 8.905188
_cell_length_c 18.748395
_cell_angle_alpha 90.000000
_cell_angle_beta 21.748862
_cell_angle_gamma 90.000000
_cell_volume 1246.077860
_symmetry_space_group_name_H-M "C M"
_symmetry_group_IT_number 8
_symmetry_cell_setting 'monoclinic'
loop_
_space_group_symop_operation_xyz
x,y,z
x,-y,z
1/2+x,1/2+y,z
1/2+x,1/2-y,z
loop_
_atom_site_type_symbol
_atom_site_label
_atom_site_fract_x
_atom_site_fract_y
_atom_site_fract_z
Si Si1 0.880730 0.173695 0.019480
Si Si2 0.585695 0.323139 0.226164
Si Si3 0.714750 0.674913 0.591261
Si Si4 0.900794 0.826405 0.165154
Si Si5 0.097074 0.826226 0.548997
Si Si6 0.190151 0.675953 0.974071
O O1 0.711213 0.271924 0.165742
O O2 0.920939 0.203086 0.061645
O O3 0.837095 0.000000 0.047201
O O4 0.053162 0.226283 0.803013
O O5 0.588385 0.500000 0.216648
O O6 0.386239 0.269670 0.443177
O O7 0.656234 0.254649 0.082569
O O8 0.757931 0.500000 0.558027
O O9 0.664222 0.713351 0.560837
O O10 0.704079 0.775032 0.386169
O O11 0.927760 0.000000 0.157853
O O12 0.051759 0.729602 0.053041
O O13 0.888733 0.785265 0.748852
O O14 0.131923 0.000000 0.496795
O O15 0.165318 0.500000 0.011924
#
# Coordination Sequence:
#
# PCOD8053676 Si02
#       6
#     4   4   4   4   4   4
#     4  10  23  44  64  86 122 165 203 243 299 362
#     4  12  24  37  61  95 124 153 200 256 304 353
#     4  10  20  39  65  88 118 162 207 243 292 361
#     4  11  24  40  62  93 126 157 197 252 305 354
#     4  10  21  38  64  90 118 162 205 244 294 360
#     4  11  22  40  64  88 120 163 206 244 294 362
#
# _framework density 19.260432999999999
#
# number of rings (size 3 to 8) (size 9 to 14) (size 15 to 20)
#    0.000    1.333    3.333    2.500    0.000    4.667 
#    0.000    5.000    0.000    0.000    0.000    0.000 
#    0.000    0.000    0.000    0.000    0.000    0.000 
#
# Total GULP energy -148878.723533 kJ/mol
# GULP energy per Si atom -12406.560294 kJ/mol
# Density = 1.921660 g / cm^3
# Si number density = 19.260433 Si / 1000 Ang^3
#
#
#
# Elastic Constant Matrix: (Units=GPa)
#
#
# Indices 1 2 3 4 5 6 
#
# 1 50.6430 25.1470 22.1423 -0.0013 -5.1682 0.0006
# 2 25.1470 87.5325 43.8032 -0.0062 -10.5494 0.0026
# 3 22.1423 43.8032 111.5832 -0.0034 -9.9337 0.0019
# 4 -0.0013 -0.0062 -0.0034 20.6785 0.0006 4.0255
# 5 -5.1682 -10.5494 -9.9337 0.0006 34.4044 -0.0002
# 6 0.0006 0.0026 0.0019 4.0255 -0.0002 28.7824
#
#
#
# Elastic Compliance Matrix: (Units=1/GPa)
#
#
# Indices 1 2 3 4 5 6 
#
# 1 0.023631 -0.005417 -0.002458 -0.000001 0.001179 0.000000
# 2 -0.005417 0.015731 -0.004869 0.000004 0.002604 -0.000002
# 3 -0.002458 -0.004869 0.011490 0.000000 0.001456 0.000000
# 4 -0.000001 0.000004 0.000000 0.049713 0.000000 -0.006953
# 5 0.001179 0.002604 0.001456 0.000000 0.030462 0.000000
# 6 0.000000 -0.000002 0.000000 -0.006953 0.000000 0.035716
#
#
# Mechanical properties :
#
#
# Convention : Reuss Voigt Hill
#
# Bulk Modulus (GPa) = 39.42348 47.99374 43.70861
# Shear Modulus (GPa) = 24.91481 27.35081 26.13281
#
# Velocity S-wave (km/s) = 3.60053 3.77245 3.68749
# Velocity P-wave (km/s) = 6.14802 6.62929 6.39319
#
# Compressibility (1/GPa) = 0.02536559
#
# Stress axis : x y z
#
# Youngs Moduli (GPa) = 42.31783 63.57019 87.02895
#
# Poissons Ratio (x) = 0.34434 0.21390
# Poissons Ratio (y) = 0.22922 0.42370
# Poissons Ratio (z) = 0.10401 0.30949
#
# Static dielectric constant tensor:
#      x y z
#    x 3.480730 0.000000 -0.035180 
#    y 0.000000 3.528490 0.000010 
#    z -0.035180 0.000010 3.732980 
# 
# 
# High freq. dielectric constant tensor:
#      x y z
#    x 1.747600 0.000000 -0.003880 
#    y 0.000000 1.749550 0.000000 
#    z -0.003880 0.000000 1.765550 
# 
# From -- ./inp_files/31299.got.cif
#   From: 2010.03.12/outbox.cif.g09.slc.cpg/sg8_16_cif.got.tgz:31299.got - 2010.03.31 10:45:26.
