data_PCOD8053918
_publ_section_title
;
Structure prediction by ZEFSAII (Michael W. Deem and Ramdas Pophale) SiO2 
 PCOD8053918
Probable space group: C M
;
_chemical_formula_sum "Si O2"
_cell_formula_units_Z 32
_cell_length_a 22.213501
_cell_length_b 8.836282
_cell_length_c 11.005488
_cell_angle_alpha 90.000000
_cell_angle_beta 130.942170
_cell_angle_gamma 90.000000
_cell_volume 1631.760459
_symmetry_space_group_name_H-M "C M"
_symmetry_group_IT_number 8
_symmetry_cell_setting 'monoclinic'
loop_
_space_group_symop_operation_xyz
x,y,z
x,-y,z
1/2+x,1/2+y,z
1/2+x,1/2-y,z
loop_
_atom_site_type_symbol
_atom_site_label
_atom_site_fract_x
_atom_site_fract_y
_atom_site_fract_z
Si Si1 0.393850 0.324243 0.466830
Si Si2 0.618422 0.326473 0.637177
Si Si3 0.767880 0.674653 0.677148
Si Si4 0.732323 0.176407 0.380614
Si Si5 0.437953 0.825606 0.018395
Si Si6 0.546405 0.822329 0.769706
Si Si7 0.458068 0.326756 0.293570
Si Si8 0.080289 0.822301 0.066384
O O1 0.412771 0.500000 0.513892
O O2 0.304641 0.281124 0.386269
O O3 0.456045 0.233634 0.632241
O O4 0.404915 0.282787 0.340179
O O5 0.616097 0.500000 0.678334
O O6 0.702780 0.281366 0.692135
O O7 0.603217 0.222485 0.733461
O O8 0.550913 0.299778 0.446212
O O9 0.757264 0.500000 0.623230
O O10 0.758006 0.783954 0.550398
O O11 0.853310 0.706396 0.846728
O O12 0.656616 0.274417 0.244691
O O13 0.710949 0.000000 0.344147
O O14 0.432289 0.783772 0.152268
O O15 0.501785 0.722346 0.035904
O O16 0.463077 0.000000 0.038552
O O17 0.544578 0.000000 0.781385
O O18 0.583928 0.755285 0.940768
O O19 0.442989 0.500000 0.234589
O O20 0.080761 0.000000 0.048576
#
# Coordination Sequence:
#
# PCOD8053918 Si02
#       8
#     4   4   4   4   4   4   4   4
#     4   9  20  39  61  86 118 155 190 229 284 346
#     4   9  19  38  60  82 113 154 195 233 283 344
#     4  10  22  39  59  85 118 155 191 233 287 343
#     4  11  23  39  61  88 115 146 191 243 288 336
#     4  11  23  38  58  87 119 149 192 243 284 332
#     4  11  22  37  60  89 118 149 191 239 282 331
#     4   9  18  35  59  84 114 154 194 230 278 342
#     4  12  25  41  60  81 113 156 194 232 288 348
#
# _framework density 19.610721999999999
#
# number of rings (size 3 to 8) (size 9 to 14) (size 15 to 20)
#    0.000    1.750    0.000    5.250    0.000    8.500 
#    0.000    2.500    0.000    0.000    0.000    0.000 
#    0.000    0.000    0.000    0.000    0.000    0.000 
#
# Total GULP energy -198495.530409 kJ/mol
# GULP energy per Si atom -12405.970651 kJ/mol
# Density = 1.956609 g / cm^3
# Si number density = 19.610722 Si / 1000 Ang^3
#
#
#
# Elastic Constant Matrix: (Units=GPa)
#
#
# Indices 1 2 3 4 5 6 
#
# 1 117.1168 45.4872 50.8460 0.0000 14.5482 0.0000
# 2 45.4872 104.5329 48.9908 0.0000 -0.7243 0.0000
# 3 50.8460 48.9908 105.2631 0.0000 -5.7194 0.0000
# 4 0.0000 0.0000 0.0000 29.2835 0.0000 -9.8281
# 5 14.5482 -0.7243 -5.7194 0.0000 32.0191 0.0000
# 6 0.0000 0.0000 0.0000 -9.8281 0.0000 24.3973
#
#
#
# Elastic Compliance Matrix: (Units=1/GPa)
#
#
# Indices 1 2 3 4 5 6 
#
# 1 0.012850 -0.003269 -0.005056 0.000000 -0.006815 0.000000
# 2 -0.003269 0.013085 -0.004457 0.000000 0.000985 0.000000
# 3 -0.005056 -0.004457 0.014274 0.000000 0.004746 0.000000
# 4 0.000000 0.000000 0.000000 0.039488 0.000000 0.015907
# 5 -0.006815 0.000985 0.004746 0.000000 0.035198 0.000000
# 6 0.000000 0.000000 0.000000 0.015907 0.000000 0.047396
#
#
# Mechanical properties :
#
#
# Convention : Reuss Voigt Hill
#
# Bulk Modulus (GPa) = 68.28402 68.61789 68.45096
# Shear Modulus (GPa) = 25.94222 29.24592 27.59407
#
# Velocity S-wave (km/s) = 3.64106 3.86595 3.75519
# Velocity P-wave (km/s) = 7.25064 7.41575 7.33366
#
# Compressibility (1/GPa) = 0.01464471
#
# Stress axis : x y z
#
# Youngs Moduli (GPa) = 77.82226 76.42513 70.05605
#
# Poissons Ratio (x) = 0.24986 0.35418
# Poissons Ratio (y) = 0.25443 0.31224
# Poissons Ratio (z) = 0.39344 0.34063
#
# Static dielectric constant tensor:
#      x y z
#    x 3.759900 0.000000 0.011960 
#    y 0.000000 3.545620 0.000000 
#    z 0.011960 0.000000 3.525350 
# 
# 
# High freq. dielectric constant tensor:
#      x y z
#    x 1.776670 0.000000 -0.001440 
#    y 0.000000 1.765130 0.000000 
#    z -0.001440 0.000000 1.765020 
# 
# From -- ./inp_files/23904.got.cif
#   From: 2010.03.12/outbox.cif.g09.slc.cpg/sg8_12_cif.got.tgz:23904.got - 2010.03.31 10:45:26.
