data_PCOD8053550
_publ_section_title
;
Structure prediction by ZEFSAII (Michael W. Deem and Ramdas Pophale) SiO2 
 PCOD8053550
Probable space group: C M
;
_chemical_formula_sum "Si O2"
_cell_formula_units_Z 28
_cell_length_a 10.319713
_cell_length_b 15.015844
_cell_length_c 9.616517
_cell_angle_alpha 90.000000
_cell_angle_beta 62.190719
_cell_angle_gamma 90.000000
_cell_volume 1318.061478
_symmetry_space_group_name_H-M "C M"
_symmetry_group_IT_number 8
_symmetry_cell_setting 'monoclinic'
loop_
_space_group_symop_operation_xyz
x,y,z
x,-y,z
1/2+x,1/2+y,z
1/2+x,1/2-y,z
loop_
_atom_site_type_symbol
_atom_site_label
_atom_site_fract_x
_atom_site_fract_y
_atom_site_fract_z
Si Si1 0.395670 0.401308 0.663660
Si Si2 0.356430 0.101814 0.627040
Si Si3 0.154096 0.901664 0.327071
Si Si4 0.454954 0.600987 0.195201
Si Si5 0.097837 0.333248 0.705998
Si Si6 0.305623 0.234162 0.417572
Si Si7 0.535363 0.665278 0.858938
O O1 0.425649 0.500000 0.700398
O O2 0.504968 0.376327 0.484017
O O3 0.230638 0.395413 0.688118
O O4 0.422606 0.342908 0.786512
O O5 0.464310 0.112320 0.705414
O O6 0.397148 0.175053 0.486304
O O7 0.189164 0.114994 0.758948
O O8 0.372914 0.000000 0.563445
O O9 0.118234 0.898902 0.180324
O O10 0.278886 0.830866 0.300297
O O11 0.209205 0.000000 0.342943
O O12 0.387911 0.500000 0.246476
O O13 0.370172 0.674699 0.326610
O O14 0.458503 0.625867 0.032964
O O15 0.153385 0.260252 0.566137
O O16 0.052103 0.272822 0.862873
#
# Coordination Sequence:
#
# PCOD8053550 Si02
#       7
#     4   4   4   4   4   4   4
#     4  11  20  37  62  89 120 163 209 253 307 381
#     4  11  22  39  65  99 130 162 209 266 317 374
#     4  10  20  36  61  90 121 161 209 257 312 381
#     4  11  24  41  61  91 127 170 215 262 315 379
#     4  11  22  36  61  93 127 161 207 261 314 367
#     4  11  21  37  63  90 126 161 212 260 315 375
#     4  11  23  40  64  90 125 168 214 257 311 375
#
# _framework density 21.243319
#
# number of rings (size 3 to 8) (size 9 to 14) (size 15 to 20)
#    0.000    1.143    4.286    4.714    0.000    2.857 
#    0.000    0.000    0.000    2.571    0.000    0.000 
#    0.000    0.000    0.000    0.000    0.000    0.000 
#
# Total GULP energy -173433.086839 kJ/mol
# GULP energy per Si atom -12388.077631 kJ/mol
# Density = 2.119497 g / cm^3
# Si number density = 21.243319 Si / 1000 Ang^3
#
#
#
# Elastic Constant Matrix: (Units=GPa)
#
#
# Indices 1 2 3 4 5 6 
#
# 1 105.3401 28.4249 15.5412 0.0000 15.0032 0.0000
# 2 28.4249 142.7538 44.3251 0.0000 3.1302 0.0000
# 3 15.5412 44.3251 60.0935 0.0000 16.5868 0.0000
# 4 0.0000 0.0000 0.0000 31.9906 0.0000 4.3966
# 5 15.0032 3.1302 16.5868 0.0000 23.0167 0.0000
# 6 0.0000 0.0000 0.0000 4.3966 0.0000 34.2047
#
#
#
# Elastic Compliance Matrix: (Units=1/GPa)
#
#
# Indices 1 2 3 4 5 6 
#
# 1 0.011061 -0.002332 0.000951 0.000000 -0.007578 0.000000
# 2 -0.002332 0.009964 -0.008479 0.000000 0.006275 0.000000
# 3 0.000951 -0.008479 0.028089 0.000000 -0.019709 0.000000
# 4 0.000000 0.000000 0.000000 0.031821 0.000000 -0.004090
# 5 -0.007578 0.006275 -0.019709 0.000000 0.061736 0.000000
# 6 0.000000 0.000000 0.000000 -0.004090 0.000000 0.029762
#
#
# Mechanical properties :
#
#
# Convention : Reuss Voigt Hill
#
# Bulk Modulus (GPa) = 34.01875 53.86329 43.94102
# Shear Modulus (GPa) = 24.75851 32.50214 28.63032
#
# Velocity S-wave (km/s) = 3.41761 3.91576 3.67513
# Velocity P-wave (km/s) = 5.62334 6.77161 6.22401
#
# Compressibility (1/GPa) = 0.02939555
#
# Stress axis : x y z
#
# Youngs Moduli (GPa) = 90.40537 100.35733 35.60150
#
# Poissons Ratio (x) = 0.23399 -0.03385
# Poissons Ratio (y) = 0.21079 0.30186
# Poissons Ratio (z) = -0.08597 0.85090
#
# Static dielectric constant tensor:
#      x y z
#    x 3.692800 0.000000 0.320030 
#    y 0.000000 4.085650 0.000000 
#    z 0.320030 0.000000 3.549700 
# 
# 
# High freq. dielectric constant tensor:
#      x y z
#    x 1.825870 0.000000 0.032660 
#    y 0.000000 1.856700 0.000000 
#    z 0.032660 0.000000 1.790440 
# 
# From -- ./inp_files/10703.got.cif
#   From: 2010.03.12/outbox.cif.g09.slc.cpg/sg8_6_cif.got.tgz:10703.got - 2010.03.31 10:45:26.
