data_PCOD8053752
_publ_section_title
;
Structure prediction by ZEFSAII (Michael W. Deem and Ramdas Pophale) SiO2 
 PCOD8053752
Probable space group: C M
;
_chemical_formula_sum "Si O2"
_cell_formula_units_Z 28
_cell_length_a 20.331679
_cell_length_b 9.652063
_cell_length_c 13.151965
_cell_angle_alpha 90.000000
_cell_angle_beta 34.094853
_cell_angle_gamma 90.000000
_cell_volume 1446.804030
_symmetry_space_group_name_H-M "C M"
_symmetry_group_IT_number 8
_symmetry_cell_setting 'monoclinic'
loop_
_space_group_symop_operation_xyz
x,y,z
x,-y,z
1/2+x,1/2+y,z
1/2+x,1/2-y,z
loop_
_atom_site_type_symbol
_atom_site_label
_atom_site_fract_x
_atom_site_fract_y
_atom_site_fract_z
Si Si1 0.693280 0.657465 0.447010
Si Si2 0.609596 0.662645 0.336671
Si Si3 0.912629 0.842921 0.160156
Si Si4 0.008909 0.750468 0.837818
Si Si5 0.816459 0.342232 0.935563
Si Si6 0.614683 0.845504 0.895710
Si Si7 0.852729 0.838231 0.691781
O O1 0.740786 0.500000 0.374454
O O2 0.639539 0.717176 0.411209
O O3 0.798649 0.759304 0.342627
O O4 0.592590 0.655720 0.661208
O O5 0.628419 0.500000 0.314011
O O6 0.475662 0.703356 0.480408
O O7 0.699490 0.721864 0.138007
O O8 0.905613 0.000000 0.210102
O O9 0.927944 0.843565 0.017250
O O10 0.026070 0.763768 0.063389
O O11 0.092178 0.654420 0.802648
O O12 0.923832 0.658048 0.877674
O O13 0.798314 0.500000 0.921813
O O14 0.842243 0.245476 0.808401
O O15 0.748116 0.800224 0.748610
O O16 0.591550 0.000000 0.967842
O O17 0.854222 0.000000 0.719006
#
# Coordination Sequence:
#
# PCOD8053752 Si02
#       7
#     4   4   4   4   4   4   4
#     4  11  20  36  61  86 117 154 192 239 297 352
#     4   9  18  35  57  83 114 152 191 228 283 347
#     4  10  22  37  57  86 117 146 193 249 290 336
#     4  10  21  36  61  85 115 152 200 235 293 340
#     4  11  21  36  60  87 115 151 195 245 291 339
#     4   9  20  40  62  82 117 161 198 235 289 352
#     4  10  21  40  62  83 115 158 197 235 285 350
#
# _framework density 19.353000999999999
#
# number of rings (size 3 to 8) (size 9 to 14) (size 15 to 20)
#    0.857    1.143    2.857    1.286    0.000    2.286 
#    2.571    0.714    0.000    0.000    0.000    0.000 
#    0.000    0.000    0.000    0.000    0.000    0.000 
#
# Total GULP energy -173489.984010 kJ/mol
# GULP energy per Si atom -12392.141715 kJ/mol
# Density = 1.930895 g / cm^3
# Si number density = 19.353001 Si / 1000 Ang^3
#
#
#
# Elastic Constant Matrix: (Units=GPa)
#
#
# Indices 1 2 3 4 5 6 
#
# 1 83.3811 20.8319 38.3010 0.0000 -26.5483 0.0000
# 2 20.8319 85.0434 36.6921 0.0000 -16.0951 0.0000
# 3 38.3010 36.6921 127.6578 0.0000 -17.1000 0.0000
# 4 0.0000 0.0000 0.0000 27.7266 0.0000 -0.5185
# 5 -26.5483 -16.0951 -17.1000 0.0000 37.2001 0.0000
# 6 0.0000 0.0000 0.0000 -0.5185 0.0000 19.6855
#
#
#
# Elastic Compliance Matrix: (Units=1/GPa)
#
#
# Indices 1 2 3 4 5 6 
#
# 1 0.017057 -0.000713 -0.003542 0.000000 0.010237 0.000000
# 2 -0.000713 0.014131 -0.003300 0.000000 0.004088 0.000000
# 3 -0.003542 -0.003300 0.009926 0.000000 0.000607 0.000000
# 4 0.000000 0.000000 0.000000 0.036084 0.000000 0.000950
# 5 0.010237 0.004088 0.000607 0.000000 0.036235 0.000000
# 6 0.000000 0.000000 0.000000 0.000950 0.000000 0.050824
#
#
# Mechanical properties :
#
#
# Convention : Reuss Voigt Hill
#
# Bulk Modulus (GPa) = 38.45402 54.19249 46.32326
# Shear Modulus (GPa) = 26.59083 30.27294 28.43188
#
# Velocity S-wave (km/s) = 3.71076 3.95935 3.83707
# Velocity P-wave (km/s) = 6.18648 6.99749 6.60445
#
# Compressibility (1/GPa) = 0.02600508
#
# Stress axis : x y z
#
# Youngs Moduli (GPa) = 58.62558 70.76706 100.74660
#
# Poissons Ratio (x) = 0.05045 0.35680
# Poissons Ratio (y) = 0.04180 0.33247
# Poissons Ratio (z) = 0.20763 0.23354
#
# Static dielectric constant tensor:
#      x y z
#    x 3.356340 0.000000 -0.170600 
#    y 0.000000 3.222230 0.000000 
#    z -0.170600 0.000000 3.657710 
# 
# 
# High freq. dielectric constant tensor:
#      x y z
#    x 1.731680 0.000000 -0.015830 
#    y 0.000000 1.732740 0.000000 
#    z -0.015830 0.000000 1.760100 
# 
# From -- ./inp_files/23994.got.cif
#   From: 2010.03.12/outbox.cif.g09.slc.cpg/sg8_12_cif.got.tgz:23994.got - 2010.03.31 10:45:26.
