data_PCOD8053611
_publ_section_title
;
Structure prediction by ZEFSAII (Michael W. Deem and Ramdas Pophale) SiO2 
 PCOD8053611
Probable space group: C M
;
_chemical_formula_sum "Si O2"
_cell_formula_units_Z 28
_cell_length_a 5.065314
_cell_length_b 17.323111
_cell_length_c 16.627946
_cell_angle_alpha 90.000000
_cell_angle_beta 118.481044
_cell_angle_gamma 90.000000
_cell_volume 1282.470413
_symmetry_space_group_name_H-M "C M"
_symmetry_group_IT_number 8
_symmetry_cell_setting 'monoclinic'
loop_
_space_group_symop_operation_xyz
x,y,z
x,-y,z
1/2+x,1/2+y,z
1/2+x,1/2-y,z
loop_
_atom_site_type_symbol
_atom_site_label
_atom_site_fract_x
_atom_site_fract_y
_atom_site_fract_z
Si Si1 0.509920 0.591539 0.205420
Si Si2 0.299578 0.588098 0.509627
Si Si3 0.684715 0.196335 0.620049
Si Si4 0.683813 0.908683 0.315206
Si Si5 0.268883 0.299741 0.041098
Si Si6 0.397577 0.800920 0.832174
Si Si7 0.420881 0.087391 0.694746
O O1 0.478705 0.500000 0.192991
O O2 0.392289 0.622699 0.274175
O O3 0.315426 0.627407 0.105369
O O4 0.849184 0.621597 0.249764
O O5 0.173564 0.500000 0.495677
O O6 0.306931 0.619418 0.419372
O O7 0.631834 0.592660 0.594917
O O8 0.074593 0.645083 0.526970
O O9 0.989935 0.234161 0.629072
O O10 0.701464 0.132065 0.693543
O O11 0.683199 0.000000 0.314286
O O12 0.590484 0.267926 0.060370
O O13 0.080411 0.328549 0.936788
O O14 0.574903 0.734302 0.808950
O O15 0.340647 0.875236 0.768923
O O16 0.523357 0.000000 0.724185
#
# Coordination Sequence:
#
# PCOD8053611 Si02
#       7
#     4   4   4   4   4   4   4
#     4  10  20  37  63  91 118 156 203 251 302 359
#     4  10  23  42  64  91 125 167 214 259 304 361
#     4  12  24  41  60  84 121 164 206 251 305 363
#     4   9  20  37  61  89 121 160 202 247 304 363
#     4  10  21  40  64  89 121 160 198 245 310 371
#     4  10  23  42  64  89 121 164 204 244 311 380
#     4  11  24  41  65  95 126 163 211 263 306 355
#
# _framework density 21.832864000000001
#
# number of rings (size 3 to 8) (size 9 to 14) (size 15 to 20)
#    0.000    1.714    1.429    2.143    4.000    0.571 
#    0.000    4.286    0.000    5.143    0.000    0.000 
#    0.000    0.000    0.000    0.000    0.000    0.000 
#
# Total GULP energy -173507.472858 kJ/mol
# GULP energy per Si atom -12393.390918 kJ/mol
# Density = 2.178317 g / cm^3
# Si number density = 21.832864 Si / 1000 Ang^3
#
#
#
# Elastic Constant Matrix: (Units=GPa)
#
#
# Indices 1 2 3 4 5 6 
#
# 1 89.4990 25.9681 25.3175 0.0000 -13.3213 0.0000
# 2 25.9681 103.5888 51.4658 0.0000 -12.3535 0.0000
# 3 25.3175 51.4658 125.1492 0.0000 -14.6900 0.0000
# 4 0.0000 0.0000 0.0000 36.5298 0.0000 -11.2918
# 5 -13.3213 -12.3535 -14.6900 0.0000 34.6369 0.0000
# 6 0.0000 0.0000 0.0000 -11.2918 0.0000 22.2819
#
#
#
# Elastic Compliance Matrix: (Units=1/GPa)
#
#
# Indices 1 2 3 4 5 6 
#
# 1 0.012682 -0.002119 -0.001274 0.000000 0.003581 0.000000
# 2 -0.002119 0.012667 -0.004574 0.000000 0.001763 0.000000
# 3 -0.001274 -0.004574 0.010398 0.000000 0.002289 0.000000
# 4 0.000000 0.000000 0.000000 0.032460 0.000000 0.016450
# 5 0.003581 0.001763 0.002289 0.000000 0.031848 0.000000
# 6 0.000000 0.000000 0.000000 0.016450 0.000000 0.053215
#
#
# Mechanical properties :
#
#
# Convention : Reuss Voigt Hill
#
# Bulk Modulus (GPa) = 50.47021 58.19331 54.33176
# Shear Modulus (GPa) = 28.44031 33.05543 30.74787
#
# Velocity S-wave (km/s) = 3.61312 3.89526 3.75684
# Velocity P-wave (km/s) = 6.36970 6.85147 6.61497
#
# Compressibility (1/GPa) = 0.01981367
#
# Stress axis : x y z
#
# Youngs Moduli (GPa) = 78.85486 78.94300 96.17619
#
# Poissons Ratio (x) = 0.16730 0.12249
# Poissons Ratio (y) = 0.16711 0.43987
# Poissons Ratio (z) = 0.10043 0.36105
#
# Static dielectric constant tensor:
#      x y z
#    x 4.158520 0.000000 -0.336810 
#    y 0.000000 3.962870 0.000000 
#    z -0.336810 0.000000 4.200030 
# 
# 
# High freq. dielectric constant tensor:
#      x y z
#    x 1.868320 0.000000 -0.019360 
#    y 0.000000 1.843150 0.000000 
#    z -0.019360 0.000000 1.860420 
# 
# From -- ./inp_files/24945.got.cif
#   From: 2010.03.12/outbox.cif.g09.slc.cpg/sg8_13_cif.got.tgz:24945.got - 2010.03.31 10:45:26.
