data_PCOD8053279
_publ_section_title
;
Structure prediction by ZEFSAII (Michael W. Deem and Ramdas Pophale) SiO2 
 PCOD8053279
Probable space group: C M
;
_chemical_formula_sum "Si O2"
_cell_formula_units_Z 32
_cell_length_a 19.458940
_cell_length_b 9.044279
_cell_length_c 11.998404
_cell_angle_alpha 90.000000
_cell_angle_beta 51.938284
_cell_angle_gamma 90.000000
_cell_volume 1662.581197
_symmetry_space_group_name_H-M "C M"
_symmetry_group_IT_number 8
_symmetry_cell_setting 'monoclinic'
loop_
_space_group_symop_operation_xyz
x,y,z
x,-y,z
1/2+x,1/2+y,z
1/2+x,1/2-y,z
loop_
_atom_site_type_symbol
_atom_site_label
_atom_site_fract_x
_atom_site_fract_y
_atom_site_fract_z
Si Si1 0.132680 0.167759 0.830800
Si Si2 0.376282 0.175098 0.800878
Si Si3 0.351563 0.324691 0.372777
Si Si4 0.209122 0.824170 0.107178
Si Si5 0.804599 0.827094 0.668127
Si Si6 0.052261 0.171770 0.675567
Si Si7 0.710191 0.326101 0.361266
Si Si8 0.042766 0.169516 0.142584
O O1 0.207283 0.278718 0.796512
O O2 0.100156 0.211729 0.742070
O O3 0.169541 0.000000 0.795540
O O4 0.055537 0.185074 0.997186
O O5 0.371260 0.243949 0.682660
O O6 0.466987 0.227984 0.761486
O O7 0.375552 0.000000 0.792840
O O8 0.296441 0.233403 0.957802
O O9 0.349185 0.500000 0.357480
O O10 0.321166 0.277302 0.525420
O O11 0.289089 0.253779 0.343965
O O12 0.449161 0.257894 0.262296
O O13 0.208730 0.770169 0.235339
O O14 0.122996 0.757853 0.131822
O O15 0.207501 0.000000 0.101685
O O16 0.817791 0.000000 0.672177
O O17 0.117259 0.214334 0.509907
O O18 0.025454 0.000000 0.697187
O O19 0.727242 0.500000 0.352560
O O20 0.038046 0.000000 0.185049
#
# Coordination Sequence:
#
# PCOD8053279 Si02
#       8
#     4   4   4   4   4   4   4   4
#     4  10  19  37  62  83 109 152 196 234 285 342
#     4  11  23  39  60  84 114 154 194 234 286 342
#     4  10  22  37  59  86 113 150 189 234 284 335
#     4   9  19  36  59  83 110 149 192 231 276 336
#     4  11  22  37  59  86 115 146 191 244 288 332
#     4  10  22  37  58  87 115 149 192 238 286 336
#     4  10  21  38  60  83 115 153 188 231 281 339
#     4   9  18  35  59  82 109 147 192 232 276 336
#
# _framework density 19.24718
#
# number of rings (size 3 to 8) (size 9 to 14) (size 15 to 20)
#    0.000    2.000    2.500    0.750    3.500    1.500 
#    0.000    1.250    0.000    0.000    0.000    0.000 
#    0.000    0.000    0.000    0.000    0.000    0.000 
#
# Total GULP energy -198412.221654 kJ/mol
# GULP energy per Si atom -12400.763853 kJ/mol
# Density = 1.920337 g / cm^3
# Si number density = 19.247180 Si / 1000 Ang^3
#
#
#
# Elastic Constant Matrix: (Units=GPa)
#
#
# Indices 1 2 3 4 5 6 
#
# 1 95.8762 31.2533 59.6087 0.0000 -1.4606 0.0000
# 2 31.2533 39.7244 26.6026 0.0000 0.2850 0.0000
# 3 59.6087 26.6026 104.9477 0.0000 0.6860 0.0000
# 4 0.0000 0.0000 0.0000 18.3173 0.0000 -2.3616
# 5 -1.4606 0.2850 0.6860 0.0000 41.1175 0.0000
# 6 0.0000 0.0000 0.0000 -2.3616 0.0000 35.8318
#
#
#
# Elastic Compliance Matrix: (Units=1/GPa)
#
#
# Indices 1 2 3 4 5 6 
#
# 1 0.018508 -0.009062 -0.008221 0.000000 0.000857 0.000000
# 2 -0.009062 0.034758 -0.003660 0.000000 -0.000502 0.000000
# 3 -0.008221 -0.003660 0.015129 0.000000 -0.000519 0.000000
# 4 0.000000 0.000000 0.000000 0.055061 0.000000 0.003629
# 5 0.000857 -0.000502 -0.000519 0.000000 0.024363 0.000000
# 6 0.000000 0.000000 0.000000 0.003629 0.000000 0.028147
#
#
# Mechanical properties :
#
#
# Convention : Reuss Voigt Hill
#
# Bulk Modulus (GPa) = 37.72333 52.83082 45.27708
# Shear Modulus (GPa) = 22.05656 27.25891 24.65773
#
# Velocity S-wave (km/s) = 3.38888 3.76740 3.58314
# Velocity P-wave (km/s) = 5.91224 6.81415 6.37915
#
# Compressibility (1/GPa) = 0.02650879
#
# Stress axis : x y z
#
# Youngs Moduli (GPa) = 54.02935 28.77044 66.09771
#
# Poissons Ratio (x) = 0.26073 0.54339
# Poissons Ratio (y) = 0.48963 0.24192
# Poissons Ratio (z) = 0.44417 0.10530
#
# Static dielectric constant tensor:
#      x y z
#    x 3.602900 0.000000 0.035900 
#    y 0.000000 3.203500 0.000000 
#    z 0.035900 0.000000 3.716920 
# 
# 
# High freq. dielectric constant tensor:
#      x y z
#    x 1.758610 0.000000 0.003420 
#    y 0.000000 1.715150 0.000000 
#    z 0.003420 0.000000 1.761560 
# 
# From -- ./inp_files/23886.got.cif
#   From: 2010.03.12/outbox.cif.g09.slc.cpg/sg8_12_cif.got.tgz:23886.got - 2010.03.31 10:45:26.
