data_PCOD8053773
_publ_section_title
;
Structure prediction by ZEFSAII (Michael W. Deem and Ramdas Pophale) SiO2 
 PCOD8053773
Probable space group: C M
;
_chemical_formula_sum "Si O2"
_cell_formula_units_Z 28
_cell_length_a 5.327911
_cell_length_b 24.625614
_cell_length_c 11.075729
_cell_angle_alpha 90.000000
_cell_angle_beta 123.661337
_cell_angle_gamma 90.000000
_cell_volume 1209.514370
_symmetry_space_group_name_H-M "C M"
_symmetry_group_IT_number 8
_symmetry_cell_setting 'monoclinic'
loop_
_space_group_symop_operation_xyz
x,y,z
x,-y,z
1/2+x,1/2+y,z
1/2+x,1/2-y,z
loop_
_atom_site_type_symbol
_atom_site_label
_atom_site_fract_x
_atom_site_fract_y
_atom_site_fract_z
Si Si1 0.376900 0.108828 0.256750
Si Si2 0.915285 0.272727 0.585309
Si Si3 0.129522 0.062621 0.831627
Si Si4 0.829373 0.500000 0.513865
Si Si5 0.322947 0.437379 0.009300
Si Si6 0.123196 0.500000 0.326978
Si Si7 0.037894 0.727231 0.255872
Si Si8 0.075686 0.608838 0.584113
O O1 0.515020 0.054611 0.228585
O O2 0.517062 0.162515 0.235372
O O3 0.476398 0.110674 0.420448
O O4 0.014134 0.102274 0.149563
O O5 0.255210 0.249507 0.663467
O O6 0.935466 0.337461 0.605408
O O7 0.726741 0.249896 0.420667
O O8 0.476238 0.082225 0.920476
O O9 0.976194 0.070371 0.920445
O O10 0.938434 0.102281 0.691373
O O11 0.106530 0.000000 0.781331
O O12 0.476282 0.500000 0.420436
O O13 0.976248 0.500000 0.420406
O O14 0.937515 0.554618 0.612239
O O15 0.345948 0.500000 0.059595
O O16 0.198145 0.749477 0.177815
#
# Coordination Sequence:
#
# PCOD8053773 Si02
#       8
#     4   4   4   2   4   2   4   4
#     4  11  22  41  68  97 129 162 221 268 316 378
#     4  10  21  37  58  91 124 165 204 262 315 371
#     4  10  23  43  62  90 132 173 205 251 326 395
#     4  10  24  34  54  96 130 150 191 270 323 352
#     4  10  23  43  62  90 132 173 205 251 326 395
#     4  10  24  34  54  96 130 150 191 270 323 352
#     4  10  21  37  58  91 124 165 204 262 315 371
#     4  11  22  41  68  97 129 162 221 268 316 378
#
# _framework density 23.149785999999999
#
# number of rings (size 3 to 8) (size 9 to 14) (size 15 to 20)
#    0.000    1.714    4.286    0.000    4.000    6.857 
#    0.000    0.000    0.000    5.143    0.000    0.000 
#    0.000    0.000    0.000    0.000    0.000    0.000 
#
# Total GULP energy -173479.312027 kJ/mol
# GULP energy per Si atom -12391.379430 kJ/mol
# Density = 2.309710 g / cm^3
# Si number density = 23.149786 Si / 1000 Ang^3
#
#
#
# Elastic Constant Matrix: (Units=GPa)
#
#
# Indices 1 2 3 4 5 6 
#
# 1 150.9717 53.6115 43.3134 0.0000 50.3458 0.0000
# 2 53.6115 208.1835 33.7617 0.0000 30.8175 0.0000
# 3 43.3134 33.7617 118.9498 0.0000 31.8258 0.0000
# 4 0.0000 0.0000 0.0000 11.8836 0.0000 15.3019
# 5 50.3458 30.8175 31.8258 0.0000 35.4134 0.0000
# 6 0.0000 0.0000 0.0000 15.3019 0.0000 23.9950
#
#
#
# Elastic Compliance Matrix: (Units=1/GPa)
#
#
# Indices 1 2 3 4 5 6 
#
# 1 0.012689 -0.000696 0.000318 0.000000 -0.017719 0.000000
# 2 -0.000696 0.005564 -0.000388 0.000000 -0.003503 0.000000
# 3 0.000318 -0.000388 0.011101 0.000000 -0.010091 0.000000
# 4 0.000000 0.000000 0.000000 0.470499 0.000000 -0.300042
# 5 -0.017719 -0.003503 -0.010091 0.000000 0.065545 0.000000
# 6 0.000000 0.000000 0.000000 -0.300042 0.000000 0.233015
#
#
# Mechanical properties :
#
#
# Convention : Reuss Voigt Hill
#
# Bulk Modulus (GPa) = 35.94426 82.16425 59.05426
# Shear Modulus (GPa) = 6.17878 37.41962 21.79920
#
# Velocity S-wave (km/s) = 1.63549 4.02483 3.07198
# Velocity P-wave (km/s) = 4.37344 7.56098 6.17638
#
# Compressibility (1/GPa) = 0.02782085
#
# Stress axis : x y z
#
# Youngs Moduli (GPa) = 78.81101 179.71576 90.08046
#
# Poissons Ratio (x) = 0.12512 -0.02865
# Poissons Ratio (y) = 0.05487 0.03500
# Poissons Ratio (z) = -0.02507 0.06982
#
# Static dielectric constant tensor:
#      x y z
#    x 4.767030 0.000000 0.585370 
#    y 0.000000 5.806030 0.000000 
#    z 0.585370 0.000000 4.071510 
# 
# 
# High freq. dielectric constant tensor:
#      x y z
#    x 1.912320 0.000000 0.034680 
#    y 0.000000 1.914070 0.000000 
#    z 0.034680 0.000000 1.883520 
# 
# From -- ./inp_files/25035.got.cif
#   From: 2010.03.12/outbox.cif.g09.slc.cpg/sg8_13_cif.got.tgz:25035.got - 2010.03.31 10:45:26.
