data_PCOD8053739
_publ_section_title
;
Structure prediction by ZEFSAII (Michael W. Deem and Ramdas Pophale) SiO2 
 PCOD8053739
Probable space group: C M
;
_chemical_formula_sum "Si O2"
_cell_formula_units_Z 32
_cell_length_a 15.317908
_cell_length_b 9.043035
_cell_length_c 22.382757
_cell_angle_alpha 90.000000
_cell_angle_beta 32.228977
_cell_angle_gamma 90.000000
_cell_volume 1653.492479
_symmetry_space_group_name_H-M "C M"
_symmetry_group_IT_number 8
_symmetry_cell_setting 'monoclinic'
loop_
_space_group_symop_operation_xyz
x,y,z
x,-y,z
1/2+x,1/2+y,z
1/2+x,1/2-y,z
loop_
_atom_site_type_symbol
_atom_site_label
_atom_site_fract_x
_atom_site_fract_y
_atom_site_fract_z
Si Si1 0.150130 0.165384 0.447640
Si Si2 0.312836 0.672185 0.039314
Si Si3 0.478951 0.333501 0.421464
Si Si4 0.924877 0.328348 0.665082
Si Si5 0.632697 0.827437 0.654370
Si Si6 0.958567 0.326313 0.197065
Si Si7 0.278560 0.672574 0.196875
Si Si8 0.605904 0.175666 0.803229
O O1 0.331324 0.218191 0.323102
O O2 0.033451 0.165640 0.458292
O O3 0.079806 0.281022 0.535649
O O4 0.154863 0.000000 0.472707
O O5 0.344477 0.500000 0.008589
O O6 0.326599 0.707624 0.101254
O O7 0.137145 0.721124 0.115413
O O8 0.445957 0.768357 0.928809
O O9 0.483763 0.500000 0.392419
O O10 0.296125 0.263015 0.527586
O O11 0.596255 0.233106 0.313436
O O12 0.886632 0.500000 0.675654
O O13 0.766162 0.232234 0.744203
O O14 0.973694 0.298556 0.705777
O O15 0.603066 0.759930 0.737282
O O16 0.668434 0.000000 0.641621
O O17 0.942977 0.500000 0.193540
O O18 0.914381 0.245907 0.160796
O O19 0.276068 0.500000 0.211658
O O20 0.607011 0.000000 0.803873
#
# Coordination Sequence:
#
# PCOD8053739 Si02
#       8
#     4   4   4   4   4   4   4   4
#     4   9  17  33  58  84 117 156 190 230 284 344
#     4  10  23  42  61  84 117 155 194 240 291 339
#     4   9  17  35  59  81 117 158 190 230 285 347
#     4  11  22  36  58  88 118 150 189 240 294 341
#     4   9  20  38  58  82 114 153 190 234 290 342
#     4   9  20  39  60  82 117 159 193 232 286 345
#     4  10  21  36  57  88 121 149 188 241 290 338
#     4  11  23  43  63  81 113 156 200 239 284 346
#
# _framework density 19.352976000000002
#
# number of rings (size 3 to 8) (size 9 to 14) (size 15 to 20)
#    0.000    2.250    1.250    1.875    1.750    4.500 
#    0.000    6.875    0.000    0.000    0.000    0.000 
#    0.000    0.000    0.000    0.000    0.000    0.000 
#
# Total GULP energy -198404.986765 kJ/mol
# GULP energy per Si atom -12400.311673 kJ/mol
# Density = 1.930893 g / cm^3
# Si number density = 19.352976 Si / 1000 Ang^3
#
#
#
# Elastic Constant Matrix: (Units=GPa)
#
#
# Indices 1 2 3 4 5 6 
#
# 1 96.9690 46.5397 67.0351 -0.0001 -16.6242 -0.0001
# 2 46.5397 69.3498 53.6616 -0.0004 -2.3211 0.0000
# 3 67.0351 53.6616 134.4308 -0.0018 -14.1254 0.0000
# 4 -0.0001 -0.0004 -0.0018 35.3008 -0.0001 0.7090
# 5 -16.6242 -2.3211 -14.1254 -0.0001 18.7999 -0.0001
# 6 -0.0001 0.0000 0.0000 0.7090 -0.0001 25.4122
#
#
#
# Elastic Compliance Matrix: (Units=1/GPa)
#
#
# Indices 1 2 3 4 5 6 
#
# 1 0.020678 -0.009451 -0.005146 0.000000 0.013251 0.000000
# 2 -0.009451 0.025464 -0.006514 0.000000 -0.010108 0.000000
# 3 -0.005146 -0.006514 0.013075 0.000001 0.004469 0.000000
# 4 0.000000 0.000000 0.000001 0.028344 0.000000 -0.000791
# 5 0.013251 -0.010108 0.004469 0.000000 0.067019 0.000000
# 6 0.000000 0.000000 0.000000 -0.000791 0.000000 0.039373
#
#
# Mechanical properties :
#
#
# Convention : Reuss Voigt Hill
#
# Bulk Modulus (GPa) = 58.84266 70.58027 64.71147
# Shear Modulus (GPa) = 20.67475 24.80344 22.73909
#
# Velocity S-wave (km/s) = 3.27203 3.58388 3.43150
# Velocity P-wave (km/s) = 6.68924 7.32630 7.01500
#
# Compressibility (1/GPa) = 0.01699447
#
# Stress axis : x y z
#
# Youngs Moduli (GPa) = 48.36061 39.27070 76.48346
#
# Poissons Ratio (x) = 0.37116 0.39360
# Poissons Ratio (y) = 0.45707 0.49821
# Poissons Ratio (z) = 0.24887 0.25581
#
# Static dielectric constant tensor:
#      x y z
#    x 3.586770 0.000000 -0.062700 
#    y 0.000000 3.397660 0.000000 
#    z -0.062700 0.000000 3.609810 
# 
# 
# High freq. dielectric constant tensor:
#      x y z
#    x 1.757150 0.000000 -0.005600 
#    y 0.000000 1.740370 0.000000 
#    z -0.005600 0.000000 1.754420 
# 
# From -- ./inp_files/24787.got.cif
#   From: 2010.03.12/outbox.cif.g09.slc.cpg/sg8_13_cif.got.tgz:24787.got - 2010.03.31 10:45:26.
