data_PCOD8053078
_publ_section_title
;
Structure prediction by ZEFSAII (Michael W. Deem and Ramdas Pophale) SiO2 
 PCOD8053078
Probable space group: C M
;
_chemical_formula_sum "Si O2"
_cell_formula_units_Z 32
_cell_length_a 28.125868
_cell_length_b 8.503237
_cell_length_c 9.252503
_cell_angle_alpha 90.000000
_cell_angle_beta 132.669166
_cell_angle_gamma 90.000000
_cell_volume 1627.053663
_symmetry_space_group_name_H-M "C M"
_symmetry_group_IT_number 8
_symmetry_cell_setting 'monoclinic'
loop_
_space_group_symop_operation_xyz
x,y,z
x,-y,z
1/2+x,1/2+y,z
1/2+x,1/2-y,z
loop_
_atom_site_type_symbol
_atom_site_label
_atom_site_fract_x
_atom_site_fract_y
_atom_site_fract_z
Si Si1 0.122210 0.181393 0.940180
Si Si2 0.004273 0.316905 0.855031
Si Si3 0.627922 0.183400 0.638951
Si Si4 0.372638 0.678188 0.604378
Si Si5 0.232945 0.682859 0.358851
Si Si6 0.736342 0.678980 0.679591
Si Si7 0.515767 0.181419 0.207170
Si Si8 0.375716 0.179322 0.910873
O O1 0.049923 0.221029 0.841987
O O2 0.128822 0.217810 0.785903
O O3 0.137701 0.000000 0.999676
O O4 0.172668 0.286014 0.132136
O O5 0.019508 0.500000 0.870915
O O6 0.929422 0.286168 0.654412
O O7 0.016098 0.253447 0.043240
O O8 0.695489 0.204710 0.695166
O O9 0.570695 0.257823 0.421052
O O10 0.617142 0.000000 0.652031
O O11 0.388420 0.500000 0.593334
O O12 0.299231 0.725963 0.406807
O O13 0.371534 0.694871 0.774998
O O14 0.234123 0.500000 0.405309
O O15 0.226006 0.784621 0.489481
O O16 0.714356 0.500000 0.662086
O O17 0.812380 0.701215 0.880519
O O18 0.533875 0.000000 0.233960
O O19 0.444568 0.208050 0.133329
O O20 0.376641 0.000000 0.848972
#
# Coordination Sequence:
#
# PCOD8053078 Si02
#       8
#     4   4   4   4   4   4   4   4
#     4  12  25  39  54  76 108 144 187 235 279 324
#     4  10  19  35  59  84 110 141 178 219 270 330
#     4  11  22  37  55  75 106 146 184 224 274 327
#     4   9  17  30  52  83 113 138 172 220 268 317
#     4  10  20  36  58  83 111 144 182 224 274 328
#     4  10  19  33  56  84 111 140 177 223 270 318
#     4   8  16  32  56  81 102 132 175 216 255 312
#     4   8  15  30  52  78 107 137 173 217 264 314
#
# _framework density 19.667449999999999
#
# number of rings (size 3 to 8) (size 9 to 14) (size 15 to 20)
#    0.000    2.250    0.000    4.500    0.000    3.000 
#    0.000    6.875    0.000    4.500    0.000    0.000 
#    0.000    0.000    0.000    0.000    0.000    0.000 
#
# Total GULP energy -198312.612832 kJ/mol
# GULP energy per Si atom -12394.538302 kJ/mol
# Density = 1.962269 g / cm^3
# Si number density = 19.667450 Si / 1000 Ang^3
#
#
#
# Elastic Constant Matrix: (Units=GPa)
#
#
# Indices 1 2 3 4 5 6 
#
# 1 112.8317 15.8011 59.0799 0.0000 23.1001 0.0000
# 2 15.8011 52.0401 13.8384 0.0000 5.9095 0.0000
# 3 59.0799 13.8384 43.5921 0.0000 9.5955 0.0000
# 4 0.0000 0.0000 0.0000 22.4892 0.0000 2.0035
# 5 23.1001 5.9095 9.5955 0.0000 28.6274 0.0000
# 6 0.0000 0.0000 0.0000 2.0035 0.0000 31.9710
#
#
#
# Elastic Compliance Matrix: (Units=1/GPa)
#
#
# Indices 1 2 3 4 5 6 
#
# 1 0.034999 0.002990 -0.045379 0.000000 -0.013648 0.000000
# 2 0.002990 0.021380 -0.010081 0.000000 -0.003447 0.000000
# 3 -0.045379 -0.010081 0.085426 0.000000 0.010064 0.000000
# 4 0.000000 0.000000 0.000000 0.044715 0.000000 -0.002802
# 5 -0.013648 -0.003447 0.010064 0.000000 0.043283 0.000000
# 6 0.000000 0.000000 0.000000 -0.002802 0.000000 0.031454
#
#
# Mechanical properties :
#
#
# Convention : Reuss Voigt Hill
#
# Bulk Modulus (GPa) = 27.12492 42.87807 35.00150
# Shear Modulus (GPa) = 13.21055 24.60048 18.90552
#
# Velocity S-wave (km/s) = 2.59452 3.54053 3.10378
# Velocity P-wave (km/s) = 4.77463 6.20989 5.53894
#
# Compressibility (1/GPa) = 0.03686646
#
# Stress axis : x y z
#
# Youngs Moduli (GPa) = 28.57218 46.77230 11.70602
#
# Poissons Ratio (x) = -0.13985 0.53121
# Poissons Ratio (y) = -0.08543 0.11800
# Poissons Ratio (z) = 1.29657 0.47150
#
# Static dielectric constant tensor:
#      x y z
#    x 3.644230 0.000000 0.436990 
#    y 0.000000 3.421740 0.000000 
#    z 0.436990 0.000000 3.572690 
# 
# 
# High freq. dielectric constant tensor:
#      x y z
#    x 1.764480 0.000000 0.038110 
#    y 0.000000 1.760070 0.000000 
#    z 0.038110 0.000000 1.742130 
# 
# From -- ./inp_files/17350.got.cif
#   From: 2010.03.12/outbox.cif.g09.slc.cpg/sg8_9_cif.got.tgz:17350.got - 2010.03.31 10:45:26.
