data_PCOD8053671
_publ_section_title
;
Structure prediction by ZEFSAII (Michael W. Deem and Ramdas Pophale) SiO2 
 PCOD8053671
Probable space group: C M
;
_chemical_formula_sum "Si O2"
_cell_formula_units_Z 32
_cell_length_a 14.647987
_cell_length_b 8.506955
_cell_length_c 25.029324
_cell_angle_alpha 90.000000
_cell_angle_beta 150.858821
_cell_angle_gamma 90.000000
_cell_volume 1518.788788
_symmetry_space_group_name_H-M "C M"
_symmetry_group_IT_number 8
_symmetry_cell_setting 'monoclinic'
loop_
_space_group_symop_operation_xyz
x,y,z
x,-y,z
1/2+x,1/2+y,z
1/2+x,1/2-y,z
loop_
_atom_site_type_symbol
_atom_site_label
_atom_site_fract_x
_atom_site_fract_y
_atom_site_fract_z
Si Si1 0.738620 0.813986 0.271250
Si Si2 0.077795 0.180598 0.294402
Si Si3 0.124118 0.682150 0.429300
Si Si4 0.427117 0.185059 0.662821
Si Si5 0.712222 0.326234 0.076928
Si Si6 0.984201 0.811316 0.802852
Si Si7 0.864728 0.672590 0.035816
Si Si8 0.836889 0.186736 0.840592
O O1 0.682709 0.785744 0.304198
O O2 0.570376 0.746292 0.146333
O O3 0.925134 0.721601 0.353501
O O4 0.767580 0.000000 0.277884
O O5 0.162901 0.218910 0.395683
O O6 0.853583 0.215180 0.182159
O O7 0.112475 0.000000 0.298141
O O8 0.131054 0.500000 0.418311
O O9 0.283935 0.722698 0.552913
O O10 0.382261 0.229520 0.701020
O O11 0.635169 0.248530 0.755852
O O12 0.404970 0.000000 0.642058
O O13 0.713491 0.500000 0.104197
O O14 0.779935 0.341529 0.051224
O O15 0.500049 0.254331 0.965452
O O16 0.873371 0.754148 0.798827
O O17 0.981455 0.000000 0.796248
O O18 0.201895 0.746289 0.916801
O O19 0.900064 0.500000 0.030394
O O20 0.845751 0.000000 0.845658
#
# Coordination Sequence:
#
# PCOD8053671 Si02
#       8
#     4   4   4   4   4   4   4   4
#     4  10  20  39  64  90 118 151 189 238 292 345
#     4  11  22  38  60  89 121 155 190 233 287 347
#     4  12  26  43  59  80 111 154 203 249 290 339
#     4  11  23  39  56  81 112 145 190 245 292 339
#     4   8  14  31  57  85 114 149 188 229 277 337
#     4   9  17  35  59  83 111 148 185 222 275 344
#     4   7  13  28  55  85 114 144 178 220 277 343
#     4   8  17  35  60  83 111 150 189 228 280 338
#
# _framework density 21.069421999999999
#
# number of rings (size 3 to 8) (size 9 to 14) (size 15 to 20)
#    0.000    2.500    0.000    5.250    0.000    2.000 
#    0.000   15.000    0.000    0.000    0.000    0.000 
#    0.000    0.000    0.000    0.000    0.000    0.000 
#
# Total GULP energy -198292.666950 kJ/mol
# GULP energy per Si atom -12393.291684 kJ/mol
# Density = 2.102147 g / cm^3
# Si number density = 21.069422 Si / 1000 Ang^3
#
#
#
# Elastic Constant Matrix: (Units=GPa)
#
#
# Indices 1 2 3 4 5 6 
#
# 1 29.9516 1.7103 2.3389 -0.0001 1.0989 0.0000
# 2 1.7103 59.7772 16.0153 0.0001 2.0915 0.0001
# 3 2.3389 16.0153 86.5101 0.0012 -6.1434 0.0002
# 4 -0.0001 0.0001 0.0012 7.3552 0.0002 -3.6805
# 5 1.0989 2.0915 -6.1434 0.0002 35.6851 0.0000
# 6 0.0000 0.0001 0.0002 -3.6805 0.0000 24.6242
#
#
#
# Elastic Compliance Matrix: (Units=1/GPa)
#
#
# Indices 1 2 3 4 5 6 
#
# 1 0.033536 -0.000689 -0.000860 0.000001 -0.001140 0.000000
# 2 -0.000689 0.017708 -0.003373 0.000000 -0.001597 0.000000
# 3 -0.000860 -0.003373 0.012374 -0.000002 0.002354 0.000000
# 4 0.000001 0.000000 -0.000002 0.146949 -0.000001 0.021964
# 5 -0.001140 -0.001597 0.002354 -0.000001 0.028557 0.000000
# 6 0.000000 0.000000 0.000000 0.021964 0.000000 0.043893
#
#
# Mechanical properties :
#
#
# Convention : Reuss Voigt Hill
#
# Bulk Modulus (GPa) = 18.59658 24.04087 21.31872
# Shear Modulus (GPa) = 16.08820 23.94452 20.01636
#
# Velocity S-wave (km/s) = 2.76629 3.37480 3.08558
# Velocity P-wave (km/s) = 4.36448 5.15953 4.77857
#
# Compressibility (1/GPa) = 0.05377334
#
# Stress axis : x y z
#
# Youngs Moduli (GPa) = 29.81912 56.47135 80.81306
#
# Poissons Ratio (x) = 0.03892 0.06951
# Poissons Ratio (y) = 0.02055 0.27259
# Poissons Ratio (z) = 0.02565 0.19048
#
# Static dielectric constant tensor:
#      x y z
#    x 3.693080 0.000000 0.149400 
#    y 0.000000 3.428830 0.000000 
#    z 0.149400 0.000000 4.161790 
# 
# 
# High freq. dielectric constant tensor:
#      x y z
#    x 1.816660 0.000000 0.000130 
#    y 0.000000 1.795770 0.000000 
#    z 0.000130 0.000000 1.834860 
# 
# From -- ./inp_files/31988.got.cif
#   From: 2010.03.12/outbox.cif.g09.slc.cpg/sg8_16_cif.got.tgz:31988.got - 2010.03.31 10:45:26.
