data_PCOD8053679
_publ_section_title
;
Structure prediction by ZEFSAII (Michael W. Deem and Ramdas Pophale) SiO2 
 PCOD8053679
Probable space group: C M
;
_chemical_formula_sum "Si O2"
_cell_formula_units_Z 28
_cell_length_a 7.782916
_cell_length_b 14.155374
_cell_length_c 11.896062
_cell_angle_alpha 90.000000
_cell_angle_beta 56.832394
_cell_angle_gamma 90.000000
_cell_volume 1097.060655
_symmetry_space_group_name_H-M "C M"
_symmetry_group_IT_number 8
_symmetry_cell_setting 'monoclinic'
loop_
_space_group_symop_operation_xyz
x,y,z
x,-y,z
1/2+x,1/2+y,z
1/2+x,1/2-y,z
loop_
_atom_site_type_symbol
_atom_site_label
_atom_site_fract_x
_atom_site_fract_y
_atom_site_fract_z
Si Si1 0.175030 0.397434 0.855670
Si Si2 0.883964 0.886224 0.998023
Si Si3 0.938864 0.659967 0.544195
Si Si4 0.663632 0.393713 0.286019
Si Si5 0.339583 0.105626 0.816321
Si Si6 0.826765 0.805589 0.255504
Si Si7 0.018712 0.864648 0.571233
O O1 0.090445 0.500000 0.921518
O O2 0.244406 0.344695 0.945349
O O3 0.374382 0.420222 0.707716
O O4 0.995388 0.343069 0.849788
O O5 0.115688 0.845809 0.896992
O O6 0.881520 0.000000 0.998841
O O7 0.788745 0.844780 0.145108
O O8 0.940213 0.597416 0.656199
O O9 0.751776 0.633018 0.530986
O O10 0.146496 0.653012 0.398336
O O11 0.911457 0.763677 0.603454
O O12 0.751917 0.500000 0.223827
O O13 0.830643 0.310486 0.255129
O O14 0.537142 0.349376 0.227543
O O15 0.519504 0.408738 0.446248
O O16 0.311946 0.000000 0.870401
#
# Coordination Sequence:
#
# PCOD8053679 Si02
#       7
#     4   4   4   4   4   4   4
#     4  10  20  39  67 101 140 186 242 303 368 443
#     4  10  22  44  68 100 148 200 251 305 375 458
#     4  11  22  39  66 101 140 186 249 307 368 448
#     4  11  24  46  74 107 148 196 250 312 377 451
#     4  10  21  40  67 101 141 191 251 308 373 446
#     4  11  24  47  71 105 148 195 248 309 379 448
#     4  11  21  39  67 103 141 184 244 310 374 438
#
# _framework density 25.522748
#
# number of rings (size 3 to 8) (size 9 to 14) (size 15 to 20)
#    0.000    1.429    1.429    6.000    0.000    2.857 
#    7.714    4.286    0.000    0.000    0.000    1.000 
#    0.000    0.000    0.000    0.000    0.000    0.000 
#
# Total GULP energy -173450.797531 kJ/mol
# GULP energy per Si atom -12389.342681 kJ/mol
# Density = 2.546466 g / cm^3
# Si number density = 25.522748 Si / 1000 Ang^3
#
#
#
# Elastic Constant Matrix: (Units=GPa)
#
#
# Indices 1 2 3 4 5 6 
#
# 1 150.9306 30.6917 48.0688 0.0000 33.0970 0.0000
# 2 30.6917 90.7231 14.2852 0.0000 5.2038 0.0000
# 3 48.0688 14.2852 137.9578 0.0000 28.3900 0.0000
# 4 0.0000 0.0000 0.0000 26.1936 0.0000 6.8269
# 5 33.0970 5.2038 28.3900 0.0000 47.7255 0.0000
# 6 0.0000 0.0000 0.0000 6.8269 0.0000 29.4373
#
#
#
# Elastic Compliance Matrix: (Units=1/GPa)
#
#
# Indices 1 2 3 4 5 6 
#
# 1 0.008725 -0.002395 -0.001824 0.000000 -0.004705 0.000000
# 2 -0.002395 0.011878 -0.000536 0.000000 0.000685 0.000000
# 3 -0.001824 -0.000536 0.008737 0.000000 -0.003874 0.000000
# 4 0.000000 0.000000 0.000000 0.040633 0.000000 -0.009423
# 5 -0.004705 0.000685 -0.003874 0.000000 0.026445 0.000000
# 6 0.000000 0.000000 0.000000 -0.009423 0.000000 0.036156
#
#
# Mechanical properties :
#
#
# Convention : Reuss Voigt Hill
#
# Bulk Modulus (GPa) = 50.42953 62.85588 56.64270
# Shear Modulus (GPa) = 33.62599 39.77567 36.70083
#
# Velocity S-wave (km/s) = 3.63366 3.95199 3.79617
# Velocity P-wave (km/s) = 6.11606 6.74575 6.43861
#
# Compressibility (1/GPa) = 0.01982965
#
# Stress axis : x y z
#
# Youngs Moduli (GPa) = 114.61220 84.19024 114.45773
#
# Poissons Ratio (x) = 0.20161 0.20877
# Poissons Ratio (y) = 0.27446 0.06140
# Poissons Ratio (z) = 0.20905 0.04516
#
# Static dielectric constant tensor:
#      x y z
#    x 4.826580 0.000000 0.230290 
#    y 0.000000 4.401560 0.000000 
#    z 0.230290 0.000000 4.463530 
# 
# 
# High freq. dielectric constant tensor:
#      x y z
#    x 2.024640 0.000000 0.018530 
#    y 0.000000 2.006790 0.000000 
#    z 0.018530 0.000000 2.016930 
# 
# From -- ./inp_files/18840.got.cif
#   From: 2010.03.12/outbox.cif.g09.slc.cpg/sg8_10_cif.got.tgz:18840.got - 2010.03.31 10:45:26.
