data_PCOD8053115
_publ_section_title
;
Structure prediction by ZEFSAII (Michael W. Deem and Ramdas Pophale) SiO2 
 PCOD8053115
Probable space group: C M
;
_chemical_formula_sum "Si O2"
_cell_formula_units_Z 24
_cell_length_a 27.047139
_cell_length_b 8.586524
_cell_length_c 5.149666
_cell_angle_alpha 90.000000
_cell_angle_beta 79.008168
_cell_angle_gamma 90.000000
_cell_volume 1174.022418
_symmetry_space_group_name_H-M "C M"
_symmetry_group_IT_number 8
_symmetry_cell_setting 'monoclinic'
loop_
_space_group_symop_operation_xyz
x,y,z
x,-y,z
1/2+x,1/2+y,z
1/2+x,1/2-y,z
loop_
_atom_site_type_symbol
_atom_site_label
_atom_site_fract_x
_atom_site_fract_y
_atom_site_fract_z
Si Si1 0.352590 0.816562 0.590960
Si Si2 0.681672 0.316655 0.229084
Si Si3 0.402162 0.318875 0.040991
Si Si4 0.573242 0.180088 0.371281
Si Si5 0.009567 0.680899 0.936383
Si Si6 0.738091 0.314414 0.672776
O O1 0.387056 0.731061 0.345844
O O2 0.295555 0.757050 0.614673
O O3 0.357351 0.000000 0.541376
O O4 0.370209 0.776934 0.863247
O O5 0.688774 0.500000 0.223261
O O6 0.623003 0.280133 0.286655
O O7 0.709569 0.244947 0.451396
O O8 0.708927 0.244795 0.950106
O O9 0.391624 0.500000 0.010411
O O10 0.460901 0.285808 0.941980
O O11 0.549114 0.221188 0.671633
O O12 0.588181 0.000000 0.336096
O O13 0.534041 0.225566 0.186253
O O14 0.993670 0.500000 0.942164
O O15 0.736314 0.500000 0.678147
#
# Coordination Sequence:
#
# PCOD8053115 Si02
#       6
#     4   4   4   4   4   4
#     4  11  22  41  66  87 116 163 208 239 286 359
#     4  10  19  34  56  82 111 143 184 235 289 338
#     4  12  25  40  60  92 126 151 192 255 310 348
#     4  10  21  36  55  81 111 145 190 237 281 341
#     4  10  21  38  58  79 109 153 198 233 279 353
#     4   9  19  35  57  83 109 145 194 237 273 337
#
# _framework density 20.442537999999999
#
# number of rings (size 3 to 8) (size 9 to 14) (size 15 to 20)
#    0.000    1.667    0.000    5.000    0.000    5.333 
#    0.000    5.000    0.000    0.000    0.000    0.000 
#    0.000    0.000    0.000    0.000    0.000    0.000 
#
# Total GULP energy -148866.718009 kJ/mol
# GULP energy per Si atom -12405.559834 kJ/mol
# Density = 2.039601 g / cm^3
# Si number density = 20.442538 Si / 1000 Ang^3
#
#
#
# Elastic Constant Matrix: (Units=GPa)
#
#
# Indices 1 2 3 4 5 6 
#
# 1 103.3333 25.1881 29.5068 0.0000 -1.2198 0.0000
# 2 25.1881 38.9211 20.9714 0.0000 -4.3882 0.0000
# 3 29.5068 20.9714 118.1909 0.0000 5.5198 0.0000
# 4 0.0000 0.0000 0.0000 20.9057 0.0000 -2.4390
# 5 -1.2198 -4.3882 5.5198 0.0000 38.6961 0.0000
# 6 0.0000 0.0000 0.0000 -2.4390 0.0000 25.2357
#
#
#
# Elastic Compliance Matrix: (Units=1/GPa)
#
#
# Indices 1 2 3 4 5 6 
#
# 1 0.011813 -0.006717 -0.001751 0.000000 -0.000140 0.000000
# 2 -0.006717 0.032847 -0.004344 0.000000 0.004133 0.000000
# 3 -0.001751 -0.004344 0.009759 0.000000 -0.001940 0.000000
# 4 0.000000 0.000000 0.000000 0.048379 0.000000 0.004676
# 5 -0.000140 0.004133 -0.001940 0.000000 0.026583 0.000000
# 6 0.000000 0.000000 0.000000 0.004676 0.000000 0.040078
#
#
# Mechanical properties :
#
#
# Convention : Reuss Voigt Hill
#
# Bulk Modulus (GPa) = 34.72858 45.75309 40.24084
# Shear Modulus (GPa) = 24.42798 29.28611 26.85705
#
# Velocity S-wave (km/s) = 3.46057 3.78908 3.62855
# Velocity P-wave (km/s) = 5.74392 6.44770 6.10596
#
# Compressibility (1/GPa) = 0.02879473
#
# Stress axis : x y z
#
# Youngs Moduli (GPa) = 84.65185 30.44428 102.46533
#
# Poissons Ratio (x) = 0.20450 0.17939
# Poissons Ratio (y) = 0.56863 0.44513
# Poissons Ratio (z) = 0.14821 0.13226
#
# Static dielectric constant tensor:
#      x y z
#    x 3.727950 0.000000 0.111380 
#    y 0.000000 3.418820 0.000000 
#    z 0.111380 0.000000 3.994030 
# 
# 
# High freq. dielectric constant tensor:
#      x y z
#    x 1.812130 0.000000 0.002620 
#    y 0.000000 1.770830 0.000000 
#    z 0.002620 0.000000 1.819950 
# 
# From -- ./inp_files/5809.got.cif
#   From: 2010.03.12/outbox.cif.g09.slc.cpg/sg8_3_cif.got.tgz:5809.got - 2010.03.31 10:45:26.
