data_PCOD8053746
_publ_section_title
;
Structure prediction by ZEFSAII (Michael W. Deem and Ramdas Pophale) SiO2 
 PCOD8053746
Probable space group: C M
;
_chemical_formula_sum "Si O2"
_cell_formula_units_Z 20
_cell_length_a 12.733526
_cell_length_b 19.057979
_cell_length_c 9.737078
_cell_angle_alpha 90.000000
_cell_angle_beta 154.847563
_cell_angle_gamma 90.000000
_cell_volume 1004.319128
_symmetry_space_group_name_H-M "C M"
_symmetry_group_IT_number 8
_symmetry_cell_setting 'monoclinic'
loop_
_space_group_symop_operation_xyz
x,y,z
x,-y,z
1/2+x,1/2+y,z
1/2+x,1/2-y,z
loop_
_atom_site_type_symbol
_atom_site_label
_atom_site_fract_x
_atom_site_fract_y
_atom_site_fract_z
Si Si1 0.623890 0.000000 0.881320
Si Si2 0.150773 0.857237 0.155620
Si Si3 0.048875 0.646409 0.852138
Si Si4 0.816822 0.716589 0.098820
Si Si5 0.031766 0.000000 0.120431
Si Si6 0.303772 0.234514 0.779038
O O1 0.679958 0.929050 0.034633
O O2 0.322662 0.000000 0.505626
O O3 0.816534 0.000000 0.981177
O O4 0.409524 0.862266 0.541842
O O5 0.193625 0.844840 0.043761
O O6 0.991142 0.928568 0.984450
O O7 0.026049 0.788106 0.072486
O O8 0.870196 0.666512 0.766697
O O9 0.250964 0.706427 0.077580
O O10 0.110453 0.716444 0.468311
O O11 0.723698 0.704947 0.833261
#
# Coordination Sequence:
#
# PCOD8053746 Si02
#       6
#     2   4   4   4   2   4
#     4  10  22  38  63  91 123 161 208 255 300 365
#     4  10  21  36  59  91 118 160 207 253 304 361
#     4  10  21  36  59  91 118 160 207 253 304 361
#     4  11  21  36  60  87 124 157 204 253 305 362
#     4  10  22  38  63  91 123 161 208 255 300 365
#     4  11  21  36  60  87 124 157 204 253 305 362
#
# _framework density 19.913988
#
# number of rings (size 3 to 8) (size 9 to 14) (size 15 to 20)
#    0.000    1.600    4.000    1.200    5.600    0.000 
#    0.000    1.000    0.000    2.400    0.000    0.000 
#    0.000    0.000    0.000    0.000    0.000    0.000 
#
# Total GULP energy -123893.489720 kJ/mol
# GULP energy per Si atom -12389.348972 kJ/mol
# Density = 1.986866 g / cm^3
# Si number density = 19.913988 Si / 1000 Ang^3
#
#
#
# Elastic Constant Matrix: (Units=GPa)
#
#
# Indices 1 2 3 4 5 6 
#
# 1 136.3805 58.1784 14.1119 0.0006 -3.5561 0.0004
# 2 58.1784 144.4443 -0.2981 0.0003 -0.2709 0.0002
# 3 14.1119 -0.2981 39.1968 0.0013 0.5163 0.0008
# 4 0.0006 0.0003 0.0013 15.9508 0.0007 -3.1632
# 5 -3.5561 -0.2709 0.5163 0.0007 33.8884 0.0005
# 6 0.0004 0.0002 0.0008 -3.1632 0.0005 36.2014
#
#
#
# Elastic Compliance Matrix: (Units=1/GPa)
#
#
# Indices 1 2 3 4 5 6 
#
# 1 0.009312 -0.003756 -0.003394 0.000000 0.000999 0.000000
# 2 -0.003756 0.008438 0.001421 0.000000 -0.000348 0.000000
# 3 -0.003394 0.001421 0.026755 -0.000002 -0.000752 -0.000001
# 4 0.000000 0.000000 -0.000002 0.063798 -0.000001 0.005575
# 5 0.000999 -0.000348 -0.000752 -0.000001 0.029622 -0.000001
# 6 0.000000 0.000000 -0.000001 0.005575 -0.000001 0.028110
#
#
# Mechanical properties :
#
#
# Convention : Reuss Voigt Hill
#
# Bulk Modulus (GPa) = 30.26004 51.55623 40.90814
# Shear Modulus (GPa) = 26.52387 33.74340 30.13363
#
# Velocity S-wave (km/s) = 3.65351 4.12084 3.89419
# Velocity P-wave (km/s) = 5.74681 6.97047 6.38801
#
# Compressibility (1/GPa) = 0.03304689
#
# Stress axis : x y z
#
# Youngs Moduli (GPa) = 107.39027 118.51066 37.37615
#
# Poissons Ratio (x) = 0.44509 0.12686
# Poissons Ratio (y) = 0.40333 -0.05311
# Poissons Ratio (z) = 0.36451 -0.16839
#
# Static dielectric constant tensor:
#      x y z
#    x 3.719680 0.000000 0.165460 
#    y 0.000000 4.106030 0.000000 
#    z 0.165460 0.000000 3.313900 
# 
# 
# High freq. dielectric constant tensor:
#      x y z
#    x 1.778370 0.000000 0.020140 
#    y 0.000000 1.775800 0.000000 
#    z 0.020140 0.000000 1.750660 
# 
# From -- ./inp_files/1169.got.cif
#   From: 2010.03.12/outbox.cif.g09.slc.cpg/sg8_1_cif.got.tgz:1169.got - 2010.03.31 10:45:26.
