data_PCOD8053251
_publ_section_title
;
Structure prediction by ZEFSAII (Michael W. Deem and Ramdas Pophale) SiO2 
 PCOD8053251
Probable space group: C M
;
_chemical_formula_sum "Si O2"
_cell_formula_units_Z 24
_cell_length_a 14.969919
_cell_length_b 9.166534
_cell_length_c 14.655670
_cell_angle_alpha 90.000000
_cell_angle_beta 140.352215
_cell_angle_gamma 90.000000
_cell_volume 1283.205297
_symmetry_space_group_name_H-M "C M"
_symmetry_group_IT_number 8
_symmetry_cell_setting 'monoclinic'
loop_
_space_group_symop_operation_xyz
x,y,z
x,-y,z
1/2+x,1/2+y,z
1/2+x,1/2-y,z
loop_
_atom_site_type_symbol
_atom_site_label
_atom_site_fract_x
_atom_site_fract_y
_atom_site_fract_z
Si Si1 0.523810 0.327011 0.434960
Si Si2 0.724088 0.170380 0.918247
Si Si3 0.243860 0.827373 0.256094
Si Si4 0.564445 0.669225 0.940725
Si Si5 0.018096 0.172735 0.221990
Si Si6 0.745227 0.831481 0.726635
O O1 0.511296 0.500000 0.432685
O O2 0.390759 0.254707 0.378971
O O3 0.534265 0.274729 0.338485
O O4 0.663221 0.273114 0.593960
O O5 0.599838 0.244752 0.876679
O O6 0.696154 0.202554 0.790539
O O7 0.720442 0.000000 0.936580
O O8 0.873920 0.236415 0.067167
O O9 0.149491 0.770891 0.266256
O O10 0.269712 0.000000 0.281472
O O11 0.167815 0.781807 0.102788
O O12 0.581941 0.500000 0.933603
O O13 0.408056 0.707114 0.847767
O O14 0.013349 0.000000 0.209924
O O15 0.716813 0.000000 0.679064
#
# Coordination Sequence:
#
# PCOD8053251 Si02
#       6
#     4   4   4   4   4   4
#     4  11  23  38  57  85 119 148 183 238 287 325
#     4  10  19  36  61  84 110 149 192 231 275 334
#     4  10  19  36  61  85 111 149 192 228 276 341
#     4  10  20  35  59  88 114 144 187 238 281 326
#     4   9  18  35  59  83 109 147 191 228 272 336
#     4  10  22  40  59  81 115 155 189 225 279 344
#
# _framework density 18.703164999999998
#
# number of rings (size 3 to 8) (size 9 to 14) (size 15 to 20)
#    0.000    2.000    3.333    0.500    0.000    2.667 
#    0.000    7.500    0.000    0.000    0.000    0.000 
#    0.000    0.000    0.000    0.000    0.000    0.000 
#
# Total GULP energy -148838.929866 kJ/mol
# GULP energy per Si atom -12403.244155 kJ/mol
# Density = 1.866060 g / cm^3
# Si number density = 18.703165 Si / 1000 Ang^3
#
#
#
# Elastic Constant Matrix: (Units=GPa)
#
#
# Indices 1 2 3 4 5 6 
#
# 1 115.0964 34.5490 12.6310 0.0000 -6.6828 0.0000
# 2 34.5490 42.8743 30.2574 0.0000 -1.9519 0.0000
# 3 12.6310 30.2574 76.9045 0.0000 -5.5207 0.0000
# 4 0.0000 0.0000 0.0000 31.2975 0.0000 -0.2852
# 5 -6.6828 -1.9519 -5.5207 0.0000 23.2769 0.0000
# 6 0.0000 0.0000 0.0000 -0.2852 0.0000 27.8079
#
#
#
# Elastic Compliance Matrix: (Units=1/GPa)
#
#
# Indices 1 2 3 4 5 6 
#
# 1 0.012019 -0.011501 0.002777 0.000000 0.003145 0.000000
# 2 -0.011501 0.043298 -0.015385 0.000000 -0.003320 0.000000
# 3 0.002777 -0.015385 0.018886 0.000000 0.003986 0.000000
# 4 0.000000 0.000000 0.000000 0.031954 0.000000 0.000328
# 5 0.003145 -0.003320 0.003986 0.000000 0.044531 0.000000
# 6 0.000000 0.000000 0.000000 0.000328 0.000000 0.035964
#
#
# Mechanical properties :
#
#
# Convention : Reuss Voigt Hill
#
# Bulk Modulus (GPa) = 38.48410 43.30554 40.89482
# Shear Modulus (GPa) = 20.53112 26.97232 23.75172
#
# Velocity S-wave (km/s) = 3.31680 3.80165 3.56747
# Velocity P-wave (km/s) = 5.94047 6.51725 6.23553
#
# Compressibility (1/GPa) = 0.02598475
#
# Stress axis : x y z
#
# Youngs Moduli (GPa) = 83.20399 23.09560 52.94876
#
# Poissons Ratio (x) = 0.26563 -0.14703
# Poissons Ratio (y) = 0.95697 0.81460
# Poissons Ratio (z) = -0.23105 0.35532
#
# Static dielectric constant tensor:
#      x y z
#    x 3.577440 0.000000 -0.031810 
#    y 0.000000 3.171400 0.000000 
#    z -0.031810 0.000000 3.367740 
# 
# 
# High freq. dielectric constant tensor:
#      x y z
#    x 1.740730 0.000000 0.000250 
#    y 0.000000 1.702130 0.000000 
#    z 0.000250 0.000000 1.725440 
# 
# From -- ./inp_files/10161.got.cif
#   From: 2010.03.12/outbox.cif.g09.slc.cpg/sg8_6_cif.got.tgz:10161.got - 2010.03.31 10:45:26.
