data_PCOD8053013
_publ_section_title
;
Structure prediction by ZEFSAII (Michael W. Deem and Ramdas Pophale) SiO2 
 PCOD8053013
Probable space group: C M
;
_chemical_formula_sum "Si O2"
_cell_formula_units_Z 24
_cell_length_a 24.390341
_cell_length_b 8.772280
_cell_length_c 18.210331
_cell_angle_alpha 90.000000
_cell_angle_beta 19.251955
_cell_angle_gamma 90.000000
_cell_volume 1284.686776
_symmetry_space_group_name_H-M "C M"
_symmetry_group_IT_number 8
_symmetry_cell_setting 'monoclinic'
loop_
_space_group_symop_operation_xyz
x,y,z
x,-y,z
1/2+x,1/2+y,z
1/2+x,1/2-y,z
loop_
_atom_site_type_symbol
_atom_site_label
_atom_site_fract_x
_atom_site_fract_y
_atom_site_fract_z
Si Si1 0.041370 0.180148 0.287450
Si Si2 0.020883 0.179191 0.148601
Si Si3 0.342994 0.678994 0.993684
Si Si4 0.167110 0.668423 0.570545
Si Si5 0.213891 0.822134 0.765282
Si Si6 0.491837 0.831222 0.935075
O O1 0.052547 0.245191 0.189970
O O2 0.868845 0.222494 0.544280
O O3 0.066083 0.000000 0.259096
O O4 0.187736 0.258691 0.146440
O O5 0.849214 0.244353 0.329095
O O6 0.989335 0.000000 0.195550
O O7 0.176304 0.213971 0.898701
O O8 0.329636 0.500000 0.017468
O O9 0.515200 0.725716 0.733361
O O10 0.343335 0.751398 0.075775
O O11 0.151291 0.500000 0.553775
O O12 0.150291 0.652493 0.680469
O O13 0.046960 0.774499 0.932869
O O14 0.250755 0.000000 0.705719
O O15 0.435518 0.000000 0.033327
#
# Coordination Sequence:
#
# PCOD8053013 Si02
#       6
#     4   4   4   4   4   4
#     4  11  20  37  58  77 110 152 182 216 269 334
#     4   9  19  35  57  81 108 143 183 218 265 329
#     4  10  19  32  54  83 109 139 180 230 275 312
#     4   8  15  33  56  77 102 139 182 213 259 327
#     4  11  21  34  56  86 111 139 182 231 268 309
#     4   9  17  33  55  78 104 140 181 214 262 325
#
# _framework density 18.681597
#
# number of rings (size 3 to 8) (size 9 to 14) (size 15 to 20)
#    1.000    1.333    1.667    2.500    0.000    0.000 
#    0.000    6.667    0.000    4.000    0.000    0.000 
#    0.000    0.000    0.000    0.000    0.000    0.000 
#
# Total GULP energy -148658.609862 kJ/mol
# GULP energy per Si atom -12388.217489 kJ/mol
# Density = 1.863908 g / cm^3
# Si number density = 18.681597 Si / 1000 Ang^3
#
#
#
# Elastic Constant Matrix: (Units=GPa)
#
#
# Indices 1 2 3 4 5 6 
#
# 1 90.6085 27.1313 51.7692 0.0000 -14.2063 0.0000
# 2 27.1313 89.1445 21.1424 0.0000 -7.4414 0.0000
# 3 51.7692 21.1424 63.4151 0.0000 -5.2425 0.0000
# 4 0.0000 0.0000 0.0000 25.3785 0.0000 -7.2647
# 5 -14.2063 -7.4414 -5.2425 0.0000 31.3265 0.0000
# 6 0.0000 0.0000 0.0000 -7.2647 0.0000 26.7905
#
#
#
# Elastic Compliance Matrix: (Units=1/GPa)
#
#
# Indices 1 2 3 4 5 6 
#
# 1 0.022543 -0.002237 -0.017093 0.000000 0.006831 0.000000
# 2 -0.002237 0.012561 -0.002230 0.000000 0.001596 0.000000
# 3 -0.017093 -0.002230 0.030200 0.000000 -0.003227 0.000000
# 4 0.000000 0.000000 0.000000 0.042719 0.000000 0.011584
# 5 0.006831 0.001596 -0.003227 0.000000 0.034859 0.000000
# 6 0.000000 0.000000 0.000000 0.011584 0.000000 0.040468
#
#
# Mechanical properties :
#
#
# Convention : Reuss Voigt Hill
#
# Bulk Modulus (GPa) = 45.07610 49.25045 47.16328
# Shear Modulus (GPa) = 21.38000 26.24077 23.81039
#
# Velocity S-wave (km/s) = 3.38663 3.75191 3.57394
# Velocity P-wave (km/s) = 6.28278 6.72231 6.50626
#
# Compressibility (1/GPa) = 0.02218470
#
# Stress axis : x y z
#
# Youngs Moduli (GPa) = 44.35884 79.61408 33.11313
#
# Poissons Ratio (x) = 0.17809 0.56600
# Poissons Ratio (y) = 0.09923 0.07383
# Poissons Ratio (z) = 0.75822 0.17751
#
# Static dielectric constant tensor:
#      x y z
#    x 3.348430 0.000000 -0.047040 
#    y 0.000000 3.275140 0.000000 
#    z -0.047040 0.000000 3.245000 
# 
# 
# High freq. dielectric constant tensor:
#      x y z
#    x 1.709380 0.000000 -0.011100 
#    y 0.000000 1.717510 0.000000 
#    z -0.011100 0.000000 1.707010 
# 
# From -- ./inp_files/30058.got.cif
#   From: 2010.03.12/outbox.cif.g09.slc.cpg/sg8_16_cif.got.tgz:30058.got - 2010.03.31 10:45:26.
