data_PCOD8053528
_publ_section_title
;
Structure prediction by ZEFSAII (Michael W. Deem and Ramdas Pophale) SiO2 
 PCOD8053528
Probable space group: C M
;
_chemical_formula_sum "Si O2"
_cell_formula_units_Z 28
_cell_length_a 13.223505
_cell_length_b 13.999803
_cell_length_c 7.769445
_cell_angle_alpha 90.000000
_cell_angle_beta 79.879389
_cell_angle_gamma 90.000000
_cell_volume 1415.949520
_symmetry_space_group_name_H-M "C M"
_symmetry_group_IT_number 8
_symmetry_cell_setting 'monoclinic'
loop_
_space_group_symop_operation_xyz
x,y,z
x,-y,z
1/2+x,1/2+y,z
1/2+x,1/2-y,z
loop_
_atom_site_type_symbol
_atom_site_label
_atom_site_fract_x
_atom_site_fract_y
_atom_site_fract_z
Si Si1 0.560780 0.612273 0.675010
Si Si2 0.349225 0.333090 0.869582
Si Si3 0.645540 0.102645 0.812146
Si Si4 0.669157 0.705643 0.947283
Si Si5 0.561546 0.701648 0.322593
Si Si6 0.864255 0.108815 0.251158
Si Si7 0.635571 0.892254 0.418553
O O1 0.537807 0.500000 0.675719
O O2 0.456019 0.672515 0.735995
O O3 0.643084 0.632396 0.801757
O O4 0.605784 0.649274 0.479798
O O5 0.270379 0.400405 0.787478
O O6 0.292131 0.229045 0.909870
O O7 0.375532 0.378845 0.044736
O O8 0.606138 0.193542 0.933975
O O9 0.611487 0.115598 0.626541
O O10 0.603765 0.000000 0.894338
O O11 0.631570 0.665333 0.141631
O O12 0.443584 0.675359 0.328023
O O13 0.564973 0.816615 0.339782
O O14 0.751862 0.139159 0.345905
O O15 0.888703 0.000000 0.293675
O O16 0.614795 0.000000 0.356395
#
# Coordination Sequence:
#
# PCOD8053528 Si02
#       7
#     4   4   4   4   4   4   4
#     4  12  24  40  62  92 124 158 202 253 301 357
#     4  10  20  36  59  88 122 153 194 250 301 347
#     4   9  17  34  59  87 117 152 194 246 301 349
#     4  10  23  37  60  90 124 159 197 249 303 362
#     4  12  22  37  59  93 125 159 198 248 307 357
#     4  11  21  33  58  93 123 154 199 251 298 353
#     4  10  20  37  60  89 123 159 201 251 302 357
#
# _framework density 19.774715
#
# number of rings (size 3 to 8) (size 9 to 14) (size 15 to 20)
#    0.857    0.571    4.286    2.571    0.000    2.286 
#    0.000    0.000    0.000    6.000    0.000    0.000 
#    0.000    0.000    0.000    0.000    0.000    0.000 
#
# Total GULP energy -173505.819951 kJ/mol
# GULP energy per Si atom -12393.272854 kJ/mol
# Density = 1.972971 g / cm^3
# Si number density = 19.774715 Si / 1000 Ang^3
#
#
#
# Elastic Constant Matrix: (Units=GPa)
#
#
# Indices 1 2 3 4 5 6 
#
# 1 69.8184 50.7557 21.8371 0.0000 3.6790 0.0000
# 2 50.7557 88.6329 31.8463 0.0000 2.5476 0.0000
# 3 21.8371 31.8463 110.6981 0.0000 1.5759 0.0000
# 4 0.0000 0.0000 0.0000 17.4856 0.0000 -0.6921
# 5 3.6790 2.5476 1.5759 0.0000 27.5824 0.0000
# 6 0.0000 0.0000 0.0000 -0.6921 0.0000 30.5806
#
#
#
# Elastic Compliance Matrix: (Units=1/GPa)
#
#
# Indices 1 2 3 4 5 6 
#
# 1 0.024724 -0.013784 -0.000884 0.000000 -0.001974 0.000000
# 2 -0.013784 0.020293 -0.003121 0.000000 0.000142 0.000000
# 3 -0.000884 -0.003121 0.010108 0.000000 -0.000171 0.000000
# 4 0.000000 0.000000 0.000000 0.057241 0.000000 0.001296
# 5 -0.001974 0.000142 -0.000171 0.000000 0.036515 0.000000
# 6 0.000000 0.000000 0.000000 0.001296 0.000000 0.032730
#
#
# Mechanical properties :
#
#
# Convention : Reuss Voigt Hill
#
# Bulk Modulus (GPa) = 51.15589 53.11418 52.13503
# Shear Modulus (GPa) = 22.35100 26.11039 24.23070
#
# Velocity S-wave (km/s) = 3.36561 3.63766 3.50428
# Velocity P-wave (km/s) = 6.40536 6.67543 6.54179
#
# Compressibility (1/GPa) = 0.01954809
#
# Stress axis : x y z
#
# Youngs Moduli (GPa) = 40.44715 49.27791 98.92954
#
# Poissons Ratio (x) = 0.67923 0.08742
# Poissons Ratio (y) = 0.55751 0.30876
# Poissons Ratio (z) = 0.03574 0.15380
#
# Static dielectric constant tensor:
#      x y z
#    x 3.309710 0.000000 0.142250 
#    y 0.000000 3.548350 0.000000 
#    z 0.142250 0.000000 3.697170 
# 
# 
# High freq. dielectric constant tensor:
#      x y z
#    x 1.732990 0.000000 0.016230 
#    y 0.000000 1.758350 0.000000 
#    z 0.016230 0.000000 1.783940 
# 
# From -- ./inp_files/12956.got.cif
#   From: 2010.03.12/outbox.cif.g09.slc.cpg/sg8_7_cif.got.tgz:12956.got - 2010.03.31 10:45:26.
