data_PCOD8053851
_publ_section_title
;
Structure prediction by ZEFSAII (Michael W. Deem and Ramdas Pophale) SiO2 
 PCOD8053851
Probable space group: C M
;
_chemical_formula_sum "Si O2"
_cell_formula_units_Z 28
_cell_length_a 14.166843
_cell_length_b 18.819344
_cell_length_c 5.109660
_cell_angle_alpha 90.000000
_cell_angle_beta 65.739814
_cell_angle_gamma 90.000000
_cell_volume 1241.984813
_symmetry_space_group_name_H-M "C M"
_symmetry_group_IT_number 8
_symmetry_cell_setting 'monoclinic'
loop_
_space_group_symop_operation_xyz
x,y,z
x,-y,z
1/2+x,1/2+y,z
1/2+x,1/2-y,z
loop_
_atom_site_type_symbol
_atom_site_label
_atom_site_fract_x
_atom_site_fract_y
_atom_site_fract_z
Si Si1 0.409870 0.083680 0.781870
Si Si2 0.693564 0.205008 0.998772
Si Si3 0.966127 0.079547 0.332710
Si Si4 0.036384 0.415649 0.137588
Si Si5 0.414898 0.660655 0.896026
Si Si6 0.630189 0.714598 0.571303
Si Si7 0.191206 0.918321 0.231865
O O1 0.456056 0.109129 0.453817
O O2 0.408732 0.000000 0.793439
O O3 0.484639 0.110546 0.927800
O O4 0.291511 0.109509 0.956991
O O5 0.644612 0.125915 0.044231
O O6 0.811566 0.203142 0.954322
O O7 0.633331 0.252014 0.278298
O O8 0.692652 0.241098 0.714736
O O9 0.905973 0.127739 0.194607
O O10 0.090681 0.087360 0.158491
O O11 0.930001 0.000000 0.321061
O O12 0.933013 0.099115 0.663362
O O13 0.059866 0.500000 0.121330
O O14 0.509542 0.715949 0.786761
O O15 0.674738 0.633697 0.500394
O O16 0.205220 0.000000 0.318009
#
# Coordination Sequence:
#
# PCOD8053851 Si02
#       7
#     4   4   4   4   4   4   4
#     4   9  19  36  61  93 126 162 208 259 313 369
#     4  12  26  44  65  91 126 170 211 262 321 374
#     4  10  21  39  66  98 130 164 210 266 316 374
#     4  10  22  40  61  90 125 164 214 262 306 371
#     4  11  24  44  63  92 129 167 213 260 316 388
#     4  11  25  43  63  94 127 164 213 262 314 381
#     4   9  20  40  67  98 132 169 209 261 322 379
#
# _framework density 22.544561000000002
#
# number of rings (size 3 to 8) (size 9 to 14) (size 15 to 20)
#    0.000    1.714    0.000    3.857    0.000    8.571 
#    0.000   10.714    0.000    0.000    0.000    0.000 
#    0.000    0.000    0.000    0.000    0.000    0.000 
#
# Total GULP energy -173628.149654 kJ/mol
# GULP energy per Si atom -12402.010690 kJ/mol
# Density = 2.249325 g / cm^3
# Si number density = 22.544561 Si / 1000 Ang^3
#
#
#
# Elastic Constant Matrix: (Units=GPa)
#
#
# Indices 1 2 3 4 5 6 
#
# 1 89.8589 33.6390 13.6997 0.0000 0.0405 0.0000
# 2 33.6390 94.2316 27.1531 0.0000 0.7812 0.0000
# 3 13.6997 27.1531 66.8736 0.0000 16.7329 0.0000
# 4 0.0000 0.0000 0.0000 33.2833 0.0000 4.0722
# 5 0.0405 0.7812 16.7329 0.0000 40.3622 0.0000
# 6 0.0000 0.0000 0.0000 4.0722 0.0000 28.6402
#
#
#
# Elastic Compliance Matrix: (Units=1/GPa)
#
#
# Indices 1 2 3 4 5 6 
#
# 1 0.012899 -0.004317 -0.001012 0.000000 0.000490 0.000000
# 2 -0.004317 0.013609 -0.005106 0.000000 0.001858 0.000000
# 3 -0.001012 -0.005106 0.019201 0.000000 -0.007860 0.000000
# 4 0.000000 0.000000 0.000000 0.030577 0.000000 -0.004348
# 5 0.000490 0.001858 -0.007860 0.000000 0.027998 0.000000
# 6 0.000000 0.000000 0.000000 -0.004348 0.000000 0.035534
#
#
# Mechanical properties :
#
#
# Convention : Reuss Voigt Hill
#
# Bulk Modulus (GPa) = 40.26098 44.43862 42.34980
# Shear Modulus (GPa) = 29.59128 32.22195 30.90662
#
# Velocity S-wave (km/s) = 3.62687 3.78465 3.70660
# Velocity P-wave (km/s) = 5.95282 6.23317 6.09461
#
# Compressibility (1/GPa) = 0.02483795
#
# Stress axis : x y z
#
# Youngs Moduli (GPa) = 77.52683 73.47941 52.08031
#
# Poissons Ratio (x) = 0.31721 0.05272
# Poissons Ratio (y) = 0.33468 0.26594
# Poissons Ratio (z) = 0.07848 0.37521
#
# Static dielectric constant tensor:
#      x y z
#    x 4.035930 0.000000 -0.060170 
#    y 0.000000 3.985690 0.000000 
#    z -0.060170 0.000000 4.220270 
# 
# 
# High freq. dielectric constant tensor:
#      x y z
#    x 1.885270 0.000000 0.002030 
#    y 0.000000 1.885780 0.000000 
#    z 0.002030 0.000000 1.890360 
# 
# From -- ./inp_files/4091.got.cif
#   From: 2010.03.12/outbox.cif.g09.slc.cpg/sg8_3_cif.got.tgz:4091.got - 2010.03.31 10:45:26.
