data_PCOD8053393
_publ_section_title
;
Structure prediction by ZEFSAII (Michael W. Deem and Ramdas Pophale) SiO2 
 PCOD8053393
Probable space group: C M
;
_chemical_formula_sum "Si O2"
_cell_formula_units_Z 32
_cell_length_a 8.662063
_cell_length_b 20.418080
_cell_length_c 14.734518
_cell_angle_alpha 90.000000
_cell_angle_beta 140.618573
_cell_angle_gamma 90.000000
_cell_volume 1653.446333
_symmetry_space_group_name_H-M "C M"
_symmetry_group_IT_number 8
_symmetry_cell_setting 'monoclinic'
loop_
_space_group_symop_operation_xyz
x,y,z
x,-y,z
1/2+x,1/2+y,z
1/2+x,1/2-y,z
loop_
_atom_site_type_symbol
_atom_site_label
_atom_site_fract_x
_atom_site_fract_y
_atom_site_fract_z
Si Si1 0.643860 0.074222 0.738790
Si Si2 0.037608 0.284283 0.145851
Si Si3 0.787628 0.656186 0.466354
Si Si4 0.872704 0.156638 0.148239
Si Si5 0.997811 0.188540 0.866002
Si Si6 0.963354 0.782403 0.468780
Si Si7 0.161739 0.811359 0.746697
Si Si8 0.008801 0.426269 0.883039
O O1 0.442945 0.096030 0.574207
O O2 0.875659 0.121067 0.840872
O O3 0.522104 0.079251 0.781355
O O4 0.724946 0.000000 0.753864
O O5 0.171680 0.301989 0.113275
O O6 0.203799 0.305786 0.307903
O O7 0.997062 0.205746 0.132183
O O8 0.772806 0.317706 0.028303
O O9 0.571031 0.626682 0.307300
O O10 0.957435 0.704132 0.483637
O O11 0.683199 0.701073 0.500752
O O12 0.762114 0.095993 0.043551
O O13 0.852771 0.251285 0.837395
O O14 0.984551 0.197617 0.751369
O O15 0.006139 0.817825 0.584183
O O16 0.297602 0.879901 0.823478
O O17 0.952312 0.500000 0.888627
#
# Coordination Sequence:
#
# PCOD8053393 Si02
#       8
#     4   4   4   4   4   4   4   4
#     4  11  25  41  58  82 117 159 198 242 291 345
#     4  10  20  35  56  89 119 144 185 236 293 340
#     4  10  20  37  59  86 120 148 191 236 295 346
#     4  10  21  36  58  89 116 152 187 241 291 346
#     4  12  22  36  61  88 117 152 192 242 291 348
#     4  10  20  34  58  89 117 145 184 239 290 339
#     4  12  21  36  61  89 115 149 195 239 292 344
#     4  11  23  39  57  82 115 155 200 241 287 344
#
# _framework density 19.353515999999999
#
# number of rings (size 3 to 8) (size 9 to 14) (size 15 to 20)
#    0.000    1.250    5.000    1.500    1.750    1.000 
#    0.000    0.000    0.000    0.750    0.000    0.000 
#    0.000    0.000    0.000    0.000    0.000    0.000 
#
# Total GULP energy -198386.115417 kJ/mol
# GULP energy per Si atom -12399.132214 kJ/mol
# Density = 1.930947 g / cm^3
# Si number density = 19.353516 Si / 1000 Ang^3
#
#
#
# Elastic Constant Matrix: (Units=GPa)
#
#
# Indices 1 2 3 4 5 6 
#
# 1 38.0862 23.5984 -8.5161 -0.0004 4.8767 -0.0001
# 2 23.5984 123.7211 33.4757 -0.0003 2.7953 -0.0002
# 3 -8.5161 33.4757 98.3903 0.0001 0.5064 0.0006
# 4 -0.0004 -0.0003 0.0001 24.1765 0.0003 2.7518
# 5 4.8767 2.7953 0.5064 0.0003 25.6071 0.0003
# 6 -0.0001 -0.0002 0.0006 2.7518 0.0003 24.6750
#
#
#
# Elastic Compliance Matrix: (Units=1/GPa)
#
#
# Indices 1 2 3 4 5 6 
#
# 1 0.032922 -0.007636 0.005476 0.000000 -0.005544 0.000000
# 2 -0.007636 0.010695 -0.004301 0.000000 0.000372 0.000000
# 3 0.005476 -0.004301 0.012105 0.000000 -0.000813 0.000000
# 4 0.000000 0.000000 0.000000 0.041894 0.000000 -0.004672
# 5 -0.005544 0.000372 -0.000813 0.000000 0.040083 0.000000
# 6 0.000000 0.000000 0.000000 -0.004672 0.000000 0.041048
#
#
# Mechanical properties :
#
#
# Convention : Reuss Voigt Hill
#
# Bulk Modulus (GPa) = 23.36503 39.70153 31.53328
# Shear Modulus (GPa) = 24.27941 29.00104 26.64022
#
# Velocity S-wave (km/s) = 3.54577 3.87523 3.71415
# Velocity P-wave (km/s) = 5.37236 6.37037 5.89253
#
# Compressibility (1/GPa) = 0.04279901
#
# Stress axis : x y z
#
# Youngs Moduli (GPa) = 30.37503 93.50497 82.60862
#
# Poissons Ratio (x) = 0.71399 -0.45237
# Poissons Ratio (y) = 0.23194 0.35534
# Poissons Ratio (z) = -0.16633 0.40221
#
# Static dielectric constant tensor:
#      x y z
#    x 3.510240 0.000000 -0.049990 
#    y 0.000000 3.289680 0.000000 
#    z -0.049990 0.000000 3.880240 
# 
# 
# High freq. dielectric constant tensor:
#      x y z
#    x 1.750000 0.000000 -0.004690 
#    y 0.000000 1.716990 0.000000 
#    z -0.004690 0.000000 1.778540 
# 
# From -- ./inp_files/19077.got.cif
#   From: 2010.03.12/outbox.cif.g09.slc.cpg/sg8_10_cif.got.tgz:19077.got - 2010.03.31 10:45:26.
