data_PCOD8053222
_publ_section_title
;
Structure prediction by ZEFSAII (Michael W. Deem and Ramdas Pophale) SiO2 
 PCOD8053222
Probable space group: C M
;
_chemical_formula_sum "Si O2"
_cell_formula_units_Z 32
_cell_length_a 15.331497
_cell_length_b 12.457299
_cell_length_c 17.973664
_cell_angle_alpha 90.000000
_cell_angle_beta 26.174340
_cell_angle_gamma 90.000000
_cell_volume 1514.209743
_symmetry_space_group_name_H-M "C M"
_symmetry_group_IT_number 8
_symmetry_cell_setting 'monoclinic'
loop_
_space_group_symop_operation_xyz
x,y,z
x,-y,z
1/2+x,1/2+y,z
1/2+x,1/2-y,z
loop_
_atom_site_type_symbol
_atom_site_label
_atom_site_fract_x
_atom_site_fract_y
_atom_site_fract_z
Si Si1 0.029420 0.621091 0.538540
Si Si2 0.609433 0.763551 0.096332
Si Si3 0.764278 0.730423 0.457788
Si Si4 0.373421 0.376845 0.162372
Si Si5 0.323946 0.793873 0.081219
Si Si6 0.215235 0.729023 0.722291
Si Si7 0.465145 0.619814 0.418572
Si Si8 0.495919 0.623274 0.770893
O O1 0.970900 0.500000 0.601763
O O2 0.151840 0.665816 0.513548
O O3 0.157325 0.630035 0.365427
O O4 0.828399 0.687632 0.687543
O O5 0.411634 0.820483 0.282510
O O6 0.541174 0.680160 0.084878
O O7 0.713978 0.703503 0.085567
O O8 0.762126 0.848629 0.943444
O O9 0.892132 0.780457 0.425945
O O10 0.609097 0.641286 0.605489
O O11 0.439059 0.500000 0.101810
O O12 0.347849 0.324200 0.100428
O O13 0.205385 0.870441 0.230301
O O14 0.548783 0.835856 0.896643
O O15 0.373025 0.642440 0.570272
O O16 0.096792 0.797844 0.752044
O O17 0.403067 0.500000 0.440670
O O18 0.520065 0.500000 0.776386
#
# Coordination Sequence:
#
# PCOD8053222 Si02
#       8
#     4   4   4   4   4   4   4   4
#     4  10  19  35  61  89 120 150 190 253 311 350
#     4   9  21  39  58  87 127 154 196 255 301 361
#     4   9  20  37  59  87 116 151 197 249 297 360
#     4  10  21  39  66  94 120 158 206 257 308 360
#     4  10  21  38  61  89 124 159 199 250 303 366
#     4  10  21  37  58  88 121 150 197 249 296 363
#     4  10  20  39  61  83 117 159 199 245 300 360
#     4  10  21  38  58  83 117 159 198 240 298 362
#
# _framework density 21.133133999999998
#
# number of rings (size 3 to 8) (size 9 to 14) (size 15 to 20)
#    0.000    2.250    1.250    0.750    1.750    6.500 
#    0.000    6.250    0.000    0.000    0.000    0.000 
#    0.000    0.000    0.000    0.000    0.000    0.000 
#
# Total GULP energy -198242.995049 kJ/mol
# GULP energy per Si atom -12390.187191 kJ/mol
# Density = 2.108503 g / cm^3
# Si number density = 21.133134 Si / 1000 Ang^3
#
#
#
# Elastic Constant Matrix: (Units=GPa)
#
#
# Indices 1 2 3 4 5 6 
#
# 1 59.6971 11.9642 12.0472 0.0079 -8.4876 -0.0017
# 2 11.9642 80.4771 46.8504 -0.0014 -1.2962 0.0027
# 3 12.0472 46.8504 174.0529 0.0394 -7.4524 -0.0092
# 4 0.0079 -0.0014 0.0394 17.2284 0.0018 -0.3909
# 5 -8.4876 -1.2962 -7.4524 0.0018 22.1889 -0.0022
# 6 -0.0017 0.0027 -0.0092 -0.3909 -0.0022 23.4203
#
#
#
# Elastic Compliance Matrix: (Units=1/GPa)
#
#
# Indices 1 2 3 4 5 6 
#
# 1 0.018259 -0.002417 -0.000325 -0.000008 0.006734 0.000002
# 2 -0.002417 0.015060 -0.003945 0.000011 -0.001370 -0.000003
# 3 -0.000325 -0.003945 0.006914 -0.000016 0.001967 0.000003
# 4 -0.000008 0.000011 -0.000016 0.058066 -0.000013 0.000969
# 5 0.006734 -0.001370 0.001967 -0.000013 0.048224 0.000006
# 6 0.000002 -0.000003 0.000003 0.000969 0.000006 0.042714
#
#
# Mechanical properties :
#
#
# Convention : Reuss Voigt Hill
#
# Bulk Modulus (GPa) = 37.23175 50.66119 43.94647
# Shear Modulus (GPa) = 23.63359 28.79185 26.21272
#
# Velocity S-wave (km/s) = 3.34776 3.69508 3.52570
# Velocity P-wave (km/s) = 5.70958 6.49840 6.11672
#
# Compressibility (1/GPa) = 0.02685880
#
# Stress axis : x y z
#
# Youngs Moduli (GPa) = 54.76873 66.40202 144.63379
#
# Poissons Ratio (x) = 0.16048 0.04699
# Poissons Ratio (y) = 0.13237 0.57059
# Poissons Ratio (z) = 0.01780 0.26196
#
# Static dielectric constant tensor:
#      x y z
#    x 3.566030 -0.000010 0.030050 
#    y -0.000010 3.392170 0.000030 
#    z 0.030050 0.000030 4.710850 
# 
# 
# High freq. dielectric constant tensor:
#      x y z
#    x 1.808240 0.000000 -0.001050 
#    y 0.000000 1.788840 0.000000 
#    z -0.001050 0.000000 1.856830 
# 
# From -- ./inp_files/29220.got.cif
#   From: 2010.03.12/outbox.cif.g09.slc.cpg/sg8_15_cif.got.tgz:29220.got - 2010.03.31 10:45:26.
