data_PCOD8053434
_publ_section_title
;
Structure prediction by ZEFSAII (Michael W. Deem and Ramdas Pophale) SiO2 
 PCOD8053434
Probable space group: C M
;
_chemical_formula_sum "Si O2"
_cell_formula_units_Z 32
_cell_length_a 18.499007
_cell_length_b 8.888618
_cell_length_c 25.258451
_cell_angle_alpha 90.000000
_cell_angle_beta 156.191203
_cell_angle_gamma 90.000000
_cell_volume 1676.612944
_symmetry_space_group_name_H-M "C M"
_symmetry_group_IT_number 8
_symmetry_cell_setting 'monoclinic'
loop_
_space_group_symop_operation_xyz
x,y,z
x,-y,z
1/2+x,1/2+y,z
1/2+x,1/2-y,z
loop_
_atom_site_type_symbol
_atom_site_label
_atom_site_fract_x
_atom_site_fract_y
_atom_site_fract_z
Si Si1 0.802600 0.322214 0.018680
Si Si2 0.151388 0.675793 0.020857
Si Si3 0.846526 0.823963 0.253675
Si Si4 0.202088 0.679094 0.267472
Si Si5 0.212902 0.823440 0.548835
Si Si6 0.048411 0.677392 0.539663
Si Si7 0.077240 0.825017 0.767253
Si Si8 0.738922 0.672929 0.762217
O O1 0.800745 0.500000 0.020584
O O2 0.007174 0.264503 0.154879
O O3 0.699409 0.257598 0.999239
O O4 0.702344 0.267333 0.898695
O O5 0.187698 0.500000 0.037415
O O6 0.947312 0.710340 0.897866
O O7 0.272514 0.746181 0.149465
O O8 0.735146 0.764099 0.229555
O O9 0.055417 0.784440 0.401547
O O10 0.812733 0.000000 0.227217
O O11 0.224178 0.500000 0.286154
O O12 0.349166 0.754344 0.403828
O O13 0.394780 0.768341 0.644504
O O14 0.177913 0.742843 0.581168
O O15 0.220149 0.000000 0.565398
O O16 0.038305 0.500000 0.526321
O O17 0.128899 0.718560 0.650287
O O18 0.181657 0.791798 0.783482
O O19 0.029946 0.000000 0.742011
O O20 0.699831 0.500000 0.720767
#
# Coordination Sequence:
#
# PCOD8053434 Si02
#       8
#     4   4   4   4   4   4   4   4
#     4  10  21  36  55  80 109 141 177 223 276 324
#     4  10  20  35  56  80 107 142 182 222 267 323
#     4   8  16  33  56  78 101 135 179 220 258 311
#     4   9  18  36  59  79 104 141 182 221 268 326
#     4  10  20  36  58  82 111 147 183 220 269 326
#     4  11  22  36  56  82 112 144 181 226 272 320
#     4  10  21  37  57  81 110 143 183 229 273 320
#     4  10  21  37  57  80 108 145 185 225 273 326
#
# _framework density 19.086099000000001
#
# number of rings (size 3 to 8) (size 9 to 14) (size 15 to 20)
#    0.000    2.250    0.000    3.750    0.000    8.000 
#    0.000    5.625    0.000    4.500    0.000    0.000 
#    0.000    0.000    0.000    0.000    0.000    0.000 
#
# Total GULP energy -198432.318236 kJ/mol
# GULP energy per Si atom -12402.019890 kJ/mol
# Density = 1.904266 g / cm^3
# Si number density = 19.086099 Si / 1000 Ang^3
#
#
#
# Elastic Constant Matrix: (Units=GPa)
#
#
# Indices 1 2 3 4 5 6 
#
# 1 119.9014 32.3883 70.3032 -0.0057 5.6241 0.0012
# 2 32.3883 48.2973 38.5721 -0.0120 2.7580 -0.0009
# 3 70.3032 38.5721 130.6151 -0.0341 -1.2956 -0.0028
# 4 -0.0057 -0.0120 -0.0341 22.8425 -0.0032 0.2485
# 5 5.6241 2.7580 -1.2956 -0.0032 42.6133 0.0008
# 6 0.0012 -0.0009 -0.0028 0.2485 0.0008 27.7587
#
#
#
# Elastic Compliance Matrix: (Units=1/GPa)
#
#
# Indices 1 2 3 4 5 6 
#
# 1 0.012866 -0.003915 -0.005785 -0.000008 -0.001620 -0.000001
# 2 -0.003915 0.028458 -0.006312 0.000004 -0.001517 0.000000
# 3 -0.005785 -0.006312 0.012649 0.000014 0.001557 0.000001
# 4 -0.000008 0.000004 0.000014 0.043782 0.000004 -0.000392
# 5 -0.001620 -0.001517 0.001557 0.000004 0.023826 -0.000001
# 6 -0.000001 0.000000 0.000001 -0.000392 -0.000001 0.036028
#
#
# Mechanical properties :
#
#
# Convention : Reuss Voigt Hill
#
# Bulk Modulus (GPa) = 45.55932 64.59344 55.07638
# Shear Modulus (GPa) = 25.38724 29.14625 27.26674
#
# Velocity S-wave (km/s) = 3.65107 3.91204 3.78381
# Velocity P-wave (km/s) = 6.45724 7.37035 6.92886
#
# Compressibility (1/GPa) = 0.02194941
#
# Stress axis : x y z
#
# Youngs Moduli (GPa) = 77.72627 35.13947 79.05736
#
# Poissons Ratio (x) = 0.13758 0.45733
# Poissons Ratio (y) = 0.30432 0.49898
# Poissons Ratio (z) = 0.44963 0.22179
#
# Static dielectric constant tensor:
#      x y z
#    x 3.504230 0.000000 -0.024660 
#    y 0.000000 3.284740 0.000000 
#    z -0.024660 0.000000 3.723190 
# 
# 
# High freq. dielectric constant tensor:
#      x y z
#    x 1.744440 0.000000 0.000590 
#    y 0.000000 1.720470 0.000000 
#    z 0.000590 0.000000 1.757630 
# 
# From -- ./inp_files/32142.got.cif
#   From: 2010.03.12/outbox.cif.g09.slc.cpg/sg8_17_cif.got.tgz:32142.got - 2010.03.31 10:45:26.
