data_PCOD8053971
_publ_section_title
;
Structure prediction by ZEFSAII (Michael W. Deem and Ramdas Pophale) SiO2 
 PCOD8053971
Probable space group: C M
;
_chemical_formula_sum "Si O2"
_cell_formula_units_Z 28
_cell_length_a 13.794675
_cell_length_b 13.372056
_cell_length_c 13.717528
_cell_angle_alpha 90.000000
_cell_angle_beta 32.527995
_cell_angle_gamma 90.000000
_cell_volume 1360.614028
_symmetry_space_group_name_H-M "C M"
_symmetry_group_IT_number 8
_symmetry_cell_setting 'monoclinic'
loop_
_space_group_symop_operation_xyz
x,y,z
x,-y,z
1/2+x,1/2+y,z
1/2+x,1/2-y,z
loop_
_atom_site_type_symbol
_atom_site_label
_atom_site_fract_x
_atom_site_fract_y
_atom_site_fract_z
Si Si1 0.248610 0.383081 0.542040
Si Si2 0.717503 0.789703 0.898949
Si Si3 0.552512 0.613290 0.945416
Si Si4 0.434779 0.758261 0.893394
Si Si5 0.991300 0.804263 0.501919
Si Si6 0.692926 0.111299 0.369149
Si Si7 0.855305 0.615167 0.141810
O O1 0.245515 0.500000 0.572042
O O2 0.406831 0.329455 0.468424
O O3 0.281591 0.365106 0.399430
O O4 0.057358 0.334089 0.728894
O O5 0.686682 0.671751 0.903868
O O6 0.794353 0.797835 0.942312
O O7 0.854429 0.837112 0.703492
O O8 0.531331 0.850580 0.052067
O O9 0.620120 0.500000 0.876288
O O10 0.557173 0.671558 0.838317
O O11 0.349430 0.619431 0.157065
O O12 0.331284 0.821086 0.063651
O O13 0.032230 0.686016 0.476612
O O14 0.178290 0.864868 0.357377
O O15 0.608803 0.000000 0.441175
O O16 0.872688 0.500000 0.099628
#
# Coordination Sequence:
#
# PCOD8053971 Si02
#       7
#     4   4   4   4   4   4   4
#     4  11  23  40  66  98 127 163 214 265 315 375
#     4  11  24  41  66  93 129 167 210 266 311 378
#     4  10  22  42  62  91 126 165 209 259 317 373
#     4  11  22  41  65  92 128 167 203 267 314 373
#     4  12  22  42  65  95 131 167 208 263 321 372
#     4  10  22  41  65  92 126 165 213 265 313 373
#     4  11  25  43  65  95 129 168 213 263 319 376
#
# _framework density 20.578942999999999
#
# number of rings (size 3 to 8) (size 9 to 14) (size 15 to 20)
#    0.000    1.143    7.143    0.857    2.000    2.857 
#    0.000    0.000    0.000    0.857    0.000    0.000 
#    0.000    0.000    0.000    0.000    0.000    0.000 
#
# Total GULP energy -173625.368105 kJ/mol
# GULP energy per Si atom -12401.812007 kJ/mol
# Density = 2.053210 g / cm^3
# Si number density = 20.578943 Si / 1000 Ang^3
#
#
#
# Elastic Constant Matrix: (Units=GPa)
#
#
# Indices 1 2 3 4 5 6 
#
# 1 97.4338 31.3793 13.7099 -0.0025 -1.7464 0.0024
# 2 31.3793 105.3543 22.3582 0.0032 8.2089 -0.0029
# 3 13.7099 22.3582 69.1530 0.0007 -18.0776 -0.0035
# 4 -0.0025 0.0032 0.0007 25.3136 -0.0056 -1.0642
# 5 -1.7464 8.2089 -18.0776 -0.0056 24.8332 0.0050
# 6 0.0024 -0.0029 -0.0035 -1.0642 0.0050 27.4633
#
#
#
# Elastic Compliance Matrix: (Units=1/GPa)
#
#
# Indices 1 2 3 4 5 6 
#
# 1 0.011482 -0.003337 -0.000862 0.000002 0.001283 -0.000002
# 2 -0.003337 0.012294 -0.005480 -0.000003 -0.008288 0.000002
# 3 -0.000862 -0.005480 0.020824 0.000004 0.016910 -0.000001
# 4 0.000002 -0.000003 0.000004 0.039569 0.000013 0.001533
# 5 0.001283 -0.008288 0.016910 0.000013 0.055408 -0.000008
# 6 -0.000002 0.000002 -0.000001 0.001533 -0.000008 0.036472
#
#
# Mechanical properties :
#
#
# Convention : Reuss Voigt Hill
#
# Bulk Modulus (GPa) = 39.61587 45.20399 42.40993
# Shear Modulus (GPa) = 24.53124 29.15494 26.84309
#
# Velocity S-wave (km/s) = 3.45636 3.76804 3.61556
# Velocity P-wave (km/s) = 5.93473 6.39880 6.17113
#
# Compressibility (1/GPa) = 0.02524241
#
# Stress axis : x y z
#
# Youngs Moduli (GPa) = 87.08993 81.33783 48.02188
#
# Poissons Ratio (x) = 0.27142 0.04140
# Poissons Ratio (y) = 0.29062 0.26316
# Poissons Ratio (z) = 0.07509 0.44573
#
# Static dielectric constant tensor:
#      x y z
#    x 3.619230 0.000000 0.062060 
#    y 0.000000 3.881540 0.000000 
#    z 0.062060 0.000000 3.722450 
# 
# 
# High freq. dielectric constant tensor:
#      x y z
#    x 1.796260 0.000000 -0.003710 
#    y 0.000000 1.805460 0.000000 
#    z -0.003710 0.000000 1.806800 
# 
# From -- ./inp_files/26907.got.cif
#   From: 2010.03.12/outbox.cif.g09.slc.cpg/sg8_14_cif.got.tgz:26907.got - 2010.03.31 10:45:26.
