data_PCOD8053472
_publ_section_title
;
Structure prediction by ZEFSAII (Michael W. Deem and Ramdas Pophale) SiO2 
 PCOD8053472
Probable space group: C M
;
_chemical_formula_sum "Si O2"
_cell_formula_units_Z 28
_cell_length_a 23.914448
_cell_length_b 10.910148
_cell_length_c 5.128338
_cell_angle_alpha 90.000000
_cell_angle_beta 72.920962
_cell_angle_gamma 90.000000
_cell_volume 1279.028863
_symmetry_space_group_name_H-M "C M"
_symmetry_group_IT_number 8
_symmetry_cell_setting 'monoclinic'
loop_
_space_group_symop_operation_xyz
x,y,z
x,-y,z
1/2+x,1/2+y,z
1/2+x,1/2-y,z
loop_
_atom_site_type_symbol
_atom_site_label
_atom_site_fract_x
_atom_site_fract_y
_atom_site_fract_z
Si Si1 0.144900 0.858655 0.329910
Si Si2 0.450806 0.366474 0.486720
Si Si3 0.976530 0.726924 0.950988
Si Si4 0.352202 0.135375 0.134949
Si Si5 0.204278 0.636632 0.018784
Si Si6 0.601543 0.246487 0.901350
Si Si7 0.825425 0.780197 0.672129
O O1 0.114489 0.839145 0.647849
O O2 0.168373 0.000000 0.280408
O O3 0.196419 0.754064 0.226107
O O4 0.097405 0.833001 0.165561
O O5 0.475576 0.500000 0.517978
O O6 0.479554 0.271572 0.648445
O O7 0.380711 0.369301 0.623398
O O8 0.465069 0.337581 0.167393
O O9 0.040695 0.673115 0.933981
O O10 0.923381 0.631773 0.058298
O O11 0.323049 0.223371 0.387110
O O12 0.328896 0.000000 0.221726
O O13 0.331557 0.173053 0.876611
O O14 0.198812 0.500000 0.156320
O O15 0.153302 0.647150 0.868054
O O16 0.266796 0.642838 0.793651
#
# Coordination Sequence:
#
# PCOD8053472 Si02
#       7
#     4   4   4   4   4   4   4
#     4  10  23  41  62  92 128 167 215 260 313 372
#     4  10  20  35  59  87 117 154 196 250 307 366
#     4  10  21  37  59  89 120 155 205 244 310 370
#     4  10  22  40  62  89 123 161 205 259 313 371
#     4  10  25  45  66  93 129 170 214 262 318 380
#     4  10  23  40  62  92 126 167 209 260 313 373
#     4  10  22  40  60  90 118 158 208 255 311 370
#
# _framework density 21.891608999999999
#
# number of rings (size 3 to 8) (size 9 to 14) (size 15 to 20)
#    0.857    1.143    0.000    2.571    2.000    5.714 
#    0.000    1.429    0.000    0.000    0.000    0.000 
#    0.000    0.000    0.000    0.000    0.000    0.000 
#
# Total GULP energy -173457.917141 kJ/mol
# GULP energy per Si atom -12389.851224 kJ/mol
# Density = 2.184178 g / cm^3
# Si number density = 21.891609 Si / 1000 Ang^3
#
#
#
# Elastic Constant Matrix: (Units=GPa)
#
#
# Indices 1 2 3 4 5 6 
#
# 1 100.4713 3.6424 7.0518 0.0000 -15.0907 0.0000
# 2 3.6424 105.3961 10.3609 0.0000 1.0951 0.0000
# 3 7.0518 10.3609 92.4191 0.0000 15.8141 0.0000
# 4 0.0000 0.0000 0.0000 13.2713 0.0000 -0.4256
# 5 -15.0907 1.0951 15.8141 0.0000 28.9756 0.0000
# 6 0.0000 0.0000 0.0000 -0.4256 0.0000 10.7503
#
#
#
# Elastic Compliance Matrix: (Units=1/GPa)
#
#
# Indices 1 2 3 4 5 6 
#
# 1 0.011140 -0.000260 -0.002002 0.000000 0.006904 0.000000
# 2 -0.000260 0.009601 -0.001071 0.000000 0.000086 0.000000
# 3 -0.002002 -0.001071 0.012425 0.000000 -0.007784 0.000000
# 4 0.000000 0.000000 0.000000 0.075447 0.000000 0.002987
# 5 0.006904 0.000086 -0.007784 0.000000 0.042353 0.000000
# 6 0.000000 0.000000 0.000000 0.002987 0.000000 0.093139
#
#
# Mechanical properties :
#
#
# Convention : Reuss Voigt Hill
#
# Bulk Modulus (GPa) = 37.73671 37.82185 37.77928
# Shear Modulus (GPa) = 19.26005 29.08151 24.17078
#
# Velocity S-wave (km/s) = 2.96935 3.64872 3.32642
# Velocity P-wave (km/s) = 5.38808 5.92159 5.66112
#
# Compressibility (1/GPa) = 0.02649939
#
# Stress axis : x y z
#
# Youngs Moduli (GPa) = 89.76584 104.15121 80.48267
#
# Poissons Ratio (x) = 0.02707 0.16115
# Poissons Ratio (y) = 0.02333 0.08623
# Poissons Ratio (z) = 0.17974 0.11158
#
# Static dielectric constant tensor:
#      x y z
#    x 3.997390 0.000000 -0.013440 
#    y 0.000000 3.489830 0.000000 
#    z -0.013440 0.000000 3.870860 
# 
# 
# High freq. dielectric constant tensor:
#      x y z
#    x 1.862710 0.000000 0.000220 
#    y 0.000000 1.829960 0.000000 
#    z 0.000220 0.000000 1.862660 
# 
# From -- ./inp_files/5454.got.cif
#   From: 2010.03.12/outbox.cif.g09.slc.cpg/sg8_3_cif.got.tgz:5454.got - 2010.03.31 10:45:26.
