data_PCOD8053229
_publ_section_title
;
Structure prediction by ZEFSAII (Michael W. Deem and Ramdas Pophale) SiO2 
 PCOD8053229
Probable space group: C M
;
_chemical_formula_sum "Si O2"
_cell_formula_units_Z 28
_cell_length_a 5.300021
_cell_length_b 28.156534
_cell_length_c 9.041744
_cell_angle_alpha 90.000000
_cell_angle_beta 122.937150
_cell_angle_gamma 90.000000
_cell_volume 1132.424862
_symmetry_space_group_name_H-M "C M"
_symmetry_group_IT_number 8
_symmetry_cell_setting 'monoclinic'
loop_
_space_group_symop_operation_xyz
x,y,z
x,-y,z
1/2+x,1/2+y,z
1/2+x,1/2-y,z
loop_
_atom_site_type_symbol
_atom_site_label
_atom_site_fract_x
_atom_site_fract_y
_atom_site_fract_z
Si Si1 0.735570 0.631854 0.899900
Si Si2 0.550840 0.732594 0.779712
Si Si3 0.366710 0.631611 0.209651
Si Si4 0.625339 0.052418 0.474299
Si Si5 0.513535 0.271503 0.163955
Si Si6 0.622302 0.444381 0.091712
Si Si7 0.710310 0.401752 0.578869
O O1 0.514773 0.677125 0.814966
O O2 0.851506 0.621166 0.770300
O O3 0.584092 0.585060 0.926362
O O4 0.018969 0.647085 0.090510
O O5 0.223371 0.758818 0.676325
O O6 0.812106 0.758845 0.957965
O O7 0.557706 0.671488 0.182659
O O8 0.407248 0.579507 0.147197
O O9 0.483070 0.632452 0.415636
O O10 0.461787 0.061166 0.263470
O O11 0.486898 0.084545 0.561034
O O12 0.982536 0.057444 0.565609
O O13 0.552564 0.000000 0.506456
O O14 0.842789 0.247666 0.256128
O O15 0.533206 0.500000 0.039258
#
# Coordination Sequence:
#
# PCOD8053229 Si02
#       7
#     4   4   4   4   4   4   4
#     4  12  24  41  69  95 133 173 218 274 328 389
#     4  10  20  36  63  93 124 168 212 260 328 379
#     4  11  23  43  67  92 137 172 218 274 325 389
#     4  10  22  45  66  89 131 173 219 275 323 380
#     4  10  19  35  65  93 120 170 215 257 327 382
#     4  10  23  41  68  97 128 178 225 265 327 392
#     4  11  26  41  64  99 127 174 215 267 334 383
#
# _framework density 24.725704
#
# number of rings (size 3 to 8) (size 9 to 14) (size 15 to 20)
#    0.000    1.429    4.286    2.143    2.000    2.286 
#    0.000    1.429    0.000    0.000    0.000    0.000 
#    0.000    0.000    0.000    0.000    0.000    0.000 
#
# Total GULP energy -173467.534607 kJ/mol
# GULP energy per Si atom -12390.538186 kJ/mol
# Density = 2.466943 g / cm^3
# Si number density = 24.725704 Si / 1000 Ang^3
#
#
#
# Elastic Constant Matrix: (Units=GPa)
#
#
# Indices 1 2 3 4 5 6 
#
# 1 123.6091 20.0254 0.4243 0.0000 -12.3997 0.0000
# 2 20.0254 136.3151 11.0345 0.0000 -14.7712 0.0000
# 3 0.4243 11.0345 66.8280 0.0000 -18.0669 0.0000
# 4 0.0000 0.0000 0.0000 10.9016 0.0000 -5.4606
# 5 -12.3997 -14.7712 -18.0669 0.0000 28.7750 0.0000
# 6 0.0000 0.0000 0.0000 -5.4606 0.0000 36.0286
#
#
#
# Elastic Compliance Matrix: (Units=1/GPa)
#
#
# Indices 1 2 3 4 5 6 
#
# 1 0.008636 -0.000933 0.001175 0.000000 0.003981 0.000000
# 2 -0.000933 0.007872 -0.000373 0.000000 0.003405 0.000000
# 3 0.001175 -0.000373 0.018191 0.000000 0.011736 0.000000
# 4 0.000000 0.000000 0.000000 0.099266 0.000000 0.015045
# 5 0.003981 0.003405 0.011736 0.000000 0.045584 0.000000
# 6 0.000000 0.000000 0.000000 0.015045 0.000000 0.030036
#
#
# Mechanical properties :
#
#
# Convention : Reuss Voigt Hill
#
# Bulk Modulus (GPa) = 29.03752 43.30229 36.16990
# Shear Modulus (GPa) = 22.59109 34.82556 28.70832
#
# Velocity S-wave (km/s) = 3.02597 3.75704 3.41115
# Velocity P-wave (km/s) = 4.89674 6.03088 5.49316
#
# Compressibility (1/GPa) = 0.03443821
#
# Stress axis : x y z
#
# Youngs Moduli (GPa) = 115.78908 127.03089 54.97260
#
# Poissons Ratio (x) = 0.11846 -0.06461
# Poissons Ratio (y) = 0.10797 0.02053
# Poissons Ratio (z) = -0.13609 0.04744
#
# Static dielectric constant tensor:
#      x y z
#    x 4.776790 0.000000 -0.268000 
#    y 0.000000 4.429550 0.000000 
#    z -0.268000 0.000000 4.185400 
# 
# 
# High freq. dielectric constant tensor:
#      x y z
#    x 1.985440 0.000000 -0.016320 
#    y 0.000000 1.979700 0.000000 
#    z -0.016320 0.000000 1.954020 
# 
# From -- ./inp_files/6964.got.cif
#   From: 2010.03.12/outbox.cif.g09.slc.cpg/sg8_4_cif.got.tgz:6964.got - 2010.03.31 10:45:26.
