data_PCOD8053824
_publ_section_title
;
Structure prediction by ZEFSAII (Michael W. Deem and Ramdas Pophale) SiO2 
 PCOD8053824
Probable space group: C M
;
_chemical_formula_sum "Si O2"
_cell_formula_units_Z 32
_cell_length_a 23.869578
_cell_length_b 8.696351
_cell_length_c 14.298552
_cell_angle_alpha 90.000000
_cell_angle_beta 32.495127
_cell_angle_gamma 90.000000
_cell_volume 1594.528918
_symmetry_space_group_name_H-M "C M"
_symmetry_group_IT_number 8
_symmetry_cell_setting 'monoclinic'
loop_
_space_group_symop_operation_xyz
x,y,z
x,-y,z
1/2+x,1/2+y,z
1/2+x,1/2-y,z
loop_
_atom_site_type_symbol
_atom_site_label
_atom_site_fract_x
_atom_site_fract_y
_atom_site_fract_z
Si Si1 0.589970 0.321318 0.432490
Si Si2 0.037017 0.676442 0.053834
Si Si3 0.397766 0.322210 0.570693
Si Si4 0.008177 0.680814 0.733525
Si Si5 0.707285 0.680416 0.939160
Si Si6 0.356903 0.177757 0.440889
Si Si7 0.119254 0.820228 0.754099
Si Si8 0.775664 0.682458 0.044511
O O1 0.591635 0.500000 0.456758
O O2 0.504076 0.286195 0.475000
O O3 0.570212 0.226746 0.553614
O O4 0.701202 0.266600 0.234517
O O5 0.058276 0.500000 0.996509
O O6 0.918553 0.700016 0.256440
O O7 0.111463 0.724067 0.033878
O O8 0.055883 0.780578 0.936879
O O9 0.365494 0.500000 0.627628
O O10 0.308658 0.210487 0.734098
O O11 0.413233 0.281413 0.440117
O O12 0.999770 0.500000 0.749482
O O13 0.068443 0.736384 0.738826
O O14 0.891193 0.752209 0.897002
O O15 0.680626 0.500000 0.974154
O O16 0.728803 0.743452 0.012941
O O17 0.238559 0.235421 0.594573
O O18 0.359572 0.000000 0.468477
O O19 0.113372 0.000000 0.744010
O O20 0.780751 0.500000 0.030825
#
# Coordination Sequence:
#
# PCOD8053824 Si02
#       8
#     4   4   4   4   4   4   4   4
#     4  10  21  39  61  88 120 156 196 240 294 356
#     4  11  23  40  62  92 121 154 198 248 298 354
#     4  11  21  34  60  93 124 156 197 246 294 349
#     4  11  23  41  62  86 116 155 201 251 295 345
#     4  11  20  36  61  89 124 163 195 235 297 362
#     4  10  23  41  62  87 122 160 196 241 303 362
#     4  11  24  43  63  85 116 160 201 245 300 357
#     4   9  20  38  61  86 119 160 196 234 295 359
#
# _framework density 20.068624
#
# number of rings (size 3 to 8) (size 9 to 14) (size 15 to 20)
#    0.000    1.500    2.500    2.625    0.000    4.000 
#    0.000    7.500    0.000    0.000    0.000    0.000 
#    0.000    0.000    0.000    0.000    0.000    0.000 
#
# Total GULP energy -198463.865722 kJ/mol
# GULP energy per Si atom -12403.991608 kJ/mol
# Density = 2.002295 g / cm^3
# Si number density = 20.068624 Si / 1000 Ang^3
#
#
#
# Elastic Constant Matrix: (Units=GPa)
#
#
# Indices 1 2 3 4 5 6 
#
# 1 122.5557 9.5356 56.3704 0.0000 14.8797 -0.0001
# 2 9.5356 21.9147 25.3061 -0.0005 6.1960 0.0001
# 3 56.3704 25.3061 126.2474 -0.0002 15.6656 0.0000
# 4 0.0000 -0.0005 -0.0002 28.0919 0.0001 -2.0237
# 5 14.8797 6.1960 15.6656 0.0001 15.5323 0.0000
# 6 -0.0001 0.0001 0.0000 -2.0237 0.0000 14.2465
#
#
#
# Elastic Compliance Matrix: (Units=1/GPa)
#
#
# Indices 1 2 3 4 5 6 
#
# 1 0.010865 0.002379 -0.004480 0.000000 -0.006840 0.000000
# 2 0.002379 0.062421 -0.011661 0.000001 -0.015418 0.000000
# 3 -0.004480 -0.011661 0.012744 0.000000 -0.003910 0.000000
# 4 0.000000 0.000001 0.000000 0.035966 0.000000 0.005109
# 5 -0.006840 -0.015418 -0.003910 0.000000 0.081029 0.000000
# 6 0.000000 0.000000 0.000000 0.005109 0.000000 0.070918
#
#
# Mechanical properties :
#
#
# Convention : Reuss Voigt Hill
#
# Bulk Modulus (GPa) = 17.09209 50.34913 33.72061
# Shear Modulus (GPa) = 15.57783 23.54118 19.55950
#
# Velocity S-wave (km/s) = 2.78911 3.42867 3.12529
# Velocity P-wave (km/s) = 4.34827 6.38885 5.46465
#
# Compressibility (1/GPa) = 0.05850659
#
# Stress axis : x y z
#
# Youngs Moduli (GPa) = 92.03610 16.02014 78.46972
#
# Poissons Ratio (x) = -0.03811 0.35151
# Poissons Ratio (y) = -0.21894 0.91506
# Poissons Ratio (z) = 0.41228 0.18681
#
# Static dielectric constant tensor:
#      x y z
#    x 3.652650 0.000000 -0.060540 
#    y 0.000000 3.544120 0.000000 
#    z -0.060540 0.000000 4.041430 
# 
# 
# High freq. dielectric constant tensor:
#      x y z
#    x 1.781730 0.000000 0.002710 
#    y 0.000000 1.773060 0.000000 
#    z 0.002710 0.000000 1.796360 
# 
# From -- ./inp_files/26540.got.cif
#   From: 2010.03.12/outbox.cif.g09.slc.cpg/sg8_14_cif.got.tgz:26540.got - 2010.03.31 10:45:26.
