data_PCOD8053999
_publ_section_title
;
Structure prediction by ZEFSAII (Michael W. Deem and Ramdas Pophale) SiO2 
 PCOD8053999
Probable space group: C M
;
_chemical_formula_sum "Si O2"
_cell_formula_units_Z 20
_cell_length_a 11.464165
_cell_length_b 9.671564
_cell_length_c 17.223736
_cell_angle_alpha 90.000000
_cell_angle_beta 151.858955
_cell_angle_gamma 90.000000
_cell_volume 900.700755
_symmetry_space_group_name_H-M "C M"
_symmetry_group_IT_number 8
_symmetry_cell_setting 'monoclinic'
loop_
_space_group_symop_operation_xyz
x,y,z
x,-y,z
1/2+x,1/2+y,z
1/2+x,1/2-y,z
loop_
_atom_site_type_symbol
_atom_site_label
_atom_site_fract_x
_atom_site_fract_y
_atom_site_fract_z
Si Si1 0.659920 0.000000 0.965770
Si Si2 0.876985 0.500000 0.001723
Si Si3 0.413521 0.000000 0.199754
Si Si4 0.176637 0.000000 0.353613
Si Si5 0.384563 0.500000 0.930353
Si Si6 0.348292 0.297048 0.447455
Si Si7 0.283414 0.202882 0.816443
Si Si8 0.434301 0.500000 0.366951
O O1 0.720698 0.000000 0.910881
O O2 0.504911 0.863338 0.896186
O O3 0.911256 0.000000 0.159901
O O4 0.795730 0.500000 0.043596
O O5 0.173745 0.500000 0.169452
O O6 0.776380 0.636381 0.898511
O O7 0.579955 0.136805 0.309400
O O8 0.181720 0.000000 0.122865
O O9 0.327181 0.864917 0.416787
O O10 0.154146 0.000000 0.434131
O O11 0.321531 0.366345 0.842507
O O12 0.524501 0.329209 0.623124
O O13 0.460336 0.364396 0.435590
#
# Coordination Sequence:
#
# PCOD8053999 Si02
#       8
#     2   2   2   2   2   4   4   2
#     4  11  26  44  72  94 138 185 225 269 339 398
#     4   9  20  41  72  91 132 183 220 269 335 394
#     4  10  23  44  68  99 136 176 226 276 331 402
#     4  12  23  41  71 100 133 176 227 273 333 399
#     4  12  28  40  72 104 135 171 237 276 323 407
#     4  10  24  41  70 100 135 173 224 273 343 393
#     4  11  23  45  68 102 135 179 220 278 340 394
#     4  10  22  44  67  94 136 179 215 275 329 402
#
# _framework density 22.204931999999999
#
# number of rings (size 3 to 8) (size 9 to 14) (size 15 to 20)
#    0.000    1.600    2.000    4.200    8.400    3.200 
#    0.000    1.000    4.400    0.000    0.000    0.000 
#    0.000    0.000    0.000    0.000    0.000    0.000 
#
# Total GULP energy -124017.384513 kJ/mol
# GULP energy per Si atom -12401.738451 kJ/mol
# Density = 2.215439 g / cm^3
# Si number density = 22.204932 Si / 1000 Ang^3
#
#
#
# Elastic Constant Matrix: (Units=GPa)
#
#
# Indices 1 2 3 4 5 6 
#
# 1 105.2824 52.0643 32.0704 0.0068 -3.0819 0.0002
# 2 52.0643 198.7054 52.1965 0.0063 -14.1583 0.0005
# 3 32.0704 52.1965 144.9348 0.0313 -25.7334 0.0042
# 4 0.0068 0.0063 0.0313 27.3580 0.0016 -7.5445
# 5 -3.0819 -14.1583 -25.7334 0.0016 22.0267 0.0002
# 6 0.0002 0.0005 0.0042 -7.5445 0.0002 16.7944
#
#
#
# Elastic Compliance Matrix: (Units=1/GPa)
#
#
# Indices 1 2 3 4 5 6 
#
# 1 0.011329 -0.002617 -0.001995 0.000000 -0.002429 0.000001
# 2 -0.002617 0.006206 -0.001278 0.000001 0.002130 0.000000
# 3 -0.001995 -0.001278 0.009597 -0.000013 0.010111 -0.000008
# 4 0.000000 0.000001 -0.000013 0.041721 -0.000018 0.018742
# 5 -0.002429 0.002130 0.010111 -0.000018 0.058242 -0.000011
# 6 0.000001 0.000000 -0.000008 0.018742 -0.000011 0.067963
#
#
# Mechanical properties :
#
#
# Convention : Reuss Voigt Hill
#
# Bulk Modulus (GPa) = 65.14285 80.17609 72.65947
# Shear Modulus (GPa) = 23.58986 34.07522 28.83254
#
# Velocity S-wave (km/s) = 3.26294 3.92162 3.60734
# Velocity P-wave (km/s) = 6.60276 7.52936 7.08123
#
# Compressibility (1/GPa) = 0.01535088
#
# Stress axis : x y z
#
# Youngs Moduli (GPa) = 88.26621 161.14108 104.20422
#
# Poissons Ratio (x) = 0.42176 0.20794
# Poissons Ratio (y) = 0.23102 0.13313
# Poissons Ratio (z) = 0.17613 0.20587
#
# Static dielectric constant tensor:
#      x y z
#    x 3.937670 0.000010 -0.065420 
#    y 0.000010 3.813400 -0.000020 
#    z -0.065420 -0.000020 4.035450 
# 
# 
# High freq. dielectric constant tensor:
#      x y z
#    x 1.855950 0.000000 -0.009290 
#    y 0.000000 1.884260 0.000000 
#    z -0.009290 0.000000 1.881430 
# 
# From -- ./inp_files/28725.got.cif
#   From: 2010.03.12/outbox.cif.g09.slc.cpg/sg8_15_cif.got.tgz:28725.got - 2010.03.31 10:45:26.
