data_PCOD8053602
_publ_section_title
;
Structure prediction by ZEFSAII (Michael W. Deem and Ramdas Pophale) SiO2 
 PCOD8053602
Probable space group: C M
;
_chemical_formula_sum "Si O2"
_cell_formula_units_Z 32
_cell_length_a 9.715778
_cell_length_b 15.659320
_cell_length_c 24.927670
_cell_angle_alpha 90.000000
_cell_angle_beta 154.655312
_cell_angle_gamma 90.000000
_cell_volume 1623.453047
_symmetry_space_group_name_H-M "C M"
_symmetry_group_IT_number 8
_symmetry_cell_setting 'monoclinic'
loop_
_space_group_symop_operation_xyz
x,y,z
x,-y,z
1/2+x,1/2+y,z
1/2+x,1/2-y,z
loop_
_atom_site_type_symbol
_atom_site_label
_atom_site_fract_x
_atom_site_fract_y
_atom_site_fract_z
Si Si1 0.912920 0.730808 0.402340
Si Si2 0.783767 0.731707 0.236150
Si Si3 0.718871 0.098985 0.586513
Si Si4 0.805241 0.631417 0.864560
Si Si5 0.407604 0.592256 0.822685
Si Si6 0.480534 0.594136 0.056953
Si Si7 0.594255 0.307255 0.990659
Si Si8 0.294112 0.901301 0.540165
O O1 0.915503 0.707361 0.340796
O O2 0.556024 0.717139 0.299798
O O3 0.145477 0.660835 0.510808
O O4 0.017075 0.829901 0.449127
O O5 0.707413 0.646331 0.176534
O O6 0.472068 0.791416 0.131933
O O7 0.439187 0.107762 0.531945
O O8 0.055766 0.133507 0.727752
O O9 0.749406 0.000000 0.578674
O O10 0.652172 0.579130 0.859422
O O11 0.125355 0.587173 0.955987
O O12 0.879288 0.723315 0.915706
O O13 0.366283 0.500000 0.835574
O O14 0.063242 0.622956 0.679005
O O15 0.550274 0.655006 0.916403
O O16 0.629042 0.500000 0.104456
O O17 0.462809 0.633965 0.991594
O O18 0.171186 0.000000 0.505003
#
# Coordination Sequence:
#
# PCOD8053602 Si02
#       8
#     4   4   4   4   4   4   4   4
#     4  12  22  43  63  87 120 160 210 253 295 360
#     4  11  25  41  60  86 118 158 208 248 299 353
#     4  10  21  39  63  92 123 160 201 248 306 365
#     4  10  20  38  63  90 121 152 195 245 302 358
#     4  10  20  37  61  91 118 148 195 242 292 362
#     4  11  23  40  61  89 124 156 196 256 309 355
#     4  11  22  39  60  87 120 158 197 241 305 363
#     4   9  20  39  64  90 120 158 199 245 306 366
#
# _framework density 19.711072000000001
#
# number of rings (size 3 to 8) (size 9 to 14) (size 15 to 20)
#    0.000    1.500    2.500    4.500    1.750    2.000 
#    2.250    1.250    0.000    0.000    0.000    0.000 
#    0.000    0.000    0.000    0.000    0.000    0.000 
#
# Total GULP energy -198389.989041 kJ/mol
# GULP energy per Si atom -12399.374315 kJ/mol
# Density = 1.966621 g / cm^3
# Si number density = 19.711072 Si / 1000 Ang^3
#
#
#
# Elastic Constant Matrix: (Units=GPa)
#
#
# Indices 1 2 3 4 5 6 
#
# 1 73.4579 28.2866 31.9734 -0.0007 -16.4808 0.0005
# 2 28.2866 89.4355 37.2782 -0.0038 -13.6861 -0.0010
# 3 31.9734 37.2782 91.8206 -0.0079 -12.6575 -0.0025
# 4 -0.0007 -0.0038 -0.0079 27.1902 0.0001 -2.4539
# 5 -16.4808 -13.6861 -12.6575 0.0001 31.6583 0.0031
# 6 0.0005 -0.0010 -0.0025 -2.4539 0.0031 19.7616
#
#
#
# Elastic Compliance Matrix: (Units=1/GPa)
#
#
# Indices 1 2 3 4 5 6 
#
# 1 0.018020 -0.002973 -0.004182 -0.000001 0.006423 -0.000002
# 2 -0.002973 0.014407 -0.004412 0.000001 0.002917 0.000000
# 3 -0.004182 -0.004412 0.014367 0.000004 0.001660 0.000002
# 4 -0.000001 0.000001 0.000004 0.037195 0.000000 0.004619
# 5 0.006423 0.002917 0.001660 0.000000 0.036856 -0.000006
# 6 -0.000002 0.000000 0.000002 0.004619 -0.000006 0.051177
#
#
# Mechanical properties :
#
#
# Convention : Reuss Voigt Hill
#
# Bulk Modulus (GPa) = 42.26649 49.97671 46.12160
# Shear Modulus (GPa) = 24.62560 26.20041 25.41300
#
# Velocity S-wave (km/s) = 3.53842 3.64981 3.59454
# Velocity P-wave (km/s) = 6.17928 6.57047 6.37787
#
# Compressibility (1/GPa) = 0.02365941
#
# Stress axis : x y z
#
# Youngs Moduli (GPa) = 55.49528 69.41206 69.60393
#
# Poissons Ratio (x) = 0.20637 0.29110
# Poissons Ratio (y) = 0.16499 0.30707
# Poissons Ratio (z) = 0.23209 0.30622
#
# Static dielectric constant tensor:
#      x y z
#    x 3.472270 0.000010 -0.027770 
#    y 0.000010 3.086300 0.000060 
#    z -0.027770 0.000060 3.620250 
# 
# 
# High freq. dielectric constant tensor:
#      x y z
#    x 1.765330 0.000000 -0.005410 
#    y 0.000000 1.771530 0.000000 
#    z -0.005410 0.000000 1.771840 
# 
# From -- ./inp_files/31775.got.cif
#   From: 2010.03.12/outbox.cif.g09.slc.cpg/sg8_16_cif.got.tgz:31775.got - 2010.03.31 10:45:26.
