data_PCOD8053586
_publ_section_title
;
Structure prediction by ZEFSAII (Michael W. Deem and Ramdas Pophale) SiO2 
 PCOD8053586
Probable space group: C M
;
_chemical_formula_sum "Si O2"
_cell_formula_units_Z 28
_cell_length_a 19.724595
_cell_length_b 15.119012
_cell_length_c 8.759625
_cell_angle_alpha 90.000000
_cell_angle_beta 31.102141
_cell_angle_gamma 90.000000
_cell_volume 1349.404864
_symmetry_space_group_name_H-M "C M"
_symmetry_group_IT_number 8
_symmetry_cell_setting 'monoclinic'
loop_
_space_group_symop_operation_xyz
x,y,z
x,-y,z
1/2+x,1/2+y,z
1/2+x,1/2-y,z
loop_
_atom_site_type_symbol
_atom_site_label
_atom_site_fract_x
_atom_site_fract_y
_atom_site_fract_z
Si Si1 0.486420 0.096383 0.165360
Si Si2 0.514459 0.690186 0.628069
Si Si3 0.801456 0.903239 0.222769
Si Si4 0.764206 0.399931 0.039883
Si Si5 0.382741 0.763979 0.599643
Si Si6 0.793513 0.900556 0.579591
Si Si7 0.508711 0.865386 0.782815
O O1 0.435786 0.176631 0.362029
O O2 0.426885 0.000000 0.328261
O O3 0.639892 0.090862 0.888969
O O4 0.448666 0.114399 0.063351
O O5 0.634711 0.621250 0.390189
O O6 0.495759 0.739445 0.502423
O O7 0.546768 0.762270 0.694806
O O8 0.374768 0.649482 0.947784
O O9 0.828304 0.865045 0.341837
O O10 0.646564 0.913813 0.486344
O O11 0.863847 0.000000 0.099146
O O12 0.750066 0.500000 0.001939
O O13 0.770342 0.324627 0.896353
O O14 0.898034 0.396281 0.878053
O O15 0.336850 0.669923 0.622238
O O16 0.853434 0.000000 0.494188
#
# Coordination Sequence:
#
# PCOD8053586 Si02
#       7
#     4   4   4   4   4   4   4
#     4  10  20  37  60  85 111 146 192 241 285 335
#     4  11  23  37  56  85 119 154 189 233 285 340
#     4  10  20  38  62  86 109 143 191 240 285 337
#     4  11  23  39  57  85 122 156 191 236 286 341
#     4  11  22  37  56  83 117 157 191 228 284 348
#     4   9  20  38  60  84 111 144 191 243 287 335
#     4  10  20  38  62  86 111 146 194 241 285 336
#
# _framework density 20.749889
#
# number of rings (size 3 to 8) (size 9 to 14) (size 15 to 20)
#    0.000    1.714    0.000    6.429    0.000    3.429 
#    0.000    4.286    0.000    1.714    0.000    0.000 
#    0.000    0.000    0.000    0.000    0.000    0.000 
#
# Total GULP energy -173481.260358 kJ/mol
# GULP energy per Si atom -12391.518597 kJ/mol
# Density = 2.070266 g / cm^3
# Si number density = 20.749889 Si / 1000 Ang^3
#
#
#
# Elastic Constant Matrix: (Units=GPa)
#
#
# Indices 1 2 3 4 5 6 
#
# 1 68.5904 48.5248 30.7396 0.0000 6.0397 0.0000
# 2 48.5248 148.9252 43.8622 0.0000 9.7318 0.0000
# 3 30.7396 43.8622 95.9511 0.0000 8.7982 0.0000
# 4 0.0000 0.0000 0.0000 24.9279 0.0000 -4.3282
# 5 6.0397 9.7318 8.7982 0.0000 19.5969 0.0000
# 6 0.0000 0.0000 0.0000 -4.3282 0.0000 26.2772
#
#
#
# Elastic Compliance Matrix: (Units=1/GPa)
#
#
# Indices 1 2 3 4 5 6 
#
# 1 0.020257 -0.005336 -0.003880 0.000000 -0.001851 0.000000
# 2 -0.005336 0.009271 -0.002354 0.000000 -0.001903 0.000000
# 3 -0.003880 -0.002354 0.013062 0.000000 -0.003499 0.000000
# 4 0.000000 0.000000 0.000000 0.041297 0.000000 0.006802
# 5 -0.001851 -0.001903 -0.003499 0.000000 0.054115 0.000000
# 6 0.000000 0.000000 0.000000 0.006802 0.000000 0.039176
#
#
# Mechanical properties :
#
#
# Convention : Reuss Voigt Hill
#
# Bulk Modulus (GPa) = 51.41887 62.19110 56.80499
# Shear Modulus (GPa) = 24.17768 26.84973 25.51371
#
# Velocity S-wave (km/s) = 3.41720 3.60108 3.51034
# Velocity P-wave (km/s) = 6.35640 6.87948 6.62310
#
# Compressibility (1/GPa) = 0.01944811
#
# Stress axis : x y z
#
# Youngs Moduli (GPa) = 49.36656 107.86030 76.55717
#
# Poissons Ratio (x) = 0.57559 0.29707
# Poissons Ratio (y) = 0.26344 0.18022
# Poissons Ratio (z) = 0.19156 0.25391
#
# Static dielectric constant tensor:
#      x y z
#    x 3.591890 0.000000 0.243430 
#    y 0.000000 3.867870 0.000000 
#    z 0.243430 0.000000 3.718660 
# 
# 
# High freq. dielectric constant tensor:
#      x y z
#    x 1.794880 0.000000 0.010850 
#    y 0.000000 1.832910 0.000000 
#    z 0.010850 0.000000 1.803590 
# 
# From -- ./inp_files/16434.got.cif
#   From: 2010.03.12/outbox.cif.g09.slc.cpg/sg8_9_cif.got.tgz:16434.got - 2010.03.31 10:45:26.
