data_PCOD8053228
_publ_section_title
;
Structure prediction by ZEFSAII (Michael W. Deem and Ramdas Pophale) SiO2 
 PCOD8053228
Probable space group: C M
;
_chemical_formula_sum "Si O2"
_cell_formula_units_Z 32
_cell_length_a 23.550825
_cell_length_b 9.018532
_cell_length_c 25.014789
_cell_angle_alpha 90.000000
_cell_angle_beta 17.671552
_cell_angle_gamma 90.000000
_cell_volume 1612.810668
_symmetry_space_group_name_H-M "C M"
_symmetry_group_IT_number 8
_symmetry_cell_setting 'monoclinic'
loop_
_space_group_symop_operation_xyz
x,y,z
x,-y,z
1/2+x,1/2+y,z
1/2+x,1/2-y,z
loop_
_atom_site_type_symbol
_atom_site_label
_atom_site_fract_x
_atom_site_fract_y
_atom_site_fract_z
Si Si1 0.319440 0.675104 0.230090
Si Si2 0.585055 0.674692 0.087686
Si Si3 0.601388 0.827152 0.181575
Si Si4 0.980452 0.672493 0.875920
Si Si5 0.556703 0.827330 0.929989
Si Si6 0.954883 0.831115 0.723334
Si Si7 0.231807 0.168383 0.569764
Si Si8 0.472154 0.327917 0.586370
O O1 0.312780 0.500000 0.231820
O O2 0.110370 0.735515 0.424884
O O3 0.446479 0.729470 0.165511
O O4 0.401579 0.737724 0.101521
O O5 0.574976 0.500000 0.104802
O O6 0.794605 0.718946 0.884541
O O7 0.524475 0.752351 0.196786
O O8 0.451133 0.798814 0.363386
O O9 0.628475 0.000000 0.145625
O O10 0.798916 0.761566 0.021224
O O11 0.941797 0.500000 0.901335
O O12 0.029120 0.709507 0.892881
O O13 0.157093 0.721048 0.681833
O O14 0.762065 0.773323 0.763145
O O15 0.530384 0.000000 0.966259
O O16 0.129886 0.805782 0.604781
O O17 0.021416 0.794719 0.603783
O O18 0.878657 0.000000 0.794917
O O19 0.201184 0.000000 0.616958
O O20 0.494830 0.500000 0.551404
#
# Coordination Sequence:
#
# PCOD8053228 Si02
#       8
#     4   4   4   4   4   4   4   4
#     4  11  24  39  60  92 126 158 195 245 304 357
#     4  11  22  36  58  91 126 159 193 241 303 355
#     4  11  23  40  63  90 122 160 202 242 293 362
#     4  11  24  41  62  89 120 156 201 254 305 349
#     4  10  23  43  64  86 116 159 208 251 294 352
#     4  10  19  35  62  90 117 153 197 245 296 356
#     4  10  22  39  61  90 119 155 199 245 297 356
#     4  10  21  39  64  90 118 158 203 245 294 355
#
# _framework density 19.841137
#
# number of rings (size 3 to 8) (size 9 to 14) (size 15 to 20)
#    0.000    1.500    2.500    2.250    0.000    6.500 
#    0.000    3.750    0.000    0.000    0.000    0.000 
#    0.000    0.000    0.000    0.000    0.000    0.000 
#
# Total GULP energy -198493.858848 kJ/mol
# GULP energy per Si atom -12405.866178 kJ/mol
# Density = 1.979598 g / cm^3
# Si number density = 19.841137 Si / 1000 Ang^3
#
#
#
# Elastic Constant Matrix: (Units=GPa)
#
#
# Indices 1 2 3 4 5 6 
#
# 1 80.1570 36.4423 28.7855 -0.0140 24.0077 0.0049
# 2 36.4423 76.0275 42.3898 0.0030 15.3786 -0.0087
# 3 28.7855 42.3898 119.1096 0.0189 21.9679 -0.0129
# 4 -0.0140 0.0030 0.0189 30.8345 0.0020 5.5478
# 5 24.0077 15.3786 21.9679 0.0020 20.7525 -0.0006
# 6 0.0049 -0.0087 -0.0129 5.5478 -0.0006 23.8424
#
#
#
# Elastic Compliance Matrix: (Units=1/GPa)
#
#
# Indices 1 2 3 4 5 6 
#
# 1 0.021368 -0.006588 0.001043 0.000013 -0.020942 -0.000010
# 2 -0.006588 0.019417 -0.005057 -0.000003 -0.001414 0.000006
# 3 0.001043 -0.005057 0.011773 -0.000007 -0.009922 0.000006
# 4 0.000013 -0.000003 -0.000007 0.033848 -0.000009 -0.007876
# 5 -0.020942 -0.001414 -0.009922 -0.000009 0.083965 0.000003
# 6 -0.000010 0.000006 0.000006 -0.007876 0.000003 0.043775
#
#
# Mechanical properties :
#
#
# Convention : Reuss Voigt Hill
#
# Bulk Modulus (GPa) = 31.89407 54.50327 43.19867
# Shear Modulus (GPa) = 20.34158 26.26432 23.30295
#
# Velocity S-wave (km/s) = 3.20538 3.64226 3.43078
# Velocity P-wave (km/s) = 5.45975 6.72440 6.12480
#
# Compressibility (1/GPa) = 0.03135379
#
# Stress axis : x y z
#
# Youngs Moduli (GPa) = 46.79789 51.50213 84.93781
#
# Poissons Ratio (x) = 0.33929 -0.08858
# Poissons Ratio (y) = 0.30830 0.42956
# Poissons Ratio (z) = -0.04880 0.26046
#
# Static dielectric constant tensor:
#      x y z
#    x 3.670900 -0.000020 0.006990 
#    y -0.000020 3.552950 0.000040 
#    z 0.006990 0.000040 3.609040 
# 
# 
# High freq. dielectric constant tensor:
#      x y z
#    x 1.772640 0.000000 0.003220 
#    y 0.000000 1.772900 0.000000 
#    z 0.003220 0.000000 1.782520 
# 
# From -- ./inp_files/32336.got.cif
#   From: 2010.03.12/outbox.cif.g09.slc.cpg/sg8_17_cif.got.tgz:32336.got - 2010.03.31 10:45:26.
