data_PCOD8053072
_publ_section_title
;
Structure prediction by ZEFSAII (Michael W. Deem and Ramdas Pophale) SiO2 
 PCOD8053072
Probable space group: C M
;
_chemical_formula_sum "Si O2"
_cell_formula_units_Z 32
_cell_length_a 18.557813
_cell_length_b 9.206493
_cell_length_c 25.236062
_cell_angle_alpha 90.000000
_cell_angle_beta 23.760949
_cell_angle_gamma 90.000000
_cell_volume 1737.253325
_symmetry_space_group_name_H-M "C M"
_symmetry_group_IT_number 8
_symmetry_cell_setting 'monoclinic'
loop_
_space_group_symop_operation_xyz
x,y,z
x,-y,z
1/2+x,1/2+y,z
1/2+x,1/2-y,z
loop_
_atom_site_type_symbol
_atom_site_label
_atom_site_fract_x
_atom_site_fract_y
_atom_site_fract_z
Si Si1 0.549750 0.670143 0.576650
Si Si2 0.747940 0.829381 0.349244
Si Si3 0.152928 0.831029 0.095139
Si Si4 0.600398 0.828001 0.335771
Si Si5 0.291164 0.834398 0.116111
Si Si6 0.150583 0.666817 0.818223
Si Si7 0.989654 0.172530 0.830235
Si Si8 0.702050 0.327663 0.584843
O O1 0.587558 0.500000 0.545733
O O2 0.646825 0.749071 0.463773
O O3 0.339530 0.705140 0.717125
O O4 0.626453 0.732144 0.580216
O O5 0.664523 0.775898 0.350221
O O6 0.955858 0.786053 0.209692
O O7 0.722871 0.000000 0.374778
O O8 0.175623 0.794430 0.141917
O O9 0.194113 0.000000 0.057307
O O10 0.291331 0.738087 0.967406
O O11 0.735695 0.768086 0.201186
O O12 0.401594 0.765928 0.459562
O O13 0.605350 0.000000 0.328419
O O14 0.256537 0.000000 0.156280
O O15 0.500107 0.805817 0.963926
O O16 0.141368 0.500000 0.804820
O O17 0.118759 0.769496 0.789457
O O18 0.072914 0.225123 0.718703
O O19 0.978828 0.000000 0.841981
O O20 0.708215 0.500000 0.580149
#
# Coordination Sequence:
#
# PCOD8053072 Si02
#       8
#     4   4   4   4   4   4   4   4
#     4  10  20  35  55  76 101 137 177 212 250 302
#     4  10  21  36  53  75 105 138 170 211 262 305
#     4   9  19  36  54  74 105 139 169 208 258 305
#     4  10  20  34  52  74 103 135 167 210 260 304
#     4   9  18  33  52  73  99 132 169 209 253 302
#     4   9  19  35  53  75 106 139 168 208 259 302
#     4  10  19  33  56  80 102 133 172 211 253 306
#     4   9  19  34  51  75 105 133 166 213 261 298
#
# _framework density 18.419879999999999
#
# number of rings (size 3 to 8) (size 9 to 14) (size 15 to 20)
#    0.000    2.500    0.000    2.625    0.000    5.500 
#    0.000    3.750    0.000    0.000    0.000    0.000 
#    0.000    0.000    0.000    0.000    0.000    0.000 
#
# Total GULP energy -198436.081448 kJ/mol
# GULP energy per Si atom -12402.255090 kJ/mol
# Density = 1.837796 g / cm^3
# Si number density = 18.419880 Si / 1000 Ang^3
#
#
#
# Elastic Constant Matrix: (Units=GPa)
#
#
# Indices 1 2 3 4 5 6 
#
# 1 157.6781 43.4436 105.4969 0.0015 -4.5872 -0.0002
# 2 43.4436 45.2867 51.5518 -0.0171 4.7220 -0.0020
# 3 105.4969 51.5518 149.3829 -0.0294 0.5822 -0.0040
# 4 0.0015 -0.0171 -0.0294 32.2379 -0.0008 5.6831
# 5 -4.5872 4.7220 0.5822 -0.0008 40.3987 0.0019
# 6 -0.0002 -0.0020 -0.0040 5.6831 0.0019 21.8481
#
#
#
# Elastic Compliance Matrix: (Units=1/GPa)
#
#
# Indices 1 2 3 4 5 6 
#
# 1 0.012435 -0.003500 -0.007582 -0.000009 0.001930 0.000001
# 2 -0.003500 0.038035 -0.010636 0.000011 -0.004690 -0.000001
# 3 -0.007582 -0.010636 0.015718 0.000009 0.000156 -0.000001
# 4 -0.000009 0.000011 0.000009 0.032510 -0.000001 -0.008457
# 5 0.001930 -0.004690 0.000156 -0.000001 0.025518 -0.000002
# 6 0.000001 -0.000001 -0.000001 -0.008457 -0.000002 0.047970
#
#
# Mechanical properties :
#
#
# Convention : Reuss Voigt Hill
#
# Bulk Modulus (GPa) = 43.94855 83.70359 63.82607
# Shear Modulus (GPa) = 22.40072 29.02063 25.71067
#
# Velocity S-wave (km/s) = 3.49107 3.97357 3.74011
# Velocity P-wave (km/s) = 6.33729 8.16045 7.30596
#
# Compressibility (1/GPa) = 0.02275388
#
# Stress axis : x y z
#
# Youngs Moduli (GPa) = 80.41801 26.29134 63.61987
#
# Poissons Ratio (x) = 0.09201 0.48234
# Poissons Ratio (y) = 0.28144 0.67667
# Poissons Ratio (z) = 0.60970 0.27964
#
# Static dielectric constant tensor:
#      x y z
#    x 3.566030 0.000010 -0.190770 
#    y 0.000010 3.204240 0.000000 
#    z -0.190770 0.000000 3.574670 
# 
# 
# High freq. dielectric constant tensor:
#      x y z
#    x 1.717830 0.000000 -0.005450 
#    y 0.000000 1.696790 0.000000 
#    z -0.005450 0.000000 1.726540 
# 
# From -- ./inp_files/22818.got.cif
#   From: 2010.03.12/outbox.cif.g09.slc.cpg/sg8_12_cif.got.tgz:22818.got - 2010.03.31 10:45:26.
