data_PCOD8053286
_publ_section_title
;
Structure prediction by ZEFSAII (Michael W. Deem and Ramdas Pophale) SiO2 
 PCOD8053286
Probable space group: C M
;
_chemical_formula_sum "Si O2"
_cell_formula_units_Z 24
_cell_length_a 5.217781
_cell_length_b 24.810842
_cell_length_c 8.431846
_cell_angle_alpha 90.000000
_cell_angle_beta 90.142809
_cell_angle_gamma 90.000000
_cell_volume 1091.562650
_symmetry_space_group_name_H-M "C M"
_symmetry_group_IT_number 8
_symmetry_cell_setting 'monoclinic'
loop_
_space_group_symop_operation_xyz
x,y,z
x,-y,z
1/2+x,1/2+y,z
1/2+x,1/2-y,z
loop_
_atom_site_type_symbol
_atom_site_label
_atom_site_fract_x
_atom_site_fract_y
_atom_site_fract_z
Si Si1 0.366430 0.401604 0.539930
Si Si2 0.386516 0.440219 0.201912
Si Si3 0.385765 0.107179 0.067240
Si Si4 0.865223 0.776787 0.451353
Si Si5 0.364369 0.935616 0.721321
Si Si6 0.898730 0.269359 0.098099
O O1 0.431805 0.438138 0.389332
O O2 0.365632 0.340073 0.482766
O O3 0.587742 0.413634 0.667181
O O4 0.087372 0.418423 0.601679
O O5 0.442316 0.500000 0.140216
O O6 0.591258 0.403076 0.112617
O O7 0.090792 0.426582 0.167481
O O8 0.448805 0.167928 0.115702
O O9 0.430337 0.094334 0.884262
O O10 0.614910 0.750176 0.531633
O O11 0.854728 0.762808 0.264104
O O12 0.356304 0.000000 0.743704
O O13 0.634967 0.257752 0.002831
#
# Coordination Sequence:
#
# PCOD8053286 Si02
#       6
#     4   4   4   4   4   4
#     4  12  25  43  68  99 134 179 224 273 336 400
#     4  12  23  40  67 100 128 169 232 287 326 389
#     4  12  25  44  69  98 132 178 225 275 337 399
#     4  10  19  37  63  92 124 164 211 268 325 383
#     4  12  26  46  66  97 142 183 217 271 340 404
#     4  10  20  38  63  92 124 163 211 270 326 383
#
# _framework density 21.986827999999999
#
# number of rings (size 3 to 8) (size 9 to 14) (size 15 to 20)
#    0.000    0.667    0.000   11.000    0.000    0.000 
#    0.000    5.000    0.000    0.000    0.000    0.000 
#    0.000    0.000    0.000    0.000    0.000    0.000 
#
# Total GULP energy -148788.248513 kJ/mol
# GULP energy per Si atom -12399.020709 kJ/mol
# Density = 2.193679 g / cm^3
# Si number density = 21.986828 Si / 1000 Ang^3
#
#
#
# Elastic Constant Matrix: (Units=GPa)
#
#
# Indices 1 2 3 4 5 6 
#
# 1 152.6291 31.3159 9.3504 0.0000 -2.1130 0.0000
# 2 31.3159 140.0659 30.9874 0.0000 3.7391 0.0000
# 3 9.3504 30.9874 66.2771 0.0000 -1.9454 0.0000
# 4 0.0000 0.0000 0.0000 3.5744 0.0000 -6.9005
# 5 -2.1130 3.7391 -1.9454 0.0000 31.8008 0.0000
# 6 0.0000 0.0000 0.0000 -6.9005 0.0000 39.7754
#
#
#
# Elastic Compliance Matrix: (Units=1/GPa)
#
#
# Indices 1 2 3 4 5 6 
#
# 1 0.006884 -0.001500 -0.000252 0.000000 0.000618 0.000000
# 2 -0.001500 0.008333 -0.003723 0.000000 -0.001307 0.000000
# 3 -0.000252 -0.003723 0.016907 0.000000 0.001455 0.000000
# 4 0.000000 0.000000 0.000000 0.420648 0.000000 0.072976
# 5 0.000618 -0.001307 0.001455 0.000000 0.031730 0.000000
# 6 0.000000 0.000000 0.000000 0.072976 0.000000 0.037802
#
#
# Mechanical properties :
#
#
# Convention : Reuss Voigt Hill
#
# Bulk Modulus (GPa) = 47.22585 55.80884 51.51735
# Shear Modulus (GPa) = 9.25395 34.18470 21.71932
#
# Velocity S-wave (km/s) = 2.05378 3.94735 3.14639
# Velocity P-wave (km/s) = 5.21055 6.79804 6.05653
#
# Compressibility (1/GPa) = 0.02117484
#
# Stress axis : x y z
#
# Youngs Moduli (GPa) = 145.27402 119.99940 59.14689
#
# Poissons Ratio (x) = 0.17998 0.01489
# Poissons Ratio (y) = 0.21789 0.22020
# Poissons Ratio (z) = 0.03657 0.44676
#
# Static dielectric constant tensor:
#      x y z
#    x 5.053820 0.000000 0.068390 
#    y 0.000000 4.172550 0.000000 
#    z 0.068390 0.000000 3.664620 
# 
# 
# High freq. dielectric constant tensor:
#      x y z
#    x 1.900630 0.000000 0.001570 
#    y 0.000000 1.880620 0.000000 
#    z 0.001570 0.000000 1.832470 
# 
# From -- ./inp_files/6840.got.cif
#   From: 2010.03.12/outbox.cif.g09.slc.cpg/sg8_4_cif.got.tgz:6840.got - 2010.03.31 10:45:26.
