data_PCOD8053275
_publ_section_title
;
Structure prediction by ZEFSAII (Michael W. Deem and Ramdas Pophale) SiO2 
 PCOD8053275
Probable space group: C M
;
_chemical_formula_sum "Si O2"
_cell_formula_units_Z 32
_cell_length_a 15.417337
_cell_length_b 20.574299
_cell_length_c 11.492909
_cell_angle_alpha 90.000000
_cell_angle_beta 153.788866
_cell_angle_gamma 90.000000
_cell_volume 1610.172168
_symmetry_space_group_name_H-M "C M"
_symmetry_group_IT_number 8
_symmetry_cell_setting 'monoclinic'
loop_
_space_group_symop_operation_xyz
x,y,z
x,-y,z
1/2+x,1/2+y,z
1/2+x,1/2-y,z
loop_
_atom_site_type_symbol
_atom_site_label
_atom_site_fract_x
_atom_site_fract_y
_atom_site_fract_z
Si Si1 0.140010 0.799587 0.959800
Si Si2 0.524772 0.073304 0.993606
Si Si3 0.651148 0.289034 0.229551
Si Si4 0.234075 0.653385 0.428160
Si Si5 0.147408 0.153375 0.466152
Si Si6 0.591445 0.184090 0.735417
Si Si7 0.780537 0.072634 0.080821
Si Si8 0.085260 0.299450 0.475936
O O1 0.166867 0.729217 0.931342
O O2 0.971801 0.842665 0.691673
O O3 0.042711 0.794111 0.973640
O O4 0.360335 0.826918 0.215358
O O5 0.629765 0.092617 0.241087
O O6 0.702162 0.074092 0.116811
O O7 0.437581 0.000000 0.900458
O O8 0.360509 0.124585 0.753836
O O9 0.625025 0.217184 0.247632
O O10 0.609604 0.342443 0.280498
O O11 0.868335 0.300803 0.444901
O O12 0.187980 0.651089 0.510073
O O13 0.114425 0.224814 0.476182
O O14 0.992773 0.105329 0.337230
O O15 0.695071 0.196239 0.734107
O O16 0.629807 0.109808 0.815334
O O17 0.798492 0.000000 0.053708
#
# Coordination Sequence:
#
# PCOD8053275 Si02
#       8
#     4   4   4   4   4   4   4   4
#     4  10  20  36  57  90 123 150 186 250 306 361
#     4  11  25  43  60  85 124 166 213 252 291 365
#     4   9  20  35  59  89 121 149 188 255 311 357
#     4  10  23  35  61  86 119 159 198 243 311 357
#     4  11  22  37  64  91 121 156 201 255 305 359
#     4  10  19  37  56  87 125 152 191 245 302 364
#     4  11  23  38  59  84 116 162 204 245 295 358
#     4  10  23  33  60  96 118 150 193 249 315 359
#
# _framework density 19.873650999999999
#
# number of rings (size 3 to 8) (size 9 to 14) (size 15 to 20)
#    0.000    1.750    2.500    1.125   10.500    0.000 
#    0.000    0.625    0.000    3.000    0.000    0.000 
#    0.000    0.000    0.000    0.000    0.000    0.000 
#
# Total GULP energy -198230.457984 kJ/mol
# GULP energy per Si atom -12389.403624 kJ/mol
# Density = 1.982842 g / cm^3
# Si number density = 19.873651 Si / 1000 Ang^3
#
#
#
# Elastic Constant Matrix: (Units=GPa)
#
#
# Indices 1 2 3 4 5 6 
#
# 1 117.2804 44.3558 24.4987 0.0000 -21.7410 0.0000
# 2 44.3558 72.8865 18.6711 0.0000 -12.6891 0.0000
# 3 24.4987 18.6711 63.8223 0.0000 -12.9940 0.0000
# 4 0.0000 0.0000 0.0000 23.9663 0.0000 -1.3802
# 5 -21.7410 -12.6891 -12.9940 0.0000 30.2008 0.0000
# 6 0.0000 0.0000 0.0000 -1.3802 0.0000 21.9156
#
#
#
# Elastic Compliance Matrix: (Units=1/GPa)
#
#
# Indices 1 2 3 4 5 6 
#
# 1 0.012189 -0.006001 -0.001808 0.000000 0.005475 0.000000
# 2 -0.006001 0.018445 -0.002624 0.000000 0.002301 0.000000
# 3 -0.001808 -0.002624 0.018238 0.000000 0.005443 0.000000
# 4 0.000000 0.000000 0.000000 0.041877 0.000000 0.002637
# 5 0.005475 0.002301 0.005443 0.000000 0.040361 0.000000
# 6 0.000000 0.000000 0.000000 0.002637 0.000000 0.045796
#
#
# Mechanical properties :
#
#
# Convention : Reuss Voigt Hill
#
# Bulk Modulus (GPa) = 35.70823 47.67118 41.68970
# Shear Modulus (GPa) = 24.14189 26.31411 25.22800
#
# Velocity S-wave (km/s) = 3.48913 3.64273 3.56676
# Velocity P-wave (km/s) = 5.85139 6.46002 6.16322
#
# Compressibility (1/GPa) = 0.02800475
#
# Stress axis : x y z
#
# Youngs Moduli (GPa) = 82.04116 54.21588 54.82914
#
# Poissons Ratio (x) = 0.32537 0.09916
# Poissons Ratio (y) = 0.49235 0.14387
# Poissons Ratio (z) = 0.14837 0.14226
#
# Static dielectric constant tensor:
#      x y z
#    x 3.934320 0.000000 -0.072330 
#    y 0.000000 3.369140 0.000000 
#    z -0.072330 0.000000 3.739900 
# 
# 
# High freq. dielectric constant tensor:
#      x y z
#    x 1.792360 0.000000 0.003300 
#    y 0.000000 1.727780 0.000000 
#    z 0.003300 0.000000 1.785540 
# 
# From -- ./inp_files/22419.got.cif
#   From: 2010.03.12/outbox.cif.g09.slc.cpg/sg8_12_cif.got.tgz:22419.got - 2010.03.31 10:45:26.
