data_PCOD8053695
_publ_section_title
;
Structure prediction by ZEFSAII (Michael W. Deem and Ramdas Pophale) SiO2 
 PCOD8053695
Probable space group: C M
;
_chemical_formula_sum "Si O2"
_cell_formula_units_Z 28
_cell_length_a 7.535622
_cell_length_b 24.303646
_cell_length_c 8.449525
_cell_angle_alpha 90.000000
_cell_angle_beta 128.542391
_cell_angle_gamma 90.000000
_cell_volume 1210.351239
_symmetry_space_group_name_H-M "C M"
_symmetry_group_IT_number 8
_symmetry_cell_setting 'monoclinic'
loop_
_space_group_symop_operation_xyz
x,y,z
x,-y,z
1/2+x,1/2+y,z
1/2+x,1/2-y,z
loop_
_atom_site_type_symbol
_atom_site_label
_atom_site_fract_x
_atom_site_fract_y
_atom_site_fract_z
Si Si1 0.473530 0.181994 0.109020
Si Si2 0.416833 0.323157 0.557209
Si Si3 0.755293 0.764639 0.772555
Si Si4 0.601954 0.139824 0.862479
Si Si5 0.936829 0.561749 0.514206
Si Si6 0.439482 0.560947 0.677384
Si Si7 0.112319 0.111323 0.078314
O O1 0.695301 0.189985 0.336217
O O2 0.264757 0.161844 0.099647
O O3 0.425395 0.240566 0.999707
O O4 0.518695 0.136876 0.996863
O O5 0.625392 0.285803 0.611289
O O6 0.376477 0.307036 0.719536
O O7 0.497290 0.387276 0.594455
O O8 0.562267 0.799721 0.761309
O O9 0.457162 0.094862 0.688680
O O10 0.873279 0.132725 0.009240
O O11 0.881208 0.500000 0.534312
O O12 0.734918 0.583210 0.293507
O O13 0.169448 0.566086 0.546820
O O14 0.498651 0.500000 0.639669
O O15 0.569973 0.566542 0.916646
#
# Coordination Sequence:
#
# PCOD8053695 Si02
#       7
#     4   4   4   4   4   4   4
#     4  12  26  42  68  99 135 177 225 277 335 403
#     4  12  25  43  67 100 133 181 229 275 347 411
#     4  12  23  44  63  96 142 175 221 282 335 405
#     4  11  25  43  67  98 137 175 225 281 334 408
#     4  10  21  42  71  98 134 179 222 282 345 401
#     4  10  20  40  69  99 132 173 227 281 332 407
#     4  11  21  44  70  98 134 176 226 272 344 401
#
# _framework density 23.133779000000001
#
# number of rings (size 3 to 8) (size 9 to 14) (size 15 to 20)
#    0.000    0.857    7.143    0.429    2.000    2.857 
#    0.000    2.143    0.000    0.000    0.000    0.000 
#    0.000    0.000    0.000    0.000    0.000    0.000 
#
# Total GULP energy -173590.254077 kJ/mol
# GULP energy per Si atom -12399.303863 kJ/mol
# Density = 2.308113 g / cm^3
# Si number density = 23.133779 Si / 1000 Ang^3
#
#
#
# Elastic Constant Matrix: (Units=GPa)
#
#
# Indices 1 2 3 4 5 6 
#
# 1 43.4296 14.9395 16.0650 0.0000 -0.6034 0.0000
# 2 14.9395 160.4165 50.9026 0.0000 -1.8883 0.0000
# 3 16.0650 50.9026 160.3827 0.0000 14.2186 0.0000
# 4 0.0000 0.0000 0.0000 31.9546 0.0000 -0.5526
# 5 -0.6034 -1.8883 14.2186 0.0000 26.2789 0.0000
# 6 0.0000 0.0000 0.0000 -0.5526 0.0000 17.9559
#
#
#
# Elastic Compliance Matrix: (Units=1/GPa)
#
#
# Indices 1 2 3 4 5 6 
#
# 1 0.024362 -0.001592 -0.002074 0.000000 0.001567 0.000000
# 2 -0.001592 0.007116 -0.002249 0.000000 0.001691 0.000000
# 3 -0.002074 -0.002249 0.007537 0.000000 -0.004287 0.000000
# 4 0.000000 0.000000 0.000000 0.031311 0.000000 0.000964
# 5 0.001567 0.001691 -0.004287 0.000000 0.040530 0.000000
# 6 0.000000 0.000000 0.000000 0.000964 0.000000 0.055722
#
#
# Mechanical properties :
#
#
# Convention : Reuss Voigt Hill
#
# Bulk Modulus (GPa) = 36.78555 58.67145 47.72850
# Shear Modulus (GPa) = 26.67102 34.05932 30.36517
#
# Velocity S-wave (km/s) = 3.39913 3.84119 3.62690
# Velocity P-wave (km/s) = 5.59832 6.71490 6.18187
#
# Compressibility (1/GPa) = 0.02718459
#
# Stress axis : x y z
#
# Youngs Moduli (GPa) = 41.04682 140.53706 132.68573
#
# Poissons Ratio (x) = 0.22379 0.27517
# Poissons Ratio (y) = 0.06536 0.29838
# Poissons Ratio (z) = 0.08512 0.31604
#
# Static dielectric constant tensor:
#      x y z
#    x 3.966230 0.000000 0.170030 
#    y 0.000000 4.354220 0.000000 
#    z 0.170030 0.000000 4.165630 
# 
# 
# High freq. dielectric constant tensor:
#      x y z
#    x 1.900160 0.000000 0.018780 
#    y 0.000000 1.918790 0.000000 
#    z 0.018780 0.000000 1.919880 
# 
# From -- ./inp_files/9235.got.cif
#   From: 2010.03.12/outbox.cif.g09.slc.cpg/sg8_5_cif.got.tgz:9235.got - 2010.03.31 10:45:26.
