data_PCOD8053772
_publ_section_title
;
Structure prediction by ZEFSAII (Michael W. Deem and Ramdas Pophale) SiO2 
 PCOD8053772
Probable space group: C M
;
_chemical_formula_sum "Si O2"
_cell_formula_units_Z 32
_cell_length_a 16.026004
_cell_length_b 24.006551
_cell_length_c 10.689393
_cell_angle_alpha 90.000000
_cell_angle_beta 157.445115
_cell_angle_gamma 90.000000
_cell_volume 1577.432291
_symmetry_space_group_name_H-M "C M"
_symmetry_group_IT_number 8
_symmetry_cell_setting 'monoclinic'
loop_
_space_group_symop_operation_xyz
x,y,z
x,-y,z
1/2+x,1/2+y,z
1/2+x,1/2-y,z
loop_
_atom_site_type_symbol
_atom_site_label
_atom_site_fract_x
_atom_site_fract_y
_atom_site_fract_z
Si Si1 0.155250 0.619197 0.111880
Si Si2 0.207296 0.277058 0.610392
Si Si3 0.912485 0.673245 0.569106
Si Si4 0.879600 0.203185 0.579672
Si Si5 0.120041 0.938381 0.740617
Si Si6 0.337134 0.850919 0.189607
Si Si7 0.048274 0.172110 0.262696
Si Si8 0.710527 0.563174 0.579509
O O1 0.175257 0.669152 0.240991
O O2 0.377126 0.585538 0.411928
O O3 0.122141 0.649647 0.932315
O O4 0.949977 0.580548 0.862059
O O5 0.348218 0.291370 0.684028
O O6 0.150753 0.211030 0.515500
O O7 0.987111 0.312295 0.310575
O O8 0.338695 0.294387 0.918738
O O9 0.910623 0.739427 0.547975
O O10 0.921107 0.643182 0.447215
O O11 0.700134 0.659927 0.354834
O O12 0.097069 0.171724 0.854750
O O13 0.215396 0.937032 0.734412
O O14 0.099288 0.000000 0.764800
O O15 0.308337 0.910765 0.086206
O O16 0.023249 0.108769 0.280293
O O17 0.656270 0.500000 0.455276
#
# Coordination Sequence:
#
# PCOD8053772 Si02
#       8
#     4   4   4   4   4   4   4   4
#     4  10  21  37  66  86 118 159 204 245 300 358
#     4  11  24  38  60  90 125 159 196 248 309 362
#     4  10  21  37  58  91 124 157 190 249 305 364
#     4  10  21  38  57  89 124 157 192 246 301 364
#     4  10  23  42  62  86 115 157 209 258 298 355
#     4  11  23  37  60  87 122 155 199 244 305 367
#     4  10  24  40  62  90 126 159 201 250 304 359
#     4  10  22  41  65  89 118 161 210 252 294 359
#
# _framework density 20.286133
#
# number of rings (size 3 to 8) (size 9 to 14) (size 15 to 20)
#    0.000    1.750    1.250    1.875   14.000    1.000 
#    0.000    3.750    0.000    0.000    0.000    0.000 
#    0.000    0.000    0.000    0.000    0.000    0.000 
#
# Total GULP energy -198241.794324 kJ/mol
# GULP energy per Si atom -12390.112145 kJ/mol
# Density = 2.023996 g / cm^3
# Si number density = 20.286133 Si / 1000 Ang^3
#
#
#
# Elastic Constant Matrix: (Units=GPa)
#
#
# Indices 1 2 3 4 5 6 
#
# 1 54.3840 43.0478 27.9790 0.0001 -10.9339 0.0001
# 2 43.0478 166.0103 50.5650 0.0002 -24.6776 0.0002
# 3 27.9790 50.5650 73.8960 0.0007 -19.6141 0.0006
# 4 0.0001 0.0002 0.0007 54.5283 0.0003 17.4538
# 5 -10.9339 -24.6776 -19.6141 0.0003 31.0335 0.0003
# 6 0.0001 0.0002 0.0006 17.4538 0.0003 42.8716
#
#
#
# Elastic Compliance Matrix: (Units=1/GPa)
#
#
# Indices 1 2 3 4 5 6 
#
# 1 0.025408 -0.004494 -0.006149 0.000000 0.001492 0.000000
# 2 -0.004494 0.008700 -0.003407 0.000000 0.003181 0.000000
# 3 -0.006149 -0.003407 0.020304 0.000000 0.007957 0.000000
# 4 0.000000 0.000000 0.000000 0.021087 0.000000 -0.008585
# 5 0.001492 0.003181 0.007957 0.000000 0.040308 0.000000
# 6 0.000000 0.000000 0.000000 -0.008585 0.000000 0.026821
#
#
# Mechanical properties :
#
#
# Convention : Reuss Voigt Hill
#
# Bulk Modulus (GPa) = 38.00548 59.71932 48.86240
# Shear Modulus (GPa) = 27.85537 37.19991 32.52764
#
# Velocity S-wave (km/s) = 3.70959 4.28689 4.00864
# Velocity P-wave (km/s) = 6.09290 7.34885 6.75015
#
# Compressibility (1/GPa) = 0.02631199
#
# Stress axis : x y z
#
# Youngs Moduli (GPa) = 39.35697 114.94714 49.25085
#
# Poissons Ratio (x) = 0.51655 0.30286
# Poissons Ratio (y) = 0.17686 0.16780
# Poissons Ratio (z) = 0.24202 0.39163
#
# Static dielectric constant tensor:
#      x y z
#    x 3.669610 0.000000 -0.136670 
#    y 0.000000 3.776490 0.000000 
#    z -0.136670 0.000000 3.859850 
# 
# 
# High freq. dielectric constant tensor:
#      x y z
#    x 1.795800 0.000000 0.003800 
#    y 0.000000 1.787660 0.000000 
#    z 0.003800 0.000000 1.789670 
# 
# From -- ./inp_files/15353.got.cif
#   From: 2010.03.12/outbox.cif.g09.slc.cpg/sg8_8_cif.got.tgz:15353.got - 2010.03.31 10:45:26.
