data_PCOD8053660
_publ_section_title
;
Structure prediction by ZEFSAII (Michael W. Deem and Ramdas Pophale) SiO2 
 PCOD8053660
Probable space group: C M
;
_chemical_formula_sum "Si O2"
_cell_formula_units_Z 32
_cell_length_a 23.324997
_cell_length_b 13.570404
_cell_length_c 9.516527
_cell_angle_alpha 90.000000
_cell_angle_beta 148.978738
_cell_angle_gamma 90.000000
_cell_volume 1552.388088
_symmetry_space_group_name_H-M "C M"
_symmetry_group_IT_number 8
_symmetry_cell_setting 'monoclinic'
loop_
_space_group_symop_operation_xyz
x,y,z
x,-y,z
1/2+x,1/2+y,z
1/2+x,1/2-y,z
loop_
_atom_site_type_symbol
_atom_site_label
_atom_site_fract_x
_atom_site_fract_y
_atom_site_fract_z
Si Si1 0.433430 0.389134 0.483740
Si Si2 0.569537 0.888603 0.600014
Si Si3 0.339998 0.188820 0.624325
Si Si4 0.274439 0.751950 0.017235
Si Si5 0.684809 0.385023 0.070985
Si Si6 0.361004 0.889315 0.975293
Si Si7 0.776837 0.891634 0.422749
Si Si8 0.523028 0.887427 0.811081
O O1 0.441562 0.500000 0.438115
O O2 0.346322 0.387560 0.426640
O O3 0.555396 0.354392 0.790886
O O4 0.387151 0.313054 0.270305
O O5 0.671438 0.819371 0.779926
O O6 0.506351 0.859487 0.612033
O O7 0.615484 0.000000 0.713172
O O8 0.485537 0.879220 0.294692
O O9 0.230729 0.141845 0.321889
O O10 0.364750 0.133259 0.819115
O O11 0.319707 0.305069 0.614983
O O12 0.445473 0.181433 0.742284
O O13 0.279994 0.815443 0.886827
O O14 0.258160 0.824552 0.114334
O O15 0.702159 0.500000 0.076895
O O16 0.316148 0.000000 0.903301
O O17 0.789504 0.000000 0.520853
O O18 0.650636 0.869082 0.117170
O O19 0.487098 0.000000 0.763969
#
# Coordination Sequence:
#
# PCOD8053660 Si02
#       8
#     4   4   4   4   4   4   4   4
#     4  10  21  39  63  95 127 153 196 258 317 369
#     4  10  21  39  64  93 120 157 207 263 314 364
#     4  12  24  40  65  89 126 171 213 248 309 371
#     4  12  21  39  65  93 121 162 207 256 314 365
#     4  11  23  37  61  92 123 160 206 253 308 369
#     4  11  26  43  58  87 131 170 210 255 301 364
#     4  10  22  39  63  95 124 154 201 267 318 362
#     4  10  20  38  67  96 122 155 208 266 313 364
#
# _framework density 20.613403000000002
#
# number of rings (size 3 to 8) (size 9 to 14) (size 15 to 20)
#    0.000    1.250    2.500    3.375    3.500    2.000 
#    0.000    2.500    0.000    0.750    0.000    0.000 
#    0.000    0.000    0.000    0.000    0.000    0.000 
#
# Total GULP energy -198443.380094 kJ/mol
# GULP energy per Si atom -12402.711256 kJ/mol
# Density = 2.056649 g / cm^3
# Si number density = 20.613403 Si / 1000 Ang^3
#
#
#
# Elastic Constant Matrix: (Units=GPa)
#
#
# Indices 1 2 3 4 5 6 
#
# 1 89.7731 51.9388 73.6002 0.0000 -0.9405 0.0000
# 2 51.9388 138.2650 68.2179 0.0000 0.0174 0.0000
# 3 73.6002 68.2179 111.3379 0.0000 2.5949 0.0000
# 4 0.0000 0.0000 0.0000 26.1245 0.0000 7.4948
# 5 -0.9405 0.0174 2.5949 0.0000 32.9152 0.0000
# 6 0.0000 0.0000 0.0000 7.4948 0.0000 27.4474
#
#
#
# Elastic Compliance Matrix: (Units=1/GPa)
#
#
# Indices 1 2 3 4 5 6 
#
# 1 0.024730 -0.001723 -0.015337 0.000000 0.001917 0.000000
# 2 -0.001723 0.010494 -0.005299 0.000000 0.000363 0.000000
# 3 -0.015337 -0.005299 0.022418 0.000000 -0.002203 0.000000
# 4 0.000000 0.000000 0.000000 0.041532 0.000000 -0.011341
# 5 0.001917 0.000363 -0.002203 0.000000 0.030609 0.000000
# 6 0.000000 0.000000 0.000000 -0.011341 0.000000 0.039530
#
#
# Mechanical properties :
#
#
# Convention : Reuss Voigt Hill
#
# Bulk Modulus (GPa) = 77.37379 80.76555 79.06967
# Shear Modulus (GPa) = 22.90005 27.00536 24.95271
#
# Velocity S-wave (km/s) = 3.33668 3.62344 3.48301
# Velocity P-wave (km/s) = 7.24305 7.53471 7.39032
#
# Compressibility (1/GPa) = 0.01292427
#
# Stress axis : x y z
#
# Youngs Moduli (GPa) = 40.43690 95.28920 44.60622
#
# Poissons Ratio (x) = 0.16419 0.68411
# Poissons Ratio (y) = 0.06967 0.23639
# Poissons Ratio (z) = 0.62017 0.50498
#
# Static dielectric constant tensor:
#      x y z
#    x 3.426070 0.000000 0.161060 
#    y 0.000000 4.335220 0.000000 
#    z 0.161060 0.000000 3.731650 
# 
# 
# High freq. dielectric constant tensor:
#      x y z
#    x 1.775270 0.000000 0.022610 
#    y 0.000000 1.838530 0.000000 
#    z 0.022610 0.000000 1.802040 
# 
# From -- ./inp_files/10749.got.cif
#   From: 2010.03.12/outbox.cif.g09.slc.cpg/sg8_6_cif.got.tgz:10749.got - 2010.03.31 10:45:26.
