data_PCOD8053320
_publ_section_title
;
Structure prediction by ZEFSAII (Michael W. Deem and Ramdas Pophale) SiO2 
 PCOD8053320
Probable space group: C M
;
_chemical_formula_sum "Si O2"
_cell_formula_units_Z 32
_cell_length_a 14.201845
_cell_length_b 16.677704
_cell_length_c 7.858684
_cell_angle_alpha 90.000000
_cell_angle_beta 61.978344
_cell_angle_gamma 90.000000
_cell_volume 1643.154737
_symmetry_space_group_name_H-M "C M"
_symmetry_group_IT_number 8
_symmetry_cell_setting 'monoclinic'
loop_
_space_group_symop_operation_xyz
x,y,z
x,-y,z
1/2+x,1/2+y,z
1/2+x,1/2-y,z
loop_
_atom_site_type_symbol
_atom_site_label
_atom_site_fract_x
_atom_site_fract_y
_atom_site_fract_z
Si Si1 0.608000 0.838854 0.486130
Si Si2 0.166316 0.807718 0.238523
Si Si3 0.294761 0.338376 0.548321
Si Si4 0.474923 0.268526 0.822014
Si Si5 0.485924 0.592270 0.574806
Si Si6 0.386685 0.210559 0.229971
Si Si7 0.269451 0.204728 0.812200
Si Si8 0.911044 0.591856 0.486637
O O1 0.635519 0.785796 0.295988
O O2 0.712133 0.881016 0.485120
O O3 0.576369 0.775081 0.657378
O O4 0.515903 0.902039 0.518959
O O5 0.277802 0.822366 0.240103
O O6 0.077801 0.869586 0.379197
O O7 0.178607 0.821354 0.024271
O O8 0.370746 0.402168 0.578168
O O9 0.372585 0.279092 0.381438
O O10 0.230797 0.281772 0.736868
O O11 0.481497 0.362413 0.761981
O O12 0.371641 0.230130 0.829564
O O13 0.469188 0.251316 0.027654
O O14 0.512493 0.500000 0.587662
O O15 0.437826 0.134370 0.283892
O O16 0.305065 0.130598 0.661534
O O17 0.885290 0.500000 0.474545
#
# Coordination Sequence:
#
# PCOD8053320 Si02
#       8
#     4   4   4   4   4   4   4   4
#     4   9  18  32  52  75 100 138 181 214 246 296
#     4   9  17  32  56  78  98 134 179 215 251 305
#     4   9  18  32  52  75 100 139 183 212 241 297
#     4   8  16  33  54  73  95 132 180 217 250 301
#     4  10  20  33  50  78 113 138 163 210 265 311
#     4   9  17  33  56  75  96 134 180 218 253 303
#     4   8  16  32  54  76  98 132 176 215 251 300
#     4  10  20  33  50  78 112 135 162 215 271 309
#
# _framework density 19.474733000000001
#
# number of rings (size 3 to 8) (size 9 to 14) (size 15 to 20)
#    0.000    3.000    0.000    2.250    0.000    3.500 
#    0.000    5.625    0.000   15.750    0.000    0.000 
#    0.000    0.000    0.000    0.000    0.000    0.000 
#
# Total GULP energy -198233.595701 kJ/mol
# GULP energy per Si atom -12389.599731 kJ/mol
# Density = 1.943041 g / cm^3
# Si number density = 19.474733 Si / 1000 Ang^3
#
#
#
# Elastic Constant Matrix: (Units=GPa)
#
#
# Indices 1 2 3 4 5 6 
#
# 1 59.0609 18.0455 16.9042 0.0000 -2.6683 0.0000
# 2 18.0455 77.7085 43.5302 0.0000 2.8669 0.0000
# 3 16.9042 43.5302 126.5895 0.0000 9.7193 0.0000
# 4 0.0000 0.0000 0.0000 17.8127 0.0000 1.6075
# 5 -2.6683 2.8669 9.7193 0.0000 20.6073 0.0000
# 6 0.0000 0.0000 0.0000 1.6075 0.0000 17.6245
#
#
#
# Elastic Compliance Matrix: (Units=1/GPa)
#
#
# Indices 1 2 3 4 5 6 
#
# 1 0.018635 -0.003606 -0.001528 0.000000 0.003635 0.000000
# 2 -0.003606 0.016639 -0.005216 0.000000 -0.000322 0.000000
# 3 -0.001528 -0.005216 0.010227 0.000000 -0.004296 0.000000
# 4 0.000000 0.000000 0.000000 0.056606 0.000000 -0.005163
# 5 0.003635 -0.000322 -0.004296 0.000000 0.051068 0.000000
# 6 0.000000 0.000000 0.000000 -0.005163 0.000000 0.057210
#
#
# Mechanical properties :
#
#
# Convention : Reuss Voigt Hill
#
# Bulk Modulus (GPa) = 40.31736 46.70206 43.50971
# Shear Modulus (GPa) = 20.88988 23.53417 22.21202
#
# Velocity S-wave (km/s) = 3.27871 3.48004 3.38088
# Velocity P-wave (km/s) = 5.92289 6.33881 6.13437
#
# Compressibility (1/GPa) = 0.02480321
#
# Stress axis : x y z
#
# Youngs Moduli (GPa) = 53.66291 60.09817 97.78215
#
# Poissons Ratio (x) = 0.21670 0.14937
# Poissons Ratio (y) = 0.19350 0.50999
# Poissons Ratio (z) = 0.08197 0.31345
#
# Static dielectric constant tensor:
#      x y z
#    x 3.577080 0.000000 0.054540 
#    y 0.000000 3.092650 0.000000 
#    z 0.054540 0.000000 4.100080 
# 
# 
# High freq. dielectric constant tensor:
#      x y z
#    x 1.768030 0.000000 0.003370 
#    y 0.000000 1.709940 0.000000 
#    z 0.003370 0.000000 1.756680 
# 
# From -- ./inp_files/13280.got.cif
#   From: 2010.03.12/outbox.cif.g09.slc.cpg/sg8_7_cif.got.tgz:13280.got - 2010.03.31 10:45:26.
