data_PCOD8053445
_publ_section_title
;
Structure prediction by ZEFSAII (Michael W. Deem and Ramdas Pophale) SiO2 
 PCOD8053445
Probable space group: C M
;
_chemical_formula_sum "Si O2"
_cell_formula_units_Z 32
_cell_length_a 20.783877
_cell_length_b 8.525206
_cell_length_c 13.496746
_cell_angle_alpha 90.000000
_cell_angle_beta 42.987120
_cell_angle_gamma 90.000000
_cell_volume 1630.568819
_symmetry_space_group_name_H-M "C M"
_symmetry_group_IT_number 8
_symmetry_cell_setting 'monoclinic'
loop_
_space_group_symop_operation_xyz
x,y,z
x,-y,z
1/2+x,1/2+y,z
1/2+x,1/2-y,z
loop_
_atom_site_type_symbol
_atom_site_label
_atom_site_fract_x
_atom_site_fract_y
_atom_site_fract_z
Si Si1 0.121840 0.814037 0.941100
Si Si2 0.423602 0.186891 0.884698
Si Si3 0.270418 0.820276 0.918366
Si Si4 0.426497 0.182489 0.107564
Si Si5 0.757570 0.180633 0.417738
Si Si6 0.781253 0.318190 0.604184
Si Si7 0.905646 0.180398 0.613349
Si Si8 0.569410 0.680587 0.565852
O O1 0.171195 0.752864 0.988740
O O2 0.189837 0.771077 0.772318
O O3 0.100923 0.000000 0.966067
O O4 0.027154 0.714990 0.042797
O O5 0.320051 0.247996 0.961731
O O6 0.505536 0.270674 0.731110
O O7 0.433918 0.000000 0.859354
O O8 0.431386 0.239058 0.988800
O O9 0.345830 0.800550 0.746035
O O10 0.250754 0.000000 0.959695
O O11 0.348621 0.283911 0.249979
O O12 0.400711 0.000000 0.145226
O O13 0.758566 0.279917 0.516807
O O14 0.665242 0.220419 0.456958
O O15 0.756525 0.000000 0.448547
O O16 0.804348 0.500000 0.588193
O O17 0.876136 0.224032 0.533691
O O18 0.015190 0.207527 0.521353
O O19 0.878739 0.000000 0.666446
O O20 0.596923 0.500000 0.547985
#
# Coordination Sequence:
#
# PCOD8053445 Si02
#       8
#     4   4   4   4   4   4   4   4
#     4   9  18  33  55  81 107 137 171 212 264 320
#     4   9  18  34  57  82 106 138 180 221 263 314
#     4   8  15  30  52  78 107 138 174 218 265 310
#     4  11  23  37  53  75 106 142 179 223 271 319
#     4  12  25  39  55  75 105 145 187 229 271 320
#     4  10  20  36  59  84 111 141 176 222 271 320
#     4   9  17  30  52  83 113 140 174 217 264 316
#     4  10  20  35  57  84 113 143 177 220 267 317
#
# _framework density 19.625053999999999
#
# number of rings (size 3 to 8) (size 9 to 14) (size 15 to 20)
#    0.000    2.250    0.000    4.125    0.000    7.000 
#    0.000    1.250    0.000    6.000    0.000    0.000 
#    0.000    0.000    0.000    0.000    0.000    0.000 
#
# Total GULP energy -198273.275636 kJ/mol
# GULP energy per Si atom -12392.079727 kJ/mol
# Density = 1.958039 g / cm^3
# Si number density = 19.625054 Si / 1000 Ang^3
#
#
#
# Elastic Constant Matrix: (Units=GPa)
#
#
# Indices 1 2 3 4 5 6 
#
# 1 133.2745 20.9943 41.0618 0.0013 -34.8826 0.0020
# 2 20.9943 42.4328 20.9613 0.0010 -5.2625 -0.0022
# 3 41.0618 20.9613 65.7760 0.0004 -19.6997 -0.0010
# 4 0.0013 0.0010 0.0004 50.1348 0.0000 14.9475
# 5 -34.8826 -5.2625 -19.6997 0.0000 14.5532 0.0011
# 6 0.0020 -0.0022 -0.0010 14.9475 0.0011 46.1043
#
#
#
# Elastic Compliance Matrix: (Units=1/GPa)
#
#
# Indices 1 2 3 4 5 6 
#
# 1 0.021946 -0.006503 0.005756 0.000000 0.058042 -0.000003
# 2 -0.006503 0.029990 -0.011635 -0.000001 -0.020492 0.000002
# 3 0.005756 -0.011635 0.030592 0.000000 0.050998 -0.000001
# 4 0.000000 -0.000001 0.000000 0.022081 0.000001 -0.007159
# 5 0.058042 -0.020492 0.050998 0.000001 0.269456 -0.000009
# 6 -0.000003 0.000002 -0.000001 -0.007159 -0.000009 0.024011
#
#
# Mechanical properties :
#
#
# Convention : Reuss Voigt Hill
#
# Bulk Modulus (GPa) = 17.31205 45.27980 31.29593
# Shear Modulus (GPa) = 11.30981 32.72286 22.01633
#
# Velocity S-wave (km/s) = 2.40322 4.08781 3.35303
# Velocity P-wave (km/s) = 4.06708 6.73816 5.56525
#
# Compressibility (1/GPa) = 0.05776323
#
# Stress axis : x y z
#
# Youngs Moduli (GPa) = 45.56652 33.34420 32.68862
#
# Poissons Ratio (x) = 0.21684 -0.18814
# Poissons Ratio (y) = 0.29632 0.38033
# Poissons Ratio (z) = -0.26226 0.38795
#
# Static dielectric constant tensor:
#      x y z
#    x 4.195940 0.000000 -0.118110 
#    y 0.000000 3.401190 0.000000 
#    z -0.118110 0.000000 3.154290 
# 
# 
# High freq. dielectric constant tensor:
#      x y z
#    x 1.793940 0.000000 -0.013390 
#    y 0.000000 1.761970 0.000000 
#    z -0.013390 0.000000 1.715860 
# 
# From -- ./inp_files/27763.got.cif
#   From: 2010.03.12/outbox.cif.g09.slc.cpg/sg8_14_cif.got.tgz:27763.got - 2010.03.31 10:45:26.
