data_PCOD8053411
_publ_section_title
;
Structure prediction by ZEFSAII (Michael W. Deem and Ramdas Pophale) SiO2 
 PCOD8053411
Probable space group: C M
;
_chemical_formula_sum "Si O2"
_cell_formula_units_Z 32
_cell_length_a 18.815397
_cell_length_b 13.343710
_cell_length_c 12.930645
_cell_angle_alpha 90.000000
_cell_angle_beta 150.580458
_cell_angle_gamma 90.000000
_cell_volume 1594.664399
_symmetry_space_group_name_H-M "C M"
_symmetry_group_IT_number 8
_symmetry_cell_setting 'monoclinic'
loop_
_space_group_symop_operation_xyz
x,y,z
x,-y,z
1/2+x,1/2+y,z
1/2+x,1/2-y,z
loop_
_atom_site_type_symbol
_atom_site_label
_atom_site_fract_x
_atom_site_fract_y
_atom_site_fract_z
Si Si1 0.093100 0.110915 0.003480
Si Si2 0.640520 0.248969 0.528790
Si Si3 0.002786 0.110452 0.673011
Si Si4 0.836623 0.389018 0.469136
Si Si5 0.450724 0.255779 0.972527
Si Si6 0.223483 0.694983 0.416719
Si Si7 0.916801 0.120146 0.127199
Si Si8 0.601166 0.806281 0.698869
O O1 0.245887 0.130444 0.250421
O O2 0.033475 0.000000 0.953636
O O3 0.116875 0.122801 0.911207
O O4 0.976983 0.193046 0.894325
O O5 0.792706 0.296154 0.766622
O O6 0.677354 0.176931 0.477718
O O7 0.526568 0.335269 0.352891
O O8 0.585608 0.178830 0.554588
O O9 0.843017 0.120779 0.521956
O O10 0.047405 0.191430 0.645040
O O11 0.011620 0.000000 0.633428
O O12 0.814009 0.500000 0.487642
O O13 0.787099 0.308944 0.491727
O O14 0.001042 0.378490 0.639865
O O15 0.578394 0.177993 0.163054
O O16 0.467771 0.346148 0.078060
O O17 0.912256 0.000000 0.130258
O O18 0.759682 0.170079 0.944470
#
# Coordination Sequence:
#
# PCOD8053411 Si02
#       8
#     4   4   4   4   4   4   4   4
#     4   9  16  28  54  79 101 133 177 225 274 322
#     4  10  20  35  55  79 109 145 182 224 276 325
#     4  10  20  35  54  78 109 146 184 221 269 334
#     4   9  18  33  54  83 108 134 178 234 283 325
#     4   9  17  33  56  81 110 137 180 231 280 321
#     4   9  18  34  56  81 107 141 180 229 276 327
#     4  10  21  36  57  83 113 148 189 230 276 331
#     4  10  22  36  55  78 115 150 181 226 273 335
#
# _framework density 20.066915999999999
#
# number of rings (size 3 to 8) (size 9 to 14) (size 15 to 20)
#    0.000    2.500    1.250    0.750    1.750    3.500 
#    0.000    1.250    0.000    5.250    0.000    0.000 
#    0.000    0.000    0.000    0.000    0.000    0.000 
#
# Total GULP energy -198241.629597 kJ/mol
# GULP energy per Si atom -12390.101850 kJ/mol
# Density = 2.002124 g / cm^3
# Si number density = 20.066916 Si / 1000 Ang^3
#
#
#
# Elastic Constant Matrix: (Units=GPa)
#
#
# Indices 1 2 3 4 5 6 
#
# 1 64.9243 6.1202 19.8104 0.0000 0.8670 0.0000
# 2 6.1202 70.2569 22.9542 0.0000 1.8132 0.0000
# 3 19.8104 22.9542 97.8908 0.0000 5.9601 0.0000
# 4 0.0000 0.0000 0.0000 21.8931 0.0000 0.1738
# 5 0.8670 1.8132 5.9601 0.0000 28.3766 0.0000
# 6 0.0000 0.0000 0.0000 0.1738 0.0000 16.2332
#
#
#
# Elastic Compliance Matrix: (Units=1/GPa)
#
#
# Indices 1 2 3 4 5 6 
#
# 1 0.016426 -0.000375 -0.003249 0.000000 0.000204 0.000000
# 2 -0.000375 0.015424 -0.003527 0.000000 -0.000233 0.000000
# 3 -0.003249 -0.003527 0.011831 0.000000 -0.002160 0.000000
# 4 0.000000 0.000000 0.000000 0.045680 0.000000 -0.000489
# 5 0.000204 -0.000233 -0.002160 0.000000 0.035703 0.000000
# 6 0.000000 0.000000 0.000000 -0.000489 0.000000 0.061607
#
#
# Mechanical properties :
#
#
# Convention : Reuss Voigt Hill
#
# Bulk Modulus (GPa) = 34.03495 36.76020 35.39758
# Shear Modulus (GPa) = 23.72285 25.57974 24.65129
#
# Velocity S-wave (km/s) = 3.44202 3.57420 3.50873
# Velocity P-wave (km/s) = 5.72663 5.94910 5.83892
#
# Compressibility (1/GPa) = 0.02938156
#
# Stress axis : x y z
#
# Youngs Moduli (GPa) = 60.87739 64.83233 84.52037
#
# Poissons Ratio (x) = 0.02430 0.27459
# Poissons Ratio (y) = 0.02281 0.29808
# Poissons Ratio (z) = 0.19778 0.22865
#
# Static dielectric constant tensor:
#      x y z
#    x 3.582980 0.000000 0.076850 
#    y 0.000000 3.309080 0.000000 
#    z 0.076850 0.000000 3.857650 
# 
# 
# High freq. dielectric constant tensor:
#      x y z
#    x 1.777920 0.000000 0.007970 
#    y 0.000000 1.743030 0.000000 
#    z 0.007970 0.000000 1.795080 
# 
# From -- ./inp_files/23342.got.cif
#   From: 2010.03.12/outbox.cif.g09.slc.cpg/sg8_12_cif.got.tgz:23342.got - 2010.03.31 10:45:26.
