data_PCOD8053288
_publ_section_title
;
Structure prediction by ZEFSAII (Michael W. Deem and Ramdas Pophale) SiO2 
 PCOD8053288
Probable space group: C M
;
_chemical_formula_sum "Si O2"
_cell_formula_units_Z 28
_cell_length_a 15.415488
_cell_length_b 17.498097
_cell_length_c 8.921270
_cell_angle_alpha 90.000000
_cell_angle_beta 144.998476
_cell_angle_gamma 90.000000
_cell_volume 1380.328894
_symmetry_space_group_name_H-M "C M"
_symmetry_group_IT_number 8
_symmetry_cell_setting 'monoclinic'
loop_
_space_group_symop_operation_xyz
x,y,z
x,-y,z
1/2+x,1/2+y,z
1/2+x,1/2-y,z
loop_
_atom_site_type_symbol
_atom_site_label
_atom_site_fract_x
_atom_site_fract_y
_atom_site_fract_z
Si Si1 0.147190 0.177932 0.510880
Si Si2 0.336398 0.274370 0.998202
Si Si3 0.333441 0.861212 0.202481
Si Si4 0.402719 0.411589 0.730316
Si Si5 0.207621 0.910392 0.318786
Si Si6 0.545949 0.585697 0.643427
Si Si7 0.671538 0.089401 0.646612
O O1 0.236243 0.120210 0.527414
O O2 0.048262 0.135544 0.497746
O O3 0.017847 0.222854 0.235711
O O4 0.271459 0.233166 0.757949
O O5 0.300473 0.224939 0.096887
O O6 0.254900 0.357885 0.890366
O O7 0.319823 0.866352 0.363294
O O8 0.497318 0.889886 0.384252
O O9 0.211470 0.917602 0.955215
O O10 0.417574 0.500000 0.716030
O O11 0.429792 0.375694 0.601980
O O12 0.244850 0.391400 0.586746
O O13 0.535186 0.389492 0.033539
O O14 0.243945 0.000000 0.366246
O O15 0.499831 0.500000 0.531890
O O16 0.695984 0.000000 0.723073
#
# Coordination Sequence:
#
# PCOD8053288 Si02
#       7
#     4   4   4   4   4   4   4
#     4  11  22  39  61  89 127 162 210 264 311 376
#     4  11  23  41  58  91 125 167 211 255 324 375
#     4  10  21  39  61  89 129 164 202 257 320 386
#     4   8  16  31  57  90 118 153 199 251 310 368
#     4  10  19  37  64  93 119 161 213 255 311 379
#     4   9  18  35  62  91 119 156 206 258 314 375
#     4  11  20  36  64  89 124 165 211 258 308 375
#
# _framework density 20.285019999999999
#
# number of rings (size 3 to 8) (size 9 to 14) (size 15 to 20)
#    0.000    2.000    2.857    2.571    0.000    0.571 
#    5.143    0.000    3.143    0.000    0.000    0.000 
#    0.000    0.000    0.000    0.000    0.000    0.000 
#
# Total GULP energy -173496.990393 kJ/mol
# GULP energy per Si atom -12392.642171 kJ/mol
# Density = 2.023885 g / cm^3
# Si number density = 20.285020 Si / 1000 Ang^3
#
#
#
# Elastic Constant Matrix: (Units=GPa)
#
#
# Indices 1 2 3 4 5 6 
#
# 1 155.8462 55.5836 51.6466 0.0000 -0.6105 0.0000
# 2 55.5836 113.3293 36.6492 0.0000 -15.0639 0.0000
# 3 51.6466 36.6492 83.6352 0.0000 4.0515 0.0000
# 4 0.0000 0.0000 0.0000 25.6115 0.0000 -4.3428
# 5 -0.6105 -15.0639 4.0515 0.0000 33.0872 0.0000
# 6 0.0000 0.0000 0.0000 -4.3428 0.0000 27.7685
#
#
#
# Elastic Compliance Matrix: (Units=1/GPa)
#
#
# Indices 1 2 3 4 5 6 
#
# 1 0.008884 -0.003143 -0.004072 0.000000 -0.000768 0.000000
# 2 -0.003143 0.012392 -0.003783 0.000000 0.006047 0.000000
# 3 -0.004072 -0.003783 0.016312 0.000000 -0.003795 0.000000
# 4 0.000000 0.000000 0.000000 0.040109 0.000000 0.006273
# 5 -0.000768 0.006047 -0.003795 0.000000 0.033427 0.000000
# 6 0.000000 0.000000 0.000000 0.006273 0.000000 0.036993
#
#
# Mechanical properties :
#
#
# Convention : Reuss Voigt Hill
#
# Bulk Modulus (GPa) = 64.12430 71.17439 67.64934
# Shear Modulus (GPa) = 28.52116 31.22219 29.87168
#
# Velocity S-wave (km/s) = 3.75376 3.92749 3.84161
# Velocity P-wave (km/s) = 7.10408 7.46527 7.28691
#
# Compressibility (1/GPa) = 0.01559471
#
# Stress axis : x y z
#
# Youngs Moduli (GPa) = 112.56598 80.69608 61.30304
#
# Poissons Ratio (x) = 0.25359 0.24960
# Poissons Ratio (y) = 0.35374 0.23189
# Poissons Ratio (z) = 0.45832 0.30525
#
# Static dielectric constant tensor:
#      x y z
#    x 3.768110 0.000000 -0.039690 
#    y 0.000000 3.736410 0.000000 
#    z -0.039690 0.000000 3.448920 
# 
# 
# High freq. dielectric constant tensor:
#      x y z
#    x 1.792410 0.000000 0.000270 
#    y 0.000000 1.789820 0.000000 
#    z 0.000270 0.000000 1.767440 
# 
# From -- ./inp_files/13575.got.cif
#   From: 2010.03.12/outbox.cif.g09.slc.cpg/sg8_7_cif.got.tgz:13575.got - 2010.03.31 10:45:26.
