data_PCOD8053953
_publ_section_title
;
Structure prediction by ZEFSAII (Michael W. Deem and Ramdas Pophale) SiO2 
 PCOD8053953
Probable space group: C M
;
_chemical_formula_sum "Si O2"
_cell_formula_units_Z 24
_cell_length_a 14.769183
_cell_length_b 8.490941
_cell_length_c 14.558670
_cell_angle_alpha 90.000000
_cell_angle_beta 39.675960
_cell_angle_gamma 90.000000
_cell_volume 1165.621221
_symmetry_space_group_name_H-M "C M"
_symmetry_group_IT_number 8
_symmetry_cell_setting 'monoclinic'
loop_
_space_group_symop_operation_xyz
x,y,z
x,-y,z
1/2+x,1/2+y,z
1/2+x,1/2-y,z
loop_
_atom_site_type_symbol
_atom_site_label
_atom_site_fract_x
_atom_site_fract_y
_atom_site_fract_z
Si Si1 0.493230 0.681687 0.828390
Si Si2 0.709217 0.681821 0.123184
Si Si3 0.976037 0.817876 0.158015
Si Si4 0.459415 0.182896 0.661280
Si Si5 0.182469 0.814242 0.354674
Si Si6 0.160340 0.680979 0.858367
O O1 0.527582 0.500000 0.818561
O O2 0.517979 0.723174 0.703113
O O3 0.602360 0.784769 0.802245
O O4 0.331054 0.714415 0.982305
O O5 0.756744 0.500000 0.080217
O O6 0.564166 0.712310 0.181695
O O7 0.683609 0.735031 0.247247
O O8 0.816357 0.762032 0.302175
O O9 0.979666 0.000000 0.126161
O O10 0.034820 0.715282 0.027931
O O11 0.539683 0.243912 0.508675
O O12 0.292516 0.209069 0.778664
O O13 0.487249 0.000000 0.655708
O O14 0.184453 0.000000 0.366222
O O15 0.207694 0.500000 0.828277
#
# Coordination Sequence:
#
# PCOD8053953 Si02
#       6
#     4   4   4   4   4   4
#     4  12  24  40  67  98 129 169 220 269 324 388
#     4  10  22  40  65  94 131 170 212 264 322 382
#     4  11  22  39  65  97 130 170 218 265 320 382
#     4  12  26  45  66  94 134 174 218 272 329 385
#     4  11  24  43  65  94 133 174 217 267 326 384
#     4  12  24  41  66  97 131 171 219 269 323 385
#
# _framework density 20.589880999999998
#
# number of rings (size 3 to 8) (size 9 to 14) (size 15 to 20)
#    0.000    0.667    3.333    5.500    0.000    2.667 
#    0.000    5.000    0.000    0.000    0.000    0.000 
#    0.000    0.000    0.000    0.000    0.000    0.000 
#
# Total GULP energy -148916.430942 kJ/mol
# GULP energy per Si atom -12409.702578 kJ/mol
# Density = 2.054302 g / cm^3
# Si number density = 20.589881 Si / 1000 Ang^3
#
#
#
# Elastic Constant Matrix: (Units=GPa)
#
#
# Indices 1 2 3 4 5 6 
#
# 1 96.2068 20.8134 17.0030 0.0000 0.2745 0.0000
# 2 20.8134 97.8826 25.4770 0.0000 3.6425 0.0000
# 3 17.0030 25.4770 80.6553 0.0000 12.2248 0.0000
# 4 0.0000 0.0000 0.0000 35.1427 0.0000 -4.2513
# 5 0.2745 3.6425 12.2248 0.0000 26.0874 0.0000
# 6 0.0000 0.0000 0.0000 -4.2513 0.0000 31.0036
#
#
#
# Elastic Compliance Matrix: (Units=1/GPa)
#
#
# Indices 1 2 3 4 5 6 
#
# 1 0.011141 -0.001913 -0.001902 0.000000 0.001041 0.000000
# 2 -0.001913 0.011460 -0.003205 0.000000 -0.000078 0.000000
# 3 -0.001902 -0.003205 0.014792 0.000000 -0.006464 0.000000
# 4 0.000000 0.000000 0.000000 0.028935 0.000000 0.003968
# 5 0.001041 -0.000078 -0.006464 0.000000 0.041362 0.000000
# 6 0.000000 0.000000 0.000000 0.003968 0.000000 0.032798
#
#
# Mechanical properties :
#
#
# Convention : Reuss Voigt Hill
#
# Bulk Modulus (GPa) = 42.82085 44.59239 43.70662
# Shear Modulus (GPa) = 30.80473 32.54348 31.67410
#
# Velocity S-wave (km/s) = 3.87215 3.97993 3.92641
# Velocity P-wave (km/s) = 6.39012 6.54403 6.46753
#
# Compressibility (1/GPa) = 0.02335311
#
# Stress axis : x y z
#
# Youngs Moduli (GPa) = 89.75608 87.25928 67.60609
#
# Poissons Ratio (x) = 0.16690 0.12861
# Poissons Ratio (y) = 0.17167 0.21667
# Poissons Ratio (z) = 0.17075 0.27966
#
# Static dielectric constant tensor:
#      x y z
#    x 3.856140 0.000000 0.041780 
#    y 0.000000 3.742420 0.000000 
#    z 0.041780 0.000000 3.662410 
# 
# 
# High freq. dielectric constant tensor:
#      x y z
#    x 1.818480 0.000000 0.001670 
#    y 0.000000 1.815200 0.000000 
#    z 0.001670 0.000000 1.797430 
# 
# From -- ./inp_files/12133.got.cif
#   From: 2010.03.12/outbox.cif.g09.slc.cpg/sg8_7_cif.got.tgz:12133.got - 2010.03.31 10:45:26.
