data_PCOD8053926
_publ_section_title
;
Structure prediction by ZEFSAII (Michael W. Deem and Ramdas Pophale) SiO2 
 PCOD8053926
Probable space group: C M
;
_chemical_formula_sum "Si O2"
_cell_formula_units_Z 32
_cell_length_a 23.576786
_cell_length_b 8.813532
_cell_length_c 24.977765
_cell_angle_alpha 90.000000
_cell_angle_beta 162.109918
_cell_angle_gamma 90.000000
_cell_volume 1594.402289
_symmetry_space_group_name_H-M "C M"
_symmetry_group_IT_number 8
_symmetry_cell_setting 'monoclinic'
loop_
_space_group_symop_operation_xyz
x,y,z
x,-y,z
1/2+x,1/2+y,z
1/2+x,1/2-y,z
loop_
_atom_site_type_symbol
_atom_site_label
_atom_site_fract_x
_atom_site_fract_y
_atom_site_fract_z
Si Si1 0.598790 0.819867 0.340270
Si Si2 0.712114 0.177191 0.961980
Si Si3 0.865830 0.178596 0.485362
Si Si4 0.104709 0.821260 0.457707
Si Si5 0.721475 0.823968 0.846421
Si Si6 0.726839 0.324471 0.150253
Si Si7 0.945465 0.177811 0.805243
Si Si8 0.126786 0.822824 0.181432
O O1 0.403672 0.747754 0.151756
O O2 0.744216 0.764931 0.426346
O O3 0.665639 0.758138 0.457242
O O4 0.578419 0.000000 0.323935
O O5 0.713285 0.000000 0.977237
O O6 0.677397 0.206929 0.868540
O O7 0.549642 0.260669 0.846830
O O8 0.781806 0.239391 0.354918
O O9 0.073724 0.237990 0.677293
O O10 0.869929 0.000000 0.486359
O O11 0.246988 0.760792 0.630577
O O12 0.898146 0.779657 0.288696
O O13 0.121628 0.000000 0.466377
O O14 0.710627 0.000000 0.821809
O O15 0.924633 0.760031 0.015283
O O16 0.784611 0.500000 0.195391
O O17 0.662656 0.286139 0.152018
O O18 0.557277 0.283070 0.959313
O O19 0.913272 0.000000 0.770004
O O20 0.139530 0.000000 0.205917
#
# Coordination Sequence:
#
# PCOD8053926 Si02
#       8
#     4   4   4   4   4   4   4   4
#     4  11  22  38  61  90 126 166 204 245 307 375
#     4  11  21  36  62  95 126 158 201 253 310 363
#     4  11  24  39  61  93 126 162 202 250 306 363
#     4  12  25  40  63  93 127 161 204 256 309 364
#     4  10  22  39  62  91 123 161 203 249 302 364
#     4  10  23  43  66  89 118 161 210 255 306 368
#     4  11  23  40  63  91 126 164 206 248 303 372
#     4  10  22  43  66  88 118 161 210 256 303 363
#
# _framework density 20.070217
#
# number of rings (size 3 to 8) (size 9 to 14) (size 15 to 20)
#    0.000    1.250    2.500    3.375    0.000    7.000 
#    0.000    2.500    0.000    0.000    0.000    0.000 
#    0.000    0.000    0.000    0.000    0.000    0.000 
#
# Total GULP energy -198502.985751 kJ/mol
# GULP energy per Si atom -12406.436609 kJ/mol
# Density = 2.002454 g / cm^3
# Si number density = 20.070217 Si / 1000 Ang^3
#
#
#
# Elastic Constant Matrix: (Units=GPa)
#
#
# Indices 1 2 3 4 5 6 
#
# 1 82.0228 39.0485 33.2547 0.0055 -19.2477 0.0038
# 2 39.0485 93.3737 48.8610 -0.0043 -7.5740 0.0018
# 3 33.2547 48.8610 141.3628 0.0102 -18.2565 0.0086
# 4 0.0055 -0.0043 0.0102 34.8927 0.0113 4.9711
# 5 -19.2477 -7.5740 -18.2565 0.0113 16.6730 0.0108
# 6 0.0038 0.0018 0.0086 4.9711 0.0108 19.7455
#
#
#
# Elastic Compliance Matrix: (Units=1/GPa)
#
#
# Indices 1 2 3 4 5 6 
#
# 1 0.020174 -0.006930 0.000292 -0.000009 0.020461 -0.000012
# 2 -0.006930 0.015474 -0.004477 0.000006 -0.005872 0.000004
# 3 0.000292 -0.004477 0.009706 -0.000005 0.008931 -0.000007
# 4 -0.000009 0.000006 -0.000005 0.029725 -0.000029 -0.007484
# 5 0.020461 -0.005872 0.008931 -0.000029 0.090710 -0.000050
# 6 -0.000012 0.000004 -0.000007 -0.007484 -0.000050 0.052529
#
#
# Mechanical properties :
#
#
# Convention : Reuss Voigt Hill
#
# Bulk Modulus (GPa) = 43.24349 62.12083 52.68216
# Shear Modulus (GPa) = 20.14061 27.30192 23.72127
#
# Velocity S-wave (km/s) = 3.17126 3.69225 3.44163
# Velocity P-wave (km/s) = 5.91625 7.01398 6.48837
#
# Compressibility (1/GPa) = 0.02312487
#
# Stress axis : x y z
#
# Youngs Moduli (GPa) = 49.56924 64.62523 103.02800
#
# Poissons Ratio (x) = 0.44783 -0.03007
# Poissons Ratio (y) = 0.34350 0.46122
# Poissons Ratio (z) = -0.01447 0.28930
#
# Static dielectric constant tensor:
#      x y z
#    x 3.761830 -0.000010 0.004590 
#    y -0.000010 3.626220 -0.000010 
#    z 0.004590 -0.000010 3.764910 
# 
# 
# High freq. dielectric constant tensor:
#      x y z
#    x 1.779050 0.000000 -0.002020 
#    y 0.000000 1.784610 0.000000 
#    z -0.002020 0.000000 1.801520 
# 
# From -- ./inp_files/32430.got.cif
#   From: 2010.03.12/outbox.cif.g09.slc.cpg/sg8_17_cif.got.tgz:32430.got - 2010.03.31 10:45:26.
