data_PCOD8053770
_publ_section_title
;
Structure prediction by ZEFSAII (Michael W. Deem and Ramdas Pophale) SiO2 
 PCOD8053770
Probable space group: C M
;
_chemical_formula_sum "Si O2"
_cell_formula_units_Z 32
_cell_length_a 28.909205
_cell_length_b 9.003124
_cell_length_c 5.321551
_cell_angle_alpha 90.000000
_cell_angle_beta 76.390728
_cell_angle_gamma 90.000000
_cell_volume 1346.168549
_symmetry_space_group_name_H-M "C M"
_symmetry_group_IT_number 8
_symmetry_cell_setting 'monoclinic'
loop_
_space_group_symop_operation_xyz
x,y,z
x,-y,z
1/2+x,1/2+y,z
1/2+x,1/2-y,z
loop_
_atom_site_type_symbol
_atom_site_label
_atom_site_fract_x
_atom_site_fract_y
_atom_site_fract_z
Si Si1 0.785840 0.660112 0.361380
Si Si2 0.428633 0.339115 0.321137
Si Si3 0.331207 0.658988 0.672207
Si Si4 0.661142 0.678566 0.801654
Si Si5 0.060811 0.673719 0.920358
Si Si6 0.384430 0.840900 0.005029
Si Si7 0.503108 0.171909 0.499538
Si Si8 0.206318 0.678993 0.241355
O O1 0.758976 0.500000 0.416998
O O2 0.786204 0.743992 0.631887
O O3 0.761822 0.766504 0.178111
O O4 0.840855 0.626585 0.247359
O O5 0.452948 0.500000 0.239463
O O6 0.371853 0.365272 0.409396
O O7 0.453553 0.262958 0.533313
O O8 0.431937 0.225443 0.080042
O O9 0.309543 0.500000 0.781721
O O10 0.363454 0.726729 0.841130
O O11 0.666936 0.500000 0.805717
O O12 0.606331 0.721414 0.852679
O O13 0.687004 0.747151 0.524573
O O14 0.681017 0.753789 0.030836
O O15 0.075494 0.500000 0.886695
O O16 0.029799 0.720888 0.718237
O O17 0.034025 0.710345 0.213121
O O18 0.400025 0.000000 0.866413
O O19 0.490500 0.000000 0.524660
O O20 0.201214 0.500000 0.252841
#
# Coordination Sequence:
#
# PCOD8053770 Si02
#       8
#     4   4   4   4   4   4   4   4
#     4  10  22  40  60  89 124 164 214 268 323 382
#     4  10  22  38  56  85 122 162 210 264 316 375
#     4  10  21  37  58  85 122 165 209 261 320 382
#     4  12  26  46  72 103 137 174 219 277 338 400
#     4  10  22  42  66  94 129 169 213 263 326 396
#     4  10  21  37  60  85 119 164 209 262 320 380
#     4  10  22  39  63  94 127 168 214 264 317 385
#     4  12  26  45  71 101 136 180 224 273 332 402
#
# _framework density 23.771170000000001
#
# number of rings (size 3 to 8) (size 9 to 14) (size 15 to 20)
#    0.000    1.500    0.000    4.500    3.500    5.000 
#    0.000    0.000    0.000    0.000    0.000    0.000 
#    0.000    0.000    0.000    0.000    0.000    0.000 
#
# Total GULP energy -198210.572222 kJ/mol
# GULP energy per Si atom -12388.160764 kJ/mol
# Density = 2.371707 g / cm^3
# Si number density = 23.771170 Si / 1000 Ang^3
#
#
#
# Elastic Constant Matrix: (Units=GPa)
#
#
# Indices 1 2 3 4 5 6 
#
# 1 85.0464 45.1866 28.6655 0.0000 37.0935 0.0000
# 2 45.1866 203.1641 49.6279 0.0000 34.4494 0.0000
# 3 28.6655 49.6279 117.4756 0.0000 39.1663 0.0000
# 4 0.0000 0.0000 0.0000 31.8550 0.0000 10.3213
# 5 37.0935 34.4494 39.1663 0.0000 39.8835 0.0000
# 6 0.0000 0.0000 0.0000 10.3213 0.0000 36.1901
#
#
#
# Elastic Compliance Matrix: (Units=1/GPa)
#
#
# Indices 1 2 3 4 5 6 
#
# 1 0.020612 -0.001780 0.002380 0.000000 -0.019970 0.000000
# 2 -0.001780 0.006027 -0.001380 0.000000 -0.002196 0.000000
# 3 0.002380 -0.001380 0.013166 0.000000 -0.013951 0.000000
# 4 0.000000 0.000000 0.000000 0.034588 0.000000 -0.009865
# 5 -0.019970 -0.002196 -0.013951 0.000000 0.059243 0.000000
# 6 0.000000 0.000000 0.000000 -0.009865 0.000000 0.030445
#
#
# Mechanical properties :
#
#
# Convention : Reuss Voigt Hill
#
# Bulk Modulus (GPa) = 26.14616 72.51625 49.33120
# Shear Modulus (GPa) = 28.02871 40.39947 34.21409
#
# Velocity S-wave (km/s) = 3.43754 4.12699 3.79794
# Velocity P-wave (km/s) = 5.17480 7.29942 6.32693
#
# Compressibility (1/GPa) = 0.03824653
#
# Stress axis : x y z
#
# Youngs Moduli (GPa) = 48.51636 165.91004 75.95461
#
# Poissons Ratio (x) = 0.29524 -0.18080
# Poissons Ratio (y) = 0.08634 0.10481
# Poissons Ratio (z) = -0.11549 0.22894
#
# Static dielectric constant tensor:
#      x y z
#    x 4.670460 0.000000 -0.237410 
#    y 0.000000 4.980170 0.000000 
#    z -0.237410 0.000000 4.474860 
# 
# 
# High freq. dielectric constant tensor:
#      x y z
#    x 1.940080 0.000000 0.011680 
#    y 0.000000 1.957390 0.000000 
#    z 0.011680 0.000000 1.944570 
# 
# From -- ./inp_files/6416.got.cif
#   From: 2010.03.12/outbox.cif.g09.slc.cpg/sg8_4_cif.got.tgz:6416.got - 2010.03.31 10:45:26.
