data_PCOD8053713
_publ_section_title
;
Structure prediction by ZEFSAII (Michael W. Deem and Ramdas Pophale) SiO2 
 PCOD8053713
Probable space group: C M
;
_chemical_formula_sum "Si O2"
_cell_formula_units_Z 32
_cell_length_a 16.026668
_cell_length_b 19.734575
_cell_length_c 9.302824
_cell_angle_alpha 90.000000
_cell_angle_beta 144.521848
_cell_angle_gamma 90.000000
_cell_volume 1707.684342
_symmetry_space_group_name_H-M "C M"
_symmetry_group_IT_number 8
_symmetry_cell_setting 'monoclinic'
loop_
_space_group_symop_operation_xyz
x,y,z
x,-y,z
1/2+x,1/2+y,z
1/2+x,1/2-y,z
loop_
_atom_site_type_symbol
_atom_site_label
_atom_site_fract_x
_atom_site_fract_y
_atom_site_fract_z
Si Si1 0.794300 0.695850 0.403630
Si Si2 0.787918 0.832562 0.225758
Si Si3 0.077418 0.807806 0.512760
Si Si4 0.083694 0.665672 0.666500
Si Si5 0.501822 0.326665 0.086678
Si Si6 0.736820 0.077520 0.665427
Si Si7 0.377616 0.186301 0.840458
Si Si8 0.611848 0.077174 0.175916
O O1 0.759032 0.765468 0.275284
O O2 0.644282 0.653604 0.193061
O O3 0.825466 0.712890 0.612850
O O4 0.926260 0.654918 0.516715
O O5 0.732465 0.897529 0.233873
O O6 0.960943 0.842646 0.454692
O O7 0.705019 0.822276 0.958117
O O8 0.076260 0.727274 0.542306
O O9 0.243942 0.830248 0.760912
O O10 0.025992 0.835185 0.288085
O O11 0.125654 0.599357 0.634411
O O12 0.375777 0.375034 0.857631
O O13 0.471849 0.246826 0.033351
O O14 0.661053 0.086225 0.407320
O O15 0.782776 0.000000 0.757985
O O16 0.465813 0.117809 0.946690
O O17 0.578710 0.000000 0.090880
#
# Coordination Sequence:
#
# PCOD8053713 Si02
#       8
#     4   4   4   4   4   4   4   4
#     4  10  21  33  60  92 118 144 199 245 297 338
#     4  11  20  37  58  92 120 152 193 247 294 346
#     4  10  21  33  60  92 118 144 199 245 297 338
#     4  11  20  37  58  92 120 152 193 247 294 346
#     4  11  19  37  60  88 118 157 193 245 297 344
#     4  11  24  41  60  84 119 163 200 235 293 362
#     4  11  19  37  60  88 118 157 193 245 297 344
#     4  11  24  41  60  84 119 163 200 235 293 362
#
# _framework density 18.738826
#
# number of rings (size 3 to 8) (size 9 to 14) (size 15 to 20)
#    0.000    1.250    5.000    1.500    0.000    2.500 
#    0.000    3.750    0.000    3.000    0.000    0.000 
#    0.000    0.000    0.000    0.000    0.000    0.000 
#
# Total GULP energy -198307.750992 kJ/mol
# GULP energy per Si atom -12394.234437 kJ/mol
# Density = 1.869618 g / cm^3
# Si number density = 18.738826 Si / 1000 Ang^3
#
#
#
# Elastic Constant Matrix: (Units=GPa)
#
#
# Indices 1 2 3 4 5 6 
#
# 1 127.9005 42.3291 33.4325 0.0000 33.8408 0.0000
# 2 42.3291 94.3736 29.7460 0.0000 7.0114 0.0000
# 3 33.4325 29.7460 58.0746 0.0000 11.9435 0.0000
# 4 0.0000 0.0000 0.0000 22.2365 0.0000 -0.2445
# 5 33.8408 7.0114 11.9435 0.0000 39.6126 0.0000
# 6 0.0000 0.0000 0.0000 -0.2445 0.0000 27.1803
#
#
#
# Elastic Compliance Matrix: (Units=1/GPa)
#
#
# Indices 1 2 3 4 5 6 
#
# 1 0.012276 -0.003810 -0.003302 0.000000 -0.008817 0.000000
# 2 -0.003810 0.013822 -0.005387 0.000000 0.002433 0.000000
# 3 -0.003302 -0.005387 0.022498 0.000000 -0.003009 0.000000
# 4 0.000000 0.000000 0.000000 0.044976 0.000000 0.000405
# 5 -0.008817 0.002433 -0.003009 0.000000 0.033253 0.000000
# 6 0.000000 0.000000 0.000000 0.000405 0.000000 0.036795
#
#
# Mechanical properties :
#
#
# Convention : Reuss Voigt Hill
#
# Bulk Modulus (GPa) = 42.37592 54.59598 48.48595
# Shear Modulus (GPa) = 25.44746 29.46196 27.45471
#
# Velocity S-wave (km/s) = 3.68911 3.96945 3.83185
# Velocity P-wave (km/s) = 6.38820 7.08570 6.74597
#
# Compressibility (1/GPa) = 0.02359831
#
# Stress axis : x y z
#
# Youngs Moduli (GPa) = 81.46305 72.34720 44.44837
#
# Poissons Ratio (x) = 0.27565 0.14677
# Poissons Ratio (y) = 0.31038 0.23943
# Poissons Ratio (z) = 0.26899 0.38971
#
# Static dielectric constant tensor:
#      x y z
#    x 3.863970 0.000000 0.194170 
#    y 0.000000 3.165020 0.000000 
#    z 0.194170 0.000000 3.569140 
# 
# 
# High freq. dielectric constant tensor:
#      x y z
#    x 1.751490 0.000000 0.007900 
#    y 0.000000 1.688830 0.000000 
#    z 0.007900 0.000000 1.735020 
# 
# From -- ./inp_files/11373.got.cif
#   From: 2010.03.12/outbox.cif.g09.slc.cpg/sg8_6_cif.got.tgz:11373.got - 2010.03.31 10:45:26.
