data_PCOD8053741
_publ_section_title
;
Structure prediction by ZEFSAII (Michael W. Deem and Ramdas Pophale) SiO2 
 PCOD8053741
Probable space group: C M
;
_chemical_formula_sum "Si O2"
_cell_formula_units_Z 32
_cell_length_a 15.174510
_cell_length_b 9.256210
_cell_length_c 22.343002
_cell_angle_alpha 90.000000
_cell_angle_beta 148.202253
_cell_angle_gamma 90.000000
_cell_volume 1653.621235
_symmetry_space_group_name_H-M "C M"
_symmetry_group_IT_number 8
_symmetry_cell_setting 'monoclinic'
loop_
_space_group_symop_operation_xyz
x,y,z
x,-y,z
1/2+x,1/2+y,z
1/2+x,1/2-y,z
loop_
_atom_site_type_symbol
_atom_site_label
_atom_site_fract_x
_atom_site_fract_y
_atom_site_fract_z
Si Si1 0.029760 0.662761 0.011520
Si Si2 0.307503 0.168833 0.236496
Si Si3 0.180779 0.333235 0.409722
Si Si4 0.661193 0.169546 0.260966
Si Si5 0.473813 0.828093 0.640386
Si Si6 0.015989 0.334559 0.799410
Si Si7 0.280552 0.833967 0.766566
Si Si8 0.823424 0.661545 0.010488
O O1 0.100499 0.500000 0.045848
O O2 0.182643 0.768821 0.114227
O O3 0.936804 0.714190 0.897870
O O4 0.890416 0.669681 0.982013
O O5 0.492650 0.200144 0.320374
O O6 0.283448 0.244538 0.287003
O O7 0.271317 0.000000 0.222925
O O8 0.226446 0.500000 0.447945
O O9 0.209466 0.295378 0.356646
O O10 0.297976 0.230966 0.516038
O O11 0.677767 0.000000 0.255045
O O12 0.468676 0.217709 0.139002
O O13 0.497360 0.771617 0.721880
O O14 0.621657 0.767316 0.684484
O O15 0.472200 0.000000 0.635604
O O16 0.069740 0.500000 0.826766
O O17 0.839680 0.315471 0.732048
O O18 0.159659 0.258332 0.920975
O O19 0.230782 0.000000 0.751739
O O20 0.770454 0.500000 0.997633
#
# Coordination Sequence:
#
# PCOD8053741 Si02
#       8
#     4   4   4   4   4   4   4   4
#     4   9  18  34  57  84 118 156 190 229 285 348
#     4  10  21  36  58  89 119 149 190 240 288 337
#     4  10  23  42  62  82 113 159 199 234 285 349
#     4   9  20  39  59  83 116 154 193 233 286 347
#     4  11  24  41  59  85 118 150 194 248 290 334
#     4  10  22  37  56  85 117 149 188 236 291 341
#     4  10  21  39  60  83 114 156 196 232 286 351
#     4   9  17  32  57  85 115 149 186 230 283 343
#
# _framework density 19.351468000000001
#
# number of rings (size 3 to 8) (size 9 to 14) (size 15 to 20)
#    0.000    2.250    1.250    1.500    1.750    6.000 
#    0.000    3.750    0.000    0.000    0.000    0.000 
#    0.000    0.000    0.000    0.000    0.000    0.000 
#
# Total GULP energy -198423.602410 kJ/mol
# GULP energy per Si atom -12401.475151 kJ/mol
# Density = 1.930742 g / cm^3
# Si number density = 19.351468 Si / 1000 Ang^3
#
#
#
# Elastic Constant Matrix: (Units=GPa)
#
#
# Indices 1 2 3 4 5 6 
#
# 1 64.8467 31.8413 29.7347 -0.0001 9.9969 0.0000
# 2 31.8413 74.5202 45.3230 0.0000 10.5706 0.0000
# 3 29.7347 45.3230 85.2687 0.0002 7.8508 0.0001
# 4 -0.0001 0.0000 0.0002 37.1987 0.0001 4.6359
# 5 9.9969 10.5706 7.8508 0.0001 23.0772 0.0000
# 6 0.0000 0.0000 0.0001 4.6359 0.0000 26.9793
#
#
#
# Elastic Compliance Matrix: (Units=1/GPa)
#
#
# Indices 1 2 3 4 5 6 
#
# 1 0.020785 -0.005970 -0.003611 0.000000 -0.005041 0.000000
# 2 -0.005970 0.022291 -0.009358 0.000000 -0.004441 0.000000
# 3 -0.003611 -0.009358 0.017985 0.000000 -0.000268 0.000000
# 4 0.000000 0.000000 0.000000 0.027471 0.000000 -0.004720
# 5 -0.005041 -0.004441 -0.000268 0.000000 0.047642 0.000000
# 6 0.000000 0.000000 0.000000 -0.004720 0.000000 0.037877
#
#
# Mechanical properties :
#
#
# Convention : Reuss Voigt Hill
#
# Bulk Modulus (GPa) = 43.13179 48.71486 45.92333
# Shear Modulus (GPa) = 22.76272 25.30014 24.03143
#
# Velocity S-wave (km/s) = 3.43341 3.61972 3.52780
# Velocity P-wave (km/s) = 6.16886 6.53439 6.35425
#
# Compressibility (1/GPa) = 0.02318476
#
# Stress axis : x y z
#
# Youngs Moduli (GPa) = 48.11098 44.86022 55.60045
#
# Poissons Ratio (x) = 0.26782 0.20076
# Poissons Ratio (y) = 0.28723 0.52030
# Poissons Ratio (z) = 0.17372 0.41980
#
# Static dielectric constant tensor:
#      x y z
#    x 3.550660 0.000000 -0.118340 
#    y 0.000000 3.464280 0.000000 
#    z -0.118340 0.000000 3.424440 
# 
# 
# High freq. dielectric constant tensor:
#      x y z
#    x 1.757140 0.000000 -0.003490 
#    y 0.000000 1.747210 0.000000 
#    z -0.003490 0.000000 1.747660 
# 
# From -- ./inp_files/28214.got.cif
#   From: 2010.03.12/outbox.cif.g09.slc.cpg/sg8_15_cif.got.tgz:28214.got - 2010.03.31 10:45:26.
