data_PCOD8053394
_publ_section_title
;
Structure prediction by ZEFSAII (Michael W. Deem and Ramdas Pophale) SiO2 
 PCOD8053394
Probable space group: C M
;
_chemical_formula_sum "Si O2"
_cell_formula_units_Z 32
_cell_length_a 19.773915
_cell_length_b 8.574542
_cell_length_c 12.064353
_cell_angle_alpha 90.000000
_cell_angle_beta 54.351484
_cell_angle_gamma 90.000000
_cell_volume 1662.219923
_symmetry_space_group_name_H-M "C M"
_symmetry_group_IT_number 8
_symmetry_cell_setting 'monoclinic'
loop_
_space_group_symop_operation_xyz
x,y,z
x,-y,z
1/2+x,1/2+y,z
1/2+x,1/2-y,z
loop_
_atom_site_type_symbol
_atom_site_label
_atom_site_fract_x
_atom_site_fract_y
_atom_site_fract_z
Si Si1 0.242740 0.180316 0.045820
Si Si2 0.130062 0.180041 0.954720
Si Si3 0.763999 0.820832 0.671421
Si Si4 0.379610 0.317729 0.759428
Si Si5 0.472696 0.820002 0.015514
Si Si6 0.533561 0.817337 0.712800
Si Si7 0.294499 0.319980 0.214601
Si Si8 0.712598 0.680635 0.504048
O O1 0.237221 0.279591 0.163341
O O2 0.248918 0.000000 0.072756
O O3 0.161202 0.216416 0.049744
O O4 0.325114 0.223891 0.899643
O O5 0.180265 0.284148 0.819281
O O6 0.146482 0.000000 0.909964
O O7 0.032928 0.221443 0.038809
O O8 0.845041 0.787425 0.668850
O O9 0.770645 0.716555 0.554926
O O10 0.758659 0.000000 0.639782
O O11 0.376918 0.500000 0.792008
O O12 0.472810 0.250156 0.675631
O O13 0.378239 0.780295 0.133725
O O14 0.488573 0.000000 0.025357
O O15 0.491560 0.778491 0.870412
O O16 0.619122 0.725354 0.624299
O O17 0.548992 0.000000 0.680062
O O18 0.318932 0.500000 0.188995
O O19 0.241733 0.283102 0.373446
O O20 0.719055 0.500000 0.466863
#
# Coordination Sequence:
#
# PCOD8053394 Si02
#       8
#     4   4   4   4   4   4   4   4
#     4  10  20  36  57  86 121 154 194 241 292 347
#     4  10  20  34  58  89 119 153 194 243 293 343
#     4  10  20  36  57  86 121 154 194 241 292 347
#     4  10  20  34  58  89 119 153 194 243 293 343
#     4  11  22  37  60  89 121 154 196 247 292 341
#     4  11  22  37  60  89 121 154 196 247 292 341
#     4  12  25  41  62  86 119 158 198 241 295 355
#     4  12  25  41  62  86 119 158 198 241 295 355
#
# _framework density 19.251362
#
# number of rings (size 3 to 8) (size 9 to 14) (size 15 to 20)
#    0.000    1.250    2.500    4.500    0.000    4.000 
#    0.000    1.250    0.000    7.500    0.000    0.000 
#    0.000    0.000    0.000    0.000    0.000    0.000 
#
# Total GULP energy -198491.381873 kJ/mol
# GULP energy per Si atom -12405.711367 kJ/mol
# Density = 1.920755 g / cm^3
# Si number density = 19.251362 Si / 1000 Ang^3
#
#
#
# Elastic Constant Matrix: (Units=GPa)
#
#
# Indices 1 2 3 4 5 6 
#
# 1 123.0977 37.5357 27.1727 0.0000 11.3396 0.0000
# 2 37.5357 67.7501 20.7406 0.0000 5.6977 0.0000
# 3 27.1727 20.7406 59.9120 0.0000 12.5418 0.0000
# 4 0.0000 0.0000 0.0000 29.5198 0.0000 0.5880
# 5 11.3396 5.6977 12.5418 0.0000 24.3480 0.0000
# 6 0.0000 0.0000 0.0000 0.5880 0.0000 35.2024
#
#
#
# Elastic Compliance Matrix: (Units=1/GPa)
#
#
# Indices 1 2 3 4 5 6 
#
# 1 0.010358 -0.004756 -0.002549 0.000000 -0.002398 0.000000
# 2 -0.004756 0.018717 -0.004337 0.000000 0.000069 0.000000
# 3 -0.002549 -0.004337 0.021170 0.000000 -0.008703 0.000000
# 4 0.000000 0.000000 0.000000 0.033887 0.000000 -0.000566
# 5 -0.002398 0.000069 -0.008703 0.000000 0.046655 0.000000
# 6 0.000000 0.000000 0.000000 -0.000566 0.000000 0.028417
#
#
# Mechanical properties :
#
#
# Convention : Reuss Voigt Hill
#
# Bulk Modulus (GPa) = 37.09118 46.85088 41.97103
# Shear Modulus (GPa) = 26.11312 28.83477 27.47394
#
# Velocity S-wave (km/s) = 3.68697 3.87435 3.78182
# Velocity P-wave (km/s) = 6.11830 6.66358 6.39675
#
# Compressibility (1/GPa) = 0.02696059
#
# Stress axis : x y z
#
# Youngs Moduli (GPa) = 96.54805 53.42692 47.23556
#
# Poissons Ratio (x) = 0.25412 0.12041
# Poissons Ratio (y) = 0.45922 0.20485
# Poissons Ratio (z) = 0.24611 0.23170
#
# Static dielectric constant tensor:
#      x y z
#    x 3.817350 0.000000 0.169970 
#    y 0.000000 3.577110 0.000000 
#    z 0.169970 0.000000 3.184110 
# 
# 
# High freq. dielectric constant tensor:
#      x y z
#    x 1.765600 0.000000 0.009030 
#    y 0.000000 1.764960 0.000000 
#    z 0.009030 0.000000 1.712760 
# 
# From -- ./inp_files/23847.got.cif
#   From: 2010.03.12/outbox.cif.g09.slc.cpg/sg8_12_cif.got.tgz:23847.got - 2010.03.31 10:45:26.
