data_PCOD8053789
_publ_section_title
;
Structure prediction by ZEFSAII (Michael W. Deem and Ramdas Pophale) SiO2 
 PCOD8053789
Probable space group: C M
;
_chemical_formula_sum "Si O2"
_cell_formula_units_Z 32
_cell_length_a 20.471323
_cell_length_b 8.809922
_cell_length_c 12.234001
_cell_angle_alpha 90.000000
_cell_angle_beta 52.037956
_cell_angle_gamma 90.000000
_cell_volume 1739.575384
_symmetry_space_group_name_H-M "C M"
_symmetry_group_IT_number 8
_symmetry_cell_setting 'monoclinic'
loop_
_space_group_symop_operation_xyz
x,y,z
x,-y,z
1/2+x,1/2+y,z
1/2+x,1/2-y,z
loop_
_atom_site_type_symbol
_atom_site_label
_atom_site_fract_x
_atom_site_fract_y
_atom_site_fract_z
Si Si1 0.290340 0.677942 0.875000
Si Si2 0.319015 0.178498 0.182923
Si Si3 0.512003 0.822477 0.458608
Si Si4 0.841065 0.820190 0.590834
Si Si5 0.681272 0.823847 0.177908
Si Si6 0.926631 0.823786 0.901846
Si Si7 0.255729 0.678110 0.456308
Si Si8 0.079407 0.823351 0.605052
O O1 0.298259 0.500000 0.854154
O O2 0.294301 0.743733 0.747892
O O3 0.368263 0.739266 0.864455
O O4 0.206096 0.722143 0.027432
O O5 0.235564 0.229767 0.207648
O O6 0.317296 0.243156 0.307185
O O7 0.321483 0.000000 0.186205
O O8 0.402705 0.236053 0.037285
O O9 0.428984 0.762205 0.488098
O O10 0.584977 0.790135 0.295980
O O11 0.529081 0.730791 0.551348
O O12 0.505278 0.000000 0.493093
O O13 0.784125 0.773327 0.547812
O O14 0.856339 0.000000 0.578947
O O15 0.702826 0.000000 0.176288
O O16 0.021847 0.795710 0.770861
O O17 0.908101 0.000000 0.940851
O O18 0.260950 0.500000 0.432562
O O19 0.161745 0.728034 0.535474
O O20 0.101383 0.000000 0.568680
#
# Coordination Sequence:
#
# PCOD8053789 Si02
#       8
#     4   4   4   4   4   4   4   4
#     4   8  14  31  55  77 102 139 183 220 271 332
#     4  11  21  33  54  82 112 146 188 234 280 334
#     4  11  21  33  55  85 116 146 184 234 279 329
#     4  10  21  38  58  79 110 152 191 229 279 340
#     4   9  18  33  54  80 111 145 180 226 281 331
#     4   9  18  34  57  81 110 143 181 231 285 337
#     4  11  23  38  56  80 115 155 193 233 282 334
#     4  11  21  36  59  84 112 148 190 235 281 333
#
# _framework density 18.395292999999999
#
# number of rings (size 3 to 8) (size 9 to 14) (size 15 to 20)
#    0.000    2.000    2.500    3.000    0.000    2.500 
#    0.000    1.250    0.000    1.500    0.000    0.000 
#    0.000    0.000    0.000    0.000    0.000    0.000 
#
# Total GULP energy -198374.953974 kJ/mol
# GULP energy per Si atom -12398.434623 kJ/mol
# Density = 1.835342 g / cm^3
# Si number density = 18.395293 Si / 1000 Ang^3
#
#
#
# Elastic Constant Matrix: (Units=GPa)
#
#
# Indices 1 2 3 4 5 6 
#
# 1 52.4601 21.8386 34.8755 0.0000 6.8933 0.0000
# 2 21.8386 73.4442 43.4444 0.0000 5.8605 0.0000
# 3 34.8755 43.4444 144.5084 0.0000 8.8181 0.0000
# 4 0.0000 0.0000 0.0000 26.8790 0.0000 -5.3466
# 5 6.8933 5.8605 8.8181 0.0000 27.4607 0.0000
# 6 0.0000 0.0000 0.0000 -5.3466 0.0000 22.4612
#
#
#
# Elastic Compliance Matrix: (Units=1/GPa)
#
#
# Indices 1 2 3 4 5 6 
#
# 1 0.024236 -0.004357 -0.004309 0.000000 -0.003770 0.000000
# 2 -0.004357 0.017450 -0.004115 0.000000 -0.001309 0.000000
# 3 -0.004309 -0.004115 0.009259 0.000000 -0.001013 0.000000
# 4 0.000000 0.000000 0.000000 0.039053 0.000000 0.009296
# 5 -0.003770 -0.001309 -0.001013 0.000000 0.037967 0.000000
# 6 0.000000 0.000000 0.000000 0.009296 0.000000 0.046734
#
#
# Mechanical properties :
#
#
# Convention : Reuss Voigt Hill
#
# Bulk Modulus (GPa) = 39.39600 52.30332 45.84966
# Shear Modulus (GPa) = 23.95548 26.71044 25.33296
#
# Velocity S-wave (km/s) = 3.61260 3.81468 3.71501
# Velocity P-wave (km/s) = 6.23410 6.92077 6.58639
#
# Compressibility (1/GPa) = 0.02538329
#
# Stress axis : x y z
#
# Youngs Moduli (GPa) = 41.26106 57.30779 108.00469
#
# Poissons Ratio (x) = 0.24967 0.46542
# Poissons Ratio (y) = 0.17976 0.44440
# Poissons Ratio (z) = 0.17780 0.23580
#
# Static dielectric constant tensor:
#      x y z
#    x 3.114770 0.000000 0.053310 
#    y 0.000000 3.263690 0.000000 
#    z 0.053310 0.000000 3.856920 
# 
# 
# High freq. dielectric constant tensor:
#      x y z
#    x 1.676540 0.000000 -0.003850 
#    y 0.000000 1.705160 0.000000 
#    z -0.003850 0.000000 1.736180 
# 
# From -- ./inp_files/23764.got.cif
#   From: 2010.03.12/outbox.cif.g09.slc.cpg/sg8_12_cif.got.tgz:23764.got - 2010.03.31 10:45:26.
