data_PCOD8053852
_publ_section_title
;
Structure prediction by ZEFSAII (Michael W. Deem and Ramdas Pophale) SiO2 
 PCOD8053852
Probable space group: C M
;
_chemical_formula_sum "Si O2"
_cell_formula_units_Z 32
_cell_length_a 11.635146
_cell_length_b 17.384625
_cell_length_c 14.261412
_cell_angle_alpha 90.000000
_cell_angle_beta 31.974958
_cell_angle_gamma 90.000000
_cell_volume 1527.585345
_symmetry_space_group_name_H-M "C M"
_symmetry_group_IT_number 8
_symmetry_cell_setting 'monoclinic'
loop_
_space_group_symop_operation_xyz
x,y,z
x,-y,z
1/2+x,1/2+y,z
1/2+x,1/2-y,z
loop_
_atom_site_type_symbol
_atom_site_label
_atom_site_fract_x
_atom_site_fract_y
_atom_site_fract_z
Si Si1 0.391150 0.183640 0.556540
Si Si2 0.981182 0.830915 0.722307
Si Si3 0.106095 0.410929 0.084281
Si Si4 0.896449 0.088365 0.416852
Si Si5 0.942577 0.661349 0.724088
Si Si6 0.642343 0.655954 0.411315
Si Si7 0.700268 0.911784 0.228640
Si Si8 0.085373 0.909668 0.089291
O O1 0.387313 0.134606 0.656175
O O2 0.542584 0.259861 0.458803
O O3 0.486158 0.130930 0.409473
O O4 0.144120 0.193725 0.693630
O O5 0.873662 0.750241 0.769453
O O6 0.094404 0.867701 0.552010
O O7 0.790690 0.889247 0.881950
O O8 0.033598 0.500000 0.119472
O O9 0.225938 0.400115 0.100489
O O10 0.902123 0.352574 0.216540
O O11 0.695166 0.145670 0.567274
O O12 0.038528 0.094774 0.411845
O O13 0.034075 0.116798 0.230999
O O14 0.819797 0.000000 0.456691
O O15 0.817079 0.620326 0.895047
O O16 0.906370 0.876679 0.141168
O O17 0.672673 0.000000 0.275758
O O18 0.096813 0.000000 0.076121
#
# Coordination Sequence:
#
# PCOD8053852 Si02
#       8
#     4   4   4   4   4   4   4   4
#     4  11  22  42  67  95 128 168 214 269 323 382
#     4  11  25  43  65  98 127 168 218 266 326 381
#     4  11  25  44  68  97 130 172 218 268 324 383
#     4  11  23  42  65  92 129 170 214 261 317 389
#     4  11  23  39  65  95 128 168 210 263 322 383
#     4  11  25  44  66  95 130 175 216 264 323 385
#     4  10  21  39  67  96 124 165 211 264 324 374
#     4  10  22  39  63  96 128 164 209 263 323 379
#
# _framework density 20.948091999999999
#
# number of rings (size 3 to 8) (size 9 to 14) (size 15 to 20)
#    0.000    1.250    3.750    1.500    1.750    4.000 
#    0.000    0.000    0.000    0.000    0.000    0.000 
#    0.000    0.000    0.000    0.000    0.000    0.000 
#
# Total GULP energy -198359.700181 kJ/mol
# GULP energy per Si atom -12397.481261 kJ/mol
# Density = 2.090041 g / cm^3
# Si number density = 20.948092 Si / 1000 Ang^3
#
#
#
# Elastic Constant Matrix: (Units=GPa)
#
#
# Indices 1 2 3 4 5 6 
#
# 1 117.0914 27.1189 48.0900 0.0153 0.7875 0.0014
# 2 27.1189 50.6780 42.2884 -0.1417 5.9840 0.0458
# 3 48.0900 42.2884 142.8983 -0.1294 7.1342 0.0694
# 4 0.0153 -0.1417 -0.1294 35.9074 0.0751 -0.5440
# 5 0.7875 5.9840 7.1342 0.0751 26.1435 -0.0268
# 6 0.0014 0.0458 0.0694 -0.5440 -0.0268 25.7790
#
#
#
# Elastic Compliance Matrix: (Units=1/GPa)
#
#
# Indices 1 2 3 4 5 6 
#
# 1 0.010393 -0.003631 -0.002483 -0.000030 0.001196 0.000013
# 2 -0.003631 0.027877 -0.006807 0.000096 -0.004414 -0.000034
# 3 -0.002483 -0.006807 0.009901 0.000012 -0.001069 -0.000015
# 4 -0.000030 0.000096 0.000012 0.027859 -0.000104 0.000588
# 5 0.001196 -0.004414 -0.001069 -0.000104 0.039517 0.000049
# 6 0.000013 -0.000034 -0.000015 0.000588 0.000049 0.038804
#
#
# Mechanical properties :
#
#
# Convention : Reuss Voigt Hill
#
# Bulk Modulus (GPa) = 44.78394 60.62913 52.70654
# Shear Modulus (GPa) = 26.64721 30.44403 28.54562
#
# Velocity S-wave (km/s) = 3.57046 3.81636 3.69546
# Velocity P-wave (km/s) = 6.19859 6.95880 6.58967
#
# Compressibility (1/GPa) = 0.02232943
#
# Stress axis : x y z
#
# Youngs Moduli (GPa) = 96.21917 35.87129 100.99529
#
# Poissons Ratio (x) = 0.13025 0.25075
# Poissons Ratio (y) = 0.34937 0.68752
# Poissons Ratio (z) = 0.23889 0.24419
#
# Static dielectric constant tensor:
#      x y z
#    x 3.970560 -0.000050 0.156680 
#    y -0.000050 3.561880 0.000140 
#    z 0.156680 0.000140 3.777870 
# 
# 
# High freq. dielectric constant tensor:
#      x y z
#    x 1.831250 0.000000 0.006990 
#    y 0.000000 1.808740 0.000010 
#    z 0.006990 0.000010 1.819170 
# 
# From -- ./inp_files/26254.got.cif
#   From: 2010.03.12/outbox.cif.g09.slc.cpg/sg8_14_cif.got.tgz:26254.got - 2010.03.31 10:45:26.
