data_PCOD8053058
_publ_section_title
;
Structure prediction by ZEFSAII (Michael W. Deem and Ramdas Pophale) SiO2 
 PCOD8053058
Probable space group: C M
;
_chemical_formula_sum "Si O2"
_cell_formula_units_Z 32
_cell_length_a 20.784941
_cell_length_b 8.262382
_cell_length_c 8.986842
_cell_angle_alpha 90.000000
_cell_angle_beta 89.553272
_cell_angle_gamma 90.000000
_cell_volume 1543.291527
_symmetry_space_group_name_H-M "C M"
_symmetry_group_IT_number 8
_symmetry_cell_setting 'monoclinic'
loop_
_space_group_symop_operation_xyz
x,y,z
x,-y,z
1/2+x,1/2+y,z
1/2+x,1/2-y,z
loop_
_atom_site_type_symbol
_atom_site_label
_atom_site_fract_x
_atom_site_fract_y
_atom_site_fract_z
Si Si1 0.943130 0.308110 0.329330
Si Si2 0.069719 0.687411 0.490098
Si Si3 0.692885 0.688665 0.329470
Si Si4 0.312196 0.807913 0.831189
Si Si5 0.817064 0.306362 0.495793
Si Si6 0.442008 0.191784 0.989036
Si Si7 0.185696 0.192903 0.997757
Si Si8 0.563404 0.688067 0.815184
O O1 0.941319 0.500000 0.339917
O O2 0.880978 0.237655 0.415464
O O3 0.007233 0.241284 0.407282
O O4 0.941953 0.250785 0.159399
O O5 0.079195 0.500000 0.451767
O O6 0.131293 0.783934 0.432852
O O7 0.060679 0.709213 0.665295
O O8 0.704905 0.500000 0.310574
O O9 0.755500 0.763871 0.408536
O O10 0.683873 0.765037 0.165333
O O11 0.314934 0.738857 0.663879
O O12 0.374980 0.750992 0.919160
O O13 0.248951 0.738758 0.914045
O O14 0.308771 0.000000 0.828277
O O15 0.816674 0.500000 0.496776
O O16 0.498267 0.286432 0.906125
O O17 0.452497 0.000000 0.972576
O O18 0.122682 0.254406 0.912316
O O19 0.186348 0.000000 0.001924
O O20 0.572499 0.500000 0.775700
#
# Coordination Sequence:
#
# PCOD8053058 Si02
#       8
#     4   4   4   4   4   4   4   4
#     4   9  18  32  52  79 106 136 175 215 254 301
#     4  11  22  36  54  76 105 138 174 214 257 308
#     4  10  19  33  55  80 106 135 170 214 261 306
#     4   9  16  28  50  79 107 135 171 213 253 298
#     4   9  16  28  50  79 107 135 171 213 253 298
#     4  10  19  33  55  80 106 135 170 214 261 306
#     4   9  18  32  52  79 106 136 175 215 254 301
#     4  11  22  36  54  76 105 138 174 214 257 308
#
# _framework density 20.734902000000002
#
# number of rings (size 3 to 8) (size 9 to 14) (size 15 to 20)
#    0.000    2.250    0.000    3.750    0.000    7.000 
#    0.000    1.250    0.000   11.250    0.000    0.000 
#    0.000    0.000    0.000    0.000    0.000    0.000 
#
# Total GULP energy -198437.310872 kJ/mol
# GULP energy per Si atom -12402.331930 kJ/mol
# Density = 2.068771 g / cm^3
# Si number density = 20.734902 Si / 1000 Ang^3
#
#
#
# Elastic Constant Matrix: (Units=GPa)
#
#
# Indices 1 2 3 4 5 6 
#
# 1 173.2323 3.6481 72.6180 0.0000 7.1373 0.0000
# 2 3.6481 12.8972 3.3519 0.0000 5.1295 0.0000
# 3 72.6180 3.3519 172.2435 0.0000 8.5026 0.0000
# 4 0.0000 0.0000 0.0000 18.8238 0.0000 -3.1419
# 5 7.1373 5.1295 8.5026 0.0000 50.5519 0.0000
# 6 0.0000 0.0000 0.0000 -3.1419 0.0000 22.5986
#
#
#
# Elastic Compliance Matrix: (Units=1/GPa)
#
#
# Indices 1 2 3 4 5 6 
#
# 1 0.007038 -0.001074 -0.002927 0.000000 -0.000392 0.000000
# 2 -0.001074 0.081198 -0.000734 0.000000 -0.007964 0.000000
# 3 -0.002927 -0.000734 0.007089 0.000000 -0.000705 0.000000
# 4 0.000000 0.000000 0.000000 0.054386 0.000000 0.007561
# 5 -0.000392 -0.007964 -0.000705 0.000000 0.020764 0.000000
# 6 0.000000 0.000000 0.000000 0.007561 0.000000 0.045302
#
#
# Mechanical properties :
#
#
# Convention : Reuss Voigt Hill
#
# Bulk Modulus (GPa) = 11.64758 57.51211 34.57984
# Shear Modulus (GPa) = 19.69541 36.97852 28.33697
#
# Velocity S-wave (km/s) = 3.08534 4.22761 3.70081
# Velocity P-wave (km/s) = 4.28042 7.18521 5.91394
#
# Compressibility (1/GPa) = 0.08585475
#
# Stress axis : x y z
#
# Youngs Moduli (GPa) = 142.07738 12.31555 141.06601
#
# Poissons Ratio (x) = 0.01323 0.41292
# Poissons Ratio (y) = 0.15260 0.10356
# Poissons Ratio (z) = 0.41588 0.00904
#
# Static dielectric constant tensor:
#      x y z
#    x 3.958920 0.000000 0.127310 
#    y 0.000000 3.084980 0.000000 
#    z 0.127310 0.000000 4.011080 
# 
# 
# High freq. dielectric constant tensor:
#      x y z
#    x 1.829990 0.000000 0.002620 
#    y 0.000000 1.752560 0.000000 
#    z 0.002620 0.000000 1.830500 
# 
# From -- ./inp_files/15849.got.cif
#   From: 2010.03.12/outbox.cif.g09.slc.cpg/sg8_8_cif.got.tgz:15849.got - 2010.03.31 10:45:26.
