data_PCOD8053442
_publ_section_title
;
Structure prediction by ZEFSAII (Michael W. Deem and Ramdas Pophale) SiO2 
 PCOD8053442
Probable space group: C M
;
_chemical_formula_sum "Si O2"
_cell_formula_units_Z 32
_cell_length_a 33.663943
_cell_length_b 8.902872
_cell_length_c 12.610022
_cell_angle_alpha 90.000000
_cell_angle_beta 153.920469
_cell_angle_gamma 90.000000
_cell_volume 1661.447945
_symmetry_space_group_name_H-M "C M"
_symmetry_group_IT_number 8
_symmetry_cell_setting 'monoclinic'
loop_
_space_group_symop_operation_xyz
x,y,z
x,-y,z
1/2+x,1/2+y,z
1/2+x,1/2-y,z
loop_
_atom_site_type_symbol
_atom_site_label
_atom_site_fract_x
_atom_site_fract_y
_atom_site_fract_z
Si Si1 0.448710 0.678239 0.644500
Si Si2 0.248963 0.326169 0.104176
Si Si3 0.879462 0.179569 0.872674
Si Si4 0.695835 0.173921 0.517175
Si Si5 0.566357 0.677942 0.725946
Si Si6 0.500655 0.821350 0.987296
Si Si7 0.181051 0.328854 0.716162
Si Si8 0.006400 0.175602 0.359024
O O1 0.454357 0.500000 0.676356
O O2 0.345818 0.730215 0.377265
O O3 0.511696 0.729573 0.697942
O O4 0.485370 0.767889 0.831928
O O5 0.235720 0.500000 0.098617
O O6 0.168489 0.240638 0.971757
O O7 0.248371 0.297441 0.975513
O O8 0.775165 0.234733 0.630568
O O9 0.887815 0.000000 0.882712
O O10 0.922404 0.254188 0.872895
O O11 0.926194 0.239384 0.093422
O O12 0.597958 0.245839 0.257718
O O13 0.728852 0.199997 0.717835
O O14 0.684663 0.000000 0.466507
O O15 0.574035 0.500000 0.738441
O O16 0.511558 0.741431 0.491413
O O17 0.496175 0.000000 0.983882
O O18 0.144330 0.500000 0.634149
O O19 0.098556 0.214654 0.520639
O O20 0.994378 0.000000 0.338856
#
# Coordination Sequence:
#
# PCOD8053442 Si02
#       8
#     4   4   4   4   4   4   4   4
#     4  10  22  39  58  80 108 147 189 226 266 322
#     4   9  19  34  56  83 110 143 182 224 270 323
#     4  10  20  35  57  83 110 144 183 224 271 325
#     4   9  19  34  55  81 108 141 181 223 270 324
#     4   9  19  35  55  82 115 145 178 222 273 324
#     4  11  23  40  57  78 110 147 186 229 273 320
#     4   9  16  31  55  80 111 144 177 219 270 324
#     4   9  17  30  53  83 114 143 174 219 273 324
#
# _framework density 19.260307999999998
#
# number of rings (size 3 to 8) (size 9 to 14) (size 15 to 20)
#    0.000    2.500    1.250    0.375    1.750    2.000 
#    0.000    5.625    0.000    0.000    0.000    0.000 
#    0.000    0.000    0.000    0.000    0.000    0.000 
#
# Total GULP energy -198304.351088 kJ/mol
# GULP energy per Si atom -12394.021943 kJ/mol
# Density = 1.921647 g / cm^3
# Si number density = 19.260308 Si / 1000 Ang^3
#
#
#
# Elastic Constant Matrix: (Units=GPa)
#
#
# Indices 1 2 3 4 5 6 
#
# 1 147.2833 27.5185 60.9238 0.0000 8.9321 0.0000
# 2 27.5185 18.1983 17.2839 0.0000 -2.7149 0.0000
# 3 60.9238 17.2839 91.2456 0.0000 2.0897 0.0000
# 4 0.0000 0.0000 0.0000 24.6474 0.0000 -0.2089
# 5 8.9321 -2.7149 2.0897 0.0000 28.7170 0.0000
# 6 0.0000 0.0000 0.0000 -0.2089 0.0000 26.0221
#
#
#
# Elastic Compliance Matrix: (Units=1/GPa)
#
#
# Indices 1 2 3 4 5 6 
#
# 1 0.011726 -0.013501 -0.005167 0.000000 -0.004547 0.000000
# 2 -0.013501 0.084101 -0.007206 0.000000 0.012675 0.000000
# 3 -0.005167 -0.007206 0.015780 0.000000 -0.000222 0.000000
# 4 0.000000 0.000000 0.000000 0.040575 0.000000 0.000326
# 5 -0.004547 0.012675 -0.000222 0.000000 0.037452 0.000000
# 6 0.000000 0.000000 0.000000 0.000326 0.000000 0.038432
#
#
# Mechanical properties :
#
#
# Convention : Reuss Voigt Hill
#
# Bulk Modulus (GPa) = 16.70658 52.01994 34.36326
# Shear Modulus (GPa) = 16.67965 25.94402 21.31184
#
# Velocity S-wave (km/s) = 2.94600 3.67416 3.33004
# Velocity P-wave (km/s) = 4.50165 6.71318 5.71540
#
# Compressibility (1/GPa) = 0.05985666
#
# Stress axis : x y z
#
# Youngs Moduli (GPa) = 85.28401 11.89044 63.37234
#
# Poissons Ratio (x) = 0.16054 0.32747
# Poissons Ratio (y) = 1.15145 0.45667
# Poissons Ratio (z) = 0.44070 0.08568
#
# Static dielectric constant tensor:
#      x y z
#    x 3.600490 0.000000 -0.036900 
#    y 0.000000 3.258170 0.000000 
#    z -0.036900 0.000000 3.741140 
# 
# 
# High freq. dielectric constant tensor:
#      x y z
#    x 1.754420 0.000000 -0.002210 
#    y 0.000000 1.720540 0.000000 
#    z -0.002210 0.000000 1.751550 
# 
# From -- ./inp_files/24795.got.cif
#   From: 2010.03.12/outbox.cif.g09.slc.cpg/sg8_13_cif.got.tgz:24795.got - 2010.03.31 10:45:26.
