data_PCOD8053575
_publ_section_title
;
Structure prediction by ZEFSAII (Michael W. Deem and Ramdas Pophale) SiO2 
 PCOD8053575
Probable space group: C M
;
_chemical_formula_sum "Si O2"
_cell_formula_units_Z 32
_cell_length_a 8.748903
_cell_length_b 10.512070
_cell_length_c 29.256516
_cell_angle_alpha 90.000000
_cell_angle_beta 33.974463
_cell_angle_gamma 90.000000
_cell_volume 1503.623107
_symmetry_space_group_name_H-M "C M"
_symmetry_group_IT_number 8
_symmetry_cell_setting 'monoclinic'
loop_
_space_group_symop_operation_xyz
x,y,z
x,-y,z
1/2+x,1/2+y,z
1/2+x,1/2-y,z
loop_
_atom_site_type_symbol
_atom_site_label
_atom_site_fract_x
_atom_site_fract_y
_atom_site_fract_z
Si Si1 0.853490 0.140401 0.608540
Si Si2 0.962047 0.645190 0.436573
Si Si3 0.912961 0.858163 0.959985
Si Si4 0.283267 0.640552 0.174853
Si Si5 0.842295 0.276366 0.068409
Si Si6 0.292642 0.641810 0.823162
Si Si7 0.822590 0.776749 0.714852
Si Si8 0.385573 0.145151 0.353030
O O1 0.796085 0.134268 0.677167
O O2 0.629840 0.224375 0.638439
O O3 0.153343 0.192122 0.522432
O O4 0.826105 0.000000 0.594995
O O5 0.009124 0.500000 0.443916
O O6 0.032479 0.646710 0.365505
O O7 0.145898 0.750970 0.415381
O O8 0.101401 0.749947 0.891622
O O9 0.034772 0.000000 0.921681
O O10 0.896033 0.836497 0.018653
O O11 0.617830 0.855032 0.008861
O O12 0.184851 0.500000 0.187241
O O13 0.605429 0.634756 0.106916
O O14 0.226587 0.723709 0.144557
O O15 0.105639 0.692516 0.261212
O O16 0.201930 0.500000 0.861521
O O17 0.600825 0.663564 0.764681
O O18 0.268575 0.644807 0.774300
O O19 0.279588 0.000000 0.369252
#
# Coordination Sequence:
#
# PCOD8053575 Si02
#       8
#     4   4   4   4   4   4   4   4
#     4  10  20  37  59  82 113 151 189 233 282 332
#     4  10  21  37  58  86 118 152 191 234 282 336
#     4  11  24  40  60  86 115 149 189 234 285 341
#     4  10  20  37  59  82 113 151 189 233 282 332
#     4  10  22  38  59  84 113 147 191 236 281 335
#     4  11  24  40  60  86 115 149 189 234 285 341
#     4  10  22  38  59  84 113 147 191 236 281 335
#     4  10  21  37  58  86 118 152 191 234 282 336
#
# _framework density 21.281929999999999
#
# number of rings (size 3 to 8) (size 9 to 14) (size 15 to 20)
#    0.000    1.750    0.000    3.750    0.000    8.500 
#    0.000    6.250    0.000    0.000    0.000    0.000 
#    0.000    0.000    0.000    0.000    0.000    0.000 
#
# Total GULP energy -198362.411099 kJ/mol
# GULP energy per Si atom -12397.650694 kJ/mol
# Density = 2.123349 g / cm^3
# Si number density = 21.281930 Si / 1000 Ang^3
#
#
#
# Elastic Constant Matrix: (Units=GPa)
#
#
# Indices 1 2 3 4 5 6 
#
# 1 72.4962 16.0568 6.2147 0.0023 0.3741 0.0022
# 2 16.0568 116.7974 27.1122 0.0053 -7.4550 0.0010
# 3 6.2147 27.1122 81.6539 0.0164 1.5568 0.0133
# 4 0.0023 0.0053 0.0164 29.7047 -0.0012 -2.4417
# 5 0.3741 -7.4550 1.5568 -0.0012 29.5597 0.0014
# 6 0.0022 0.0010 0.0133 -2.4417 0.0014 11.2636
#
#
#
# Elastic Compliance Matrix: (Units=1/GPa)
#
#
# Indices 1 2 3 4 5 6 
#
# 1 0.014255 -0.001898 -0.000443 -0.000001 -0.000636 -0.000002
# 2 -0.001898 0.009718 -0.003133 0.000000 0.002640 0.000003
# 3 -0.000443 -0.003133 0.013349 -0.000008 -0.001488 -0.000017
# 4 -0.000001 0.000000 -0.000008 0.034275 0.000002 0.007430
# 5 -0.000636 0.002640 -0.001488 0.000002 0.034582 -0.000002
# 6 -0.000002 0.000003 -0.000017 0.007430 -0.000002 0.090392
#
#
# Mechanical properties :
#
#
# Convention : Reuss Voigt Hill
#
# Bulk Modulus (GPa) = 37.91243 41.07942 39.49592
# Shear Modulus (GPa) = 23.11489 28.87653 25.99571
#
# Velocity S-wave (km/s) = 3.29922 3.68755 3.49878
# Velocity P-wave (km/s) = 5.68913 6.12169 5.90937
#
# Compressibility (1/GPa) = 0.02637658
#
# Stress axis : x y z
#
# Youngs Moduli (GPa) = 70.14913 102.89726 74.91144
#
# Poissons Ratio (x) = 0.19525 0.03317
# Poissons Ratio (y) = 0.13311 0.23468
# Poissons Ratio (z) = 0.03106 0.32236
#
# Static dielectric constant tensor:
#      x y z
#    x 3.873020 0.000000 0.075230 
#    y 0.000000 3.615880 -0.000010 
#    z 0.075230 -0.000010 3.901180 
# 
# 
# High freq. dielectric constant tensor:
#      x y z
#    x 1.836660 0.000000 0.007490 
#    y 0.000000 1.825290 0.000000 
#    z 0.007490 0.000000 1.840590 
# 
# From -- ./inp_files/25248.got.cif
#   From: 2010.03.12/outbox.cif.g09.slc.cpg/sg8_13_cif.got.tgz:25248.got - 2010.03.31 10:45:26.
