data_PCOD8053835
_publ_section_title
;
Structure prediction by ZEFSAII (Michael W. Deem and Ramdas Pophale) SiO2 
 PCOD8053835
Probable space group: C M
;
_chemical_formula_sum "Si O2"
_cell_formula_units_Z 32
_cell_length_a 24.123089
_cell_length_b 8.998088
_cell_length_c 9.629152
_cell_angle_alpha 90.000000
_cell_angle_beta 51.412805
_cell_angle_gamma 90.000000
_cell_volume 1633.762868
_symmetry_space_group_name_H-M "C M"
_symmetry_group_IT_number 8
_symmetry_cell_setting 'monoclinic'
loop_
_space_group_symop_operation_xyz
x,y,z
x,-y,z
1/2+x,1/2+y,z
1/2+x,1/2-y,z
loop_
_atom_site_type_symbol
_atom_site_label
_atom_site_fract_x
_atom_site_fract_y
_atom_site_fract_z
Si Si1 0.463340 0.171557 0.037070
Si Si2 0.596878 0.667881 0.924172
Si Si3 0.843390 0.825759 0.717360
Si Si4 0.835238 0.328392 0.442331
Si Si5 0.117910 0.176676 0.383464
Si Si6 0.465375 0.324775 0.737954
Si Si7 0.183599 0.324908 0.017371
Si Si8 0.196664 0.832878 0.521827
O O1 0.390837 0.192175 0.232684
O O2 0.484616 0.000000 0.986948
O O3 0.521376 0.252643 0.041719
O O4 0.455149 0.242693 0.899169
O O5 0.588951 0.500000 0.994603
O O6 0.625005 0.666751 0.723304
O O7 0.653853 0.759073 0.922091
O O8 0.859636 0.752161 0.543934
O O9 0.901801 0.772583 0.736706
O O10 0.848398 0.000000 0.684842
O O11 0.766292 0.780351 0.897701
O O12 0.823540 0.500000 0.500729
O O13 0.762304 0.253324 0.497338
O O14 0.137383 0.254622 0.210961
O O15 0.173967 0.238820 0.410462
O O16 0.038529 0.222672 0.550341
O O17 0.123526 0.000000 0.358761
O O18 0.463148 0.500000 0.770766
O O19 0.172817 0.500000 0.036015
O O20 0.222713 0.000000 0.452123
#
# Coordination Sequence:
#
# PCOD8053835 Si02
#       8
#     4   4   4   4   4   4   4   4
#     4  11  24  39  60  93 125 155 194 250 308 352
#     4  11  21  40  67  87 113 159 204 248 296 355
#     4  10  23  41  60  86 123 161 200 246 295 352
#     4  10  22  40  61  88 120 155 199 247 298 358
#     4  10  21  39  63  88 114 156 207 248 291 355
#     4  10  22  42  62  85 119 161 207 244 288 360
#     4  11  24  40  58  90 127 156 195 252 306 352
#     4   9  18  37  63  87 111 147 202 251 286 344
#
# _framework density 19.586687000000001
#
# number of rings (size 3 to 8) (size 9 to 14) (size 15 to 20)
#    0.000    1.750    2.500    1.125    3.500    2.500 
#    0.000    0.625    0.000    0.000    0.000    0.000 
#    0.000    0.000    0.000    0.000    0.000    0.000 
#
# Total GULP energy -198414.830376 kJ/mol
# GULP energy per Si atom -12400.926899 kJ/mol
# Density = 1.954211 g / cm^3
# Si number density = 19.586687 Si / 1000 Ang^3
#
#
#
# Elastic Constant Matrix: (Units=GPa)
#
#
# Indices 1 2 3 4 5 6 
#
# 1 141.5366 44.5135 39.8971 0.0000 -1.3192 0.0000
# 2 44.5135 49.3258 44.5600 0.0000 -1.5397 0.0000
# 3 39.8971 44.5600 100.7782 0.0000 1.4749 0.0000
# 4 0.0000 0.0000 0.0000 30.9197 0.0000 5.7285
# 5 -1.3192 -1.5397 1.4749 0.0000 27.1341 0.0000
# 6 0.0000 0.0000 0.0000 5.7285 0.0000 28.7784
#
#
#
# Elastic Compliance Matrix: (Units=1/GPa)
#
#
# Indices 1 2 3 4 5 6 
#
# 1 0.009865 -0.008952 0.000053 0.000000 -0.000031 0.000000
# 2 -0.008952 0.042083 -0.015104 0.000000 0.002774 0.000000
# 3 0.000053 -0.015104 0.016606 0.000000 -0.001757 0.000000
# 4 0.000000 0.000000 0.000000 0.033580 0.000000 -0.006684
# 5 -0.000031 0.002774 -0.001757 0.000000 0.037105 0.000000
# 6 0.000000 0.000000 0.000000 -0.006684 0.000000 0.036079
#
#
# Mechanical properties :
#
#
# Convention : Reuss Voigt Hill
#
# Bulk Modulus (GPa) = 48.66499 61.06466 54.86482
# Shear Modulus (GPa) = 21.72266 28.21111 24.96689
#
# Velocity S-wave (km/s) = 3.33386 3.79927 3.57415
# Velocity P-wave (km/s) = 6.30233 7.10565 6.71601
#
# Compressibility (1/GPa) = 0.02054865
#
# Stress axis : x y z
#
# Youngs Moduli (GPa) = 101.36402 23.76250 60.21928
#
# Poissons Ratio (x) = 0.21272 -0.00319
# Poissons Ratio (y) = 0.90738 0.90956
# Poissons Ratio (z) = -0.00536 0.35891
#
# Static dielectric constant tensor:
#      x y z
#    x 3.865600 0.000000 -0.080900 
#    y 0.000000 3.466980 0.000000 
#    z -0.080900 0.000000 3.476770 
# 
# 
# High freq. dielectric constant tensor:
#      x y z
#    x 1.781370 0.000000 -0.000030 
#    y 0.000000 1.746490 0.000000 
#    z -0.000030 0.000000 1.766550 
# 
# From -- ./inp_files/16872.got.cif
#   From: 2010.03.12/outbox.cif.g09.slc.cpg/sg8_9_cif.got.tgz:16872.got - 2010.03.31 10:45:26.
