data_PCOD8053526
_publ_section_title
;
Structure prediction by ZEFSAII (Michael W. Deem and Ramdas Pophale) SiO2 
 PCOD8053526
Probable space group: C M
;
_chemical_formula_sum "Si O2"
_cell_formula_units_Z 32
_cell_length_a 11.763074
_cell_length_b 14.262814
_cell_length_c 9.313690
_cell_angle_alpha 90.000000
_cell_angle_beta 73.389846
_cell_angle_gamma 90.000000
_cell_volume 1497.395739
_symmetry_space_group_name_H-M "C M"
_symmetry_group_IT_number 8
_symmetry_cell_setting 'monoclinic'
loop_
_space_group_symop_operation_xyz
x,y,z
x,-y,z
1/2+x,1/2+y,z
1/2+x,1/2-y,z
loop_
_atom_site_type_symbol
_atom_site_label
_atom_site_fract_x
_atom_site_fract_y
_atom_site_fract_z
Si Si1 0.641480 0.289594 0.787410
Si Si2 0.539148 0.711120 0.122977
Si Si3 0.540652 0.604802 0.568908
Si Si4 0.136507 0.607166 0.630850
Si Si5 0.377111 0.893381 0.765993
Si Si6 0.701214 0.601850 0.262086
Si Si7 0.862378 0.891067 0.380899
Si Si8 0.951217 0.396148 0.058767
O O1 0.552818 0.323286 0.694206
O O2 0.655620 0.176781 0.760767
O O3 0.774155 0.331321 0.733386
O O4 0.574790 0.326423 0.953200
O O5 0.644848 0.685285 0.190870
O O6 0.413661 0.669381 0.227964
O O7 0.539479 0.823578 0.102992
O O8 0.519151 0.500000 0.636349
O O9 0.665669 0.611823 0.440418
O O10 0.435248 0.633815 0.498978
O O11 0.163288 0.500000 0.672741
O O12 0.224527 0.633535 0.466280
O O13 0.999012 0.615113 0.628958
O O14 0.330776 0.000000 0.786366
O O15 0.408201 0.860947 0.917580
O O16 0.652997 0.500000 0.222234
O O17 0.841136 0.603503 0.205975
O O18 0.877583 0.000000 0.335136
O O19 0.009150 0.500000 0.027041
#
# Coordination Sequence:
#
# PCOD8053526 Si02
#       8
#     4   4   4   4   4   4   4   4
#     4  12  23  34  64  98 123 155 211 264 305 356
#     4  11  21  35  63  95 116 156 208 256 301 365
#     4   9  20  37  60  94 124 154 200 258 314 359
#     4  10  23  42  60  84 128 175 204 241 309 381
#     4  10  21  39  61  90 126 163 202 253 313 367
#     4   9  19  39  62  84 120 162 199 243 307 376
#     4   9  21  42  65  88 124 170 205 247 315 379
#     4  10  20  36  59  87 123 161 197 246 310 371
#
# _framework density 21.370436999999999
#
# number of rings (size 3 to 8) (size 9 to 14) (size 15 to 20)
#    0.000    2.000    2.500    1.500    3.500    1.500 
#    0.000    0.000    0.000    6.000    0.000    0.000 
#    0.000    0.000    0.000    0.000    0.000    0.000 
#
# Total GULP energy -198264.800149 kJ/mol
# GULP energy per Si atom -12391.550009 kJ/mol
# Density = 2.132180 g / cm^3
# Si number density = 21.370437 Si / 1000 Ang^3
#
#
#
# Elastic Constant Matrix: (Units=GPa)
#
#
# Indices 1 2 3 4 5 6 
#
# 1 82.5261 35.9302 36.9898 0.0000 -19.4463 0.0000
# 2 35.9302 111.9396 33.8592 0.0000 13.6773 0.0000
# 3 36.9898 33.8592 82.7714 0.0000 -18.0058 0.0000
# 4 0.0000 0.0000 0.0000 29.5344 0.0000 2.4112
# 5 -19.4463 13.6773 -18.0058 0.0000 37.7909 0.0000
# 6 0.0000 0.0000 0.0000 2.4112 0.0000 31.8795
#
#
#
# Elastic Compliance Matrix: (Units=1/GPa)
#
#
# Indices 1 2 3 4 5 6 
#
# 1 0.018862 -0.006186 -0.003682 0.000000 0.010190 0.000000
# 2 -0.006186 0.013791 -0.005194 0.000000 -0.010649 0.000000
# 3 -0.003682 -0.005194 0.017681 0.000000 0.008409 0.000000
# 4 0.000000 0.000000 0.000000 0.034069 0.000000 -0.002577
# 5 0.010190 -0.010649 0.008409 0.000000 0.039566 0.000000
# 6 0.000000 0.000000 0.000000 -0.002577 0.000000 0.031563
#
#
# Mechanical properties :
#
#
# Convention : Reuss Voigt Hill
#
# Bulk Modulus (GPa) = 49.47809 54.53281 52.00545
# Shear Modulus (GPa) = 25.98865 31.20481 28.59673
#
# Velocity S-wave (km/s) = 3.49105 3.82538 3.66203
# Velocity P-wave (km/s) = 6.28114 6.71451 6.50144
#
# Compressibility (1/GPa) = 0.02021096
#
# Stress axis : x y z
#
# Youngs Moduli (GPa) = 53.01626 72.51150 56.55841
#
# Poissons Ratio (x) = 0.44853 0.20826
# Poissons Ratio (y) = 0.32794 0.29374
# Poissons Ratio (z) = 0.19522 0.37660
#
# Static dielectric constant tensor:
#      x y z
#    x 3.835780 0.000000 -0.461960 
#    y 0.000000 4.046940 0.000000 
#    z -0.461960 0.000000 3.742840 
# 
# 
# High freq. dielectric constant tensor:
#      x y z
#    x 1.823750 0.000000 -0.035590 
#    y 0.000000 1.845100 0.000000 
#    z -0.035590 0.000000 1.818020 
# 
# From -- ./inp_files/10744.got.cif
#   From: 2010.03.12/outbox.cif.g09.slc.cpg/sg8_6_cif.got.tgz:10744.got - 2010.03.31 10:45:26.
