data_PCOD8053760
_publ_section_title
;
Structure prediction by ZEFSAII (Michael W. Deem and Ramdas Pophale) SiO2 
 PCOD8053760
Probable space group: C M
;
_chemical_formula_sum "Si O2"
_cell_formula_units_Z 32
_cell_length_a 30.848427
_cell_length_b 8.705149
_cell_length_c 6.948490
_cell_angle_alpha 90.000000
_cell_angle_beta 115.204655
_cell_angle_gamma 90.000000
_cell_volume 1688.296192
_symmetry_space_group_name_H-M "C M"
_symmetry_group_IT_number 8
_symmetry_cell_setting 'monoclinic'
loop_
_space_group_symop_operation_xyz
x,y,z
x,-y,z
1/2+x,1/2+y,z
1/2+x,1/2-y,z
loop_
_atom_site_type_symbol
_atom_site_label
_atom_site_fract_x
_atom_site_fract_y
_atom_site_fract_z
Si Si1 0.586860 0.677069 0.623210
Si Si2 0.099428 0.322348 0.053576
Si Si3 0.841969 0.824606 0.141427
Si Si4 0.418721 0.676507 0.966388
Si Si5 0.269713 0.321312 0.675339
Si Si6 0.668244 0.677165 0.469023
Si Si7 0.519651 0.177697 0.204895
Si Si8 0.843710 0.678405 0.549507
O O1 0.583382 0.500000 0.676800
O O2 0.632408 0.711022 0.575931
O O3 0.538508 0.723329 0.420390
O O4 0.591795 0.780848 0.818985
O O5 0.113114 0.500000 0.098718
O O6 0.143385 0.224516 0.222020
O O7 0.050637 0.283659 0.074441
O O8 0.842607 0.710082 0.320944
O O9 0.838345 0.000000 0.207006
O O10 0.890164 0.799138 0.110403
O O11 0.796278 0.781189 0.924683
O O12 0.433634 0.500000 0.966651
O O13 0.386315 0.724670 0.724928
O O14 0.465314 0.781276 0.057177
O O15 0.276032 0.500000 0.638475
O O16 0.214549 0.279495 0.594131
O O17 0.292768 0.225899 0.543990
O O18 0.683105 0.500000 0.485682
O O19 0.523785 0.000000 0.268746
O O20 0.853148 0.500000 0.604116
#
# Coordination Sequence:
#
# PCOD8053760 Si02
#       8
#     4   4   4   4   4   4   4   4
#     4  10  21  37  57  81 111 146 183 226 274 323
#     4  10  21  37  57  81 111 146 183 225 272 323
#     4   9  20  38  57  79 108 143 183 223 267 323
#     4  10  21  38  59  81 109 145 183 225 272 323
#     4  10  21  38  59  81 109 145 183 224 270 322
#     4  10  21  37  57  82 111 142 181 227 273 323
#     4  10  21  37  57  82 111 143 183 228 273 323
#     4  11  22  36  57  83 112 144 179 224 273 322
#
# _framework density 18.95402
#
# number of rings (size 3 to 8) (size 9 to 14) (size 15 to 20)
#    0.000    2.000    0.000    4.125    0.000    8.000 
#    0.000    2.500    0.000    0.000    0.000    0.000 
#    0.000    0.000    0.000    0.000    0.000    0.000 
#
# Total GULP energy -198494.067826 kJ/mol
# GULP energy per Si atom -12405.879239 kJ/mol
# Density = 1.891088 g / cm^3
# Si number density = 18.954020 Si / 1000 Ang^3
#
#
#
# Elastic Constant Matrix: (Units=GPa)
#
#
# Indices 1 2 3 4 5 6 
#
# 1 84.1278 23.3323 40.1387 0.0000 16.5748 0.0000
# 2 23.3323 66.4864 28.9715 0.0000 -6.8622 0.0000
# 3 40.1387 28.9715 100.0670 0.0000 -9.4583 0.0000
# 4 0.0000 0.0000 0.0000 35.6013 0.0000 2.4593
# 5 16.5748 -6.8622 -9.4583 0.0000 25.3039 0.0000
# 6 0.0000 0.0000 0.0000 2.4593 0.0000 35.0603
#
#
#
# Elastic Compliance Matrix: (Units=1/GPa)
#
#
# Indices 1 2 3 4 5 6 
#
# 1 0.021263 -0.005613 -0.008670 0.000000 -0.018691 0.000000
# 2 -0.005613 0.018903 -0.002477 0.000000 0.007877 0.000000
# 3 -0.008670 -0.002477 0.015199 0.000000 0.010689 0.000000
# 4 0.000000 0.000000 0.000000 0.028226 0.000000 -0.001980
# 5 -0.018691 0.007877 0.010689 0.000000 0.057894 0.000000
# 6 0.000000 0.000000 0.000000 -0.001980 0.000000 0.028661
#
#
# Mechanical properties :
#
#
# Convention : Reuss Voigt Hill
#
# Bulk Modulus (GPa) = 45.77956 48.39627 47.08791
# Shear Modulus (GPa) = 23.70276 29.74233 26.72255
#
# Velocity S-wave (km/s) = 3.54013 3.96559 3.75889
# Velocity P-wave (km/s) = 6.39652 6.82325 6.61333
#
# Compressibility (1/GPa) = 0.02184381
#
# Stress axis : x y z
#
# Youngs Moduli (GPa) = 47.03102 52.90267 65.79561
#
# Poissons Ratio (x) = 0.29693 0.57048
# Poissons Ratio (y) = 0.26397 0.16296
# Poissons Ratio (z) = 0.40778 0.13103
#
# Static dielectric constant tensor:
#      x y z
#    x 3.425590 0.000000 0.024250 
#    y 0.000000 3.492600 0.000000 
#    z 0.024250 0.000000 3.368110 
# 
# 
# High freq. dielectric constant tensor:
#      x y z
#    x 1.734420 0.000000 0.003390 
#    y 0.000000 1.749010 0.000000 
#    z 0.003390 0.000000 1.737270 
# 
# From -- ./inp_files/6412.got.cif
#   From: 2010.03.12/outbox.cif.g09.slc.cpg/sg8_4_cif.got.tgz:6412.got - 2010.03.31 10:45:26.
