data_PCOD8053390
_publ_section_title
;
Structure prediction by ZEFSAII (Michael W. Deem and Ramdas Pophale) SiO2 
 PCOD8053390
Probable space group: C M
;
_chemical_formula_sum "Si O2"
_cell_formula_units_Z 32
_cell_length_a 19.791869
_cell_length_b 8.757943
_cell_length_c 24.685327
_cell_angle_alpha 90.000000
_cell_angle_beta 23.434616
_cell_angle_gamma 90.000000
_cell_volume 1701.711368
_symmetry_space_group_name_H-M "C M"
_symmetry_group_IT_number 8
_symmetry_cell_setting 'monoclinic'
loop_
_space_group_symop_operation_xyz
x,y,z
x,-y,z
1/2+x,1/2+y,z
1/2+x,1/2-y,z
loop_
_atom_site_type_symbol
_atom_site_label
_atom_site_fract_x
_atom_site_fract_y
_atom_site_fract_z
Si Si1 0.998990 0.325812 0.949060
Si Si2 0.346553 0.179800 0.231245
Si Si3 0.985368 0.677918 0.299431
Si Si4 0.268876 0.173918 0.022374
Si Si5 0.856375 0.821860 0.732577
Si Si6 0.718952 0.177547 0.224393
Si Si7 0.709814 0.321405 0.945275
Si Si8 0.703119 0.820525 0.445170
O O1 0.960959 0.500000 0.995334
O O2 0.197087 0.288658 0.810294
O O3 0.943896 0.300216 0.926947
O O4 0.893632 0.213830 0.064856
O O5 0.206966 0.226344 0.288684
O O6 0.294331 0.247391 0.326748
O O7 0.360450 0.000000 0.226169
O O8 0.524596 0.247740 0.080660
O O9 0.943974 0.500000 0.326376
O O10 0.811639 0.771333 0.418164
O O11 0.121912 0.716458 0.152499
O O12 0.059920 0.723217 0.303366
O O13 0.203717 0.000000 0.077415
O O14 0.301833 0.209743 0.935150
O O15 0.826241 0.756797 0.814590
O O16 0.012397 0.737618 0.589980
O O17 0.896715 0.000000 0.707559
O O18 0.716220 0.000000 0.240870
O O19 0.692587 0.500000 0.945487
O O20 0.702697 0.000000 0.438978
#
# Coordination Sequence:
#
# PCOD8053390 Si02
#       8
#     4   4   4   4   4   4   4   4
#     4   9  18  34  56  83 115 152 192 233 285 343
#     4  12  23  37  59  87 118 153 197 246 290 343
#     4  10  20  35  57  86 118 151 190 239 294 349
#     4   9  18  33  56  85 116 150 190 236 284 339
#     4  11  23  39  59  84 117 157 196 242 292 349
#     4  10  20  34  57  88 119 149 189 241 292 344
#     4  11  21  35  58  88 119 152 193 242 288 341
#     4  12  25  41  60  83 116 158 199 245 295 352
#
# _framework density 18.804597999999999
#
# number of rings (size 3 to 8) (size 9 to 14) (size 15 to 20)
#    0.000    1.500    2.500    3.750    0.000    2.500 
#    0.000    1.250    0.000    4.500    0.000    0.000 
#    0.000    0.000    0.000    0.000    0.000    0.000 
#
# Total GULP energy -198440.188253 kJ/mol
# GULP energy per Si atom -12402.511766 kJ/mol
# Density = 1.876180 g / cm^3
# Si number density = 18.804598 Si / 1000 Ang^3
#
#
#
# Elastic Constant Matrix: (Units=GPa)
#
#
# Indices 1 2 3 4 5 6 
#
# 1 111.5244 40.3270 23.7572 -0.0098 -15.2764 0.0044
# 2 40.3270 118.7528 25.6923 0.0015 -10.0863 0.0018
# 3 23.7572 25.6923 60.9417 -0.0103 -12.5569 0.0028
# 4 -0.0098 0.0015 -0.0103 31.0354 -0.0029 3.6922
# 5 -15.2764 -10.0863 -12.5569 -0.0029 26.7312 0.0013
# 6 0.0044 0.0018 0.0028 3.6922 0.0013 22.8404
#
#
#
# Elastic Compliance Matrix: (Units=1/GPa)
#
#
# Indices 1 2 3 4 5 6 
#
# 1 0.011069 -0.002923 -0.002222 0.000004 0.004179 -0.000002
# 2 -0.002923 0.010120 -0.002972 -0.000002 0.000752 0.000000
# 3 -0.002222 -0.002972 0.019968 0.000007 0.006989 -0.000003
# 4 0.000004 -0.000002 0.000007 0.032853 0.000008 -0.005311
# 5 0.004179 0.000752 0.006989 0.000008 0.043365 -0.000005
# 6 -0.000002 0.000000 -0.000003 -0.005311 -0.000005 0.044641
#
#
# Mechanical properties :
#
#
# Convention : Reuss Voigt Hill
#
# Bulk Modulus (GPa) = 40.12213 52.30797 46.21505
# Shear Modulus (GPa) = 26.80119 29.55090 28.17604
#
# Velocity S-wave (km/s) = 3.77934 3.96848 3.87506
# Velocity P-wave (km/s) = 6.35824 6.99110 6.68216
#
# Compressibility (1/GPa) = 0.02492390
#
# Stress axis : x y z
#
# Youngs Moduli (GPa) = 90.33835 98.80936 50.07944
#
# Poissons Ratio (x) = 0.28886 0.11126
# Poissons Ratio (y) = 0.26410 0.14884
# Poissons Ratio (z) = 0.20070 0.29367
#
# Static dielectric constant tensor:
#      x y z
#    x 3.853210 0.000000 -0.197390 
#    y 0.000000 3.555510 0.000000 
#    z -0.197390 0.000000 3.149450 
# 
# 
# High freq. dielectric constant tensor:
#      x y z
#    x 1.748850 0.000000 -0.014530 
#    y 0.000000 1.743120 0.000000 
#    z -0.014530 0.000000 1.694000 
# 
# From -- ./inp_files/31329.got.cif
#   From: 2010.03.12/outbox.cif.g09.slc.cpg/sg8_16_cif.got.tgz:31329.got - 2010.03.31 10:45:26.
