data_PCOD8053733
_publ_section_title
;
Structure prediction by ZEFSAII (Michael W. Deem and Ramdas Pophale) SiO2 
 PCOD8053733
Probable space group: C M
;
_chemical_formula_sum "Si O2"
_cell_formula_units_Z 32
_cell_length_a 10.074891
_cell_length_b 9.204953
_cell_length_c 17.644018
_cell_angle_alpha 90.000000
_cell_angle_beta 89.790143
_cell_angle_gamma 90.000000
_cell_volume 1636.275812
_symmetry_space_group_name_H-M "C M"
_symmetry_group_IT_number 8
_symmetry_cell_setting 'monoclinic'
loop_
_space_group_symop_operation_xyz
x,y,z
x,-y,z
1/2+x,1/2+y,z
1/2+x,1/2-y,z
loop_
_atom_site_type_symbol
_atom_site_label
_atom_site_fract_x
_atom_site_fract_y
_atom_site_fract_z
Si Si1 0.332130 0.330638 0.884390
Si Si2 0.356798 0.832128 0.391120
Si Si3 0.086065 0.168811 0.475028
Si Si4 0.855202 0.832604 0.712104
Si Si5 0.585270 0.168680 0.628570
Si Si6 0.851483 0.670168 0.217769
Si Si7 0.085095 0.170201 0.136788
Si Si8 0.099337 0.830155 0.964993
O O1 0.299998 0.500000 0.887915
O O2 0.368140 0.283903 0.799028
O O3 0.201954 0.248607 0.910790
O O4 0.452255 0.286599 0.938938
O O5 0.451660 0.733311 0.441131
O O6 0.368954 0.781157 0.304364
O O7 0.205212 0.807760 0.415908
O O8 0.398173 0.000000 0.401013
O O9 0.124387 0.249861 0.551739
O O10 0.061596 0.000000 0.492461
O O11 0.703838 0.807561 0.687407
O O12 0.950182 0.732615 0.662215
O O13 0.897581 0.000000 0.700601
O O14 0.561624 0.000000 0.610452
O O15 0.873670 0.500000 0.207538
O O16 0.705179 0.715391 0.191046
O O17 0.954375 0.750470 0.164488
O O18 0.055802 0.000000 0.139266
O O19 0.118242 0.220645 0.051447
O O20 0.124197 0.000000 0.955406
#
# Coordination Sequence:
#
# PCOD8053733 Si02
#       8
#     4   4   4   4   4   4   4   4
#     4  10  21  37  57  83 114 147 187 232 276 328
#     4  10  22  39  58  83 113 145 185 230 276 330
#     4  11  23  39  60  84 112 147 183 225 278 331
#     4  10  22  39  58  83 114 147 186 231 277 328
#     4  11  23  38  58  84 112 145 186 229 275 330
#     4  10  21  37  57  82 112 146 186 231 277 328
#     4  10  21  37  56  82 115 148 187 232 276 328
#     4  10  21  36  56  83 114 149 188 230 277 329
#
# _framework density 19.556605000000001
#
# number of rings (size 3 to 8) (size 9 to 14) (size 15 to 20)
#    0.000    1.750    0.000    3.750    0.000    7.500 
#    0.000    0.000    0.000    0.000    0.000    0.000 
#    0.000    0.000    0.000    0.000    0.000    0.000 
#
# Total GULP energy -198502.585119 kJ/mol
# GULP energy per Si atom -12406.411570 kJ/mol
# Density = 1.951209 g / cm^3
# Si number density = 19.556605 Si / 1000 Ang^3
#
#
#
# Elastic Constant Matrix: (Units=GPa)
#
#
# Indices 1 2 3 4 5 6 
#
# 1 76.3307 42.3000 19.5004 0.0000 -6.9427 0.0000
# 2 42.3000 71.8744 37.9917 0.0000 -4.6564 0.0000
# 3 19.5004 37.9917 97.8570 0.0000 3.3386 0.0000
# 4 0.0000 0.0000 0.0000 28.6476 0.0000 -8.5942
# 5 -6.9427 -4.6564 3.3386 0.0000 38.3895 0.0000
# 6 0.0000 0.0000 0.0000 -8.5942 0.0000 31.6248
#
#
#
# Elastic Compliance Matrix: (Units=1/GPa)
#
#
# Indices 1 2 3 4 5 6 
#
# 1 0.019643 -0.011725 0.000567 0.000000 0.002081 0.000000
# 2 -0.011725 0.024793 -0.007341 0.000000 0.001525 0.000000
# 3 0.000567 -0.007341 0.013022 0.000000 -0.001920 0.000000
# 4 0.000000 0.000000 0.000000 0.038005 0.000000 0.010328
# 5 0.002081 0.001525 -0.001920 0.000000 0.026777 0.000000
# 6 0.000000 0.000000 0.000000 0.010328 0.000000 0.034428
#
#
# Mechanical properties :
#
#
# Convention : Reuss Voigt Hill
#
# Bulk Modulus (GPa) = 48.87895 49.51627 49.19761
# Shear Modulus (GPa) = 24.93932 29.48369 27.21151
#
# Velocity S-wave (km/s) = 3.57492 3.88700 3.73422
# Velocity P-wave (km/s) = 6.48752 6.74681 6.61844
#
# Compressibility (1/GPa) = 0.02045870
#
# Stress axis : x y z
#
# Youngs Moduli (GPa) = 50.90832 40.33395 76.79538
#
# Poissons Ratio (x) = 0.47293 -0.04353
# Poissons Ratio (y) = 0.59692 0.56376
# Poissons Ratio (z) = -0.02886 0.29609
#
# Static dielectric constant tensor:
#      x y z
#    x 3.470490 0.000000 0.113130 
#    y 0.000000 3.560940 0.000000 
#    z 0.113130 0.000000 3.782320 
# 
# 
# High freq. dielectric constant tensor:
#      x y z
#    x 1.770620 0.000000 0.003170 
#    y 0.000000 1.758080 0.000000 
#    z 0.003170 0.000000 1.779120 
# 
# From -- ./inp_files/25838.got.cif
#   From: 2010.03.12/outbox.cif.g09.slc.cpg/sg8_13_cif.got.tgz:25838.got - 2010.03.31 10:45:26.
