data_PCOD8053070
_publ_section_title
;
Structure prediction by ZEFSAII (Michael W. Deem and Ramdas Pophale) SiO2 
 PCOD8053070
Probable space group: C M
;
_chemical_formula_sum "Si O2"
_cell_formula_units_Z 32
_cell_length_a 20.437600
_cell_length_b 8.573401
_cell_length_c 25.147221
_cell_angle_alpha 90.000000
_cell_angle_beta 157.482771
_cell_angle_gamma 90.000000
_cell_volume 1687.438051
_symmetry_space_group_name_H-M "C M"
_symmetry_group_IT_number 8
_symmetry_cell_setting 'monoclinic'
loop_
_space_group_symop_operation_xyz
x,y,z
x,-y,z
1/2+x,1/2+y,z
1/2+x,1/2-y,z
loop_
_atom_site_type_symbol
_atom_site_label
_atom_site_fract_x
_atom_site_fract_y
_atom_site_fract_z
Si Si1 0.191480 0.681255 0.224950
Si Si2 0.377265 0.179108 0.785682
Si Si3 0.447209 0.817830 0.228246
Si Si4 0.906738 0.819829 0.083518
Si Si5 0.549557 0.816411 0.502267
Si Si6 0.653986 0.179502 0.076021
Si Si7 0.698409 0.183427 0.504233
Si Si8 0.547091 0.317848 0.811685
O O1 0.233064 0.500000 0.258614
O O2 0.356343 0.771533 0.371202
O O3 0.146087 0.734539 0.131083
O O4 0.032037 0.717288 0.142332
O O5 0.181569 0.237552 0.642943
O O6 0.482516 0.281302 0.822388
O O7 0.383357 0.000000 0.771632
O O8 0.465253 0.200159 0.909268
O O9 0.435839 0.716178 0.167074
O O10 0.283630 0.790589 0.142307
O O11 0.614797 0.757978 0.386494
O O12 0.457840 0.000000 0.221209
O O13 0.943076 0.000000 0.099921
O O14 0.713415 0.780520 0.921668
O O15 0.596029 0.749264 0.478402
O O16 0.574107 0.000000 0.524840
O O17 0.714783 0.000000 0.116570
O O18 0.898445 0.228747 0.657898
O O19 0.675594 0.000000 0.490168
O O20 0.592616 0.500000 0.843055
#
# Coordination Sequence:
#
# PCOD8053070 Si02
#       8
#     4   4   4   4   4   4   4   4
#     4  11  23  40  60  84 114 154 194 235 289 346
#     4  10  19  33  55  86 118 149 185 234 286 338
#     4  11  20  35  60  87 114 149 191 235 285 341
#     4  12  25  40  56  82 118 155 193 238 286 343
#     4  10  19  35  56  84 117 151 189 234 282 337
#     4  10  21  36  57  87 118 145 188 242 286 333
#     4   8  17  32  55  86 115 142 183 233 282 333
#     4  10  19  35  57  84 114 149 189 235 286 341
#
# _framework density 18.963660000000001
#
# number of rings (size 3 to 8) (size 9 to 14) (size 15 to 20)
#    0.000    1.750    2.500    3.750    0.000    1.000 
#    0.000    3.125    0.000    3.000    0.000    0.000 
#    0.000    0.000    0.000    0.000    0.000    0.000 
#
# Total GULP energy -198417.599203 kJ/mol
# GULP energy per Si atom -12401.099950 kJ/mol
# Density = 1.892050 g / cm^3
# Si number density = 18.963660 Si / 1000 Ang^3
#
#
#
# Elastic Constant Matrix: (Units=GPa)
#
#
# Indices 1 2 3 4 5 6 
#
# 1 67.4153 7.1770 42.4513 -0.0067 2.6900 0.0001
# 2 7.1770 53.4872 22.9492 -0.0079 -8.6225 0.0014
# 3 42.4513 22.9492 149.1037 -0.0174 -8.6488 0.0029
# 4 -0.0067 -0.0079 -0.0174 30.1429 0.0068 4.9902
# 5 2.6900 -8.6225 -8.6488 0.0068 22.2183 0.0006
# 6 0.0001 0.0014 0.0029 4.9902 0.0006 23.8152
#
#
#
# Elastic Compliance Matrix: (Units=1/GPa)
#
#
# Indices 1 2 3 4 5 6 
#
# 1 0.018523 -0.000925 -0.005404 0.000002 -0.004705 0.000000
# 2 -0.000925 0.021096 -0.002560 0.000002 0.007302 -0.000002
# 3 -0.005404 -0.002560 0.008819 0.000003 0.003094 -0.000002
# 4 0.000002 0.000002 0.000003 0.034367 -0.000008 -0.007201
# 5 -0.004705 0.007302 0.003094 -0.000008 0.049616 0.000000
# 6 0.000000 -0.000002 -0.000002 -0.007201 0.000000 0.043499
#
#
# Mechanical properties :
#
#
# Convention : Reuss Voigt Hill
#
# Bulk Modulus (GPa) = 32.61722 46.12902 39.37312
# Shear Modulus (GPa) = 24.51971 28.39719 26.45845
#
# Velocity S-wave (km/s) = 3.59971 3.87389 3.73931
# Velocity P-wave (km/s) = 5.87490 6.66237 6.28099
#
# Compressibility (1/GPa) = 0.03065865
#
# Stress axis : x y z
#
# Youngs Moduli (GPa) = 53.98798 47.40290 113.39401
#
# Poissons Ratio (x) = 0.04386 0.61279
# Poissons Ratio (y) = 0.04995 0.29028
# Poissons Ratio (z) = 0.29176 0.12135
#
# Static dielectric constant tensor:
#      x y z
#    x 3.315310 0.000000 -0.301920 
#    y 0.000000 3.394620 0.000000 
#    z -0.301920 0.000000 3.890200 
# 
# 
# High freq. dielectric constant tensor:
#      x y z
#    x 1.700710 0.000000 -0.011800 
#    y 0.000000 1.737290 0.000000 
#    z -0.011800 0.000000 1.755050 
# 
# From -- ./inp_files/31357.got.cif
#   From: 2010.03.12/outbox.cif.g09.slc.cpg/sg8_16_cif.got.tgz:31357.got - 2010.03.31 10:45:26.
