data_PCOD8053601
_publ_section_title
;
Structure prediction by ZEFSAII (Michael W. Deem and Ramdas Pophale) SiO2 
 PCOD8053601
Probable space group: C M
;
_chemical_formula_sum "Si O2"
_cell_formula_units_Z 24
_cell_length_a 14.196570
_cell_length_b 19.802080
_cell_length_c 6.412708
_cell_angle_alpha 90.000000
_cell_angle_beta 43.448386
_cell_angle_gamma 90.000000
_cell_volume 1239.753285
_symmetry_space_group_name_H-M "C M"
_symmetry_group_IT_number 8
_symmetry_cell_setting 'monoclinic'
loop_
_space_group_symop_operation_xyz
x,y,z
x,-y,z
1/2+x,1/2+y,z
1/2+x,1/2-y,z
loop_
_atom_site_type_symbol
_atom_site_label
_atom_site_fract_x
_atom_site_fract_y
_atom_site_fract_z
Si Si1 0.401560 0.136019 0.934880
Si Si2 0.215651 0.706571 0.873434
Si Si3 0.012967 0.238081 0.533665
Si Si4 0.055136 0.425055 0.044054
Si Si5 0.278920 0.924345 0.743163
Si Si6 0.686941 0.684799 0.593295
O O1 0.486139 0.186950 0.657726
O O2 0.293074 0.095802 0.963827
O O3 0.505700 0.085414 0.884376
O O4 0.325078 0.176884 0.239283
O O5 0.377268 0.705720 0.655768
O O6 0.192836 0.741825 0.688355
O O7 0.166765 0.629550 0.936591
O O8 0.135285 0.752450 0.171002
O O9 0.058260 0.186252 0.643192
O O10 0.120401 0.500000 0.953647
O O11 0.928658 0.419182 0.404206
O O12 0.175241 0.874826 0.784755
O O13 0.219072 0.000000 0.822868
#
# Coordination Sequence:
#
# PCOD8053601 Si02
#       6
#     4   4   4   4   4   4
#     4  11  19  37  61  91 119 153 201 250 296 347
#     4  12  23  39  60  90 126 157 201 252 301 358
#     4  12  22  36  60  92 118 158 203 250 299 352
#     4  10  21  36  59  90 122 160 200 247 301 356
#     4  10  20  37  61  90 124 157 200 250 299 355
#     4  11  22  37  59  91 120 155 203 243 303 352
#
# _framework density 19.358691
#
# number of rings (size 3 to 8) (size 9 to 14) (size 15 to 20)
#    0.000    1.000    6.667    1.500    0.000    0.667 
#    0.000    0.833    0.000    1.000    0.000    0.000 
#    0.000    0.000    0.000    0.000    0.000    0.000 
#
# Total GULP energy -148787.540771 kJ/mol
# GULP energy per Si atom -12398.961731 kJ/mol
# Density = 1.931463 g / cm^3
# Si number density = 19.358691 Si / 1000 Ang^3
#
#
#
# Elastic Constant Matrix: (Units=GPa)
#
#
# Indices 1 2 3 4 5 6 
#
# 1 112.3055 39.0941 10.7256 0.0000 9.1749 0.0000
# 2 39.0941 127.9728 12.9728 0.0000 6.0001 0.0000
# 3 10.7256 12.9728 36.4684 0.0000 10.0609 0.0000
# 4 0.0000 0.0000 0.0000 18.9907 0.0000 -0.0505
# 5 9.1749 6.0001 10.0609 0.0000 28.7280 0.0000
# 6 0.0000 0.0000 0.0000 -0.0505 0.0000 39.5714
#
#
#
# Elastic Compliance Matrix: (Units=1/GPa)
#
#
# Indices 1 2 3 4 5 6 
#
# 1 0.010216 -0.002879 -0.001380 0.000000 -0.002178 0.000000
# 2 -0.002879 0.008933 -0.002291 0.000000 -0.000144 0.000000
# 3 -0.001380 -0.002291 0.031424 0.000000 -0.010086 0.000000
# 4 0.000000 0.000000 0.000000 0.052657 0.000000 0.000067
# 5 -0.002178 -0.000144 -0.010086 0.000000 0.039067 0.000000
# 6 0.000000 0.000000 0.000000 0.000067 0.000000 0.025271
#
#
# Mechanical properties :
#
#
# Convention : Reuss Voigt Hill
#
# Bulk Modulus (GPa) = 26.68537 44.70348 35.69443
# Shear Modulus (GPa) = 25.88539 31.72166 28.80352
#
# Velocity S-wave (km/s) = 3.66067 4.05239 3.86150
# Velocity P-wave (km/s) = 5.62867 6.71104 6.19355
#
# Compressibility (1/GPa) = 0.03747372
#
# Stress axis : x y z
#
# Youngs Moduli (GPa) = 97.88406 111.94895 31.82253
#
# Poissons Ratio (x) = 0.32229 0.04390
# Poissons Ratio (y) = 0.28180 0.07291
# Poissons Ratio (z) = 0.13504 0.25650
#
# Static dielectric constant tensor:
#      x y z
#    x 3.671930 0.000000 0.312950 
#    y 0.000000 3.624540 0.000000 
#    z 0.312950 0.000000 3.423780 
# 
# 
# High freq. dielectric constant tensor:
#      x y z
#    x 1.755220 0.000000 0.028850 
#    y 0.000000 1.748230 0.000000 
#    z 0.028850 0.000000 1.737590 
# 
# From -- ./inp_files/2717.got.cif
#   From: 2010.03.12/outbox.cif.g09.slc.cpg/sg8_2_cif.got.tgz:2717.got - 2010.03.31 10:45:26.
