data_PCOD8053285
_publ_section_title
;
Structure prediction by ZEFSAII (Michael W. Deem and Ramdas Pophale) SiO2 
 PCOD8053285
Probable space group: C M
;
_chemical_formula_sum "Si O2"
_cell_formula_units_Z 24
_cell_length_a 20.023053
_cell_length_b 8.931401
_cell_length_c 18.723059
_cell_angle_alpha 90.000000
_cell_angle_beta 158.113537
_cell_angle_gamma 90.000000
_cell_volume 1248.147651
_symmetry_space_group_name_H-M "C M"
_symmetry_group_IT_number 8
_symmetry_cell_setting 'monoclinic'
loop_
_space_group_symop_operation_xyz
x,y,z
x,-y,z
1/2+x,1/2+y,z
1/2+x,1/2-y,z
loop_
_atom_site_type_symbol
_atom_site_label
_atom_site_fract_x
_atom_site_fract_y
_atom_site_fract_z
Si Si1 0.910850 0.673282 0.100450
Si Si2 0.565830 0.326196 0.670275
Si Si3 0.206426 0.823322 0.298370
Si Si4 0.921145 0.173631 0.260955
Si Si5 0.707214 0.677275 0.659236
Si Si6 0.609965 0.826650 0.058563
O O1 0.963986 0.500000 0.147584
O O2 0.932295 0.727346 0.202036
O O3 0.037583 0.765121 0.174212
O O4 0.707267 0.699948 0.873786
O O5 0.515708 0.500000 0.612111
O O6 0.388437 0.235505 0.515494
O O7 0.646134 0.261625 0.675766
O O8 0.200061 0.766612 0.211000
O O9 0.205281 0.000000 0.298670
O O10 0.726655 0.195917 0.103370
O O11 0.074703 0.236238 0.466322
O O12 0.953831 0.000000 0.274097
O O13 0.698306 0.500000 0.652048
O O14 0.909277 0.732030 0.843577
O O15 0.607944 0.000000 0.080547
#
# Coordination Sequence:
#
# PCOD8053285 Si02
#       6
#     4   4   4   4   4   4
#     4  11  24  42  63  87 123 163 201 247 301 360
#     4  10  20  39  65  88 116 160 208 245 292 359
#     4  12  24  37  60  93 125 155 199 254 303 354
#     4  10  21  37  59  89 125 157 194 246 301 356
#     4   9  17  34  62  89 114 154 202 241 286 353
#     4  10  19  37  63  88 117 159 204 241 291 360
#
# _framework density 19.228494999999999
#
# number of rings (size 3 to 8) (size 9 to 14) (size 15 to 20)
#    0.000    1.667    3.333    2.000    0.000    3.333 
#    0.000    2.500    0.000    0.000    0.000    0.000 
#    0.000    0.000    0.000    0.000    0.000    0.000 
#
# Total GULP energy -148844.246289 kJ/mol
# GULP energy per Si atom -12403.687191 kJ/mol
# Density = 1.918473 g / cm^3
# Si number density = 19.228495 Si / 1000 Ang^3
#
#
#
# Elastic Constant Matrix: (Units=GPa)
#
#
# Indices 1 2 3 4 5 6 
#
# 1 62.3104 28.2404 10.6170 0.0004 -13.4047 0.0002
# 2 28.2404 88.6855 34.4897 0.0069 1.3344 0.0014
# 3 10.6170 34.4897 97.4629 0.0089 -1.3565 0.0017
# 4 0.0004 0.0069 0.0089 16.4634 0.0015 -2.3141
# 5 -13.4047 1.3344 -1.3565 0.0015 35.1678 -0.0001
# 6 0.0002 0.0014 0.0017 -2.3141 -0.0001 32.4602
#
#
#
# Elastic Compliance Matrix: (Units=1/GPa)
#
#
# Indices 1 2 3 4 5 6 
#
# 1 0.020894 -0.006884 0.000275 0.000001 0.008236 0.000000
# 2 -0.006884 0.015359 -0.004733 -0.000003 -0.003389 -0.000001
# 3 0.000275 -0.004733 0.011915 -0.000005 0.000744 -0.000001
# 4 0.000001 -0.000003 -0.000005 0.061356 -0.000002 0.004374
# 5 0.008236 -0.003389 0.000744 -0.000002 0.031732 0.000000
# 6 0.000000 -0.000001 -0.000001 0.004374 0.000000 0.031119
#
#
# Mechanical properties :
#
#
# Convention : Reuss Voigt Hill
#
# Bulk Modulus (GPa) = 39.23919 43.90588 41.57254
# Shear Modulus (GPa) = 24.56360 28.49238 26.52799
#
# Velocity S-wave (km/s) = 3.57803 3.85356 3.71835
# Velocity P-wave (km/s) = 6.12543 6.53324 6.33262
#
# Compressibility (1/GPa) = 0.02548472
#
# Stress axis : x y z
#
# Youngs Moduli (GPa) = 47.86161 65.10685 83.92435
#
# Poissons Ratio (x) = 0.44819 -0.02305
# Poissons Ratio (y) = 0.32948 0.39718
# Poissons Ratio (z) = -0.01315 0.30812
#
# Static dielectric constant tensor:
#      x y z
#    x 3.431490 0.000000 0.063900 
#    y 0.000000 3.298820 0.000000 
#    z 0.063900 0.000000 3.841980 
# 
# 
# High freq. dielectric constant tensor:
#      x y z
#    x 1.742290 0.000000 0.004030 
#    y 0.000000 1.724250 0.000000 
#    z 0.004030 0.000000 1.765840 
# 
# From -- ./inp_files/15563.got.cif
#   From: 2010.03.12/outbox.cif.g09.slc.cpg/sg8_8_cif.got.tgz:15563.got - 2010.03.31 10:45:26.
