data_PCOD8053610
_publ_section_title
;
Structure prediction by ZEFSAII (Michael W. Deem and Ramdas Pophale) SiO2 
 PCOD8053610
Probable space group: C M
;
_chemical_formula_sum "Si O2"
_cell_formula_units_Z 32
_cell_length_a 23.797023
_cell_length_b 8.553476
_cell_length_c 14.055053
_cell_angle_alpha 90.000000
_cell_angle_beta 33.061133
_cell_angle_gamma 90.000000
_cell_volume 1560.699294
_symmetry_space_group_name_H-M "C M"
_symmetry_group_IT_number 8
_symmetry_cell_setting 'monoclinic'
loop_
_space_group_symop_operation_xyz
x,y,z
x,-y,z
1/2+x,1/2+y,z
1/2+x,1/2-y,z
loop_
_atom_site_type_symbol
_atom_site_label
_atom_site_fract_x
_atom_site_fract_y
_atom_site_fract_z
Si Si1 0.871040 0.316741 0.110740
Si Si2 0.790672 0.319848 0.908880
Si Si3 0.502008 0.815015 0.102203
Si Si4 0.461145 0.318893 0.791872
Si Si5 0.651031 0.820236 0.429653
Si Si6 0.104593 0.679109 0.280672
Si Si7 0.911371 0.682895 0.428714
Si Si8 0.234027 0.317203 0.790566
O O1 0.888581 0.500000 0.070283
O O2 0.937244 0.250580 0.105105
O O3 0.751627 0.284868 0.300818
O O4 0.906537 0.226686 0.967043
O O5 0.822706 0.500000 0.873329
O O6 0.883759 0.216152 0.815706
O O7 0.773356 0.280268 0.824135
O O8 0.687827 0.290995 0.114874
O O9 0.454786 0.750777 0.267651
O O10 0.496216 0.000000 0.112608
O O11 0.619790 0.759401 0.925306
O O12 0.488366 0.500000 0.753742
O O13 0.567672 0.225269 0.627685
O O14 0.600237 0.788690 0.398942
O O15 0.682848 0.000000 0.396903
O O16 0.135675 0.500000 0.213615
O O17 0.993235 0.717594 0.395843
O O18 0.885271 0.500000 0.459455
O O19 0.807734 0.778860 0.597381
O O20 0.234417 0.500000 0.815049
#
# Coordination Sequence:
#
# PCOD8053610 Si02
#       8
#     4   4   4   4   4   4   4   4
#     4  11  23  42  65  92 125 164 212 261 311 366
#     4  12  23  37  62  94 126 160 202 252 312 374
#     4   9  21  41  64  87 122 166 206 254 308 361
#     4  12  25  42  64  92 126 166 210 256 309 370
#     4  11  23  40  64  95 127 162 203 254 316 373
#     4  10  20  37  63  89 124 160 195 245 313 376
#     4  10  20  39  63  90 123 161 201 248 308 367
#     4  11  22  40  63  91 125 163 205 250 305 367
#
# _framework density 20.503627999999999
#
# number of rings (size 3 to 8) (size 9 to 14) (size 15 to 20)
#    0.000    1.250    2.500    4.125    0.000    3.000 
#    0.000    6.250    0.000    0.000    0.000    0.000 
#    0.000    0.000    0.000    0.000    0.000    0.000 
#
# Total GULP energy -198501.401643 kJ/mol
# GULP energy per Si atom -12406.337603 kJ/mol
# Density = 2.045696 g / cm^3
# Si number density = 20.503628 Si / 1000 Ang^3
#
#
#
# Elastic Constant Matrix: (Units=GPa)
#
#
# Indices 1 2 3 4 5 6 
#
# 1 116.9055 20.4234 38.5017 0.0000 -21.9766 0.0000
# 2 20.4234 60.3283 16.4810 0.0013 2.1606 -0.0001
# 3 38.5017 16.4810 136.4948 0.0004 -12.4024 0.0000
# 4 0.0000 0.0013 0.0004 35.6642 0.0001 -0.6327
# 5 -21.9766 2.1606 -12.4024 0.0001 12.2608 -0.0001
# 6 0.0000 -0.0001 0.0000 -0.6327 -0.0001 20.7405
#
#
#
# Elastic Compliance Matrix: (Units=1/GPa)
#
#
# Indices 1 2 3 4 5 6 
#
# 1 0.014920 -0.005704 -0.001099 0.000000 0.026636 0.000000
# 2 -0.005704 0.019683 -0.002215 -0.000001 -0.015934 0.000000
# 3 -0.001099 -0.002215 0.008546 0.000000 0.007064 0.000000
# 4 0.000000 -0.000001 0.000000 0.028055 0.000000 0.000856
# 5 0.026636 -0.015934 0.007064 0.000000 0.139257 0.000001
# 6 0.000000 0.000000 0.000000 0.000856 0.000001 0.048241
#
#
# Mechanical properties :
#
#
# Convention : Reuss Voigt Hill
#
# Bulk Modulus (GPa) = 39.82492 51.61565 45.72028
# Shear Modulus (GPa) = 17.53710 29.62127 23.57918
#
# Velocity S-wave (km/s) = 2.92775 3.80502 3.39484
# Velocity P-wave (km/s) = 5.55828 6.67329 6.14115
#
# Compressibility (1/GPa) = 0.02510991
#
# Stress axis : x y z
#
# Youngs Moduli (GPa) = 67.02537 50.80523 117.01663
#
# Poissons Ratio (x) = 0.28982 0.12866
# Poissons Ratio (y) = 0.38234 0.25924
# Poissons Ratio (z) = 0.07369 0.11255
#
# Static dielectric constant tensor:
#      x y z
#    x 3.838220 0.000000 -0.015590 
#    y 0.000000 3.529430 0.000000 
#    z -0.015590 0.000000 3.809000 
# 
# 
# High freq. dielectric constant tensor:
#      x y z
#    x 1.798590 0.000000 -0.000900 
#    y 0.000000 1.790240 0.000000 
#    z -0.000900 0.000000 1.815180 
# 
# From -- ./inp_files/26566.got.cif
#   From: 2010.03.12/outbox.cif.g09.slc.cpg/sg8_14_cif.got.tgz:26566.got - 2010.03.31 10:45:26.
