data_PCOD8053649
_publ_section_title
;
Structure prediction by ZEFSAII (Michael W. Deem and Ramdas Pophale) SiO2 
 PCOD8053649
Probable space group: C M
;
_chemical_formula_sum "Si O2"
_cell_formula_units_Z 24
_cell_length_a 14.909048
_cell_length_b 8.467731
_cell_length_c 14.514023
_cell_angle_alpha 90.000000
_cell_angle_beta 139.592957
_cell_angle_gamma 90.000000
_cell_volume 1187.744011
_symmetry_space_group_name_H-M "C M"
_symmetry_group_IT_number 8
_symmetry_cell_setting 'monoclinic'
loop_
_space_group_symop_operation_xyz
x,y,z
x,-y,z
1/2+x,1/2+y,z
1/2+x,1/2-y,z
loop_
_atom_site_type_symbol
_atom_site_label
_atom_site_fract_x
_atom_site_fract_y
_atom_site_fract_z
Si Si1 0.228180 0.815395 0.245560
Si Si2 0.907233 0.313013 0.556029
Si Si3 0.937361 0.183059 0.274530
Si Si4 0.449573 0.817624 0.084751
Si Si5 0.718788 0.185206 0.776683
Si Si6 0.229033 0.813660 0.588038
O O1 0.317292 0.746238 0.400692
O O2 0.310200 0.783291 0.215346
O O3 0.082695 0.725074 0.127278
O O4 0.198294 0.000000 0.232997
O O5 0.906011 0.500000 0.547646
O O6 0.840661 0.256980 0.599860
O O7 0.063417 0.250075 0.670971
O O8 0.952256 0.212828 0.178251
O O9 0.077588 0.236065 0.434774
O O10 0.907421 0.000000 0.267879
O O11 0.451372 0.000000 0.113779
O O12 0.313152 0.781193 0.920324
O O13 0.765105 0.220263 0.708763
O O14 0.732009 0.000000 0.807418
O O15 0.239084 0.000000 0.613444
#
# Coordination Sequence:
#
# PCOD8053649 Si02
#       6
#     4   4   4   4   4   4
#     4  11  21  40  66  95 126 163 211 262 314 374
#     4   9  19  37  63  91 121 159 204 253 309 370
#     4  11  22  39  65  96 128 167 209 256 313 376
#     4  12  26  43  62  91 129 171 214 262 315 371
#     4  11  23  41  63  91 126 165 206 259 320 375
#     4  10  20  38  63  92 124 161 206 256 309 376
#
# _framework density 20.206374
#
# number of rings (size 3 to 8) (size 9 to 14) (size 15 to 20)
#    0.000    1.333    3.333    3.000    0.000    2.000 
#    0.000    6.667    0.000    0.000    0.000    0.000 
#    0.000    0.000    0.000    0.000    0.000    0.000 
#
# Total GULP energy -148878.678080 kJ/mol
# GULP energy per Si atom -12406.556507 kJ/mol
# Density = 2.016038 g / cm^3
# Si number density = 20.206374 Si / 1000 Ang^3
#
#
#
# Elastic Constant Matrix: (Units=GPa)
#
#
# Indices 1 2 3 4 5 6 
#
# 1 102.0259 19.2675 10.5675 0.0000 7.5731 0.0000
# 2 19.2675 50.5430 28.7523 0.0000 4.9854 0.0000
# 3 10.5675 28.7523 85.1584 0.0000 5.8047 0.0000
# 4 0.0000 0.0000 0.0000 27.5414 0.0000 -4.0535
# 5 7.5731 4.9854 5.8047 0.0000 35.6967 0.0000
# 6 0.0000 0.0000 0.0000 -4.0535 0.0000 34.1782
#
#
#
# Elastic Compliance Matrix: (Units=1/GPa)
#
#
# Indices 1 2 3 4 5 6 
#
# 1 0.010666 -0.003972 0.000136 0.000000 -0.001730 0.000000
# 2 -0.003972 0.026125 -0.008228 0.000000 -0.001468 0.000000
# 3 0.000136 -0.008228 0.014589 0.000000 -0.001252 0.000000
# 4 0.000000 0.000000 0.000000 0.036954 0.000000 0.004383
# 5 -0.001730 -0.001468 -0.001252 0.000000 0.028789 0.000000
# 6 0.000000 0.000000 0.000000 0.004383 0.000000 0.029778
#
#
# Mechanical properties :
#
#
# Convention : Reuss Voigt Hill
#
# Bulk Modulus (GPa) = 36.69584 39.43355 38.06470
# Shear Modulus (GPa) = 27.76018 31.42593 29.59305
#
# Velocity S-wave (km/s) = 3.71055 3.94794 3.83108
# Velocity P-wave (km/s) = 6.04628 6.35133 6.20068
#
# Compressibility (1/GPa) = 0.02725105
#
# Stress axis : x y z
#
# Youngs Moduli (GPa) = 93.75580 38.27799 68.54363
#
# Poissons Ratio (x) = 0.15206 -0.00929
# Poissons Ratio (y) = 0.37244 0.56395
# Poissons Ratio (z) = -0.01271 0.31493
#
# Static dielectric constant tensor:
#      x y z
#    x 3.785160 0.000000 0.079990 
#    y 0.000000 3.416330 0.000000 
#    z 0.079990 0.000000 3.667370 
# 
# 
# High freq. dielectric constant tensor:
#      x y z
#    x 1.802340 0.000000 0.003590 
#    y 0.000000 1.777030 0.000000 
#    z 0.003590 0.000000 1.785790 
# 
# From -- ./inp_files/12073.got.cif
#   From: 2010.03.12/outbox.cif.g09.slc.cpg/sg8_7_cif.got.tgz:12073.got - 2010.03.31 10:45:26.
