data_PCOD8053896
_publ_section_title
;
Structure prediction by ZEFSAII (Michael W. Deem and Ramdas Pophale) SiO2 
 PCOD8053896
Probable space group: C M
;
_chemical_formula_sum "Si O2"
_cell_formula_units_Z 28
_cell_length_a 9.184076
_cell_length_b 26.274696
_cell_length_c 9.457410
_cell_angle_alpha 90.000000
_cell_angle_beta 145.155216
_cell_angle_gamma 90.000000
_cell_volume 1303.921933
_symmetry_space_group_name_H-M "C M"
_symmetry_group_IT_number 8
_symmetry_cell_setting 'monoclinic'
loop_
_space_group_symop_operation_xyz
x,y,z
x,-y,z
1/2+x,1/2+y,z
1/2+x,1/2-y,z
loop_
_atom_site_type_symbol
_atom_site_label
_atom_site_fract_x
_atom_site_fract_y
_atom_site_fract_z
Si Si1 0.698290 0.557845 0.381730
Si Si2 0.524099 0.856948 0.239269
Si Si3 0.161913 0.056785 0.894803
Si Si4 0.283683 0.690690 0.702784
Si Si5 0.796826 0.915398 0.820512
Si Si6 0.702170 0.291925 0.804790
Si Si7 0.532885 0.389146 0.525224
O O1 0.690397 0.500000 0.429305
O O2 0.577489 0.595466 0.400636
O O3 0.997634 0.571637 0.600948
O O4 0.503293 0.561477 0.094689
O O5 0.568433 0.830493 0.425390
O O6 0.741293 0.890749 0.339879
O O7 0.305789 0.898489 0.094590
O O8 0.467510 0.811268 0.082468
O O9 0.177484 0.070601 0.741587
O O10 0.874345 0.061002 0.728806
O O11 0.274097 0.000000 0.006048
O O12 0.342153 0.645388 0.858618
O O13 0.518333 0.707632 0.793832
O O14 0.197672 0.736958 0.732055
O O15 0.624632 0.331357 0.620975
#
# Coordination Sequence:
#
# PCOD8053896 Si02
#       7
#     4   4   4   4   4   4   4
#     4  12  28  46  70 105 146 190 236 290 358 418
#     4  10  21  45  66 100 139 173 241 288 348 425
#     4  11  22  42  72  98 133 186 234 291 353 421
#     4  11  24  43  68 100 134 181 232 291 354 421
#     4  12  26  47  69 102 147 183 235 295 353 426
#     4  10  24  42  68 101 131 181 234 288 358 419
#     4  10  24  45  67 100 138 180 237 293 342 428
#
# _framework density 21.473678
#
# number of rings (size 3 to 8) (size 9 to 14) (size 15 to 20)
#    0.000    1.143    4.286    2.571    6.000    4.571 
#    0.000    0.000    0.000    0.000    0.000    0.000 
#    0.000    0.000    0.000    0.000    0.000    0.000 
#
# Total GULP energy -173459.037041 kJ/mol
# GULP energy per Si atom -12389.931217 kJ/mol
# Density = 2.142480 g / cm^3
# Si number density = 21.473678 Si / 1000 Ang^3
#
#
#
# Elastic Constant Matrix: (Units=GPa)
#
#
# Indices 1 2 3 4 5 6 
#
# 1 58.7325 41.9541 31.2147 0.0000 -2.4954 0.0000
# 2 41.9541 156.7680 29.0897 0.0000 5.2778 0.0000
# 3 31.2147 29.0897 94.4662 0.0000 14.8502 0.0000
# 4 0.0000 0.0000 0.0000 21.2692 0.0000 -9.1041
# 5 -2.4954 5.2778 14.8502 0.0000 18.9930 0.0000
# 6 0.0000 0.0000 0.0000 -9.1041 0.0000 37.8575
#
#
#
# Elastic Compliance Matrix: (Units=1/GPa)
#
#
# Indices 1 2 3 4 5 6 
#
# 1 0.026376 -0.005828 -0.008802 0.000000 0.011967 0.000000
# 2 -0.005828 0.008055 -0.000094 0.000000 -0.002931 0.000000
# 3 -0.008802 -0.000094 0.015621 0.000000 -0.013344 0.000000
# 4 0.000000 0.000000 0.000000 0.052411 0.000000 0.012604
# 5 0.011967 -0.002931 -0.013344 0.000000 0.065471 0.000000
# 6 0.000000 0.000000 0.000000 0.012604 0.000000 0.029446
#
#
# Mechanical properties :
#
#
# Convention : Reuss Voigt Hill
#
# Bulk Modulus (GPa) = 48.53560 57.16484 52.85022
# Shear Modulus (GPa) = 21.39528 29.47114 25.43321
#
# Velocity S-wave (km/s) = 3.15992 3.70865 3.44523
# Velocity P-wave (km/s) = 5.99708 6.70951 6.36327
#
# Compressibility (1/GPa) = 0.02060343
#
# Stress axis : x y z
#
# Youngs Moduli (GPa) = 37.91293 124.15117 64.01702
#
# Poissons Ratio (x) = 0.72360 0.56348
# Poissons Ratio (y) = 0.22097 0.00600
# Poissons Ratio (z) = 0.33371 0.01164
#
# Static dielectric constant tensor:
#      x y z
#    x 3.742300 0.000000 0.123000 
#    y 0.000000 4.056120 0.000000 
#    z 0.123000 0.000000 4.032530 
# 
# 
# High freq. dielectric constant tensor:
#      x y z
#    x 1.838720 0.000000 0.002610 
#    y 0.000000 1.852480 0.000000 
#    z 0.002610 0.000000 1.842480 
# 
# From -- ./inp_files/9236.got.cif
#   From: 2010.03.12/outbox.cif.g09.slc.cpg/sg8_5_cif.got.tgz:9236.got - 2010.03.31 10:45:26.
