data_PCOD8053893
_publ_section_title
;
Structure prediction by ZEFSAII (Michael W. Deem and Ramdas Pophale) SiO2 
 PCOD8053893
Probable space group: C M
;
_chemical_formula_sum "Si O2"
_cell_formula_units_Z 32
_cell_length_a 9.378675
_cell_length_b 29.817888
_cell_length_c 11.874714
_cell_angle_alpha 90.000000
_cell_angle_beta 25.583938
_cell_angle_gamma 90.000000
_cell_volume 1434.026800
_symmetry_space_group_name_H-M "C M"
_symmetry_group_IT_number 8
_symmetry_cell_setting 'monoclinic'
loop_
_space_group_symop_operation_xyz
x,y,z
x,-y,z
1/2+x,1/2+y,z
1/2+x,1/2-y,z
loop_
_atom_site_type_symbol
_atom_site_label
_atom_site_fract_x
_atom_site_fract_y
_atom_site_fract_z
Si Si1 0.418310 0.772028 0.978190
Si Si2 0.245467 0.113573 0.569358
Si Si3 0.311069 0.879353 0.278837
Si Si4 0.712106 0.096586 0.440858
Si Si5 0.819514 0.823247 0.516824
Si Si6 0.825275 0.195928 0.880120
Si Si7 0.382786 0.050954 0.885060
Si Si8 0.162007 0.550867 0.917477
O O1 0.513225 0.798925 0.795823
O O2 0.739773 0.771634 0.833189
O O3 0.331912 0.722371 0.993804
O O4 0.090574 0.788275 0.276712
O O5 0.426180 0.108113 0.321749
O O6 0.481232 0.096082 0.497174
O O7 0.161099 0.166837 0.636638
O O8 0.934176 0.080272 0.787537
O O9 0.947648 0.858204 0.521813
O O10 0.541036 0.840422 0.068356
O O11 0.320796 0.925174 0.198707
O O12 0.709198 0.147404 0.488712
O O13 0.074725 0.081966 0.140888
O O14 0.549222 0.064107 0.649078
O O15 0.251915 0.000000 0.969313
O O16 0.670370 0.053641 0.775908
O O17 0.179292 0.500000 0.948857
#
# Coordination Sequence:
#
# PCOD8053893 Si02
#       8
#     4   4   4   4   4   4   4   4
#     4  11  25  42  67  96 132 174 227 282 331 406
#     4  11  25  43  68 100 139 180 226 285 347 404
#     4  10  21  44  67  95 136 176 229 279 339 403
#     4  12  26  43  70 101 139 180 222 284 348 402
#     4  11  23  43  68  95 132 180 225 276 338 405
#     4  10  25  42  65  97 132 175 223 285 337 400
#     4  11  25  46  71 101 135 180 234 280 336 414
#     4  10  23  43  70  99 133 185 234 279 337 412
#
# _framework density 22.314784
#
# number of rings (size 3 to 8) (size 9 to 14) (size 15 to 20)
#    0.000    1.250    2.500    1.875    8.750    2.500 
#    0.000    0.000    0.000    0.000    0.000    0.000 
#    0.000    0.000    0.000    0.000    0.000    0.000 
#
# Total GULP energy -198256.707520 kJ/mol
# GULP energy per Si atom -12391.044220 kJ/mol
# Density = 2.226399 g / cm^3
# Si number density = 22.314784 Si / 1000 Ang^3
#
#
#
# Elastic Constant Matrix: (Units=GPa)
#
#
# Indices 1 2 3 4 5 6 
#
# 1 121.4122 40.8102 5.9281 0.0000 3.6951 0.0000
# 2 40.8102 104.0534 6.4126 0.0000 3.9435 0.0000
# 3 5.9281 6.4126 60.3104 0.0000 13.9577 0.0000
# 4 0.0000 0.0000 0.0000 20.6776 0.0000 10.3755
# 5 3.6951 3.9435 13.9577 0.0000 34.7547 0.0000
# 6 0.0000 0.0000 0.0000 10.3755 0.0000 36.1430
#
#
#
# Elastic Compliance Matrix: (Units=1/GPa)
#
#
# Indices 1 2 3 4 5 6 
#
# 1 0.009510 -0.003687 -0.000447 0.000000 -0.000413 0.000000
# 2 -0.003687 0.011121 -0.000682 0.000000 -0.000596 0.000000
# 3 -0.000447 -0.000682 0.018376 0.000000 -0.007255 0.000000
# 4 0.000000 0.000000 0.000000 0.056500 0.000000 -0.016219
# 5 -0.000413 -0.000596 -0.007255 0.000000 0.031798 0.000000
# 6 0.000000 0.000000 0.000000 -0.016219 0.000000 0.032324
#
#
# Mechanical properties :
#
#
# Convention : Reuss Voigt Hill
#
# Bulk Modulus (GPa) = 34.04196 43.56419 38.80307
# Shear Modulus (GPa) = 27.92460 33.82340 30.87400
#
# Velocity S-wave (km/s) = 3.54134 3.89747 3.72367
# Velocity P-wave (km/s) = 5.65773 6.31020 5.99285
#
# Compressibility (1/GPa) = 0.02937552
#
# Stress axis : x y z
#
# Youngs Moduli (GPa) = 105.15246 89.91999 54.41746
#
# Poissons Ratio (x) = 0.33150 0.02433
# Poissons Ratio (y) = 0.38766 0.03712
# Poissons Ratio (z) = 0.04702 0.06134
#
# Static dielectric constant tensor:
#      x y z
#    x 4.024890 0.000000 0.039270 
#    y 0.000000 4.123050 0.000000 
#    z 0.039270 0.000000 3.899040 
# 
# 
# High freq. dielectric constant tensor:
#      x y z
#    x 1.879810 0.000000 0.010120 
#    y 0.000000 1.884220 0.000000 
#    z 0.010120 0.000000 1.869000 
# 
# From -- ./inp_files/19462.got.cif
#   From: 2010.03.12/outbox.cif.g09.slc.cpg/sg8_10_cif.got.tgz:19462.got - 2010.03.31 10:45:26.
