data_PCOD8053458
_publ_section_title
;
Structure prediction by ZEFSAII (Michael W. Deem and Ramdas Pophale) SiO2 
 PCOD8053458
Probable space group: C M
;
_chemical_formula_sum "Si O2"
_cell_formula_units_Z 24
_cell_length_a 14.983314
_cell_length_b 9.216637
_cell_length_c 17.534345
_cell_angle_alpha 90.000000
_cell_angle_beta 31.910882
_cell_angle_gamma 90.000000
_cell_volume 1279.960935
_symmetry_space_group_name_H-M "C M"
_symmetry_group_IT_number 8
_symmetry_cell_setting 'monoclinic'
loop_
_space_group_symop_operation_xyz
x,y,z
x,-y,z
1/2+x,1/2+y,z
1/2+x,1/2-y,z
loop_
_atom_site_type_symbol
_atom_site_label
_atom_site_fract_x
_atom_site_fract_y
_atom_site_fract_z
Si Si1 0.450780 0.331087 0.426880
Si Si2 0.135873 0.332199 0.419090
Si Si3 0.131116 0.666048 0.755282
Si Si4 0.500324 0.666228 0.216756
Si Si5 0.318784 0.671307 0.923681
Si Si6 0.382271 0.668174 0.705497
O O1 0.488091 0.500000 0.414392
O O2 0.590352 0.240938 0.371743
O O3 0.264270 0.292262 0.592604
O O4 0.460368 0.287252 0.332143
O O5 0.084446 0.500000 0.454229
O O6 0.334436 0.311372 0.286617
O O7 0.037788 0.259741 0.560515
O O8 0.072508 0.500000 0.789461
O O9 0.214825 0.694588 0.776797
O O10 0.968568 0.767320 0.867153
O O11 0.562172 0.500000 0.169041
O O12 0.641840 0.769497 0.080887
O O13 0.316847 0.500000 0.932956
O O14 0.344523 0.721594 0.818015
O O15 0.435037 0.500000 0.664356
#
# Coordination Sequence:
#
# PCOD8053458 Si02
#       6
#     4   4   4   4   4   4
#     4   9  19  37  59  80 105 141 179 214 263 324
#     4  10  20  35  58  85 107 133 177 227 266 306
#     4   9  18  36  59  79 103 138 178 218 265 322
#     4  10  22  38  54  76 110 148 178 210 264 326
#     4  11  23  36  53  80 110 141 180 223 263 307
#     4   9  20  38  57  78 107 143 178 214 265 323
#
# _framework density 18.750571000000001
#
# number of rings (size 3 to 8) (size 9 to 14) (size 15 to 20)
#    0.000    2.333    0.000    3.000    0.000    8.667 
#    0.000    5.000    0.000    0.000    0.000    0.000 
#    0.000    0.000    0.000    0.000    0.000    0.000 
#
# Total GULP energy -148848.107773 kJ/mol
# GULP energy per Si atom -12404.008981 kJ/mol
# Density = 1.870789 g / cm^3
# Si number density = 18.750571 Si / 1000 Ang^3
#
#
#
# Elastic Constant Matrix: (Units=GPa)
#
#
# Indices 1 2 3 4 5 6 
#
# 1 68.1082 32.4805 23.4373 -0.0007 -12.7588 0.0002
# 2 32.4805 73.8077 37.0254 0.0004 -14.0565 0.0000
# 3 23.4373 37.0254 66.7302 0.0002 -17.5876 0.0001
# 4 -0.0007 0.0004 0.0002 36.3350 -0.0005 -2.4450
# 5 -12.7588 -14.0565 -17.5876 -0.0005 22.2445 0.0001
# 6 0.0002 0.0000 0.0001 -2.4450 0.0001 32.0459
#
#
#
# Elastic Compliance Matrix: (Units=1/GPa)
#
#
# Indices 1 2 3 4 5 6 
#
# 1 0.019493 -0.006671 -0.001654 0.000001 0.005657 0.000000
# 2 -0.006671 0.021435 -0.008828 0.000000 0.002738 0.000000
# 3 -0.001654 -0.008828 0.023679 0.000000 0.012195 0.000000
# 4 0.000001 0.000000 0.000000 0.027664 0.000001 0.002111
# 5 0.005657 0.002738 0.012195 0.000001 0.059572 0.000000
# 6 0.000000 0.000000 0.000000 0.002111 0.000000 0.031366
#
#
# Mechanical properties :
#
#
# Convention : Reuss Voigt Hill
#
# Bulk Modulus (GPa) = 33.00325 43.83696 38.42011
# Shear Modulus (GPa) = 21.96692 25.83860 23.90276
#
# Velocity S-wave (km/s) = 3.42648 3.71619 3.57427
# Velocity P-wave (km/s) = 5.77008 6.46863 6.12931
#
# Compressibility (1/GPa) = 0.03030004
#
# Stress axis : x y z
#
# Youngs Moduli (GPa) = 51.30076 46.65333 42.23152
#
# Poissons Ratio (x) = 0.31123 0.06984
# Poissons Ratio (y) = 0.34224 0.37283
# Poissons Ratio (z) = 0.08484 0.41187
#
# Static dielectric constant tensor:
#      x y z
#    x 3.520730 0.000000 0.082890 
#    y 0.000000 3.417020 0.000000 
#    z 0.082890 0.000000 3.320790 
# 
# 
# High freq. dielectric constant tensor:
#      x y z
#    x 1.738350 0.000000 -0.000530 
#    y 0.000000 1.728770 0.000000 
#    z -0.000530 0.000000 1.720670 
# 
# From -- ./inp_files/12063.got.cif
#   From: 2010.03.12/outbox.cif.g09.slc.cpg/sg8_7_cif.got.tgz:12063.got - 2010.03.31 10:45:26.
