data_PCOD8053107
_publ_section_title
;
Structure prediction by ZEFSAII (Michael W. Deem and Ramdas Pophale) SiO2 
 PCOD8053107
Probable space group: C M
;
_chemical_formula_sum "Si O2"
_cell_formula_units_Z 32
_cell_length_a 20.604950
_cell_length_b 8.837540
_cell_length_c 25.285014
_cell_angle_alpha 90.000000
_cell_angle_beta 157.575219
_cell_angle_gamma 90.000000
_cell_volume 1756.413601
_symmetry_space_group_name_H-M "C M"
_symmetry_group_IT_number 8
_symmetry_cell_setting 'monoclinic'
loop_
_space_group_symop_operation_xyz
x,y,z
x,-y,z
1/2+x,1/2+y,z
1/2+x,1/2-y,z
loop_
_atom_site_type_symbol
_atom_site_label
_atom_site_fract_x
_atom_site_fract_y
_atom_site_fract_z
Si Si1 0.475890 0.322315 0.620050
Si Si2 0.995386 0.673924 0.914512
Si Si3 0.826183 0.178065 0.887007
Si Si4 0.720098 0.325783 0.623886
Si Si5 0.669088 0.677515 0.192561
Si Si6 0.312439 0.177413 0.190729
Si Si7 0.694156 0.176816 0.492306
Si Si8 0.428181 0.821139 0.471308
O O1 0.494887 0.500000 0.629213
O O2 0.652869 0.256051 0.774752
O O3 0.330201 0.274752 0.551079
O O4 0.428594 0.258217 0.527647
O O5 0.999949 0.500000 0.935795
O O6 0.884553 0.765477 0.873641
O O7 0.906285 0.692909 0.790459
O O8 0.188164 0.738081 0.055586
O O9 0.796813 0.000000 0.860769
O O10 0.969357 0.219719 0.038879
O O11 0.660444 0.500000 0.581185
O O12 0.733072 0.272370 0.573598
O O13 0.588722 0.223304 0.556953
O O14 0.696240 0.500000 0.211477
O O15 0.766300 0.741563 0.214242
O O16 0.757294 0.737681 0.312457
O O17 0.509308 0.215918 0.328432
O O18 0.274874 0.000000 0.157482
O O19 0.704486 0.000000 0.514690
O O20 0.430485 0.000000 0.481821
#
# Coordination Sequence:
#
# PCOD8053107 Si02
#       8
#     4   4   4   4   4   4   4   4
#     4  11  23  38  55  82 116 148 186 234 279 326
#     4  10  20  33  52  83 116 141 175 232 283 323
#     4  10  19  34  56  80 109 149 186 223 275 335
#     4  11  22  35  55  85 116 141 182 236 279 325
#     4   8  16  31  54  82 106 133 183 232 267 320
#     4   9  17  34  56  79 106 143 188 227 270 331
#     4  10  22  40  59  78 111 153 189 228 278 335
#     4  11  20  35  59  83 110 146 187 228 277 335
#
# _framework density 18.218942999999999
#
# number of rings (size 3 to 8) (size 9 to 14) (size 15 to 20)
#    0.000    2.000    2.500    2.625    0.000    3.000 
#    0.000    3.125    0.000    6.000    0.000    0.000 
#    0.000    0.000    0.000    0.000    0.000    0.000 
#
# Total GULP energy -198381.120149 kJ/mol
# GULP energy per Si atom -12398.820009 kJ/mol
# Density = 1.817748 g / cm^3
# Si number density = 18.218943 Si / 1000 Ang^3
#
#
#
# Elastic Constant Matrix: (Units=GPa)
#
#
# Indices 1 2 3 4 5 6 
#
# 1 87.2255 39.6775 65.8230 -0.0405 7.1641 0.0041
# 2 39.6775 72.4441 52.1855 -0.0178 4.2779 -0.0043
# 3 65.8230 52.1855 163.5928 -0.0231 1.5659 0.0052
# 4 -0.0405 -0.0178 -0.0231 23.5958 0.0271 -0.7531
# 5 7.1641 4.2779 1.5659 0.0271 26.9165 0.0041
# 6 0.0041 -0.0043 0.0052 -0.7531 0.0041 25.4919
#
#
#
# Elastic Compliance Matrix: (Units=1/GPa)
#
#
# Indices 1 2 3 4 5 6 
#
# 1 0.018711 -0.006014 -0.005575 0.000026 -0.003700 -0.000002
# 2 -0.006014 0.020027 -0.003956 0.000003 -0.001352 0.000005
# 3 -0.005575 -0.003956 0.009603 -0.000005 0.001554 -0.000002
# 4 0.000026 0.000003 -0.000005 0.042420 -0.000050 0.001253
# 5 -0.003700 -0.001352 0.001554 -0.000050 0.038261 -0.000008
# 6 -0.000002 0.000005 -0.000002 0.001253 -0.000008 0.039265
#
#
# Mechanical properties :
#
#
# Convention : Reuss Voigt Hill
#
# Bulk Modulus (GPa) = 57.96418 70.95937 64.46177
# Shear Modulus (GPa) = 24.37518 26.23927 25.30723
#
# Velocity S-wave (km/s) = 3.66170 3.79914 3.73105
# Velocity P-wave (km/s) = 7.05421 7.63396 7.34980
#
# Compressibility (1/GPa) = 0.01725203
#
# Stress axis : x y z
#
# Youngs Moduli (GPa) = 53.44513 49.93282 104.13599
#
# Poissons Ratio (x) = 0.30028 0.58053
# Poissons Ratio (y) = 0.32140 0.41196
# Poissons Ratio (z) = 0.29794 0.19753
#
# Static dielectric constant tensor:
#      x y z
#    x 3.239110 0.000040 -0.164470 
#    y 0.000040 3.346230 -0.000030 
#    z -0.164470 -0.000030 3.803560 
# 
# 
# High freq. dielectric constant tensor:
#      x y z
#    x 1.672060 0.000000 -0.010350 
#    y 0.000000 1.706020 0.000000 
#    z -0.010350 0.000000 1.725770 
# 
# From -- ./inp_files/31339.got.cif
#   From: 2010.03.12/outbox.cif.g09.slc.cpg/sg8_16_cif.got.tgz:31339.got - 2010.03.31 10:45:26.
