data_PCOD8053558
_publ_section_title
;
Structure prediction by ZEFSAII (Michael W. Deem and Ramdas Pophale) SiO2 
 PCOD8053558
Probable space group: C M
;
_chemical_formula_sum "Si O2"
_cell_formula_units_Z 32
_cell_length_a 15.197084
_cell_length_b 8.677729
_cell_length_c 11.677337
_cell_angle_alpha 90.000000
_cell_angle_beta 92.616043
_cell_angle_gamma 90.000000
_cell_volume 1538.357651
_symmetry_space_group_name_H-M "C M"
_symmetry_group_IT_number 8
_symmetry_cell_setting 'monoclinic'
loop_
_space_group_symop_operation_xyz
x,y,z
x,-y,z
1/2+x,1/2+y,z
1/2+x,1/2-y,z
loop_
_atom_site_type_symbol
_atom_site_label
_atom_site_fract_x
_atom_site_fract_y
_atom_site_fract_z
Si Si1 0.082270 0.677830 0.761800
Si Si2 0.740252 0.179942 0.935286
Si Si3 0.709263 0.681077 0.177132
Si Si4 0.120282 0.821757 0.528856
Si Si5 0.325754 0.178500 0.547721
Si Si6 0.550221 0.181069 0.296005
Si Si7 0.387804 0.822769 0.801243
Si Si8 0.869818 0.180434 0.321369
O O1 0.094123 0.500000 0.726858
O O2 0.163089 0.733664 0.844924
O O3 0.076961 0.778303 0.646974
O O4 0.991980 0.701441 0.827488
O O5 0.835056 0.215858 0.886074
O O6 0.733240 0.000000 0.963895
O O7 0.731763 0.277107 0.049307
O O8 0.706550 0.500000 0.193503
O O9 0.615140 0.749265 0.205527
O O10 0.781460 0.746710 0.267262
O O11 0.222960 0.784178 0.541365
O O12 0.078157 0.721176 0.426468
O O13 0.101896 0.000000 0.500609
O O14 0.364840 0.228310 0.671384
O O15 0.375152 0.281430 0.456486
O O16 0.345106 0.000000 0.522037
O O17 0.454015 0.248530 0.262506
O O18 0.548012 0.000000 0.279919
O O19 0.359884 0.000000 0.819574
O O20 0.868297 0.000000 0.300054
#
# Coordination Sequence:
#
# PCOD8053558 Si02
#       8
#     4   4   4   4   4   4   4   4
#     4  10  22  39  63  92 127 167 210 257 315 377
#     4  11  24  42  63  91 124 162 212 267 317 373
#     4  12  26  46  68  91 124 168 217 268 319 376
#     4  11  21  36  63  97 131 166 210 259 314 377
#     4  10  20  36  62  94 132 170 208 256 314 377
#     4  12  25  43  67  95 130 170 212 261 317 380
#     4  10  21  40  63  90 124 167 209 254 313 378
#     4  12  25  42  67  98 130 166 210 262 321 384
#
# _framework density 20.801404999999999
#
# number of rings (size 3 to 8) (size 9 to 14) (size 15 to 20)
#    0.000    1.000    2.500    4.875    0.000    4.000 
#    0.000    3.750    0.000    0.000    0.000    0.000 
#    0.000    0.000    0.000    0.000    0.000    0.000 
#
# Total GULP energy -198526.180936 kJ/mol
# GULP energy per Si atom -12407.886309 kJ/mol
# Density = 2.075406 g / cm^3
# Si number density = 20.801405 Si / 1000 Ang^3
#
#
#
# Elastic Constant Matrix: (Units=GPa)
#
#
# Indices 1 2 3 4 5 6 
#
# 1 101.6582 36.7636 20.0298 0.0000 -28.3555 0.0000
# 2 36.7636 126.1790 28.3603 0.0000 -13.9041 0.0000
# 3 20.0298 28.3603 83.1908 0.0000 -20.2996 0.0000
# 4 0.0000 0.0000 0.0000 37.2555 0.0000 -4.5066
# 5 -28.3555 -13.9041 -20.2996 0.0000 24.2434 0.0000
# 6 0.0000 0.0000 0.0000 -4.5066 0.0000 34.6736
#
#
#
# Elastic Compliance Matrix: (Units=1/GPa)
#
#
# Indices 1 2 3 4 5 6 
#
# 1 0.015564 -0.002927 0.001612 0.000000 0.017875 0.000000
# 2 -0.002927 0.009324 -0.002519 0.000000 -0.000186 0.000000
# 3 0.001612 -0.002519 0.015834 0.000000 0.013699 0.000000
# 4 0.000000 0.000000 0.000000 0.027270 0.000000 0.003544
# 5 0.017875 -0.000186 0.013699 0.000000 0.073519 0.000000
# 6 0.000000 0.000000 0.000000 0.003544 0.000000 0.029301
#
#
# Mechanical properties :
#
#
# Convention : Reuss Voigt Hill
#
# Bulk Modulus (GPa) = 30.25423 53.48171 41.86797
# Shear Modulus (GPa) = 26.38554 34.29280 30.33917
#
# Velocity S-wave (km/s) = 3.56539 4.06468 3.82319
# Velocity P-wave (km/s) = 5.61474 6.91341 6.29764
#
# Compressibility (1/GPa) = 0.03305323
#
# Stress axis : x y z
#
# Youngs Moduli (GPa) = 64.25243 107.25133 63.15565
#
# Poissons Ratio (x) = 0.31396 -0.10183
# Poissons Ratio (y) = 0.18809 0.15909
# Poissons Ratio (z) = -0.10360 0.27017
#
# Static dielectric constant tensor:
#      x y z
#    x 3.988480 0.000000 -0.018770 
#    y 0.000000 3.781100 0.000000 
#    z -0.018770 0.000000 3.667420 
# 
# 
# High freq. dielectric constant tensor:
#      x y z
#    x 1.831090 0.000000 -0.005110 
#    y 0.000000 1.816060 0.000000 
#    z -0.005110 0.000000 1.808290 
# 
# From -- ./inp_files/21559.got.cif
#   From: 2010.03.12/outbox.cif.g09.slc.cpg/sg8_11_cif.got.tgz:21559.got - 2010.03.31 10:45:26.
