data_PCOD8053252
_publ_section_title
;
Structure prediction by ZEFSAII (Michael W. Deem and Ramdas Pophale) SiO2 
 PCOD8053252
Probable space group: C M
;
_chemical_formula_sum "Si O2"
_cell_formula_units_Z 32
_cell_length_a 15.398417
_cell_length_b 8.665630
_cell_length_c 25.637209
_cell_angle_alpha 90.000000
_cell_angle_beta 152.425763
_cell_angle_gamma 90.000000
_cell_volume 1583.550087
_symmetry_space_group_name_H-M "C M"
_symmetry_group_IT_number 8
_symmetry_cell_setting 'monoclinic'
loop_
_space_group_symop_operation_xyz
x,y,z
x,-y,z
1/2+x,1/2+y,z
1/2+x,1/2-y,z
loop_
_atom_site_type_symbol
_atom_site_label
_atom_site_fract_x
_atom_site_fract_y
_atom_site_fract_z
Si Si1 0.884190 0.817120 0.693170
Si Si2 0.080659 0.682622 0.169801
Si Si3 0.375190 0.678577 0.152332
Si Si4 0.794012 0.682547 0.931623
Si Si5 0.915363 0.682913 0.286556
Si Si6 0.811390 0.818018 0.539561
Si Si7 0.953916 0.678000 0.906717
Si Si8 0.168147 0.679552 0.677727
O O1 0.836259 0.746805 0.610861
O O2 0.720321 0.772512 0.646311
O O3 0.083131 0.748665 0.819357
O O4 0.905380 0.000000 0.700266
O O5 0.106370 0.500000 0.179095
O O6 0.272969 0.763855 0.255609
O O7 0.032324 0.729643 0.203345
O O8 0.913757 0.746985 0.043890
O O9 0.430921 0.500000 0.184060
O O10 0.361392 0.741086 0.203302
O O11 0.175354 0.702776 0.017852
O O12 0.789273 0.500000 0.933418
O O13 0.895784 0.734888 0.933015
O O14 0.909665 0.500000 0.277739
O O15 0.120456 0.744186 0.412450
O O16 0.985174 0.773569 0.595895
O O17 0.802708 0.000000 0.539488
O O18 0.895227 0.500000 0.867121
O O19 0.847429 0.783076 0.808605
O O20 0.122271 0.500000 0.657849
#
# Coordination Sequence:
#
# PCOD8053252 Si02
#       8
#     4   4   4   4   4   4   4   4
#     4   9  18  35  59  83 113 151 189 230 287 356
#     4  11  22  39  63  92 123 158 200 250 308 367
#     4  11  23  40  62  90 123 163 205 249 305 363
#     4   9  16  32  60  86 113 154 194 232 292 360
#     4  11  24  41  62  89 118 158 211 260 307 357
#     4  10  22  42  63  81 112 160 203 242 295 358
#     4  10  19  36  61  86 117 160 198 237 297 361
#     4  11  22  35  58  93 121 150 194 246 299 352
#
# _framework density 20.20776
#
# number of rings (size 3 to 8) (size 9 to 14) (size 15 to 20)
#    0.000    1.750    2.500    2.250    0.000    4.000 
#    0.000    2.500    0.000    0.000    0.000    0.000 
#    0.000    0.000    0.000    0.000    0.000    0.000 
#
# Total GULP energy -198434.006615 kJ/mol
# GULP energy per Si atom -12402.125413 kJ/mol
# Density = 2.016177 g / cm^3
# Si number density = 20.207760 Si / 1000 Ang^3
#
#
#
# Elastic Constant Matrix: (Units=GPa)
#
#
# Indices 1 2 3 4 5 6 
#
# 1 113.5557 4.9579 29.9413 0.0001 13.4837 0.0000
# 2 4.9579 25.8950 22.5916 0.0001 -0.5774 0.0000
# 3 29.9413 22.5916 97.5700 0.0015 20.1347 0.0002
# 4 0.0001 0.0001 0.0015 23.5108 0.0003 3.4688
# 5 13.4837 -0.5774 20.1347 0.0003 20.2479 0.0000
# 6 0.0000 0.0000 0.0002 3.4688 0.0000 31.3893
#
#
#
# Elastic Compliance Matrix: (Units=1/GPa)
#
#
# Indices 1 2 3 4 5 6 
#
# 1 0.009897 -0.000211 -0.002047 0.000000 -0.004561 0.000000
# 2 -0.000211 0.052752 -0.015714 0.000000 0.017271 0.000000
# 3 -0.002047 -0.015714 0.018026 -0.000001 -0.017010 0.000000
# 4 0.000000 0.000000 -0.000001 0.043239 0.000000 -0.004778
# 5 -0.004561 0.017271 -0.017010 0.000000 0.069833 0.000000
# 6 0.000000 0.000000 0.000000 -0.004778 0.000000 0.032386
#
#
# Mechanical properties :
#
#
# Convention : Reuss Voigt Hill
#
# Bulk Modulus (GPa) = 22.35542 39.11137 30.73339
# Shear Modulus (GPa) = 18.05151 26.99825 22.52488
#
# Velocity S-wave (km/s) = 2.99205 3.65915 3.34228
# Velocity P-wave (km/s) = 4.79826 6.10320 5.48964
#
# Compressibility (1/GPa) = 0.04473188
#
# Stress axis : x y z
#
# Youngs Moduli (GPa) = 101.04307 18.95663 55.47593
#
# Poissons Ratio (x) = 0.00399 0.11356
# Poissons Ratio (y) = 0.02129 0.87173
# Poissons Ratio (z) = 0.20684 0.29788
#
# Static dielectric constant tensor:
#      x y z
#    x 3.756170 0.000000 -0.025200 
#    y 0.000000 3.338810 0.000000 
#    z -0.025200 0.000000 3.827690 
# 
# 
# High freq. dielectric constant tensor:
#      x y z
#    x 1.803890 0.000000 0.003620 
#    y 0.000000 1.762850 0.000000 
#    z 0.003620 0.000000 1.787750 
# 
# From -- ./inp_files/26539.got.cif
#   From: 2010.03.12/outbox.cif.g09.slc.cpg/sg8_14_cif.got.tgz:26539.got - 2010.03.31 10:45:26.
