data_PCOD8053218
_publ_section_title
;
Structure prediction by ZEFSAII (Michael W. Deem and Ramdas Pophale) SiO2 
 PCOD8053218
Probable space group: C M
;
_chemical_formula_sum "Si O2"
_cell_formula_units_Z 32
_cell_length_a 28.177989
_cell_length_b 9.042696
_cell_length_c 11.876418
_cell_angle_alpha 90.000000
_cell_angle_beta 146.949399
_cell_angle_gamma 90.000000
_cell_volume 1650.411375
_symmetry_space_group_name_H-M "C M"
_symmetry_group_IT_number 8
_symmetry_cell_setting 'monoclinic'
loop_
_space_group_symop_operation_xyz
x,y,z
x,-y,z
1/2+x,1/2+y,z
1/2+x,1/2-y,z
loop_
_atom_site_type_symbol
_atom_site_label
_atom_site_fract_x
_atom_site_fract_y
_atom_site_fract_z
Si Si1 0.577610 0.826796 0.587570
Si Si2 0.758992 0.328085 0.423962
Si Si3 0.006968 0.174854 0.663152
Si Si4 0.828648 0.331823 0.316702
Si Si5 0.406628 0.324566 0.857157
Si Si6 0.248055 0.168713 0.922375
Si Si7 0.915948 0.672234 0.112670
Si Si8 0.064339 0.824736 0.019580
O O1 0.562710 0.746061 0.675515
O O2 0.670254 0.772541 0.723535
O O3 0.503944 0.783376 0.351672
O O4 0.578441 0.000000 0.611352
O O5 0.771169 0.500000 0.478216
O O6 0.779474 0.297421 0.334423
O O7 0.820071 0.233357 0.625395
O O8 0.660109 0.274530 0.249864
O O9 0.043968 0.236774 0.854723
O O10 0.906618 0.218693 0.453975
O O11 0.015794 0.000000 0.671133
O O12 0.865073 0.500000 0.386113
O O13 0.760301 0.308533 0.080296
O O14 0.404090 0.500000 0.850442
O O15 0.491855 0.263079 0.961587
O O16 0.409894 0.269440 0.990090
O O17 0.223496 0.000000 0.845652
O O18 0.335940 0.214624 0.033705
O O19 0.915016 0.500000 0.078411
O O20 0.059756 0.000000 0.005666
#
# Coordination Sequence:
#
# PCOD8053218 Si02
#       8
#     4   4   4   4   4   4   4   4
#     4  11  23  40  61  90 123 152 194 245 294 349
#     4  10  20  37  62  86 115 155 195 233 292 358
#     4  11  20  35  61  89 122 158 195 236 292 355
#     4  10  19  35  60  89 121 155 193 240 294 352
#     4  11  23  40  60  85 117 149 198 253 292 337
#     4  10  21  40  63  87 119 157 195 237 295 357
#     4  10  23  43  62  81 115 158 198 241 294 353
#     4   9  20  38  59  85 118 156 192 235 287 349
#
# _framework density 19.389105000000001
#
# number of rings (size 3 to 8) (size 9 to 14) (size 15 to 20)
#    0.000    1.750    2.500    1.875    0.000    5.000 
#    0.000    7.500    0.000    0.000    0.000    0.000 
#    0.000    0.000    0.000    0.000    0.000    0.000 
#
# Total GULP energy -198458.210229 kJ/mol
# GULP energy per Si atom -12403.638139 kJ/mol
# Density = 1.934497 g / cm^3
# Si number density = 19.389105 Si / 1000 Ang^3
#
#
#
# Elastic Constant Matrix: (Units=GPa)
#
#
# Indices 1 2 3 4 5 6 
#
# 1 73.8712 43.3934 74.4371 0.0000 -9.2886 0.0000
# 2 43.3934 66.6253 56.7318 0.0000 -3.3434 0.0000
# 3 74.4371 56.7318 146.2602 0.0000 9.6644 0.0000
# 4 0.0000 0.0000 0.0000 31.0319 0.0000 0.3707
# 5 -9.2886 -3.3434 9.6644 0.0000 35.5150 0.0000
# 6 0.0000 0.0000 0.0000 0.3707 0.0000 32.2911
#
#
#
# Elastic Compliance Matrix: (Units=1/GPa)
#
#
# Indices 1 2 3 4 5 6 
#
# 1 0.036946 -0.009953 -0.015803 0.000000 0.013026 0.000000
# 2 -0.009953 0.025841 -0.005037 0.000000 0.001200 0.000000
# 3 -0.015803 -0.005037 0.017452 0.000000 -0.009357 0.000000
# 4 0.000000 0.000000 0.000000 0.032229 0.000000 -0.000370
# 5 0.013026 0.001200 -0.009357 0.000000 0.034223 0.000000
# 6 0.000000 0.000000 0.000000 -0.000370 0.000000 0.030973
#
#
# Mechanical properties :
#
#
# Convention : Reuss Voigt Hill
#
# Bulk Modulus (GPa) = 53.61260 70.65350 62.13305
# Shear Modulus (GPa) = 20.36923 27.24721 23.80822
#
# Velocity S-wave (km/s) = 3.24474 3.75278 3.50797
# Velocity P-wave (km/s) = 6.46132 7.43618 6.96582
#
# Compressibility (1/GPa) = 0.01865233
#
# Stress axis : x y z
#
# Youngs Moduli (GPa) = 27.06669 38.69801 57.29961
#
# Poissons Ratio (x) = 0.38515 0.90552
# Poissons Ratio (y) = 0.26939 0.28864
# Poissons Ratio (z) = 0.42774 0.19493
#
# Static dielectric constant tensor:
#      x y z
#    x 3.673540 0.000000 0.130450 
#    y 0.000000 3.404920 0.000000 
#    z 0.130450 0.000000 3.680110 
# 
# 
# High freq. dielectric constant tensor:
#      x y z
#    x 1.759850 0.000000 0.006110 
#    y 0.000000 1.740010 0.000000 
#    z 0.006110 0.000000 1.763900 
# 
# From -- ./inp_files/21394.got.cif
#   From: 2010.03.12/outbox.cif.g09.slc.cpg/sg8_11_cif.got.tgz:21394.got - 2010.03.31 10:45:26.
