data_PCOD8053025
_publ_section_title
;
Structure prediction by ZEFSAII (Michael W. Deem and Ramdas Pophale) SiO2 
 PCOD8053025
Probable space group: C M
;
_chemical_formula_sum "Si O2"
_cell_formula_units_Z 24
_cell_length_a 24.658249
_cell_length_b 8.756983
_cell_length_c 7.791314
_cell_angle_alpha 90.000000
_cell_angle_beta 48.484601
_cell_angle_gamma 90.000000
_cell_volume 1259.738188
_symmetry_space_group_name_H-M "C M"
_symmetry_group_IT_number 8
_symmetry_cell_setting 'monoclinic'
loop_
_space_group_symop_operation_xyz
x,y,z
x,-y,z
1/2+x,1/2+y,z
1/2+x,1/2-y,z
loop_
_atom_site_type_symbol
_atom_site_label
_atom_site_fract_x
_atom_site_fract_y
_atom_site_fract_z
Si Si1 0.400430 0.321333 0.429690
Si Si2 0.654033 0.680183 0.226147
Si Si3 0.016818 0.330450 0.385673
Si Si4 0.745931 0.320074 0.704767
Si Si5 0.169069 0.681215 0.543400
Si Si6 0.520663 0.168815 0.998868
O O1 0.384402 0.500000 0.469655
O O2 0.442150 0.266011 0.516143
O O3 0.327515 0.226809 0.571964
O O4 0.450478 0.280491 0.156749
O O5 0.651703 0.500000 0.246610
O O6 0.571910 0.743378 0.394605
O O7 0.693956 0.749505 0.309234
O O8 0.697484 0.733882 0.966997
O O9 0.999920 0.500000 0.496053
O O10 0.054192 0.345724 0.120328
O O11 0.740366 0.500000 0.691204
O O12 0.721313 0.241030 0.581607
O O13 0.174166 0.500000 0.528205
O O14 0.085682 0.735843 0.747893
O O15 0.496304 0.000000 0.985373
#
# Coordination Sequence:
#
# PCOD8053025 Si02
#       6
#     4   4   4   4   4   4
#     4  10  19  32  57  85 111 148 188 231 284 336
#     4  11  23  37  58  87 116 150 190 233 281 335
#     4   9  17  34  57  81 110 143 184 228 275 330
#     4  11  22  38  58  81 117 155 188 231 282 338
#     4  11  22  37  60  87 115 149 189 234 282 335
#     4   8  17  34  56  81 109 143 183 225 276 330
#
# _framework density 19.051577000000002
#
# number of rings (size 3 to 8) (size 9 to 14) (size 15 to 20)
#    1.000    1.000    1.667    3.000    0.000    3.333 
#    0.000    1.667    0.000   10.000    0.000    0.000 
#    0.000    0.000    0.000    0.000    0.000    0.000 
#
# Total GULP energy -148700.411519 kJ/mol
# GULP energy per Si atom -12391.700960 kJ/mol
# Density = 1.900821 g / cm^3
# Si number density = 19.051577 Si / 1000 Ang^3
#
#
#
# Elastic Constant Matrix: (Units=GPa)
#
#
# Indices 1 2 3 4 5 6 
#
# 1 108.5104 25.1684 48.5028 0.0000 4.7754 0.0000
# 2 25.1684 66.5280 24.3165 0.0000 5.1073 0.0000
# 3 48.5028 24.3165 45.2852 0.0000 -1.5144 0.0000
# 4 0.0000 0.0000 0.0000 21.7171 0.0000 -2.3997
# 5 4.7754 5.1073 -1.5144 0.0000 29.9144 0.0000
# 6 0.0000 0.0000 0.0000 -2.3997 0.0000 36.5530
#
#
#
# Elastic Compliance Matrix: (Units=1/GPa)
#
#
# Indices 1 2 3 4 5 6 
#
# 1 0.018148 0.000744 -0.019972 0.000000 -0.004035 0.000000
# 2 0.000744 0.019152 -0.011213 0.000000 -0.003956 0.000000
# 3 -0.019972 -0.011213 0.049749 0.000000 0.007621 0.000000
# 4 0.000000 0.000000 0.000000 0.046383 0.000000 0.003045
# 5 -0.004035 -0.003956 0.007621 0.000000 0.035134 0.000000
# 6 0.000000 0.000000 0.000000 0.003045 0.000000 0.027557
#
#
# Mechanical properties :
#
#
# Convention : Reuss Voigt Hill
#
# Bulk Modulus (GPa) = 38.21589 46.25542 42.23565
# Shear Modulus (GPa) = 18.81627 25.79263 22.30445
#
# Velocity S-wave (km/s) = 3.14610 3.68344 3.42532
# Velocity P-wave (km/s) = 5.77061 6.51322 6.15313
#
# Compressibility (1/GPa) = 0.02616713
#
# Stress axis : x y z
#
# Youngs Moduli (GPa) = 55.10304 52.21385 20.10092
#
# Poissons Ratio (x) = -0.03885 0.40145
# Poissons Ratio (y) = -0.04100 0.22539
# Poissons Ratio (z) = 1.10050 0.58548
#
# Static dielectric constant tensor:
#      x y z
#    x 3.287000 0.000000 0.002850 
#    y 0.000000 3.427680 0.000000 
#    z 0.002850 0.000000 3.346890 
# 
# 
# High freq. dielectric constant tensor:
#      x y z
#    x 1.728090 0.000000 -0.004850 
#    y 0.000000 1.749140 0.000000 
#    z -0.004850 0.000000 1.716690 
# 
# From -- ./inp_files/15497.got.cif
#   From: 2010.03.12/outbox.cif.g09.slc.cpg/sg8_8_cif.got.tgz:15497.got - 2010.03.31 10:45:26.
