data_PCOD8053728
_publ_section_title
;
Structure prediction by ZEFSAII (Michael W. Deem and Ramdas Pophale) SiO2 
 PCOD8053728
Probable space group: C M
;
_chemical_formula_sum "Si O2"
_cell_formula_units_Z 32
_cell_length_a 27.364719
_cell_length_b 9.068541
_cell_length_c 21.679914
_cell_angle_alpha 90.000000
_cell_angle_beta 18.596457
_cell_angle_gamma 90.000000
_cell_volume 1715.700364
_symmetry_space_group_name_H-M "C M"
_symmetry_group_IT_number 8
_symmetry_cell_setting 'monoclinic'
loop_
_space_group_symop_operation_xyz
x,y,z
x,-y,z
1/2+x,1/2+y,z
1/2+x,1/2-y,z
loop_
_atom_site_type_symbol
_atom_site_label
_atom_site_fract_x
_atom_site_fract_y
_atom_site_fract_z
Si Si1 0.358190 0.329090 0.843910
Si Si2 0.515521 0.669232 0.958094
Si Si3 0.253723 0.670461 0.832393
Si Si4 0.111183 0.327047 0.612121
Si Si5 0.851362 0.325708 0.594899
Si Si6 0.950163 0.171202 0.173205
Si Si7 0.644272 0.327124 0.194101
Si Si8 0.914320 0.330774 0.961130
O O1 0.347610 0.500000 0.875694
O O2 0.343423 0.308106 0.788628
O O3 0.523627 0.264153 0.664172
O O4 0.223066 0.240551 0.039465
O O5 0.498269 0.500000 0.962789
O O6 0.694031 0.713559 0.747950
O O7 0.424933 0.750846 0.013143
O O8 0.435060 0.708907 0.118960
O O9 0.245395 0.500000 0.822816
O O10 0.346550 0.759389 0.669410
O O11 0.081589 0.731247 0.047158
O O12 0.079310 0.500000 0.638431
O O13 0.290445 0.289454 0.396767
O O14 0.047165 0.277680 0.755297
O O15 0.876979 0.500000 0.569762
O O16 0.983689 0.252565 0.396389
O O17 0.994939 0.000000 0.127972
O O18 0.618087 0.500000 0.213986
O O19 0.749532 0.298763 0.128023
O O20 0.936838 0.500000 0.949129
#
# Coordination Sequence:
#
# PCOD8053728 Si02
#       8
#     4   4   4   4   4   4   4   4
#     4  10  21  36  54  79 109 139 176 220 263 311
#     4   9  19  34  52  76 104 134 170 212 256 307
#     4  10  21  36  54  79 109 139 176 220 263 311
#     4   9  19  36  55  76 103 136 177 219 259 309
#     4  10  21  37  56  79 107 139 177 218 262 314
#     4   9  19  36  55  76 103 136 177 219 259 309
#     4  10  21  37  56  79 107 139 177 218 262 314
#     4   9  19  34  52  76 104 134 170 212 256 307
#
# _framework density 18.651274999999998
#
# number of rings (size 3 to 8) (size 9 to 14) (size 15 to 20)
#    0.000    2.500    0.000    3.000    0.000    9.500 
#    0.000    5.000    0.000    0.000    0.000    0.000 
#    0.000    0.000    0.000    0.000    0.000    0.000 
#
# Total GULP energy -198429.759459 kJ/mol
# GULP energy per Si atom -12401.859966 kJ/mol
# Density = 1.860882 g / cm^3
# Si number density = 18.651275 Si / 1000 Ang^3
#
#
#
# Elastic Constant Matrix: (Units=GPa)
#
#
# Indices 1 2 3 4 5 6 
#
# 1 48.0890 17.0145 -22.0535 -0.0005 0.4393 -0.0003
# 2 17.0145 71.7834 10.4748 0.0029 -0.6646 -0.0002
# 3 -22.0535 10.4748 49.9629 0.0004 0.2991 -0.0003
# 4 -0.0005 0.0029 0.0004 32.7848 -0.0001 -1.9300
# 5 0.4393 -0.6646 0.2991 -0.0001 12.4890 0.0000
# 6 -0.0003 -0.0002 -0.0003 -1.9300 0.0000 35.0552
#
#
#
# Elastic Compliance Matrix: (Units=1/GPa)
#
#
# Indices 1 2 3 4 5 6 
#
# 1 0.031670 -0.009869 0.016060 0.000001 -0.002024 0.000000
# 2 -0.009869 0.017454 -0.008024 -0.000002 0.001468 0.000000
# 3 0.016060 -0.008024 0.028796 0.000001 -0.001682 0.000000
# 4 0.000001 -0.000002 0.000001 0.030601 0.000000 0.001685
# 5 -0.002024 0.001468 -0.001682 0.000000 0.080260 0.000000
# 6 0.000000 0.000000 0.000000 0.001685 0.000000 0.028619
#
#
# Mechanical properties :
#
#
# Convention : Reuss Voigt Hill
#
# Bulk Modulus (GPa) = 13.46705 20.07852 16.77278
# Shear Modulus (GPa) = 20.34018 27.02577 23.68298
#
# Velocity S-wave (km/s) = 3.30593 3.81071 3.56726
# Velocity P-wave (km/s) = 4.66994 5.49096 5.09701
#
# Compressibility (1/GPa) = 0.07425532
#
# Stress axis : x y z
#
# Youngs Moduli (GPa) = 31.57535 57.29185 34.72673
#
# Poissons Ratio (x) = 0.56541 -0.55772
# Poissons Ratio (y) = 0.31162 0.27866
# Poissons Ratio (z) = -0.50711 0.45973
#
# Static dielectric constant tensor:
#      x y z
#    x 3.280270 0.000000 0.002400 
#    y 0.000000 3.486000 0.000000 
#    z 0.002400 0.000000 3.454170 
# 
# 
# High freq. dielectric constant tensor:
#      x y z
#    x 1.717850 0.000000 0.001290 
#    y 0.000000 1.729760 0.000000 
#    z 0.001290 0.000000 1.724710 
# 
# From -- ./inp_files/16792.got.cif
#   From: 2010.03.12/outbox.cif.g09.slc.cpg/sg8_9_cif.got.tgz:16792.got - 2010.03.31 10:45:26.
