data_PCOD8053306
_publ_section_title
;
Structure prediction by ZEFSAII (Michael W. Deem and Ramdas Pophale) SiO2 
 PCOD8053306
Probable space group: C M
;
_chemical_formula_sum "Si O2"
_cell_formula_units_Z 22
_cell_length_a 29.553496
_cell_length_b 7.327640
_cell_length_c 9.285342
_cell_angle_alpha 90.000000
_cell_angle_beta 37.829706
_cell_angle_gamma 90.000000
_cell_volume 1233.262824
_symmetry_space_group_name_H-M "C M"
_symmetry_group_IT_number 8
_symmetry_cell_setting 'monoclinic'
loop_
_space_group_symop_operation_xyz
x,y,z
x,-y,z
1/2+x,1/2+y,z
1/2+x,1/2-y,z
loop_
_atom_site_type_symbol
_atom_site_label
_atom_site_fract_x
_atom_site_fract_y
_atom_site_fract_z
Si Si1 0.059238 0.000000 0.459828
Si Si2 0.028604 0.000000 0.001867
Si Si3 0.723792 0.500000 0.932142
Si Si4 0.695406 0.500000 0.670344
Si Si5 0.442442 0.500000 0.505163
Si Si6 0.803192 0.200793 0.902152
Si Si7 0.224902 0.705525 0.376305
Si Si8 0.058434 0.711007 0.699154
O O1 0.039682 0.816997 0.598541
O O2 0.012529 0.000000 0.431952
O O3 0.144738 0.000000 0.205178
O O4 0.018812 0.182980 0.930413
O O5 0.107469 0.000000 0.881180
O O6 0.966195 0.000000 0.279570
O O7 0.719294 0.500000 0.773441
O O8 0.770066 0.323462 0.860456
O O9 0.730412 0.323503 0.506260
O O10 0.391985 0.680402 0.660949
O O11 0.765252 0.000000 0.984490
O O12 0.784019 0.277744 0.109661
O O13 0.242144 0.500000 0.381172
O O14 0.145574 0.725210 0.501920
O O15 0.031540 0.500000 0.759987
#
# Coordination Sequence:
#
# PCOD8053306 Si02
#       8
#     2   2   2   2   2   4   4   4
#     4  11  20  35  62  89 114 142 201 248 267 332
#     4   9  18  37  56  81 121 155 177 232 298 343
#     4  12  20  36  61  88 111 151 200 238 279 332
#     4  10  20  30  57  89 108 138 195 247 271 317
#     4  10  22  42  56  83 126 152 181 235 303 338
#     4   9  21  38  60  78 115 157 187 227 290 347
#     4   9  16  33  56  83 108 145 188 231 280 330
#     4   9  18  34  60  87 112 148 194 238 280 334
#
# _framework density 17.838856
#
# number of rings (size 3 to 8) (size 9 to 14) (size 15 to 20)
#    0.545    1.818    2.727    1.091    0.000    0.727 
#    3.273    3.636    0.000    0.000    0.000    0.000 
#    0.000    0.000    0.000    0.000    0.000    0.000 
#
# Total GULP energy -136347.863654 kJ/mol
# GULP energy per Si atom -12395.260332 kJ/mol
# Density = 1.779825 g / cm^3
# Si number density = 17.838856 Si / 1000 Ang^3
#
#
#
# Elastic Constant Matrix: (Units=GPa)
#
#
# Indices 1 2 3 4 5 6 
#
# 1 70.2781 39.8768 26.8400 0.0000 15.8093 0.0000
# 2 39.8768 116.8147 35.8017 0.0000 16.8240 0.0000
# 3 26.8400 35.8017 113.9823 0.0000 17.6984 0.0000
# 4 0.0000 0.0000 0.0000 22.6254 0.0000 4.6779
# 5 15.8093 16.8240 17.6984 0.0000 31.3028 0.0000
# 6 0.0000 0.0000 0.0000 4.6779 0.0000 4.5379
#
#
#
# Elastic Compliance Matrix: (Units=1/GPa)
#
#
# Indices 1 2 3 4 5 6 
#
# 1 0.019201 -0.005099 -0.002017 0.000000 -0.005817 0.000000
# 2 -0.005099 0.011243 -0.001965 0.000000 -0.002356 0.000000
# 3 -0.002017 -0.001965 0.010462 0.000000 -0.003840 0.000000
# 4 0.000000 0.000000 0.000000 0.056170 0.000000 -0.057903
# 5 -0.005817 -0.002356 -0.003840 0.000000 0.038322 0.000000
# 6 0.000000 0.000000 0.000000 -0.057903 0.000000 0.280057
#
#
# Mechanical properties :
#
#
# Convention : Reuss Voigt Hill
#
# Bulk Modulus (GPa) = 43.96593 56.23468 50.10030
# Shear Modulus (GPa) = 11.33282 24.93032 18.13157
#
# Velocity S-wave (km/s) = 2.52323 3.74241 3.19158
# Velocity P-wave (km/s) = 5.76095 7.08987 6.45968
#
# Compressibility (1/GPa) = 0.02274488
#
# Stress axis : x y z
#
# Youngs Moduli (GPa) = 52.08062 88.94669 95.58755
#
# Poissons Ratio (x) = 0.45352 0.19277
# Poissons Ratio (y) = 0.26555 0.18781
# Poissons Ratio (z) = 0.10503 0.17476
#
# Static dielectric constant tensor:
#      x y z
#    x 2.946340 0.000000 0.103410 
#    y 0.000000 3.777970 0.000000 
#    z 0.103410 0.000000 3.276600 
# 
# 
# High freq. dielectric constant tensor:
#      x y z
#    x 1.661840 0.000000 0.015780 
#    y 0.000000 1.691600 0.000000 
#    z 0.015780 0.000000 1.691120 
# 
# From -- ./inp_files/17631.got.cif
#   From: 2010.03.12/outbox.cif.g09.slc.cpg/sg8_9_cif.got.tgz:17631.got - 2010.03.31 10:45:26.
