data_PCOD8053494
_publ_section_title
;
Structure prediction by ZEFSAII (Michael W. Deem and Ramdas Pophale) SiO2 
 PCOD8053494
Probable space group: C M
;
_chemical_formula_sum "Si O2"
_cell_formula_units_Z 32
_cell_length_a 14.361837
_cell_length_b 8.871996
_cell_length_c 27.969053
_cell_angle_alpha 90.000000
_cell_angle_beta 28.550853
_cell_angle_gamma 90.000000
_cell_volume 1703.260877
_symmetry_space_group_name_H-M "C M"
_symmetry_group_IT_number 8
_symmetry_cell_setting 'monoclinic'
loop_
_space_group_symop_operation_xyz
x,y,z
x,-y,z
1/2+x,1/2+y,z
1/2+x,1/2-y,z
loop_
_atom_site_type_symbol
_atom_site_label
_atom_site_fract_x
_atom_site_fract_y
_atom_site_fract_z
Si Si1 0.428760 0.828975 0.680390
Si Si2 0.366348 0.676662 0.058789
Si Si3 0.733942 0.171596 0.469009
Si Si4 0.165194 0.821951 0.404328
Si Si5 0.483378 0.322581 0.199717
Si Si6 0.621436 0.323310 0.032989
Si Si7 0.001868 0.824313 0.892592
Si Si8 0.301179 0.178256 0.531571
O O1 0.507941 0.825832 0.589731
O O2 0.212061 0.760503 0.781131
O O3 0.579965 0.730438 0.644443
O O4 0.428577 0.000000 0.700510
O O5 0.318951 0.500000 0.085293
O O6 0.164132 0.766925 0.150316
O O7 0.496240 0.735967 0.044476
O O8 0.480143 0.712318 0.958497
O O9 0.767857 0.269735 0.406711
O O10 0.863333 0.250336 0.452085
O O11 0.803808 0.000000 0.428675
O O12 0.289216 0.762178 0.303739
O O13 0.952160 0.746039 0.501372
O O14 0.146493 0.000000 0.410659
O O15 0.456792 0.500000 0.218679
O O16 0.514002 0.277908 0.130556
O O17 0.650205 0.500000 0.016140
O O18 0.836475 0.252704 0.935073
O O19 0.986301 0.000000 0.889210
O O20 0.316284 0.000000 0.523718
#
# Coordination Sequence:
#
# PCOD8053494 Si02
#       8
#     4   4   4   4   4   4   4   4
#     4   8  17  35  55  77 112 148 179 225 274 318
#     4   9  18  35  56  79 107 140 178 220 268 326
#     4   9  19  37  56  77 110 143 181 228 273 321
#     4  12  23  37  57  81 108 145 189 229 277 330
#     4  10  21  36  54  77 108 141 177 226 278 325
#     4   9  19  35  54  79 109 139 177 223 267 321
#     4   9  17  33  56  79 109 144 177 217 268 320
#     4  10  20  36  56  79 109 146 184 226 273 321
#
# _framework density 18.787490999999999
#
# number of rings (size 3 to 8) (size 9 to 14) (size 15 to 20)
#    0.750    1.750    0.000    2.625    0.000    2.500 
#    2.250    3.750    0.000    0.000    0.000    0.000 
#    0.000    0.000    0.000    0.000    0.000    0.000 
#
# Total GULP energy -198328.488151 kJ/mol
# GULP energy per Si atom -12395.530509 kJ/mol
# Density = 1.874473 g / cm^3
# Si number density = 18.787491 Si / 1000 Ang^3
#
#
#
# Elastic Constant Matrix: (Units=GPa)
#
#
# Indices 1 2 3 4 5 6 
#
# 1 91.7774 26.3214 10.4034 0.0001 -9.4354 0.0025
# 2 26.3214 100.1190 26.2730 0.0003 -7.4185 0.0024
# 3 10.4034 26.2730 61.2118 -0.0014 -9.1189 -0.0003
# 4 0.0001 0.0003 -0.0014 29.0906 -0.0003 -4.7519
# 5 -9.4354 -7.4185 -9.1189 -0.0003 21.7432 -0.0001
# 6 0.0025 0.0024 -0.0003 -4.7519 -0.0001 29.6878
#
#
#
# Elastic Compliance Matrix: (Units=1/GPa)
#
#
# Indices 1 2 3 4 5 6 
#
# 1 0.012166 -0.002826 -0.000226 0.000000 0.004220 -0.000001
# 2 -0.002826 0.011989 -0.004521 0.000000 0.000968 -0.000001
# 3 -0.000226 -0.004521 0.019276 0.000001 0.006443 0.000001
# 4 0.000000 0.000000 0.000001 0.035298 0.000001 0.005650
# 5 0.004220 0.000968 0.006443 0.000001 0.050855 0.000000
# 6 -0.000001 -0.000001 0.000001 0.005650 0.000000 0.034588
#
#
# Mechanical properties :
#
#
# Convention : Reuss Voigt Hill
#
# Bulk Modulus (GPa) = 35.35618 42.12262 38.73940
# Shear Modulus (GPa) = 26.49030 28.77837 27.63433
#
# Velocity S-wave (km/s) = 3.75907 3.91805 3.83938
# Velocity P-wave (km/s) = 6.14008 6.55266 6.34972
#
# Compressibility (1/GPa) = 0.02828360
#
# Stress axis : x y z
#
# Youngs Moduli (GPa) = 82.19608 83.40688 51.87886
#
# Poissons Ratio (x) = 0.23575 0.01171
# Poissons Ratio (y) = 0.23233 0.23457
# Poissons Ratio (z) = 0.01856 0.37712
#
# Static dielectric constant tensor:
#      x y z
#    x 3.383710 0.000000 -0.066890 
#    y 0.000000 3.341260 0.000000 
#    z -0.066890 0.000000 3.402200 
# 
# 
# High freq. dielectric constant tensor:
#      x y z
#    x 1.719080 0.000000 -0.007020 
#    y 0.000000 1.730180 0.000000 
#    z -0.007020 0.000000 1.719180 
# 
# From -- ./inp_files/28388.got.cif
#   From: 2010.03.12/outbox.cif.g09.slc.cpg/sg8_15_cif.got.tgz:28388.got - 2010.03.31 10:45:26.
