data_PCOD8053068
_publ_section_title
;
Structure prediction by ZEFSAII (Michael W. Deem and Ramdas Pophale) SiO2 
 PCOD8053068
Probable space group: C M
;
_chemical_formula_sum "Si O2"
_cell_formula_units_Z 32
_cell_length_a 20.496484
_cell_length_b 8.862434
_cell_length_c 25.095063
_cell_angle_alpha 90.000000
_cell_angle_beta 157.639649
_cell_angle_gamma 90.000000
_cell_volume 1734.187268
_symmetry_space_group_name_H-M "C M"
_symmetry_group_IT_number 8
_symmetry_cell_setting 'monoclinic'
loop_
_space_group_symop_operation_xyz
x,y,z
x,-y,z
1/2+x,1/2+y,z
1/2+x,1/2-y,z
loop_
_atom_site_type_symbol
_atom_site_label
_atom_site_fract_x
_atom_site_fract_y
_atom_site_fract_z
Si Si1 0.659370 0.323319 0.708450
Si Si2 0.926326 0.321922 0.110245
Si Si3 0.132255 0.824801 0.415885
Si Si4 0.780807 0.179070 0.104889
Si Si5 0.432361 0.322440 0.839291
Si Si6 0.210916 0.676279 0.861419
Si Si7 0.894103 0.673954 0.698841
Si Si8 0.775462 0.172912 0.424146
O O1 0.699958 0.500000 0.742443
O O2 0.772156 0.247819 0.748337
O O3 0.697206 0.249924 0.793594
O O4 0.462910 0.292310 0.542090
O O5 0.890074 0.500000 0.085460
O O6 0.814825 0.239668 0.071289
O O7 0.127814 0.282553 0.270236
O O8 0.871256 0.254856 0.011982
O O9 0.209397 0.788435 0.532370
O O10 0.255610 0.757903 0.464528
O O11 0.935439 0.768791 0.261024
O O12 0.137105 0.000000 0.408102
O O13 0.758423 0.000000 0.085449
O O14 0.606980 0.253174 0.995639
O O15 0.434282 0.500000 0.848852
O O16 0.417879 0.283907 0.766147
O O17 0.248497 0.500000 0.883331
O O18 0.038667 0.707429 0.764314
O O19 0.902555 0.500000 0.724461
O O20 0.755662 0.000000 0.424651
#
# Coordination Sequence:
#
# PCOD8053068 Si02
#       8
#     4   4   4   4   4   4   4   4
#     4  11  23  40  60  82 114 152 190 233 285 340
#     4  10  19  33  55  85 116 146 186 233 280 329
#     4   9  18  33  57  85 112 144 183 231 280 331
#     4  10  19  34  56  83 113 148 188 230 284 335
#     4  12  25  39  57  82 115 153 192 233 282 339
#     4  11  21  35  58  87 117 148 189 235 278 329
#     4  10  20  36  58  85 116 147 186 233 280 331
#     4   9  19  34  55  83 113 146 184 230 281 332
#
# _framework density 18.452448
#
# number of rings (size 3 to 8) (size 9 to 14) (size 15 to 20)
#    0.000    1.750    2.500    2.625    0.000    2.500 
#    0.000    1.250    0.000    3.000    0.000    0.000 
#    0.000    0.000    0.000    0.000    0.000    0.000 
#
# Total GULP energy -198404.817878 kJ/mol
# GULP energy per Si atom -12400.301117 kJ/mol
# Density = 1.841045 g / cm^3
# Si number density = 18.452448 Si / 1000 Ang^3
#
#
#
# Elastic Constant Matrix: (Units=GPa)
#
#
# Indices 1 2 3 4 5 6 
#
# 1 77.2009 59.4655 52.9578 0.0164 1.0615 -0.0005
# 2 59.4655 130.1575 65.0796 0.0382 -1.1736 -0.0008
# 3 52.9578 65.0796 132.0840 0.0424 -1.1338 0.0014
# 4 0.0164 0.0382 0.0424 26.2887 -0.0098 0.8019
# 5 1.0615 -1.1736 -1.1338 -0.0098 27.7547 -0.0013
# 6 -0.0005 -0.0008 0.0014 0.8019 -0.0013 30.6661
#
#
#
# Elastic Compliance Matrix: (Units=1/GPa)
#
#
# Indices 1 2 3 4 5 6 
#
# 1 0.022468 -0.007653 -0.005250 0.000005 -0.001397 0.000000
# 2 -0.007653 0.012803 -0.003234 -0.000008 0.000702 0.000001
# 3 -0.005250 -0.003234 0.011274 -0.000010 0.000525 0.000000
# 4 0.000005 -0.000008 -0.000010 0.038070 0.000012 -0.000995
# 5 -0.001397 0.000702 0.000525 0.000012 0.036135 0.000001
# 6 0.000000 0.000001 0.000000 -0.000995 0.000001 0.032635
#
#
# Mechanical properties :
#
#
# Convention : Reuss Voigt Hill
#
# Bulk Modulus (GPa) = 70.06768 77.16092 73.61430
# Shear Modulus (GPa) = 26.25858 27.73787 26.99822
#
# Velocity S-wave (km/s) = 3.77641 3.88133 3.82923
# Velocity P-wave (km/s) = 7.55444 7.87357 7.71566
#
# Compressibility (1/GPa) = 0.01427192
#
# Stress axis : x y z
#
# Youngs Moduli (GPa) = 44.50678 78.10927 88.70315
#
# Poissons Ratio (x) = 0.59776 0.46568
# Poissons Ratio (y) = 0.34061 0.28683
# Poissons Ratio (z) = 0.23365 0.25258
#
# Static dielectric constant tensor:
#      x y z
#    x 3.082250 0.000020 -0.047920 
#    y 0.000020 3.463100 -0.000030 
#    z -0.047920 -0.000030 3.981320 
# 
# 
# High freq. dielectric constant tensor:
#      x y z
#    x 1.682080 0.000000 -0.008040 
#    y 0.000000 1.724580 0.000000 
#    z -0.008040 0.000000 1.736390 
# 
# From -- ./inp_files/31321.got.cif
#   From: 2010.03.12/outbox.cif.g09.slc.cpg/sg8_16_cif.got.tgz:31321.got - 2010.03.31 10:45:26.
