data_PCOD8053439
_publ_section_title
;
Structure prediction by ZEFSAII (Michael W. Deem and Ramdas Pophale) SiO2 
 PCOD8053439
Probable space group: C M
;
_chemical_formula_sum "Si O2"
_cell_formula_units_Z 32
_cell_length_a 24.335300
_cell_length_b 9.080272
_cell_length_c 23.313830
_cell_angle_alpha 90.000000
_cell_angle_beta 161.645257
_cell_angle_gamma 90.000000
_cell_volume 1622.262286
_symmetry_space_group_name_H-M "C M"
_symmetry_group_IT_number 8
_symmetry_cell_setting 'monoclinic'
loop_
_space_group_symop_operation_xyz
x,y,z
x,-y,z
1/2+x,1/2+y,z
1/2+x,1/2-y,z
loop_
_atom_site_type_symbol
_atom_site_label
_atom_site_fract_x
_atom_site_fract_y
_atom_site_fract_z
Si Si1 0.855460 0.670063 0.398350
Si Si2 0.675538 0.671932 0.515365
Si Si3 0.183968 0.670882 0.796229
Si Si4 0.544787 0.173636 0.149501
Si Si5 0.721083 0.833952 0.961650
Si Si6 0.368895 0.169563 0.278451
Si Si7 0.568291 0.171917 0.302880
Si Si8 0.555813 0.833291 0.915916
O O1 0.817526 0.500000 0.375570
O O2 0.685054 0.763790 0.244329
O O3 0.899771 0.692902 0.376034
O O4 0.020883 0.729835 0.597966
O O5 0.641997 0.500000 0.474189
O O6 0.512908 0.738682 0.387656
O O7 0.696987 0.743086 0.473398
O O8 0.852651 0.702893 0.726554
O O9 0.218726 0.500000 0.817518
O O10 0.356449 0.758603 0.948687
O O11 0.136413 0.699489 0.815810
O O12 0.605967 0.216646 0.274429
O O13 0.529589 0.000000 0.126760
O O14 0.872235 0.718044 0.125124
O O15 0.799364 0.000000 0.039267
O O16 0.578359 0.815053 0.869688
O O17 0.386902 0.000000 0.278562
O O18 0.175198 0.223518 0.070378
O O19 0.591237 0.000000 0.335692
O O20 0.600979 0.000000 0.979495
#
# Coordination Sequence:
#
# PCOD8053439 Si02
#       8
#     4   4   4   4   4   4   4   4
#     4  10  23  41  63  87 114 156 205 243 286 347
#     4  11  23  38  60  88 117 155 199 243 292 349
#     4   9  19  37  61  87 117 156 197 241 288 342
#     4  10  22  38  58  89 124 155 190 239 297 351
#     4   9  17  33  58  86 117 153 193 239 289 343
#     4  11  24  42  61  85 119 157 198 247 294 343
#     4  10  20  35  56  87 124 157 189 235 296 352
#     4  10  22  38  59  89 118 153 199 241 290 351
#
# _framework density 19.725539999999999
#
# number of rings (size 3 to 8) (size 9 to 14) (size 15 to 20)
#    0.000    2.000    1.250    1.500    1.750    5.000 
#    0.000    3.750    0.000    0.000    0.000    0.000 
#    0.000    0.000    0.000    0.000    0.000    0.000 
#
# Total GULP energy -198431.879435 kJ/mol
# GULP energy per Si atom -12401.992465 kJ/mol
# Density = 1.968064 g / cm^3
# Si number density = 19.725540 Si / 1000 Ang^3
#
#
#
# Elastic Constant Matrix: (Units=GPa)
#
#
# Indices 1 2 3 4 5 6 
#
# 1 52.4463 27.9052 30.3694 0.0024 -8.4574 0.0008
# 2 27.9052 83.5203 42.2342 0.0106 -1.7839 0.0056
# 3 30.3694 42.2342 107.7527 0.0352 -10.9661 0.0167
# 4 0.0024 0.0106 0.0352 19.2541 0.0078 -7.6239
# 5 -8.4574 -1.7839 -10.9661 0.0078 27.3806 0.0026
# 6 0.0008 0.0056 0.0167 -7.6239 0.0026 23.4233
#
#
#
# Elastic Compliance Matrix: (Units=1/GPa)
#
#
# Indices 1 2 3 4 5 6 
#
# 1 0.025838 -0.006395 -0.004176 0.000008 0.005892 0.000006
# 2 -0.006395 0.016570 -0.004987 0.000002 -0.002893 0.000001
# 3 -0.004176 -0.004987 0.012768 -0.000028 0.003499 -0.000017
# 4 0.000008 0.000002 -0.000028 0.059621 -0.000028 0.019406
# 5 0.005892 -0.002893 0.003499 -0.000028 0.039555 -0.000015
# 6 0.000006 0.000001 -0.000017 0.019406 -0.000015 0.049009
#
#
# Mechanical properties :
#
#
# Convention : Reuss Voigt Hill
#
# Bulk Modulus (GPa) = 41.56241 49.41522 45.48881
# Shear Modulus (GPa) = 20.61886 23.55898 22.08892
#
# Velocity S-wave (km/s) = 3.23660 3.45967 3.34999
# Velocity P-wave (km/s) = 5.92313 6.40819 6.17043
#
# Compressibility (1/GPa) = 0.02406020
#
# Stress axis : x y z
#
# Youngs Moduli (GPa) = 38.70245 60.35126 78.32028
#
# Poissons Ratio (x) = 0.38596 0.32707
# Poissons Ratio (y) = 0.24751 0.39055
# Poissons Ratio (z) = 0.16162 0.30094
#
# Static dielectric constant tensor:
#      x y z
#    x 3.573840 0.000000 -0.145700 
#    y 0.000000 3.583180 -0.000010 
#    z -0.145700 -0.000010 3.540700 
# 
# 
# High freq. dielectric constant tensor:
#      x y z
#    x 1.765250 0.000000 -0.005540 
#    y 0.000000 1.769610 0.000000 
#    z -0.005540 0.000000 1.767030 
# 
# From -- ./inp_files/32447.got.cif
#   From: 2010.03.12/outbox.cif.g09.slc.cpg/sg8_17_cif.got.tgz:32447.got - 2010.03.31 10:45:26.
