data_PCOD8053057
_publ_section_title
;
Structure prediction by ZEFSAII (Michael W. Deem and Ramdas Pophale) SiO2 
 PCOD8053057
Probable space group: C M
;
_chemical_formula_sum "Si O2"
_cell_formula_units_Z 32
_cell_length_a 20.708876
_cell_length_b 8.791809
_cell_length_c 14.352337
_cell_angle_alpha 90.000000
_cell_angle_beta 139.920310
_cell_angle_gamma 90.000000
_cell_volume 1682.456108
_symmetry_space_group_name_H-M "C M"
_symmetry_group_IT_number 8
_symmetry_cell_setting 'monoclinic'
loop_
_space_group_symop_operation_xyz
x,y,z
x,-y,z
1/2+x,1/2+y,z
1/2+x,1/2-y,z
loop_
_atom_site_type_symbol
_atom_site_label
_atom_site_fract_x
_atom_site_fract_y
_atom_site_fract_z
Si Si1 0.734780 0.819552 0.850850
Si Si2 0.493846 0.321419 0.910595
Si Si3 0.665293 0.818603 0.220470
Si Si4 0.799696 0.166036 0.213980
Si Si5 0.103964 0.333257 0.873328
Si Si6 0.417232 0.681758 0.178617
Si Si7 0.781183 0.322659 0.712058
Si Si8 0.638666 0.677560 0.382742
O O1 0.639123 0.772656 0.810124
O O2 0.724954 0.730691 0.743345
O O3 0.735060 0.000000 0.834281
O O4 0.839711 0.766115 0.013418
O O5 0.503335 0.500000 0.932838
O O6 0.526296 0.276761 0.840895
O O7 0.380795 0.272625 0.804493
O O8 0.561734 0.245153 0.065078
O O9 0.760257 0.752260 0.264777
O O10 0.684870 0.766459 0.346718
O O11 0.661289 0.000000 0.208216
O O12 0.884052 0.250583 0.244065
O O13 0.841031 0.000000 0.287825
O O14 0.703905 0.147674 0.042460
O O15 0.052791 0.500000 0.807143
O O16 0.414847 0.500000 0.184647
O O17 0.527117 0.743023 0.276461
O O18 0.807762 0.500000 0.747148
O O19 0.705346 0.286560 0.545196
O O20 0.634867 0.500000 0.354733
#
# Coordination Sequence:
#
# PCOD8053057 Si02
#       8
#     4   4   4   4   4   4   4   4
#     4   9  17  32  57  82 103 132 171 215 264 320
#     4  11  21  34  55  79 103 136 180 224 264 311
#     4  10  19  33  55  80 105 133 167 212 265 318
#     4   7  12  25  48  76 100 123 156 199 249 304
#     4   8  15  30  52  79 107 132 164 212 267 315
#     4   8  14  29  53  76  96 124 164 205 248 303
#     4  11  23  36  49  71 108 147 182 222 263 304
#     4  10  21  35  51  73 104 141 176 213 256 305
#
# _framework density 19.019812999999999
#
# number of rings (size 3 to 8) (size 9 to 14) (size 15 to 20)
#    0.000    2.750    0.000    4.875    0.000    2.500 
#    0.000    1.250    0.000    5.250    0.000    0.000 
#    0.000    0.000    0.000    0.000    0.000    0.000 
#
# Total GULP energy -198266.537419 kJ/mol
# GULP energy per Si atom -12391.658589 kJ/mol
# Density = 1.897652 g / cm^3
# Si number density = 19.019813 Si / 1000 Ang^3
#
#
#
# Elastic Constant Matrix: (Units=GPa)
#
#
# Indices 1 2 3 4 5 6 
#
# 1 148.9357 35.8539 41.7906 0.0000 -34.0682 0.0000
# 2 35.8539 61.5629 25.6400 0.0000 -13.1116 0.0000
# 3 41.7906 25.6400 57.1676 0.0000 -22.0156 0.0000
# 4 0.0000 0.0000 0.0000 14.4839 0.0000 -4.7343
# 5 -34.0682 -13.1116 -22.0156 0.0000 18.0266 0.0000
# 6 0.0000 0.0000 0.0000 -4.7343 0.0000 28.2452
#
#
#
# Elastic Compliance Matrix: (Units=1/GPa)
#
#
# Indices 1 2 3 4 5 6 
#
# 1 0.012185 -0.002741 0.000798 0.000000 0.022008 0.000000
# 2 -0.002741 0.021039 -0.006672 0.000000 0.001973 0.000000
# 3 0.000798 -0.006672 0.035141 0.000000 0.039572 0.000000
# 4 0.000000 0.000000 0.000000 0.073044 0.000000 0.012243
# 5 0.022008 0.001973 0.039572 0.000000 0.146829 0.000000
# 6 0.000000 0.000000 0.000000 0.012243 0.000000 0.037456
#
#
# Mechanical properties :
#
#
# Convention : Reuss Voigt Hill
#
# Bulk Modulus (GPa) = 19.55683 52.69279 36.12481
# Shear Modulus (GPa) = 13.89001 23.10993 18.49997
#
# Velocity S-wave (km/s) = 2.70532 3.48953 3.12215
# Velocity P-wave (km/s) = 4.47918 6.63325 5.65964
#
# Compressibility (1/GPa) = 0.05113304
#
# Stress axis : x y z
#
# Youngs Moduli (GPa) = 82.07144 47.53023 28.45644
#
# Poissons Ratio (x) = 0.13029 -0.02270
# Poissons Ratio (y) = 0.22498 0.18987
# Poissons Ratio (z) = -0.06546 0.31714
#
# Static dielectric constant tensor:
#      x y z
#    x 4.126680 0.000000 -0.075890 
#    y 0.000000 3.230990 0.000000 
#    z -0.075890 0.000000 3.136520 
# 
# 
# High freq. dielectric constant tensor:
#      x y z
#    x 1.767740 0.000000 -0.007080 
#    y 0.000000 1.709560 0.000000 
#    z -0.007080 0.000000 1.699650 
# 
# From -- ./inp_files/27744.got.cif
#   From: 2010.03.12/outbox.cif.g09.slc.cpg/sg8_14_cif.got.tgz:27744.got - 2010.03.31 10:45:26.
