data_PCOD8053181
_publ_section_title
;
Structure prediction by ZEFSAII (Michael W. Deem and Ramdas Pophale) SiO2 
 PCOD8053181
Probable space group: C M
;
_chemical_formula_sum "Si O2"
_cell_formula_units_Z 32
_cell_length_a 28.158581
_cell_length_b 8.562112
_cell_length_c 15.835873
_cell_angle_alpha 90.000000
_cell_angle_beta 26.365750
_cell_angle_gamma 90.000000
_cell_volume 1695.563762
_symmetry_space_group_name_H-M "C M"
_symmetry_group_IT_number 8
_symmetry_cell_setting 'monoclinic'
loop_
_space_group_symop_operation_xyz
x,y,z
x,-y,z
1/2+x,1/2+y,z
1/2+x,1/2-y,z
loop_
_atom_site_type_symbol
_atom_site_label
_atom_site_fract_x
_atom_site_fract_y
_atom_site_fract_z
Si Si1 0.067170 0.180192 0.815900
Si Si2 0.985580 0.317397 0.109757
Si Si3 0.285134 0.317709 0.519636
Si Si4 0.308428 0.683817 0.834342
Si Si5 0.209032 0.315866 0.820656
Si Si6 0.730848 0.680210 0.129092
Si Si7 0.964718 0.320960 0.819337
Si Si8 0.524880 0.180722 0.537804
O O1 0.174014 0.283946 0.649306
O O2 0.008321 0.207371 0.821367
O O3 0.098843 0.000000 0.773410
O O4 0.986117 0.227057 0.019933
O O5 0.995112 0.500000 0.074515
O O6 0.877697 0.283241 0.330800
O O7 0.086154 0.260357 0.006214
O O8 0.311933 0.500000 0.468515
O O9 0.276090 0.262928 0.631520
O O10 0.288764 0.500000 0.874698
O O11 0.260624 0.753846 0.823307
O O12 0.434750 0.718302 0.634105
O O13 0.246348 0.771516 0.007588
O O14 0.213411 0.500000 0.819877
O O15 0.696998 0.500000 0.186598
O O16 0.639686 0.784250 0.316192
O O17 0.838952 0.711119 0.008567
O O18 0.985229 0.500000 0.812619
O O19 0.026286 0.278581 0.634837
O O20 0.494904 0.000000 0.573190
#
# Coordination Sequence:
#
# PCOD8053181 Si02
#       8
#     4   4   4   4   4   4   4   4
#     4  11  22  36  56  82 109 140 178 218 267 320
#     4  10  20  37  57  79 109 142 179 221 266 315
#     4  10  20  37  57  79 109 142 179 221 266 315
#     4  10  19  35  57  81 110 142 178 220 268 317
#     4   8  18  35  55  79 108 142 178 220 266 315
#     4  10  21  37  56  80 109 142 180 220 265 316
#     4   9  20  38  56  76 107 142 178 222 267 314
#     4  10  21  37  56  80 109 142 180 220 265 316
#
# _framework density 18.872779000000001
#
# number of rings (size 3 to 8) (size 9 to 14) (size 15 to 20)
#    0.000    2.250    0.000    4.500    0.000    5.000 
#    0.000   12.500    0.000    0.000    0.000    0.000 
#    0.000    0.000    0.000    0.000    0.000    0.000 
#
# Total GULP energy -198441.424393 kJ/mol
# GULP energy per Si atom -12402.589025 kJ/mol
# Density = 1.882982 g / cm^3
# Si number density = 18.872779 Si / 1000 Ang^3
#
#
#
# Elastic Constant Matrix: (Units=GPa)
#
#
# Indices 1 2 3 4 5 6 
#
# 1 135.1203 28.4895 46.5365 0.0000 9.6293 0.0000
# 2 28.4895 51.6794 8.1766 -0.0001 2.8244 0.0000
# 3 46.5365 8.1766 116.6303 0.0000 5.0745 0.0000
# 4 0.0000 -0.0001 0.0000 32.6780 0.0000 0.1013
# 5 9.6293 2.8244 5.0745 0.0000 13.3641 0.0000
# 6 0.0000 0.0000 0.0000 0.1013 0.0000 25.6200
#
#
#
# Elastic Compliance Matrix: (Units=1/GPa)
#
#
# Indices 1 2 3 4 5 6 
#
# 1 0.009904 -0.004654 -0.003414 0.000000 -0.004856 0.000000
# 2 -0.004654 0.021933 0.000381 0.000000 -0.001427 0.000000
# 3 -0.003414 0.000381 0.009971 0.000000 -0.001407 0.000000
# 4 0.000000 0.000000 0.000000 0.030602 0.000000 -0.000121
# 5 -0.004856 -0.001427 -0.001407 0.000000 0.079162 0.000000
# 6 0.000000 0.000000 0.000000 -0.000121 0.000000 0.039033
#
#
# Mechanical properties :
#
#
# Convention : Reuss Voigt Hill
#
# Bulk Modulus (GPa) = 37.82950 52.20389 45.01670
# Shear Modulus (GPa) = 23.27849 29.01424 26.14637
#
# Velocity S-wave (km/s) = 3.51585 3.92517 3.72614
# Velocity P-wave (km/s) = 6.04728 6.94720 6.51280
#
# Compressibility (1/GPa) = 0.02643440
#
# Stress axis : x y z
#
# Youngs Moduli (GPa) = 100.96826 45.59244 100.29214
#
# Poissons Ratio (x) = 0.21220 0.34242
# Poissons Ratio (y) = 0.46993 -0.03826
# Poissons Ratio (z) = 0.34473 -0.01739
#
# Static dielectric constant tensor:
#      x y z
#    x 3.595670 0.000000 0.041300 
#    y 0.000000 3.366620 0.000000 
#    z 0.041300 0.000000 3.410920 
# 
# 
# High freq. dielectric constant tensor:
#      x y z
#    x 1.733880 0.000000 0.002930 
#    y 0.000000 1.732130 0.000000 
#    z 0.002930 0.000000 1.734180 
# 
# From -- ./inp_files/26516.got.cif
#   From: 2010.03.12/outbox.cif.g09.slc.cpg/sg8_14_cif.got.tgz:26516.got - 2010.03.31 10:45:26.
