data_PCOD8053066
_publ_section_title
;
Structure prediction by ZEFSAII (Michael W. Deem and Ramdas Pophale) SiO2 
 PCOD8053066
Probable space group: C M
;
_chemical_formula_sum "Si O2"
_cell_formula_units_Z 32
_cell_length_a 20.009743
_cell_length_b 8.877731
_cell_length_c 25.181389
_cell_angle_alpha 90.000000
_cell_angle_beta 157.077349
_cell_angle_gamma 90.000000
_cell_volume 1742.277641
_symmetry_space_group_name_H-M "C M"
_symmetry_group_IT_number 8
_symmetry_cell_setting 'monoclinic'
loop_
_space_group_symop_operation_xyz
x,y,z
x,-y,z
1/2+x,1/2+y,z
1/2+x,1/2-y,z
loop_
_atom_site_type_symbol
_atom_site_label
_atom_site_fract_x
_atom_site_fract_y
_atom_site_fract_z
Si Si1 0.060210 0.176339 0.266950
Si Si2 0.821906 0.171888 0.187168
Si Si3 0.836041 0.827583 0.540626
Si Si4 0.188759 0.173915 0.745518
Si Si5 0.157223 0.173516 0.500402
Si Si6 0.034187 0.178277 0.522050
Si Si7 0.649387 0.178767 0.227833
Si Si8 0.529403 0.676146 0.032054
O O1 0.232335 0.230304 0.422123
O O2 0.034467 0.260917 0.192429
O O3 0.894807 0.212350 0.182340
O O4 0.078298 0.000000 0.270059
O O5 0.663767 0.280467 0.084261
O O6 0.969054 0.197350 0.338398
O O7 0.756917 0.000000 0.141651
O O8 0.797505 0.772964 0.572293
O O9 0.037538 0.809110 0.677785
O O10 0.778138 0.000000 0.491319
O O11 0.124381 0.235893 0.641423
O O12 0.248737 0.000000 0.785311
O O13 0.341267 0.280116 0.875171
O O14 0.149210 0.227317 0.555691
O O15 0.213190 0.000000 0.536241
O O16 0.841951 0.244029 0.376084
O O17 0.015484 0.000000 0.510112
O O18 0.570349 0.235294 0.115465
O O19 0.645056 0.000000 0.224288
O O20 0.538451 0.500000 0.049856
#
# Coordination Sequence:
#
# PCOD8053066 Si02
#       8
#     4   4   4   4   4   4   4   4
#     4  10  20  34  56  87 117 145 185 235 284 333
#     4   9  18  35  57  80 113 153 186 224 281 342
#     4  10  19  33  55  83 113 148 189 230 280 337
#     4  10  21  39  59  79 109 154 195 228 279 346
#     4   9  17  32  56  84 113 143 180 232 286 335
#     4   9  17  34  59  84 108 142 190 229 274 335
#     4  11  20  37  61  85 114 148 190 236 281 338
#     4  12  25  38  55  84 117 151 193 238 283 334
#
# _framework density 18.366762999999999
#
# number of rings (size 3 to 8) (size 9 to 14) (size 15 to 20)
#    0.000    2.000    2.500    3.000    0.000    3.500 
#    0.000    1.875    0.000    4.500    0.000    0.000 
#    0.000    0.000    0.000    0.000    0.000    0.000 
#
# Total GULP energy -198427.788921 kJ/mol
# GULP energy per Si atom -12401.736808 kJ/mol
# Density = 1.832496 g / cm^3
# Si number density = 18.366763 Si / 1000 Ang^3
#
#
#
# Elastic Constant Matrix: (Units=GPa)
#
#
# Indices 1 2 3 4 5 6 
#
# 1 142.2182 49.9191 57.3988 -0.0030 0.4927 0.0013
# 2 49.9191 85.5793 36.7280 0.0146 6.4072 -0.0030
# 3 57.3988 36.7280 79.8882 0.0211 -1.3275 -0.0061
# 4 -0.0030 0.0146 0.0211 24.6090 0.0071 2.4456
# 5 0.4927 6.4072 -1.3275 0.0071 23.9484 0.0006
# 6 0.0013 -0.0030 -0.0061 2.4456 0.0006 32.8628
#
#
#
# Elastic Compliance Matrix: (Units=1/GPa)
#
#
# Indices 1 2 3 4 5 6 
#
# 1 0.010767 -0.003733 -0.006012 0.000009 0.000444 -0.000003
# 2 -0.003733 0.016302 -0.004888 -0.000005 -0.004555 0.000001
# 3 -0.006012 -0.004888 0.019126 -0.000015 0.002492 0.000004
# 4 0.000009 -0.000005 -0.000015 0.040938 -0.000012 -0.003047
# 5 0.000444 -0.004555 0.002492 -0.000012 0.043104 0.000000
# 6 -0.000003 0.000001 0.000004 -0.003047 0.000000 0.030656
#
#
# Mechanical properties :
#
#
# Convention : Reuss Voigt Hill
#
# Bulk Modulus (GPa) = 59.07560 66.19750 62.63655
# Shear Modulus (GPa) = 25.53605 27.19337 26.36471
#
# Velocity S-wave (km/s) = 3.73277 3.85200 3.79285
# Velocity P-wave (km/s) = 7.12828 7.47690 7.30467
#
# Compressibility (1/GPa) = 0.01692746
#
# Stress axis : x y z
#
# Youngs Moduli (GPa) = 92.87808 61.34383 52.28596
#
# Poissons Ratio (x) = 0.22902 0.31435
# Poissons Ratio (y) = 0.34675 0.25556
# Poissons Ratio (z) = 0.55839 0.29983
#
# Static dielectric constant tensor:
#      x y z
#    x 3.705590 0.000000 0.043360 
#    y 0.000000 3.291760 -0.000020 
#    z 0.043360 -0.000020 3.119370 
# 
# 
# High freq. dielectric constant tensor:
#      x y z
#    x 1.729920 0.000000 0.006220 
#    y 0.000000 1.702920 0.000000 
#    z 0.006220 0.000000 1.681370 
# 
# From -- ./inp_files/31328.got.cif
#   From: 2010.03.12/outbox.cif.g09.slc.cpg/sg8_16_cif.got.tgz:31328.got - 2010.03.31 10:45:26.
