data_PCOD8053347
_publ_section_title
;
Structure prediction by ZEFSAII (Michael W. Deem and Ramdas Pophale) SiO2 
 PCOD8053347
Probable space group: C M
;
_chemical_formula_sum "Si O2"
_cell_formula_units_Z 32
_cell_length_a 28.255090
_cell_length_b 9.070239
_cell_length_c 6.939887
_cell_angle_alpha 90.000000
_cell_angle_beta 88.108050
_cell_angle_gamma 90.000000
_cell_volume 1777.587595
_symmetry_space_group_name_H-M "C M"
_symmetry_group_IT_number 8
_symmetry_cell_setting 'monoclinic'
loop_
_space_group_symop_operation_xyz
x,y,z
x,-y,z
1/2+x,1/2+y,z
1/2+x,1/2-y,z
loop_
_atom_site_type_symbol
_atom_site_label
_atom_site_fract_x
_atom_site_fract_y
_atom_site_fract_z
Si Si1 0.848460 0.171949 0.278600
Si Si2 0.335569 0.828961 0.878573
Si Si3 0.591609 0.674226 0.865387
Si Si4 0.413670 0.170843 0.554292
Si Si5 0.020317 0.670610 0.605169
Si Si6 0.162948 0.329017 0.586873
Si Si7 0.092568 0.668198 0.263510
Si Si8 0.771213 0.170814 0.601575
O O1 0.894675 0.236066 0.377158
O O2 0.801640 0.207188 0.408328
O O3 0.856203 0.000000 0.246394
O O4 0.842437 0.247654 0.076430
O O5 0.382177 0.798987 0.746226
O O6 0.289329 0.765680 0.778892
O O7 0.327180 0.000000 0.918708
O O8 0.591470 0.500000 0.850331
O O9 0.544625 0.735793 0.769869
O O10 0.638856 0.735250 0.758548
O O11 0.591505 0.720365 0.087397
O O12 0.466503 0.224594 0.593553
O O13 0.412693 0.000000 0.494302
O O14 0.023339 0.500000 0.666361
O O15 0.046009 0.695938 0.398061
O O16 0.156126 0.500000 0.642243
O O17 0.138944 0.296079 0.384558
O O18 0.217570 0.283732 0.563470
O O19 0.093978 0.500000 0.187861
O O20 0.775771 0.000000 0.657888
#
# Coordination Sequence:
#
# PCOD8053347 Si02
#       8
#     4   4   4   4   4   4   4   4
#     4  10  20  34  53  78 108 139 172 212 257 305
#     4  10  20  34  53  78 108 139 171 210 257 307
#     4  11  22  34  51  78 110 137 164 208 264 313
#     4   9  19  36  56  77 102 135 176 218 257 300
#     4   9  19  37  58  76  98 135 180 218 252 299
#     4   9  19  37  58  76  98 134 178 217 252 300
#     4   9  18  34  55  76  99 132 174 215 254 301
#     4   9  19  36  56  77 101 133 175 218 257 299
#
# _framework density 18.001925
#
# number of rings (size 3 to 8) (size 9 to 14) (size 15 to 20)
#    0.000    2.500    0.000    2.625    0.000    6.000 
#    0.000    7.500    0.000    0.000    0.000    0.000 
#    0.000    0.000    0.000    0.000    0.000    0.000 
#
# Total GULP energy -198455.783642 kJ/mol
# GULP energy per Si atom -12403.486478 kJ/mol
# Density = 1.796095 g / cm^3
# Si number density = 18.001925 Si / 1000 Ang^3
#
#
#
# Elastic Constant Matrix: (Units=GPa)
#
#
# Indices 1 2 3 4 5 6 
#
# 1 157.6732 58.1791 62.5865 0.0000 15.2108 0.0000
# 2 58.1791 101.3634 73.9867 0.0000 11.2487 0.0000
# 3 62.5865 73.9867 130.6087 0.0000 15.7241 0.0000
# 4 0.0000 0.0000 0.0000 31.3264 0.0000 4.4694
# 5 15.2108 11.2487 15.7241 0.0000 14.6153 0.0000
# 6 0.0000 0.0000 0.0000 4.4694 0.0000 27.2908
#
#
#
# Elastic Compliance Matrix: (Units=1/GPa)
#
#
# Indices 1 2 3 4 5 6 
#
# 1 0.008669 -0.003130 -0.001820 0.000000 -0.004654 0.000000
# 2 -0.003130 0.018074 -0.008565 0.000000 -0.001437 0.000000
# 3 -0.001820 -0.008565 0.014198 0.000000 -0.006788 0.000000
# 4 0.000000 0.000000 0.000000 0.032686 0.000000 -0.005353
# 5 -0.004654 -0.001437 -0.006788 0.000000 0.081675 0.000000
# 6 0.000000 0.000000 0.000000 -0.005353 0.000000 0.037519
#
#
# Mechanical properties :
#
#
# Convention : Reuss Voigt Hill
#
# Bulk Modulus (GPa) = 71.89818 86.57222 79.23520
# Shear Modulus (GPa) = 22.27285 27.63936 24.95611
#
# Velocity S-wave (km/s) = 3.52127 3.92261 3.72735
# Velocity P-wave (km/s) = 7.52053 8.28920 7.91420
#
# Compressibility (1/GPa) = 0.01390856
#
# Stress axis : x y z
#
# Youngs Moduli (GPa) = 115.35489 55.32941 70.43243
#
# Poissons Ratio (x) = 0.17320 0.12822
# Poissons Ratio (y) = 0.36110 0.60326
# Poissons Ratio (z) = 0.21000 0.47390
#
# Static dielectric constant tensor:
#      x y z
#    x 3.547020 0.000000 0.052210 
#    y 0.000000 3.311900 0.000000 
#    z 0.052210 0.000000 3.243670 
# 
# 
# High freq. dielectric constant tensor:
#      x y z
#    x 1.701600 0.000000 0.004010 
#    y 0.000000 1.695600 0.000000 
#    z 0.004010 0.000000 1.696440 
# 
# From -- ./inp_files/6341.got.cif
#   From: 2010.03.12/outbox.cif.g09.slc.cpg/sg8_4_cif.got.tgz:6341.got - 2010.03.31 10:45:26.
