data_PCOD8053541
_publ_section_title
;
Structure prediction by ZEFSAII (Michael W. Deem and Ramdas Pophale) SiO2 
 PCOD8053541
Probable space group: C M
;
_chemical_formula_sum "Si O2"
_cell_formula_units_Z 24
_cell_length_a 15.046215
_cell_length_b 8.516094
_cell_length_c 14.779728
_cell_angle_alpha 90.000000
_cell_angle_beta 40.035975
_cell_angle_gamma 90.000000
_cell_volume 1218.221936
_symmetry_space_group_name_H-M "C M"
_symmetry_group_IT_number 8
_symmetry_cell_setting 'monoclinic'
loop_
_space_group_symop_operation_xyz
x,y,z
x,-y,z
1/2+x,1/2+y,z
1/2+x,1/2-y,z
loop_
_atom_site_type_symbol
_atom_site_label
_atom_site_fract_x
_atom_site_fract_y
_atom_site_fract_z
Si Si1 0.862260 0.314928 0.140030
Si Si2 0.093782 0.683842 0.821511
Si Si3 0.359011 0.186831 0.344606
Si Si4 0.385581 0.816742 0.639974
Si Si5 0.571331 0.185216 0.327103
Si Si6 0.067239 0.184069 0.648025
O O1 0.861775 0.500000 0.148206
O O2 0.877563 0.243671 0.229250
O O3 0.720728 0.262138 0.203993
O O4 0.990200 0.256661 0.980356
O O5 0.075811 0.500000 0.815637
O O6 0.247805 0.717493 0.734021
O O7 0.054532 0.781591 0.763591
O O8 0.482695 0.249494 0.311371
O O9 0.214530 0.247390 0.497944
O O10 0.359312 0.000000 0.345170
O O11 0.496019 0.763882 0.478320
O O12 0.446909 0.777521 0.690230
O O13 0.349738 0.000000 0.658974
O O14 0.588571 0.000000 0.309136
O O15 0.049100 0.000000 0.643840
#
# Coordination Sequence:
#
# PCOD8053541 Si02
#       6
#     4   4   4   4   4   4
#     4  10  22  40  60  86 121 156 194 244 299 357
#     4  11  24  40  59  89 127 163 199 245 301 358
#     4   9  18  36  60  85 113 151 197 241 291 352
#     4  11  22  38  61  92 124 156 200 249 299 360
#     4  10  20  36  60  89 117 152 197 245 297 355
#     4  11  21  38  64  89 118 160 203 250 301 350
#
# _framework density 19.700844
#
# number of rings (size 3 to 8) (size 9 to 14) (size 15 to 20)
#    0.000    1.667    3.333    1.500    0.000    3.333 
#    0.000    2.500    0.000    0.000    0.000    0.000 
#    0.000    0.000    0.000    0.000    0.000    0.000 
#
# Total GULP energy -148851.970318 kJ/mol
# GULP energy per Si atom -12404.330860 kJ/mol
# Density = 1.965600 g / cm^3
# Si number density = 19.700844 Si / 1000 Ang^3
#
#
#
# Elastic Constant Matrix: (Units=GPa)
#
#
# Indices 1 2 3 4 5 6 
#
# 1 137.3058 6.2772 40.6789 0.0000 9.3233 0.0000
# 2 6.2772 19.3560 28.0545 0.0000 4.4761 0.0000
# 3 40.6789 28.0545 115.4971 0.0000 7.3432 0.0000
# 4 0.0000 0.0000 0.0000 26.2369 0.0000 -2.9205
# 5 9.3233 4.4761 7.3432 0.0000 32.2958 0.0000
# 6 0.0000 0.0000 0.0000 -2.9205 0.0000 32.9830
#
#
#
# Elastic Compliance Matrix: (Units=1/GPa)
#
#
# Indices 1 2 3 4 5 6 
#
# 1 0.008324 0.002821 -0.003490 0.000000 -0.002000 0.000000
# 2 0.002821 0.082166 -0.020472 0.000000 -0.007548 0.000000
# 3 -0.003490 -0.020472 0.014830 0.000000 0.000473 0.000000
# 4 0.000000 0.000000 0.000000 0.038494 0.000000 0.003408
# 5 -0.002000 -0.007548 0.000473 0.000000 0.032480 0.000000
# 6 0.000000 0.000000 0.000000 0.003408 0.000000 0.030620
#
#
# Mechanical properties :
#
#
# Convention : Reuss Voigt Hill
#
# Bulk Modulus (GPa) = 15.86327 46.90891 31.38609
# Shear Modulus (GPa) = 18.50424 31.44637 24.97530
#
# Velocity S-wave (km/s) = 3.06806 3.99957 3.56438
# Velocity P-wave (km/s) = 4.54095 6.72243 5.73635
#
# Compressibility (1/GPa) = 0.06303870
#
# Stress axis : x y z
#
# Youngs Moduli (GPa) = 120.13780 12.17044 67.43068
#
# Poissons Ratio (x) = -0.03434 0.23532
# Poissons Ratio (y) = -0.33894 1.38046
# Poissons Ratio (z) = 0.41926 0.24916
#
# Static dielectric constant tensor:
#      x y z
#    x 3.780380 0.000000 0.092980 
#    y 0.000000 3.302270 0.000000 
#    z 0.092980 0.000000 3.710400 
# 
# 
# High freq. dielectric constant tensor:
#      x y z
#    x 1.783860 0.000000 0.001550 
#    y 0.000000 1.749430 0.000000 
#    z 0.001550 0.000000 1.766090 
# 
# From -- ./inp_files/12071.got.cif
#   From: 2010.03.12/outbox.cif.g09.slc.cpg/sg8_7_cif.got.tgz:12071.got - 2010.03.31 10:45:26.
