data_PCOD8053906
_publ_section_title
;
Structure prediction by ZEFSAII (Michael W. Deem and Ramdas Pophale) SiO2 
 PCOD8053906
Probable space group: C M
;
_chemical_formula_sum "Si O2"
_cell_formula_units_Z 32
_cell_length_a 22.928453
_cell_length_b 13.447510
_cell_length_c 15.851235
_cell_angle_alpha 90.000000
_cell_angle_beta 20.261798
_cell_angle_gamma 90.000000
_cell_volume 1692.563858
_symmetry_space_group_name_H-M "C M"
_symmetry_group_IT_number 8
_symmetry_cell_setting 'monoclinic'
loop_
_space_group_symop_operation_xyz
x,y,z
x,-y,z
1/2+x,1/2+y,z
1/2+x,1/2-y,z
loop_
_atom_site_type_symbol
_atom_site_label
_atom_site_fract_x
_atom_site_fract_y
_atom_site_fract_z
Si Si1 0.121010 0.111594 0.885500
Si Si2 0.938871 0.888825 0.904536
Si Si3 0.490873 0.882498 0.608266
Si Si4 0.622224 0.612256 0.077012
Si Si5 0.813347 0.793029 0.235808
Si Si6 0.911466 0.295497 0.390291
Si Si7 0.820908 0.385924 0.340197
Si Si8 0.112994 0.611805 0.261696
O O1 0.228921 0.186803 0.680109
O O2 0.155899 0.000000 0.804776
O O3 0.178705 0.121972 0.903130
O O4 0.922416 0.135551 0.149149
O O5 0.126147 0.871619 0.622462
O O6 0.916036 0.000000 0.975137
O O7 0.889397 0.805410 0.039431
O O8 0.815991 0.879594 0.990606
O O9 0.615283 0.824839 0.505091
O O10 0.535378 0.843935 0.453585
O O11 0.527933 0.000000 0.565129
O O12 0.293799 0.859438 0.895729
O O13 0.566535 0.500000 0.173845
O O14 0.458977 0.679093 0.318483
O O15 0.849526 0.680526 0.218045
O O16 0.924907 0.346645 0.280048
O O17 0.057233 0.335254 0.252650
O O18 0.870847 0.500000 0.253377
O O19 0.047288 0.500000 0.342209
#
# Coordination Sequence:
#
# PCOD8053906 Si02
#       8
#     4   4   4   4   4   4   4   4
#     4  11  20  36  59  83 111 146 192 235 271 326
#     4   9  19  36  57  82 110 142 187 239 276 322
#     4   9  18  35  59  87 111 140 186 240 281 324
#     4  10  22  38  55  83 118 147 186 234 279 334
#     4  11  20  34  58  85 112 147 185 231 285 329
#     4  12  21  34  59  84 113 151 186 226 286 331
#     4  11  23  36  53  83 119 150 187 230 279 336
#     4   9  17  31  56  85 108 139 189 235 275 322
#
# _framework density 18.906229
#
# number of rings (size 3 to 8) (size 9 to 14) (size 15 to 20)
#    0.000    1.750    3.750    3.000    1.750    0.000 
#    0.000    0.625    0.000    5.250    0.000    0.000 
#    0.000    0.000    0.000    0.000    0.000    0.000 
#
# Total GULP energy -198268.791761 kJ/mol
# GULP energy per Si atom -12391.799485 kJ/mol
# Density = 1.886320 g / cm^3
# Si number density = 18.906229 Si / 1000 Ang^3
#
#
#
# Elastic Constant Matrix: (Units=GPa)
#
#
# Indices 1 2 3 4 5 6 
#
# 1 90.5701 50.8308 27.2981 0.0004 -20.2840 -0.0001
# 2 50.8308 123.2865 52.2171 -0.0007 -2.7610 0.0000
# 3 27.2981 52.2171 76.3636 -0.0009 -17.5206 -0.0002
# 4 0.0004 -0.0007 -0.0009 31.2774 -0.0003 0.5247
# 5 -20.2840 -2.7610 -17.5206 -0.0003 28.5568 0.0002
# 6 -0.0001 0.0000 -0.0002 0.5247 0.0002 28.9797
#
#
#
# Elastic Compliance Matrix: (Units=1/GPa)
#
#
# Indices 1 2 3 4 5 6 
#
# 1 0.017812 -0.007926 0.002071 0.000000 0.013156 0.000000
# 2 -0.007926 0.015416 -0.010076 0.000000 -0.010322 0.000000
# 3 0.002071 -0.010076 0.022530 0.000001 0.014320 0.000000
# 4 0.000000 0.000000 0.000001 0.031982 0.000001 -0.000579
# 5 0.013156 -0.010322 0.014320 0.000001 0.052151 0.000000
# 6 0.000000 0.000000 0.000000 -0.000579 0.000000 0.034517
#
#
# Mechanical properties :
#
#
# Convention : Reuss Voigt Hill
#
# Bulk Modulus (GPa) = 41.84836 61.21246 51.53041
# Shear Modulus (GPa) = 23.33890 28.42108 25.87999
#
# Velocity S-wave (km/s) = 3.51729 3.88140 3.70383
# Velocity P-wave (km/s) = 6.21915 7.24805 6.75323
#
# Compressibility (1/GPa) = 0.02389580
#
# Stress axis : x y z
#
# Youngs Moduli (GPa) = 56.14211 64.86928 44.38507
#
# Poissons Ratio (x) = 0.51419 -0.09194
# Poissons Ratio (y) = 0.44501 0.44721
# Poissons Ratio (z) = -0.11629 0.65361
#
# Static dielectric constant tensor:
#      x y z
#    x 3.516820 0.000000 -0.402960 
#    y 0.000000 3.420830 0.000000 
#    z -0.402960 0.000000 3.403020 
# 
# 
# High freq. dielectric constant tensor:
#      x y z
#    x 1.730050 0.000000 -0.038540 
#    y 0.000000 1.715460 0.000000 
#    z -0.038540 0.000000 1.724370 
# 
# From -- ./inp_files/29222.got.cif
#   From: 2010.03.12/outbox.cif.g09.slc.cpg/sg8_15_cif.got.tgz:29222.got - 2010.03.31 10:45:26.
