data_PCOD8053864
_publ_section_title
;
Structure prediction by ZEFSAII (Michael W. Deem and Ramdas Pophale) SiO2 
 PCOD8053864
Probable space group: C M
;
_chemical_formula_sum "Si O2"
_cell_formula_units_Z 32
_cell_length_a 21.997868
_cell_length_b 8.550820
_cell_length_c 11.085687
_cell_angle_alpha 90.000000
_cell_angle_beta 131.046926
_cell_angle_gamma 90.000000
_cell_volume 1572.611243
_symmetry_space_group_name_H-M "C M"
_symmetry_group_IT_number 8
_symmetry_cell_setting 'monoclinic'
loop_
_space_group_symop_operation_xyz
x,y,z
x,-y,z
1/2+x,1/2+y,z
1/2+x,1/2-y,z
loop_
_atom_site_type_symbol
_atom_site_label
_atom_site_fract_x
_atom_site_fract_y
_atom_site_fract_z
Si Si1 0.418500 0.319544 0.536000
Si Si2 0.654851 0.820249 0.722016
Si Si3 0.804853 0.319372 0.796322
Si Si4 0.772735 0.680950 0.480529
Si Si5 0.463073 0.679598 0.106235
Si Si6 0.567254 0.818124 0.849247
Si Si7 0.485432 0.180008 0.387130
Si Si8 0.113493 0.681066 0.176015
O O1 0.425047 0.500000 0.509736
O O2 0.330480 0.284590 0.472858
O O3 0.485031 0.277924 0.723614
O O4 0.431634 0.218464 0.433202
O O5 0.727469 0.708805 0.779325
O O6 0.631764 0.778747 0.829470
O O7 0.578949 0.786142 0.536960
O O8 0.682095 0.000000 0.746157
O O9 0.829988 0.500000 0.838604
O O10 0.783307 0.269763 0.632759
O O11 0.877574 0.212181 0.934325
O O12 0.793692 0.500000 0.488689
O O13 0.681068 0.712563 0.324509
O O14 0.486460 0.500000 0.115404
O O15 0.456938 0.712829 0.240328
O O16 0.529513 0.790521 0.133403
O O17 0.543086 0.000000 0.813853
O O18 0.605958 0.770302 0.026444
O O19 0.471591 0.000000 0.334936
O O20 0.136979 0.500000 0.220189
#
# Coordination Sequence:
#
# PCOD8053864 Si02
#       8
#     4   4   4   4   4   4   4   4
#     4  11  22  37  61  91 121 154 195 242 293 348
#     4   9  19  37  61  87 116 151 191 239 292 346
#     4  11  24  40  59  84 116 156 199 244 294 347
#     4  11  24  41  60  84 118 158 201 246 293 349
#     4  12  25  40  60  87 119 153 195 245 296 352
#     4   9  20  39  61  86 119 158 196 237 289 350
#     4  10  21  40  64  88 119 157 195 237 290 351
#     4  11  23  40  62  87 118 155 198 246 297 351
#
# _framework density 20.348320000000001
#
# number of rings (size 3 to 8) (size 9 to 14) (size 15 to 20)
#    0.000    1.500    0.000    6.000    0.000   11.500 
#    0.000    3.750    0.000    0.000    0.000    0.000 
#    0.000    0.000    0.000    0.000    0.000    0.000 
#
# Total GULP energy -198525.917572 kJ/mol
# GULP energy per Si atom -12407.869848 kJ/mol
# Density = 2.030201 g / cm^3
# Si number density = 20.348320 Si / 1000 Ang^3
#
#
#
# Elastic Constant Matrix: (Units=GPa)
#
#
# Indices 1 2 3 4 5 6 
#
# 1 103.0353 18.0334 47.1211 0.0000 5.0959 0.0000
# 2 18.0334 64.6723 31.1046 0.0000 -2.9470 0.0000
# 3 47.1211 31.1046 123.9402 0.0000 -10.9988 0.0000
# 4 0.0000 0.0000 0.0000 25.9405 0.0000 3.1162
# 5 5.0959 -2.9470 -10.9988 0.0000 31.3888 0.0000
# 6 0.0000 0.0000 0.0000 3.1162 0.0000 35.8727
#
#
#
# Elastic Compliance Matrix: (Units=1/GPa)
#
#
# Indices 1 2 3 4 5 6 
#
# 1 0.012255 -0.001350 -0.004653 0.000000 -0.003747 0.000000
# 2 -0.001350 0.017734 -0.003891 0.000000 0.000521 0.000000
# 3 -0.004653 -0.003891 0.011197 0.000000 0.004313 0.000000
# 4 0.000000 0.000000 0.000000 0.038956 0.000000 -0.003384
# 5 -0.003747 0.000521 0.004313 0.000000 0.034027 0.000000
# 6 0.000000 0.000000 0.000000 -0.003384 0.000000 0.028170
#
#
# Mechanical properties :
#
#
# Convention : Reuss Voigt Hill
#
# Bulk Modulus (GPa) = 46.73422 53.79623 50.26522
# Shear Modulus (GPa) = 29.54028 31.66631 30.60330
#
# Velocity S-wave (km/s) = 3.81429 3.94917 3.88231
# Velocity P-wave (km/s) = 6.51271 6.87674 6.69720
#
# Compressibility (1/GPa) = 0.02139760
#
# Stress axis : x y z
#
# Youngs Moduli (GPa) = 81.59988 56.38810 89.31188
#
# Poissons Ratio (x) = 0.07613 0.41556
# Poissons Ratio (y) = 0.11017 0.34753
# Poissons Ratio (z) = 0.37967 0.21941
#
# Static dielectric constant tensor:
#      x y z
#    x 3.657720 0.000000 -0.143940 
#    y 0.000000 3.599380 0.000000 
#    z -0.143940 0.000000 3.707980 
# 
# 
# High freq. dielectric constant tensor:
#      x y z
#    x 1.802250 0.000000 -0.006290 
#    y 0.000000 1.797210 0.000000 
#    z -0.006290 0.000000 1.797440 
# 
# From -- ./inp_files/23905.got.cif
#   From: 2010.03.12/outbox.cif.g09.slc.cpg/sg8_12_cif.got.tgz:23905.got - 2010.03.31 10:45:26.
