data_PCOD8053955
_publ_section_title
;
Structure prediction by ZEFSAII (Michael W. Deem and Ramdas Pophale) SiO2 
 PCOD8053955
Probable space group: C M
;
_chemical_formula_sum "Si O2"
_cell_formula_units_Z 32
_cell_length_a 11.252748
_cell_length_b 19.134400
_cell_length_c 13.906873
_cell_angle_alpha 90.000000
_cell_angle_beta 150.095522
_cell_angle_gamma 90.000000
_cell_volume 1492.850900
_symmetry_space_group_name_H-M "C M"
_symmetry_group_IT_number 8
_symmetry_cell_setting 'monoclinic'
loop_
_space_group_symop_operation_xyz
x,y,z
x,-y,z
1/2+x,1/2+y,z
1/2+x,1/2-y,z
loop_
_atom_site_type_symbol
_atom_site_label
_atom_site_fract_x
_atom_site_fract_y
_atom_site_fract_z
Si Si1 0.029540 0.922130 0.455830
Si Si2 0.729336 0.419901 0.306210
Si Si3 0.863394 0.327762 0.563855
Si Si4 0.755442 0.168204 0.994547
Si Si5 0.579983 0.862866 0.074985
Si Si6 0.086267 0.079318 0.715736
Si Si7 0.068262 0.420980 0.366233
Si Si8 0.593477 0.212829 0.264956
O O1 0.159497 0.861618 0.486986
O O2 0.027830 0.898635 0.565146
O O3 0.758190 0.925958 0.227030
O O4 0.142826 0.000000 0.522009
O O5 0.698614 0.500000 0.315476
O O6 0.900587 0.381047 0.501953
O O7 0.860675 0.412096 0.297535
O O8 0.467599 0.385835 0.120313
O O9 0.792675 0.251572 0.470733
O O10 0.106306 0.321009 0.792939
O O11 0.587330 0.144931 0.964633
O O12 0.857098 0.241206 0.101844
O O13 0.667030 0.797006 0.203298
O O14 0.304383 0.876021 0.910420
O O15 0.836758 0.090736 0.598519
O O16 0.172775 0.000000 0.780991
O O17 0.059651 0.500000 0.316359
O O18 0.022336 0.363742 0.252639
#
# Coordination Sequence:
#
# PCOD8053955 Si02
#       8
#     4   4   4   4   4   4   4   4
#     4  11  21  39  68 100 137 172 216 279 334 386
#     4  10  23  45  70  98 137 181 225 271 328 399
#     4  11  24  44  66 100 136 181 216 276 338 397
#     4  11  26  43  66 103 134 175 227 275 336 393
#     4  12  23  42  67 101 130 172 224 278 335 388
#     4  10  22  40  67 101 132 170 220 278 335 391
#     4  10  23  47  69  92 132 180 223 271 332 398
#     4  11  26  42  68  95 136 181 217 278 333 402
#
# _framework density 21.435496000000001
#
# number of rings (size 3 to 8) (size 9 to 14) (size 15 to 20)
#    0.000    1.250    5.000    0.750    5.250    2.000 
#    4.500    0.000    0.000    0.000    0.000    0.000 
#    0.000    0.000    0.000    0.000    0.000    0.000 
#
# Total GULP energy -198275.522182 kJ/mol
# GULP energy per Si atom -12392.220136 kJ/mol
# Density = 2.138671 g / cm^3
# Si number density = 21.435496 Si / 1000 Ang^3
#
#
#
# Elastic Constant Matrix: (Units=GPa)
#
#
# Indices 1 2 3 4 5 6 
#
# 1 81.6406 42.8549 24.7782 -0.0002 3.4736 -0.0003
# 2 42.8549 123.8270 42.2503 0.0004 -4.6841 0.0004
# 3 24.7782 42.2503 132.2471 0.0003 -10.5425 -0.0008
# 4 -0.0002 0.0004 0.0003 22.3885 -0.0003 -7.5929
# 5 3.4736 -4.6841 -10.5425 -0.0003 36.5956 -0.0008
# 6 -0.0003 0.0004 -0.0008 -7.5929 -0.0008 30.1732
#
#
#
# Elastic Compliance Matrix: (Units=1/GPa)
#
#
# Indices 1 2 3 4 5 6 
#
# 1 0.015391 -0.004904 -0.001518 0.000000 -0.002526 0.000000
# 2 -0.004904 0.010630 -0.002387 0.000000 0.001139 0.000000
# 3 -0.001518 -0.002387 0.008798 0.000000 0.002373 0.000000
# 4 0.000000 0.000000 0.000000 0.048833 0.000001 0.012289
# 5 -0.002526 0.001139 0.002373 0.000001 0.028395 0.000001
# 6 0.000000 0.000000 0.000000 0.012289 0.000001 0.036234
#
#
# Mechanical properties :
#
#
# Convention : Reuss Voigt Hill
#
# Bulk Modulus (GPa) = 58.13523 61.94239 60.03881
# Shear Modulus (GPa) = 29.13168 33.02021 31.07595
#
# Velocity S-wave (km/s) = 3.69051 3.92911 3.81168
# Velocity P-wave (km/s) = 6.73348 7.03873 6.88780
#
# Compressibility (1/GPa) = 0.01720127
#
# Stress axis : x y z
#
# Youngs Moduli (GPa) = 64.97108 94.06931 113.66571
#
# Poissons Ratio (x) = 0.46134 0.17258
# Poissons Ratio (y) = 0.31864 0.27127
# Poissons Ratio (z) = 0.09865 0.22450
#
# Static dielectric constant tensor:
#      x y z
#    x 3.893300 0.000000 -0.060680 
#    y 0.000000 3.972730 0.000000 
#    z -0.060680 0.000000 3.836640 
# 
# 
# High freq. dielectric constant tensor:
#      x y z
#    x 1.836600 0.000000 -0.001020 
#    y 0.000000 1.844450 0.000000 
#    z -0.001020 0.000000 1.839080 
# 
# From -- ./inp_files/26289.got.cif
#   From: 2010.03.12/outbox.cif.g09.slc.cpg/sg8_14_cif.got.tgz:26289.got - 2010.03.31 10:45:26.
