data_PCOD8053788
_publ_section_title
;
Structure prediction by ZEFSAII (Michael W. Deem and Ramdas Pophale) SiO2 
 PCOD8053788
Probable space group: C M
;
_chemical_formula_sum "Si O2"
_cell_formula_units_Z 32
_cell_length_a 24.515188
_cell_length_b 8.957900
_cell_length_c 25.575331
_cell_angle_alpha 90.000000
_cell_angle_beta 163.036459
_cell_angle_gamma 90.000000
_cell_volume 1638.676013
_symmetry_space_group_name_H-M "C M"
_symmetry_group_IT_number 8
_symmetry_cell_setting 'monoclinic'
loop_
_space_group_symop_operation_xyz
x,y,z
x,-y,z
1/2+x,1/2+y,z
1/2+x,1/2-y,z
loop_
_atom_site_type_symbol
_atom_site_label
_atom_site_fract_x
_atom_site_fract_y
_atom_site_fract_z
Si Si1 0.774310 0.822705 0.827160
Si Si2 0.538584 0.164325 0.213538
Si Si3 0.556185 0.676403 0.536323
Si Si4 0.627057 0.667085 0.789948
Si Si5 0.650999 0.824763 0.206818
Si Si6 0.505725 0.177100 0.777504
Si Si7 0.900834 0.175723 0.181597
Si Si8 0.630229 0.322969 0.487824
O O1 0.702520 0.765331 0.705664
O O2 0.633599 0.758005 0.741939
O O3 0.770158 0.000000 0.825993
O O4 0.986686 0.767729 0.028769
O O5 0.670317 0.218043 0.286327
O O6 0.547126 0.273152 0.270918
O O7 0.598263 0.000000 0.287447
O O8 0.331863 0.161515 0.001112
O O9 0.593966 0.500000 0.576573
O O10 0.344010 0.717020 0.356204
O O11 0.589270 0.737086 0.508022
O O12 0.551257 0.500000 0.709207
O O13 0.491306 0.748199 0.706991
O O14 0.601776 0.000000 0.156482
O O15 0.332549 0.232021 0.653570
O O16 0.508206 0.000000 0.771728
O O17 0.691587 0.233387 0.978354
O O18 0.970910 0.237314 0.301856
O O19 0.906771 0.000000 0.186717
O O20 0.625682 0.500000 0.484441
#
# Coordination Sequence:
#
# PCOD8053788 Si02
#       8
#     4   4   4   4   4   4   4   4
#     4  11  22  36  56  82 113 145 179 226 281 330
#     4   8  15  29  49  75 103 129 163 210 263 318
#     4  10  21  38  58  79 107 146 192 233 268 319
#     4   9  17  32  54  79 107 139 177 217 264 327
#     4   9  19  36  58  82 108 141 183 227 272 327
#     4   9  17  31  52  78 107 136 168 213 268 319
#     4   9  17  30  49  73 100 131 166 206 256 312
#     4   9  19  34  52  76 103 135 180 224 260 312
#
# _framework density 19.527958999999999
#
# number of rings (size 3 to 8) (size 9 to 14) (size 15 to 20)
#    0.000    2.750    0.000    2.250    0.000    5.500 
#    0.000    8.125    0.000    3.000    0.000    0.000 
#    0.000    0.000    0.000    0.000    0.000    0.000 
#
# Total GULP energy -198352.029585 kJ/mol
# GULP energy per Si atom -12397.001849 kJ/mol
# Density = 1.948351 g / cm^3
# Si number density = 19.527959 Si / 1000 Ang^3
#
#
#
# Elastic Constant Matrix: (Units=GPa)
#
#
# Indices 1 2 3 4 5 6 
#
# 1 116.4300 16.6830 20.5797 0.0846 1.2665 -0.0159
# 2 16.6830 55.0822 17.0606 0.1788 -2.9785 0.0362
# 3 20.5797 17.0606 51.7030 0.0534 -1.8680 0.0100
# 4 0.0846 0.1788 0.0534 13.8844 -0.0117 -2.3412
# 5 1.2665 -2.9785 -1.8680 -0.0117 35.1473 -0.0062
# 6 -0.0159 0.0362 0.0100 -2.3412 -0.0062 27.1385
#
#
#
# Elastic Compliance Matrix: (Units=1/GPa)
#
#
# Indices 1 2 3 4 5 6 
#
# 1 0.009427 -0.001918 -0.003144 -0.000020 -0.000669 0.000007
# 2 -0.001918 0.020677 -0.006005 -0.000238 0.001502 -0.000047
# 3 -0.003144 -0.006005 0.022603 0.000010 0.000806 -0.000001
# 4 -0.000020 -0.000238 0.000010 0.073090 0.000007 0.006306
# 5 -0.000669 0.001502 0.000806 0.000007 0.028646 0.000004
# 6 0.000007 -0.000047 -0.000001 0.006306 0.000004 0.037392
#
#
# Mechanical properties :
#
#
# Convention : Reuss Voigt Hill
#
# Bulk Modulus (GPa) = 32.70693 36.87353 34.79023
# Shear Modulus (GPa) = 22.30558 26.49349 24.39954
#
# Velocity S-wave (km/s) = 3.38337 3.68733 3.53861
# Velocity P-wave (km/s) = 5.66110 6.08703 5.87792
#
# Compressibility (1/GPa) = 0.03057456
#
# Stress axis : x y z
#
# Youngs Moduli (GPa) = 106.08340 48.36177 44.24166
#
# Poissons Ratio (x) = 0.09274 0.13908
# Poissons Ratio (y) = 0.20342 0.26568
# Poissons Ratio (z) = 0.33348 0.29042
#
# Static dielectric constant tensor:
#      x y z
#    x 3.902620 -0.000060 -0.064600 
#    y -0.000060 3.394030 -0.000010 
#    z -0.064600 -0.000010 3.578960 
# 
# 
# High freq. dielectric constant tensor:
#      x y z
#    x 1.763510 0.000000 -0.001510 
#    y 0.000000 1.734680 -0.000010 
#    z -0.001510 -0.000010 1.757260 
# 
# From -- ./inp_files/16758.got.cif
#   From: 2010.03.12/outbox.cif.g09.slc.cpg/sg8_9_cif.got.tgz:16758.got - 2010.03.31 10:45:26.
