data_PCOD8053908
_publ_section_title
;
Structure prediction by ZEFSAII (Michael W. Deem and Ramdas Pophale) SiO2 
 PCOD8053908
Probable space group: C M
;
_chemical_formula_sum "Si O2"
_cell_formula_units_Z 28
_cell_length_a 9.989050
_cell_length_b 9.976282
_cell_length_c 14.676555
_cell_angle_alpha 90.000000
_cell_angle_beta 71.061270
_cell_angle_gamma 90.000000
_cell_volume 1383.396683
_symmetry_space_group_name_H-M "C M"
_symmetry_group_IT_number 8
_symmetry_cell_setting 'monoclinic'
loop_
_space_group_symop_operation_xyz
x,y,z
x,-y,z
1/2+x,1/2+y,z
1/2+x,1/2-y,z
loop_
_atom_site_type_symbol
_atom_site_label
_atom_site_fract_x
_atom_site_fract_y
_atom_site_fract_z
Si Si1 0.275120 0.154501 0.150110
Si Si2 0.304621 0.855718 0.349699
Si Si3 0.862811 0.151535 0.471497
Si Si4 0.069872 0.148784 0.753227
Si Si5 0.102451 0.654887 0.058028
Si Si6 0.746087 0.844007 0.835694
Si Si7 0.597089 0.291358 0.542592
O O1 0.253127 0.187518 0.261402
O O2 0.170238 0.251461 0.119587
O O3 0.436463 0.185633 0.086802
O O4 0.237148 0.000000 0.136187
O O5 0.402313 0.737976 0.371731
O O6 0.171319 0.880110 0.446753
O O7 0.385822 0.000000 0.324416
O O8 0.692472 0.155745 0.528369
O O9 0.936903 0.225845 0.541520
O O10 0.912577 0.000000 0.447530
O O11 0.910095 0.195807 0.809057
O O12 0.093105 0.136691 0.640136
O O13 0.176944 0.254908 0.772219
O O14 0.096559 0.000000 0.788445
O O15 0.130222 0.500000 0.078206
O O16 0.170859 0.691130 0.946582
O O17 0.728598 0.000000 0.812777
#
# Coordination Sequence:
#
# PCOD8053908 Si02
#       7
#     4   4   4   4   4   4   4
#     4  10  22  38  60  88 118 153 194 236 287 346
#     4   9  21  38  58  85 121 156 190 237 287 337
#     4  10  22  38  58  82 115 157 197 234 279 337
#     4  11  22  38  61  87 115 154 196 236 287 347
#     4  10  22  41  61  86 118 151 190 244 294 341
#     4  10  23  41  61  86 118 150 191 245 295 340
#     4  10  22  38  59  82 121 153 190 236 285 334
#
# _framework density 20.240036
#
# number of rings (size 3 to 8) (size 9 to 14) (size 15 to 20)
#    0.857    1.143    0.000    3.000    2.000    4.571 
#    0.000    0.000    0.000    0.000    0.000    0.000 
#    0.000    0.000    0.000    0.000    0.000    0.000 
#
# Total GULP energy -173461.099866 kJ/mol
# GULP energy per Si atom -12390.078562 kJ/mol
# Density = 2.019397 g / cm^3
# Si number density = 20.240036 Si / 1000 Ang^3
#
#
#
# Elastic Constant Matrix: (Units=GPa)
#
#
# Indices 1 2 3 4 5 6 
#
# 1 71.7087 43.6140 1.5975 0.0000 17.8233 0.0000
# 2 43.6140 82.1174 15.1641 0.0000 23.6746 0.0000
# 3 1.5975 15.1641 84.4002 0.0000 4.7154 0.0000
# 4 0.0000 0.0000 0.0000 24.6626 0.0000 -0.7657
# 5 17.8233 23.6746 4.7154 0.0000 35.6168 0.0000
# 6 0.0000 0.0000 0.0000 -0.7657 0.0000 16.6010
#
#
#
# Elastic Compliance Matrix: (Units=1/GPa)
#
#
# Indices 1 2 3 4 5 6 
#
# 1 0.021246 -0.010475 0.001697 0.000000 -0.003894 0.000000
# 2 -0.010475 0.020632 -0.003058 0.000000 -0.008067 0.000000
# 3 0.001697 -0.003058 0.012391 0.000000 -0.000457 0.000000
# 4 0.000000 0.000000 0.000000 0.040605 0.000000 0.001873
# 5 -0.003894 -0.008067 -0.000457 0.000000 0.035448 0.000000
# 6 0.000000 0.000000 0.000000 0.001873 0.000000 0.060324
#
#
# Mechanical properties :
#
#
# Convention : Reuss Voigt Hill
#
# Bulk Modulus (GPa) = 32.68183 39.88639 36.28411
# Shear Modulus (GPa) = 22.27004 27.23281 24.75143
#
# Velocity S-wave (km/s) = 3.32067 3.67207 3.50078
# Velocity P-wave (km/s) = 5.55740 6.14234 5.85717
#
# Compressibility (1/GPa) = 0.03059804
#
# Stress axis : x y z
#
# Youngs Moduli (GPa) = 47.06666 48.46915 80.70285
#
# Poissons Ratio (x) = 0.50772 -0.13699
# Poissons Ratio (y) = 0.49303 0.24678
# Poissons Ratio (z) = -0.07989 0.14821
#
# Static dielectric constant tensor:
#      x y z
#    x 3.607340 0.000000 -0.045510 
#    y 0.000000 3.480380 0.000000 
#    z -0.045510 0.000000 3.687410 
# 
# 
# High freq. dielectric constant tensor:
#      x y z
#    x 1.785570 0.000000 -0.001110 
#    y 0.000000 1.782250 0.000000 
#    z -0.001110 0.000000 1.796520 
# 
# From -- ./inp_files/25782.got.cif
#   From: 2010.03.12/outbox.cif.g09.slc.cpg/sg8_13_cif.got.tgz:25782.got - 2010.03.31 10:45:26.
