data_PCOD8053954
_publ_section_title
;
Structure prediction by ZEFSAII (Michael W. Deem and Ramdas Pophale) SiO2 
 PCOD8053954
Probable space group: C M
;
_chemical_formula_sum "Si O2"
_cell_formula_units_Z 32
_cell_length_a 18.402059
_cell_length_b 13.364321
_cell_length_c 12.696782
_cell_angle_alpha 90.000000
_cell_angle_beta 29.346404
_cell_angle_gamma 90.000000
_cell_volume 1530.317572
_symmetry_space_group_name_H-M "C M"
_symmetry_group_IT_number 8
_symmetry_cell_setting 'monoclinic'
loop_
_space_group_symop_operation_xyz
x,y,z
x,-y,z
1/2+x,1/2+y,z
1/2+x,1/2-y,z
loop_
_atom_site_type_symbol
_atom_site_label
_atom_site_fract_x
_atom_site_fract_y
_atom_site_fract_z
Si Si1 0.686320 0.383011 0.978470
Si Si2 0.373026 0.281242 0.834527
Si Si3 0.849968 0.118047 0.439701
Si Si4 0.886410 0.382268 0.536126
Si Si5 0.209632 0.269760 0.432453
Si Si6 0.196101 0.382216 0.237488
Si Si7 0.419680 0.882317 0.258930
Si Si8 0.757431 0.882538 0.782912
O O1 0.708988 0.500000 0.974341
O O2 0.781475 0.323110 0.945330
O O3 0.743069 0.355665 0.788343
O O4 0.516364 0.349435 0.199200
O O5 0.540388 0.261742 0.654401
O O6 0.366851 0.334513 0.729335
O O7 0.306741 0.356481 0.003772
O O8 0.738030 0.155558 0.492855
O O9 0.805091 0.163715 0.610111
O O10 0.834659 0.000000 0.464958
O O11 0.903795 0.500000 0.497846
O O12 0.876869 0.338548 0.429308
O O13 0.031614 0.344578 0.414887
O O14 0.248559 0.324928 0.275095
O O15 0.314055 0.172040 0.308439
O O16 0.201278 0.500000 0.253249
O O17 0.392425 0.000000 0.281927
O O18 0.589234 0.853538 0.022514
O O19 0.781590 0.000000 0.754328
#
# Coordination Sequence:
#
# PCOD8053954 Si02
#       8
#     4   4   4   4   4   4   4   4
#     4  10  22  40  65  96 126 168 224 276 323 384
#     4  12  25  39  67  99 131 171 220 272 331 389
#     4  10  24  43  64  93 129 170 217 270 330 393
#     4   9  18  39  69  92 120 167 224 275 313 374
#     4  12  27  39  64  98 139 173 208 266 339 401
#     4  11  24  45  67  96 134 177 223 268 331 398
#     4  10  22  42  66  95 128 170 220 270 326 390
#     4  10  22  43  69  91 123 170 221 273 322 387
#
# _framework density 20.910693999999999
#
# number of rings (size 3 to 8) (size 9 to 14) (size 15 to 20)
#    0.000    1.500    2.500    1.500    5.250    2.500 
#    0.000    1.875    0.000    0.000    0.000    0.000 
#    0.000    0.000    0.000    0.000    0.000    0.000 
#
# Total GULP energy -198481.893479 kJ/mol
# GULP energy per Si atom -12405.118342 kJ/mol
# Density = 2.086310 g / cm^3
# Si number density = 20.910694 Si / 1000 Ang^3
#
#
#
# Elastic Constant Matrix: (Units=GPa)
#
#
# Indices 1 2 3 4 5 6 
#
# 1 151.5566 47.5343 67.9165 0.0000 1.9399 0.0000
# 2 47.5343 51.3954 51.3006 0.0000 2.9609 0.0000
# 3 67.9165 51.3006 129.7886 0.0000 1.8603 0.0000
# 4 0.0000 0.0000 0.0000 34.2850 0.0000 2.6014
# 5 1.9399 2.9609 1.8603 0.0000 43.3282 0.0000
# 6 0.0000 0.0000 0.0000 2.6014 0.0000 41.8661
#
#
#
# Elastic Compliance Matrix: (Units=1/GPa)
#
#
# Indices 1 2 3 4 5 6 
#
# 1 0.009779 -0.006510 -0.002546 0.000000 0.000116 0.000000
# 2 -0.006510 0.036588 -0.011030 0.000000 -0.001735 0.000000
# 3 -0.002546 -0.011030 0.013393 0.000000 0.000293 0.000000
# 4 0.000000 0.000000 0.000000 0.029305 0.000000 -0.001821
# 5 0.000116 -0.001735 0.000293 0.000000 0.023180 0.000000
# 6 0.000000 0.000000 0.000000 -0.001821 0.000000 0.023999
#
#
# Mechanical properties :
#
#
# Convention : Reuss Voigt Hill
#
# Bulk Modulus (GPa) = 51.05325 74.02706 62.54015
# Shear Modulus (GPa) = 27.33028 34.96181 31.14605
#
# Velocity S-wave (km/s) = 3.61917 4.09339 3.86356
# Velocity P-wave (km/s) = 6.47552 7.60392 7.06229
#
# Compressibility (1/GPa) = 0.01958739
#
# Stress axis : x y z
#
# Youngs Moduli (GPa) = 102.25499 27.33119 74.66756
#
# Poissons Ratio (x) = 0.17794 0.19009
# Poissons Ratio (y) = 0.66572 0.82361
# Poissons Ratio (z) = 0.26032 0.30147
#
# Static dielectric constant tensor:
#      x y z
#    x 3.720910 0.000000 0.137920 
#    y 0.000000 3.916450 0.000000 
#    z 0.137920 0.000000 3.888860 
# 
# 
# High freq. dielectric constant tensor:
#      x y z
#    x 1.808490 0.000000 0.008980 
#    y 0.000000 1.843680 0.000000 
#    z 0.008980 0.000000 1.825410 
# 
# From -- ./inp_files/23317.got.cif
#   From: 2010.03.12/outbox.cif.g09.slc.cpg/sg8_12_cif.got.tgz:23317.got - 2010.03.31 10:45:26.
