data_PCOD8053859
_publ_section_title
;
Structure prediction by ZEFSAII (Michael W. Deem and Ramdas Pophale) SiO2 
 PCOD8053859
Probable space group: C M
;
_chemical_formula_sum "Si O2"
_cell_formula_units_Z 28
_cell_length_a 19.664142
_cell_length_b 9.211183
_cell_length_c 12.693835
_cell_angle_alpha 90.000000
_cell_angle_beta 35.244232
_cell_angle_gamma 90.000000
_cell_volume 1326.803082
_symmetry_space_group_name_H-M "C M"
_symmetry_group_IT_number 8
_symmetry_cell_setting 'monoclinic'
loop_
_space_group_symop_operation_xyz
x,y,z
x,-y,z
1/2+x,1/2+y,z
1/2+x,1/2-y,z
loop_
_atom_site_type_symbol
_atom_site_label
_atom_site_fract_x
_atom_site_fract_y
_atom_site_fract_z
Si Si1 0.987850 0.671096 0.830530
Si Si2 0.658602 0.161038 0.923682
Si Si3 0.692611 0.164584 0.412481
Si Si4 0.782602 0.280016 0.947640
Si Si5 0.092214 0.840522 0.348269
Si Si6 0.863977 0.341893 0.627062
Si Si7 0.462592 0.669597 0.078934
O O1 0.953163 0.500000 0.881503
O O2 0.111740 0.693028 0.615678
O O3 0.886129 0.762891 0.898102
O O4 0.001045 0.742423 0.927035
O O5 0.715098 0.149405 0.970571
O O6 0.539569 0.257839 0.075111
O O7 0.633311 0.000000 0.912561
O O8 0.754112 0.242805 0.726633
O O9 0.661782 0.272174 0.357552
O O10 0.826298 0.193317 0.279323
O O11 0.677473 0.000000 0.389572
O O12 0.681677 0.364332 0.138680
O O13 0.847841 0.372648 0.773536
O O14 0.984921 0.739452 0.448893
O O15 0.044308 0.000000 0.441322
O O16 0.865233 0.500000 0.569408
O O17 0.493843 0.500000 0.027714
#
# Coordination Sequence:
#
# PCOD8053859 Si02
#       7
#     4   4   4   4   4   4   4
#     4  11  21  40  66  90 122 164 205 253 308 369
#     4  10  23  43  66  90 122 166 210 258 308 370
#     4  10  22  39  60  89 124 164 207 253 308 365
#     4  10  23  38  66  91 122 164 206 255 308 364
#     4  12  22  35  61  96 126 162 207 256 308 365
#     4  10  21  40  62  87 123 160 200 253 308 365
#     4  11  24  41  63  91 125 164 205 258 312 368
#
# _framework density 21.103358
#
# number of rings (size 3 to 8) (size 9 to 14) (size 15 to 20)
#    0.857    0.571    2.857    3.000    0.000    2.857 
#    2.571    0.000    0.000    0.000    0.000    0.000 
#    0.000    0.000    0.000    0.000    0.000    0.000 
#
# Total GULP energy -173453.735046 kJ/mol
# GULP energy per Si atom -12389.552503 kJ/mol
# Density = 2.105533 g / cm^3
# Si number density = 21.103358 Si / 1000 Ang^3
#
#
#
# Elastic Constant Matrix: (Units=GPa)
#
#
# Indices 1 2 3 4 5 6 
#
# 1 66.0063 34.6566 27.5252 0.0000 -17.2252 0.0000
# 2 34.6566 139.3712 52.5555 0.0000 -17.9812 0.0000
# 3 27.5252 52.5555 129.7569 0.0000 -15.1017 0.0000
# 4 0.0000 0.0000 0.0000 14.9472 0.0000 -5.4550
# 5 -17.2252 -17.9812 -15.1017 0.0000 36.7406 0.0000
# 6 0.0000 0.0000 0.0000 -5.4550 0.0000 26.2012
#
#
#
# Elastic Compliance Matrix: (Units=1/GPa)
#
#
# Indices 1 2 3 4 5 6 
#
# 1 0.019431 -0.003195 -0.002048 0.000000 0.006705 0.000000
# 2 -0.003195 0.009292 -0.002868 0.000000 0.001871 0.000000
# 3 -0.002048 -0.002868 0.009481 0.000000 0.001533 0.000000
# 4 0.000000 0.000000 0.000000 0.072404 0.000000 0.015074
# 5 0.006705 0.001871 0.001533 0.000000 0.031907 0.000000
# 6 0.000000 0.000000 0.000000 0.015074 0.000000 0.041305
#
#
# Mechanical properties :
#
#
# Convention : Reuss Voigt Hill
#
# Bulk Modulus (GPa) = 45.48834 62.73434 54.11134
# Shear Modulus (GPa) = 24.11158 30.27093 27.19126
#
# Velocity S-wave (km/s) = 3.38383 3.79147 3.59343
# Velocity P-wave (km/s) = 6.07197 6.99705 6.55086
#
# Compressibility (1/GPa) = 0.02198366
#
# Stress axis : x y z
#
# Youngs Moduli (GPa) = 51.46420 107.61384 105.47087
#
# Poissons Ratio (x) = 0.34379 0.21596
# Poissons Ratio (y) = 0.16441 0.30252
# Poissons Ratio (z) = 0.10538 0.30867
#
# Static dielectric constant tensor:
#      x y z
#    x 3.562020 0.000000 -0.214510 
#    y 0.000000 3.673940 0.000000 
#    z -0.214510 0.000000 3.856540 
# 
# 
# High freq. dielectric constant tensor:
#      x y z
#    x 1.804590 0.000000 -0.021040 
#    y 0.000000 1.822390 0.000000 
#    z -0.021040 0.000000 1.832870 
# 
# From -- ./inp_files/27823.got.cif
#   From: 2010.03.12/outbox.cif.g09.slc.cpg/sg8_14_cif.got.tgz:27823.got - 2010.03.31 10:45:26.
