data_PCOD8053300
_publ_section_title
;
Structure prediction by ZEFSAII (Michael W. Deem and Ramdas Pophale) SiO2 
 PCOD8053300
Probable space group: C M
;
_chemical_formula_sum "Si O2"
_cell_formula_units_Z 32
_cell_length_a 17.758532
_cell_length_b 13.415259
_cell_length_c 11.824988
_cell_angle_alpha 90.000000
_cell_angle_beta 32.323532
_cell_angle_gamma 90.000000
_cell_volume 1506.317703
_symmetry_space_group_name_H-M "C M"
_symmetry_group_IT_number 8
_symmetry_cell_setting 'monoclinic'
loop_
_space_group_symop_operation_xyz
x,y,z
x,-y,z
1/2+x,1/2+y,z
1/2+x,1/2-y,z
loop_
_atom_site_type_symbol
_atom_site_label
_atom_site_fract_x
_atom_site_fract_y
_atom_site_fract_z
Si Si1 0.981880 0.744168 0.157630
Si Si2 0.478639 0.816004 0.400650
Si Si3 0.897763 0.226730 0.800406
Si Si4 0.245546 0.609412 0.174812
Si Si5 0.900211 0.888233 0.578419
Si Si6 0.739214 0.381891 0.856347
Si Si7 0.183424 0.682858 0.491549
Si Si8 0.107938 0.391434 0.821800
O O1 0.011533 0.670382 0.226105
O O2 0.816787 0.764452 0.378724
O O3 0.079396 0.842689 0.043891
O O4 0.007474 0.690001 0.006188
O O5 0.586054 0.882555 0.334551
O O6 0.502727 0.697828 0.399534
O O7 0.323414 0.853505 0.634325
O O8 0.864156 0.138302 0.754199
O O9 0.818568 0.327691 0.860593
O O10 0.065967 0.241316 0.592868
O O11 0.841945 0.193352 0.993898
O O12 0.304736 0.500000 0.070276
O O13 0.245381 0.618113 0.310423
O O14 0.761494 0.881686 0.679664
O O15 0.966363 0.000000 0.486789
O O16 0.735064 0.500000 0.883332
O O17 0.110672 0.619045 0.682730
O O18 0.044495 0.500000 0.928533
#
# Coordination Sequence:
#
# PCOD8053300 Si02
#       8
#     4   4   4   4   4   4   4   4
#     4  12  23  44  66  97 131 170 219 270 325 390
#     4  11  21  41  67 100 129 168 221 275 323 380
#     4  11  23  44  65  99 131 171 221 272 327 385
#     4  12  24  41  69  99 128 174 224 268 329 393
#     4  10  19  39  69  95 126 168 215 269 320 378
#     4  11  23  41  67  97 132 169 218 273 322 385
#     4  12  25  42  66  92 141 172 208 272 331 391
#     4  11  23  42  66  95 128 170 217 265 324 388
#
# _framework density 21.243856999999998
#
# number of rings (size 3 to 8) (size 9 to 14) (size 15 to 20)
#    0.000    0.750    7.500    1.875    0.000    4.000 
#    0.000    1.250    0.000    0.000    0.000    0.000 
#    0.000    0.000    0.000    0.000    0.000    0.000 
#
# Total GULP energy -198365.827152 kJ/mol
# GULP energy per Si atom -12397.864197 kJ/mol
# Density = 2.119551 g / cm^3
# Si number density = 21.243857 Si / 1000 Ang^3
#
#
#
# Elastic Constant Matrix: (Units=GPa)
#
#
# Indices 1 2 3 4 5 6 
#
# 1 89.3281 31.1377 32.9516 0.0000 13.9507 0.0000
# 2 31.1377 133.2350 34.9935 0.0000 9.1212 0.0000
# 3 32.9516 34.9935 93.9961 0.0000 10.3624 0.0000
# 4 0.0000 0.0000 0.0000 18.2803 0.0000 4.1793
# 5 13.9507 9.1212 10.3624 0.0000 45.0252 0.0000
# 6 0.0000 0.0000 0.0000 4.1793 0.0000 12.4874
#
#
#
# Elastic Compliance Matrix: (Units=1/GPa)
#
#
# Indices 1 2 3 4 5 6 
#
# 1 0.013746 -0.002027 -0.003735 0.000000 -0.002989 0.000000
# 2 -0.002027 0.008662 -0.002452 0.000000 -0.000562 0.000000
# 3 -0.003735 -0.002452 0.013009 0.000000 -0.001340 0.000000
# 4 0.000000 0.000000 0.000000 0.059236 0.000000 -0.019825
# 5 -0.002989 -0.000562 -0.001340 0.000000 0.023558 0.000000
# 6 0.000000 0.000000 0.000000 -0.019825 0.000000 0.086716
#
#
# Mechanical properties :
#
#
# Convention : Reuss Voigt Hill
#
# Bulk Modulus (GPa) = 52.66295 57.19163 54.92729
# Shear Modulus (GPa) = 21.96035 29.65700 25.80868
#
# Velocity S-wave (km/s) = 3.21865 3.74040 3.48929
# Velocity P-wave (km/s) = 6.21744 6.75530 6.49194
#
# Compressibility (1/GPa) = 0.01898868
#
# Stress axis : x y z
#
# Youngs Moduli (GPa) = 72.75036 115.44983 76.87237
#
# Poissons Ratio (x) = 0.23401 0.28709
# Poissons Ratio (y) = 0.14746 0.18850
# Poissons Ratio (z) = 0.27169 0.28310
#
# Static dielectric constant tensor:
#      x y z
#    x 3.887020 0.000000 0.168470 
#    y 0.000000 3.815900 0.000000 
#    z 0.168470 0.000000 3.821760 
# 
# 
# High freq. dielectric constant tensor:
#      x y z
#    x 1.834040 0.000000 0.015860 
#    y 0.000000 1.819040 0.000000 
#    z 0.015860 0.000000 1.831580 
# 
# From -- ./inp_files/23303.got.cif
#   From: 2010.03.12/outbox.cif.g09.slc.cpg/sg8_12_cif.got.tgz:23303.got - 2010.03.31 10:45:26.
