data_PCOD8053152
_publ_section_title
;
Structure prediction by ZEFSAII (Michael W. Deem and Ramdas Pophale) SiO2 
 PCOD8053152
Probable space group: C M
;
_chemical_formula_sum "Si O2"
_cell_formula_units_Z 32
_cell_length_a 24.982934
_cell_length_b 8.764743
_cell_length_c 23.843578
_cell_angle_alpha 90.000000
_cell_angle_beta 162.089411
_cell_angle_gamma 90.000000
_cell_volume 1605.628408
_symmetry_space_group_name_H-M "C M"
_symmetry_group_IT_number 8
_symmetry_cell_setting 'monoclinic'
loop_
_space_group_symop_operation_xyz
x,y,z
x,-y,z
1/2+x,1/2+y,z
1/2+x,1/2-y,z
loop_
_atom_site_type_symbol
_atom_site_label
_atom_site_fract_x
_atom_site_fract_y
_atom_site_fract_z
Si Si1 0.429380 0.178751 0.668080
Si Si2 0.129617 0.180857 0.568463
Si Si3 0.126741 0.677521 0.686621
Si Si4 0.433707 0.827381 0.056129
Si Si5 0.296534 0.176112 0.038787
Si Si6 0.322566 0.676258 0.453280
Si Si7 0.330956 0.681316 0.187250
Si Si8 0.440396 0.179938 0.804499
O O1 0.629278 0.222650 0.857830
O O2 0.311937 0.272402 0.507482
O O3 0.373982 0.224140 0.676028
O O4 0.406336 0.000000 0.633831
O O5 0.112014 0.237360 0.613456
O O6 0.305415 0.248992 0.715145
O O7 0.962058 0.235899 0.366219
O O8 0.137302 0.000000 0.576441
O O9 0.118299 0.500000 0.666531
O O10 0.308796 0.714718 0.898023
O O11 0.964814 0.724200 0.563352
O O12 0.425036 0.803510 0.114410
O O13 0.378262 0.000000 0.985375
O O14 0.633188 0.797159 0.236805
O O15 0.243085 0.000000 0.994231
O O16 0.389299 0.240607 0.187089
O O17 0.377979 0.500000 0.505185
O O18 0.334991 0.500000 0.182410
O O19 0.137011 0.739915 0.010700
O O20 0.443270 0.000000 0.813474
#
# Coordination Sequence:
#
# PCOD8053152 Si02
#       8
#     4   4   4   4   4   4   4   4
#     4  10  19  34  58  90 125 158 195 247 302 358
#     4  10  21  39  62  83 113 162 206 245 294 360
#     4  12  26  43  62  88 123 161 204 260 309 357
#     4  10  23  41  62  88 120 161 205 248 302 368
#     4  10  19  34  58  87 123 160 195 243 301 360
#     4  11  23  40  62  89 120 161 206 249 304 367
#     4   9  19  35  57  85 117 154 196 243 296 353
#     4   8  17  34  55  84 117 149 193 239 288 351
#
# _framework density 19.929891999999999
#
# number of rings (size 3 to 8) (size 9 to 14) (size 15 to 20)
#    0.000    2.000    1.250    3.000    1.750    3.000 
#    0.000    5.625    0.000    0.000    0.000    0.000 
#    0.000    0.000    0.000    0.000    0.000    0.000 
#
# Total GULP energy -198399.301837 kJ/mol
# GULP energy per Si atom -12399.956365 kJ/mol
# Density = 1.988453 g / cm^3
# Si number density = 19.929892 Si / 1000 Ang^3
#
#
#
# Elastic Constant Matrix: (Units=GPa)
#
#
# Indices 1 2 3 4 5 6 
#
# 1 84.7226 6.2675 47.0970 0.0085 -17.7868 0.0041
# 2 6.2675 13.6961 16.1016 0.0105 -1.3257 0.0028
# 3 47.0970 16.1016 106.6755 0.0161 -8.7270 0.0051
# 4 0.0085 0.0105 0.0161 21.1111 0.0010 -7.5364
# 5 -17.7868 -1.3257 -8.7270 0.0010 22.6647 -0.0005
# 6 0.0041 0.0028 0.0051 -7.5364 -0.0005 30.7957
#
#
#
# Elastic Compliance Matrix: (Units=1/GPa)
#
#
# Indices 1 2 3 4 5 6 
#
# 1 0.018175 0.001366 -0.007286 -0.000004 0.011538 -0.000002
# 2 0.001366 0.088868 -0.013943 -0.000040 0.000901 -0.000016
# 3 -0.007286 -0.013943 0.014622 -0.000001 -0.000904 -0.000001
# 4 -0.000004 -0.000040 -0.000001 0.051903 -0.000008 0.012702
# 5 0.011538 0.000901 -0.000904 -0.000008 0.052881 -0.000003
# 6 -0.000002 -0.000016 -0.000001 0.012702 -0.000003 0.035580
#
#
# Mechanical properties :
#
#
# Convention : Reuss Voigt Hill
#
# Bulk Modulus (GPa) = 12.20443 38.22513 25.21478
# Shear Modulus (GPa) = 15.19444 23.95619 19.57531
#
# Velocity S-wave (km/s) = 2.76414 3.47078 3.13742
# Velocity P-wave (km/s) = 4.04033 5.93997 5.07974
#
# Compressibility (1/GPa) = 0.08193747
#
# Stress axis : x y z
#
# Youngs Moduli (GPa) = 55.02091 11.25267 68.39094
#
# Poissons Ratio (x) = -0.01537 0.49833
# Poissons Ratio (y) = -0.07516 0.95358
# Poissons Ratio (z) = 0.40091 0.15690
#
# Static dielectric constant tensor:
#      x y z
#    x 3.738710 0.000000 0.051370 
#    y 0.000000 3.500780 0.000000 
#    z 0.051370 0.000000 3.713170 
# 
# 
# High freq. dielectric constant tensor:
#      x y z
#    x 1.776540 0.000000 0.000390 
#    y 0.000000 1.761640 0.000000 
#    z 0.000390 0.000000 1.780320 
# 
# From -- ./inp_files/32450.got.cif
#   From: 2010.03.12/outbox.cif.g09.slc.cpg/sg8_17_cif.got.tgz:32450.got - 2010.03.31 10:45:26.
