data_PCOD8053341
_publ_section_title
;
Structure prediction by ZEFSAII (Michael W. Deem and Ramdas Pophale) SiO2 
 PCOD8053341
Probable space group: C M
;
_chemical_formula_sum "Si O2"
_cell_formula_units_Z 32
_cell_length_a 27.802019
_cell_length_b 8.835625
_cell_length_c 21.973254
_cell_angle_alpha 90.000000
_cell_angle_beta 161.320636
_cell_angle_gamma 90.000000
_cell_volume 1728.728176
_symmetry_space_group_name_H-M "C M"
_symmetry_group_IT_number 8
_symmetry_cell_setting 'monoclinic'
loop_
_space_group_symop_operation_xyz
x,y,z
x,-y,z
1/2+x,1/2+y,z
1/2+x,1/2-y,z
loop_
_atom_site_type_symbol
_atom_site_label
_atom_site_fract_x
_atom_site_fract_y
_atom_site_fract_z
Si Si1 0.592490 0.324692 0.937140
Si Si2 0.698151 0.178086 0.183392
Si Si3 0.019012 0.176996 0.277524
Si Si4 0.406725 0.172463 0.261069
Si Si5 0.500050 0.176498 0.508157
Si Si6 0.820877 0.177680 0.929829
Si Si7 0.268774 0.322729 0.499432
Si Si8 0.602769 0.320378 0.192622
O O1 0.600089 0.500000 0.966403
O O2 0.440772 0.284076 0.720490
O O3 0.603793 0.224640 0.011112
O O4 0.730993 0.287668 0.058296
O O5 0.617129 0.251820 0.143542
O O6 0.869135 0.233990 0.385166
O O7 0.696570 0.000000 0.188947
O O8 0.166744 0.265237 0.432862
O O9 0.979926 0.217816 0.299502
O O10 0.053855 0.000000 0.313554
O O11 0.877629 0.222044 0.065281
O O12 0.493295 0.201454 0.427771
O O13 0.427167 0.000000 0.263740
O O14 0.656917 0.247383 0.720195
O O15 0.480505 0.000000 0.500791
O O16 0.804647 0.000000 0.902867
O O17 0.942419 0.235713 0.026515
O O18 0.242781 0.500000 0.459649
O O19 0.232715 0.238876 0.393242
O O20 0.614288 0.500000 0.203630
#
# Coordination Sequence:
#
# PCOD8053341 Si02
#       8
#     4   4   4   4   4   4   4   4
#     4   9  20  38  57  77 104 139 178 220 267 315
#     4  11  22  35  53  80 110 139 176 218 261 313
#     4  10  20  34  52  77 108 139 172 212 261 315
#     4   9  18  33  53  76 101 132 171 217 264 310
#     4   9  18  36  57  75 100 136 177 218 263 310
#     4   8  17  34  55  76  98 132 177 216 252 305
#     4  10  20  36  57  80 106 137 177 222 265 311
#     4  10  20  36  56  79 109 142 176 215 263 315
#
# _framework density 18.510718000000001
#
# number of rings (size 3 to 8) (size 9 to 14) (size 15 to 20)
#    0.000    2.500    0.000    3.750    0.000    5.000 
#    0.000    8.750    0.000    0.000    0.000    0.000 
#    0.000    0.000    0.000    0.000    0.000    0.000 
#
# Total GULP energy -198419.993232 kJ/mol
# GULP energy per Si atom -12401.249577 kJ/mol
# Density = 1.846859 g / cm^3
# Si number density = 18.510718 Si / 1000 Ang^3
#
#
#
# Elastic Constant Matrix: (Units=GPa)
#
#
# Indices 1 2 3 4 5 6 
#
# 1 55.1185 16.1287 -20.6786 0.0001 -1.3336 0.0001
# 2 16.1287 72.0724 12.8999 0.0001 -1.0200 0.0001
# 3 -20.6786 12.8999 62.9024 0.0000 2.9259 0.0000
# 4 0.0001 0.0001 0.0000 24.5207 0.0001 -2.3108
# 5 -1.3336 -1.0200 2.9259 0.0001 12.3125 0.0001
# 6 0.0001 0.0001 0.0000 -2.3108 0.0001 34.1040
#
#
#
# Elastic Compliance Matrix: (Units=1/GPa)
#
#
# Indices 1 2 3 4 5 6 
#
# 1 0.023616 -0.006934 0.009195 0.000000 -0.000202 0.000000
# 2 -0.006934 0.016484 -0.005752 0.000000 0.001982 0.000000
# 3 0.009195 -0.005752 0.020300 0.000000 -0.004305 0.000000
# 4 0.000000 0.000000 0.000000 0.041044 0.000000 0.002781
# 5 -0.000202 0.001982 -0.004305 0.000000 0.082384 0.000000
# 6 0.000000 0.000000 0.000000 0.002781 0.000000 0.029511
#
#
# Mechanical properties :
#
#
# Convention : Reuss Voigt Hill
#
# Bulk Modulus (GPa) = 18.71976 22.97703 20.84839
# Shear Modulus (GPa) = 20.99723 26.30366 23.65044
#
# Velocity S-wave (km/s) = 3.37163 3.77370 3.57832
# Velocity P-wave (km/s) = 5.02912 5.60603 5.32539
#
# Compressibility (1/GPa) = 0.05341949
#
# Stress axis : x y z
#
# Youngs Moduli (GPa) = 42.34343 60.66434 49.26037
#
# Poissons Ratio (x) = 0.42062 -0.45295
# Poissons Ratio (y) = 0.29359 0.28335
# Poissons Ratio (z) = -0.38935 0.34895
#
# Static dielectric constant tensor:
#      x y z
#    x 3.324140 0.000000 0.057690 
#    y 0.000000 3.290360 0.000000 
#    z 0.057690 0.000000 3.615630 
# 
# 
# High freq. dielectric constant tensor:
#      x y z
#    x 1.717040 0.000000 0.001230 
#    y 0.000000 1.710240 0.000000 
#    z 0.001230 0.000000 1.721930 
# 
# From -- ./inp_files/15843.got.cif
#   From: 2010.03.12/outbox.cif.g09.slc.cpg/sg8_8_cif.got.tgz:15843.got - 2010.03.31 10:45:26.
