data_PCOD8053961
_publ_section_title
;
Structure prediction by ZEFSAII (Michael W. Deem and Ramdas Pophale) SiO2 
 PCOD8053961
Probable space group: C M
;
_chemical_formula_sum "Si O2"
_cell_formula_units_Z 28
_cell_length_a 8.872327
_cell_length_b 25.417194
_cell_length_c 8.014484
_cell_angle_alpha 90.000000
_cell_angle_beta 49.720466
_cell_angle_gamma 90.000000
_cell_volume 1378.821142
_symmetry_space_group_name_H-M "C M"
_symmetry_group_IT_number 8
_symmetry_cell_setting 'monoclinic'
loop_
_space_group_symop_operation_xyz
x,y,z
x,-y,z
1/2+x,1/2+y,z
1/2+x,1/2-y,z
loop_
_atom_site_type_symbol
_atom_site_label
_atom_site_fract_x
_atom_site_fract_y
_atom_site_fract_z
Si Si1 0.716520 0.809838 0.066450
Si Si2 0.556047 0.756754 0.888642
Si Si3 0.452458 0.862832 0.797583
Si Si4 0.311868 0.441190 0.564720
Si Si5 0.097366 0.940788 0.051716
Si Si6 0.480692 0.402309 0.777953
Si Si7 0.823775 0.676146 0.541249
O O1 0.493534 0.815347 0.286159
O O2 0.708573 0.765110 0.929639
O O3 0.881859 0.784176 0.070787
O O4 0.791307 0.865337 0.944150
O O5 0.466007 0.813540 0.911050
O O6 0.690318 0.728917 0.650518
O O7 0.642789 0.898361 0.684934
O O8 0.441466 0.839462 0.621842
O O9 0.262249 0.897756 0.973356
O O10 0.222591 0.500000 0.621755
O O11 0.434902 0.430761 0.309080
O O12 0.439143 0.437529 0.644667
O O13 0.182965 0.000000 0.006194
O O14 0.009016 0.935369 0.927964
O O15 0.679749 0.370877 0.590308
#
# Coordination Sequence:
#
# PCOD8053961 Si02
#       7
#     4   4   4   4   4   4   4
#     4  11  23  39  59  88 121 157 197 241 296 354
#     4  11  23  38  57  88 119 154 198 242 288 355
#     4  11  22  41  59  85 121 154 198 248 293 354
#     4  11  23  39  65  92 116 156 203 249 302 352
#     4  10  23  42  62  87 121 159 198 248 306 354
#     4  10  22  41  62  91 122 154 201 247 295 359
#     4  10  24  40  59  87 121 162 195 239 302 354
#
# _framework density 20.307200999999999
#
# number of rings (size 3 to 8) (size 9 to 14) (size 15 to 20)
#    0.000    1.429    2.857    1.714    4.000    1.143 
#    0.000    0.000    0.000    6.857    0.000    0.000 
#    0.000    0.000    0.000    0.000    0.000    0.000 
#
# Total GULP energy -173532.785602 kJ/mol
# GULP energy per Si atom -12395.198972 kJ/mol
# Density = 2.026098 g / cm^3
# Si number density = 20.307201 Si / 1000 Ang^3
#
#
#
# Elastic Constant Matrix: (Units=GPa)
#
#
# Indices 1 2 3 4 5 6 
#
# 1 77.9906 26.0732 23.8334 0.0000 -2.2097 0.0000
# 2 26.0732 101.6598 38.9127 0.0000 -4.7621 0.0000
# 3 23.8334 38.9127 102.5937 0.0000 -10.9159 0.0000
# 4 0.0000 0.0000 0.0000 15.3237 0.0000 -11.9871
# 5 -2.2097 -4.7621 -10.9159 0.0000 26.4817 0.0000
# 6 0.0000 0.0000 0.0000 -11.9871 0.0000 -12.9566
#
#
#
# Elastic Compliance Matrix: (Units=1/GPa)
#
#
# Indices 1 2 3 4 5 6 
#
# 1 0.014470 -0.002838 -0.002312 0.000000 -0.000256 0.000000
# 2 -0.002838 0.012066 -0.003882 0.000000 0.000333 0.000000
# 3 -0.002312 -0.003882 0.012197 0.000000 0.004137 0.000000
# 4 0.000000 0.000000 0.000000 0.037859 0.000000 -0.035026
# 5 -0.000256 0.000333 0.004137 0.000000 0.039505 0.000000
# 6 0.000000 0.000000 0.000000 -0.035026 0.000000 -0.044776
#
#
# Mechanical properties :
#
#
# Convention : Reuss Voigt Hill
#
# Bulk Modulus (GPa) = 48.38256 51.09807 49.74032
# Shear Modulus (GPa) = 51.93408 18.66477 35.29943
#
# Velocity S-wave (km/s) = 5.06258 3.03499 4.17378
# Velocity P-wave (km/s) = 7.61906 6.12362 6.91190
#
# Compressibility (1/GPa) = 0.02066861
#
# Stress axis : x y z
#
# Youngs Moduli (GPa) = 69.10722 82.87691 81.98868
#
# Poissons Ratio (x) = 0.23522 0.18958
# Poissons Ratio (y) = 0.19614 0.31826
# Poissons Ratio (z) = 0.15980 0.32171
#
# Static dielectric constant tensor:
#      x y z
#    x 3.831410 0.000000 -0.001140 
#    y 0.000000 3.792020 0.000000 
#    z -0.001140 0.000000 3.447450 
# 
# 
# High freq. dielectric constant tensor:
#      x y z
#    x 1.804850 0.000000 -0.007710 
#    y 0.000000 1.805600 0.000000 
#    z -0.007710 0.000000 1.780710 
# 
# From -- ./inp_files/2029.got.cif
#   From: 2010.03.12/outbox.cif.g09.slc.cpg/sg8_2_cif.got.tgz:2029.got - 2010.03.31 10:45:26.
