data_PCOD8053475
_publ_section_title
;
Structure prediction by ZEFSAII (Michael W. Deem and Ramdas Pophale) SiO2 
 PCOD8053475
Probable space group: C M
;
_chemical_formula_sum "Si O2"
_cell_formula_units_Z 32
_cell_length_a 18.916208
_cell_length_b 11.097040
_cell_length_c 19.478236
_cell_angle_alpha 90.000000
_cell_angle_beta 23.092564
_cell_angle_gamma 90.000000
_cell_volume 1603.681372
_symmetry_space_group_name_H-M "C M"
_symmetry_group_IT_number 8
_symmetry_cell_setting 'monoclinic'
loop_
_space_group_symop_operation_xyz
x,y,z
x,-y,z
1/2+x,1/2+y,z
1/2+x,1/2-y,z
loop_
_atom_site_type_symbol
_atom_site_label
_atom_site_fract_x
_atom_site_fract_y
_atom_site_fract_z
Si Si1 0.651700 0.283114 0.101170
Si Si2 0.110722 0.864969 0.990931
Si Si3 0.308542 0.133014 0.384733
Si Si4 0.272040 0.786493 0.272141
Si Si5 0.007010 0.136683 0.750795
Si Si6 0.829748 0.365355 0.560178
Si Si7 0.081019 0.136240 0.309096
Si Si8 0.931319 0.635095 0.618818
O O1 0.480336 0.197137 0.264138
O O2 0.681521 0.356224 0.145408
O O3 0.603007 0.368478 0.080459
O O4 0.830512 0.213186 0.921324
O O5 0.302440 0.810406 0.793684
O O6 0.093677 0.000000 0.977796
O O7 0.948526 0.792285 0.100928
O O8 0.314423 0.123162 0.296934
O O9 0.122800 0.188668 0.582157
O O10 0.317226 0.000000 0.408519
O O11 0.222187 0.853235 0.246120
O O12 0.112779 0.707212 0.445564
O O13 0.130965 0.146652 0.707400
O O14 0.943479 0.000000 0.793727
O O15 0.912305 0.500000 0.467212
O O16 0.809274 0.359558 0.659885
O O17 0.945111 0.248822 0.433331
O O18 0.994831 0.000000 0.391302
O O19 0.991386 0.500000 0.584422
#
# Coordination Sequence:
#
# PCOD8053475 Si02
#       8
#     4   4   4   4   4   4   4   4
#     4  11  22  36  58  82 122 156 194 236 298 352
#     4  10  21  37  57  83 113 152 199 246 290 345
#     4  10  20  37  58  84 113 148 196 251 293 342
#     4  10  21  36  59  81 113 153 195 234 299 348
#     4  10  20  35  59  89 114 150 201 250 296 346
#     4   9  19  37  61  88 119 152 200 250 294 346
#     4  11  23  40  60  88 126 160 195 239 297 361
#     4   9  18  34  56  83 112 143 192 250 293 340
#
# _framework density 19.954087999999999
#
# number of rings (size 3 to 8) (size 9 to 14) (size 15 to 20)
#    0.000    2.000    1.250    2.250    1.750    1.000 
#    0.000    1.250    0.000    3.750    0.000    0.000 
#    0.000    0.000    0.000    0.000    0.000    0.000 
#
# Total GULP energy -198224.526183 kJ/mol
# GULP energy per Si atom -12389.032886 kJ/mol
# Density = 1.990867 g / cm^3
# Si number density = 19.954088 Si / 1000 Ang^3
#
#
#
# Elastic Constant Matrix: (Units=GPa)
#
#
# Indices 1 2 3 4 5 6 
#
# 1 95.2948 16.1390 17.1063 -0.0021 9.4764 0.0024
# 2 16.1390 103.9691 50.8498 -0.0084 -3.1775 0.0045
# 3 17.1063 50.8498 111.6803 -0.0119 -0.9697 0.0063
# 4 -0.0021 -0.0084 -0.0119 27.4761 0.0057 4.4277
# 5 9.4764 -3.1775 -0.9697 0.0057 30.4881 -0.0003
# 6 0.0024 0.0045 0.0063 4.4277 -0.0003 26.8782
#
#
#
# Elastic Compliance Matrix: (Units=1/GPa)
#
#
# Indices 1 2 3 4 5 6 
#
# 1 0.011289 -0.001291 -0.001173 0.000001 -0.003681 -0.000001
# 2 -0.001291 0.012559 -0.005507 0.000001 0.001535 -0.000001
# 3 -0.001173 -0.005507 0.011643 0.000004 0.000161 -0.000002
# 4 0.000001 0.000001 0.000004 0.037388 -0.000007 -0.006159
# 5 -0.003681 0.001535 0.000161 -0.000007 0.034109 0.000002
# 6 -0.000001 -0.000001 -0.000002 -0.006159 0.000002 0.038219
#
#
# Mechanical properties :
#
#
# Convention : Reuss Voigt Hill
#
# Bulk Modulus (GPa) = 51.15687 53.23716 52.19702
# Shear Modulus (GPa) = 29.82116 32.09175 30.95646
#
# Velocity S-wave (km/s) = 3.87006 4.01469 3.94303
# Velocity P-wave (km/s) = 6.75742 6.94464 6.85167
#
# Compressibility (1/GPa) = 0.01954772
#
# Stress axis : x y z
#
# Youngs Moduli (GPa) = 88.58155 79.62356 85.88999
#
# Poissons Ratio (x) = 0.10280 0.10077
# Poissons Ratio (y) = 0.11436 0.47302
# Poissons Ratio (z) = 0.10393 0.43851
#
# Static dielectric constant tensor:
#      x y z
#    x 3.805390 0.000000 0.176130 
#    y 0.000000 3.550560 0.000020 
#    z 0.176130 0.000020 3.512040 
# 
# 
# High freq. dielectric constant tensor:
#      x y z
#    x 1.793110 0.000000 0.011750 
#    y 0.000000 1.769070 0.000000 
#    z 0.011750 0.000000 1.768270 
# 
# From -- ./inp_files/31448.got.cif
#   From: 2010.03.12/outbox.cif.g09.slc.cpg/sg8_16_cif.got.tgz:31448.got - 2010.03.31 10:45:26.
