data_PCOD8053661
_publ_section_title
;
Structure prediction by ZEFSAII (Michael W. Deem and Ramdas Pophale) SiO2 
 PCOD8053661
Probable space group: C M
;
_chemical_formula_sum "Si O2"
_cell_formula_units_Z 32
_cell_length_a 8.770512
_cell_length_b 31.181308
_cell_length_c 5.141673
_cell_angle_alpha 90.000000
_cell_angle_beta 95.268540
_cell_angle_gamma 90.000000
_cell_volume 1400.183850
_symmetry_space_group_name_H-M "C M"
_symmetry_group_IT_number 8
_symmetry_cell_setting 'monoclinic'
loop_
_space_group_symop_operation_xyz
x,y,z
x,-y,z
1/2+x,1/2+y,z
1/2+x,1/2-y,z
loop_
_atom_site_type_symbol
_atom_site_label
_atom_site_fract_x
_atom_site_fract_y
_atom_site_fract_z
Si Si1 0.429010 0.657460 0.022510
Si Si2 0.232274 0.209508 0.559013
Si Si3 0.741951 0.135712 0.487473
Si Si4 0.504168 0.250844 0.853005
Si Si5 0.730303 0.628978 0.875532
Si Si6 0.968269 0.318121 0.206563
Si Si7 0.899348 0.452553 0.882261
Si Si8 0.099896 0.548000 0.413740
O O1 0.358848 0.654570 0.296531
O O2 0.579383 0.627341 0.033007
O O3 0.304399 0.645114 0.784976
O O4 0.498229 0.705086 0.010031
O O5 0.336374 0.231169 0.796384
O O6 0.082845 0.240376 0.579363
O O7 0.325692 0.209712 0.305765
O O8 0.193435 0.160023 0.624091
O O9 0.576698 0.159520 0.439832
O O10 0.729232 0.084879 0.425753
O O11 0.577616 0.213574 0.049678
O O12 0.888851 0.644075 0.032399
O O13 0.762467 0.580309 0.794462
O O14 0.826524 0.500000 0.863775
O O15 0.029526 0.447993 0.687740
O O16 0.972508 0.443367 0.175331
O O17 0.170972 0.500000 0.385769
#
# Coordination Sequence:
#
# PCOD8053661 Si02
#       8
#     4   4   4   4   4   4   4   4
#     4  11  28  42  64  93 141 173 214 272 338 385
#     4  10  23  38  65  85 127 166 217 272 324 378
#     4  12  25  44  67  99 129 178 218 273 327 400
#     4  10  24  42  56  96 123 171 222 272 326 387
#     4  10  23  43  61  98 127 171 216 269 328 393
#     4  11  24  40  72  88 124 174 230 269 323 390
#     4  10  20  38  68 100 128 165 216 273 320 388
#     4  10  21  39  68 101 131 164 218 274 324 387
#
# _framework density 22.854139
#
# number of rings (size 3 to 8) (size 9 to 14) (size 15 to 20)
#    0.000    1.500    1.250    2.250   10.500    2.000 
#    0.000    1.250    0.000    0.000    0.000    0.000 
#    0.000    0.000    0.000    0.000    0.000    0.000 
#
# Total GULP energy -198282.762212 kJ/mol
# GULP energy per Si atom -12392.672638 kJ/mol
# Density = 2.280212 g / cm^3
# Si number density = 22.854139 Si / 1000 Ang^3
#
#
#
# Elastic Constant Matrix: (Units=GPa)
#
#
# Indices 1 2 3 4 5 6 
#
# 1 71.8781 35.5056 8.9293 0.0000 -6.6337 0.0000
# 2 35.5056 125.6487 17.0754 0.0000 -1.1245 0.0000
# 3 8.9293 17.0754 66.4349 0.0000 -8.7065 0.0000
# 4 0.0000 0.0000 0.0000 23.3432 0.0000 -2.6582
# 5 -6.6337 -1.1245 -8.7065 0.0000 36.1783 0.0000
# 6 0.0000 0.0000 0.0000 -2.6582 0.0000 29.1026
#
#
#
# Elastic Compliance Matrix: (Units=1/GPa)
#
#
# Indices 1 2 3 4 5 6 
#
# 1 0.016493 -0.004542 -0.000693 0.000000 0.002716 0.000000
# 2 -0.004542 0.009500 -0.001964 0.000000 -0.001010 0.000000
# 3 -0.000693 -0.001964 0.016134 0.000000 0.003695 0.000000
# 4 0.000000 0.000000 0.000000 0.043289 0.000000 0.003954
# 5 0.002716 -0.001010 0.003695 0.000000 0.028997 0.000000
# 6 0.000000 0.000000 0.000000 0.003954 0.000000 0.034722
#
#
# Mechanical properties :
#
#
# Convention : Reuss Voigt Hill
#
# Bulk Modulus (GPa) = 36.06300 42.99801 39.53051
# Shear Modulus (GPa) = 28.93912 31.22159 30.08035
#
# Velocity S-wave (km/s) = 3.56231 3.70012 3.63187
# Velocity P-wave (km/s) = 5.72136 6.09175 5.90946
#
# Compressibility (1/GPa) = 0.02772925
#
# Stress axis : x y z
#
# Youngs Moduli (GPa) = 60.63235 105.26341 61.97929
#
# Poissons Ratio (x) = 0.47810 0.04298
# Poissons Ratio (y) = 0.27539 0.12170
# Poissons Ratio (z) = 0.04204 0.20670
#
# Static dielectric constant tensor:
#      x y z
#    x 3.990180 0.000000 -0.069870 
#    y 0.000000 4.413440 0.000000 
#    z -0.069870 0.000000 3.982320 
# 
# 
# High freq. dielectric constant tensor:
#      x y z
#    x 1.883090 0.000000 -0.007440 
#    y 0.000000 1.904160 0.000000 
#    z -0.007440 0.000000 1.905820 
# 
# From -- ./inp_files/1999.got.cif
#   From: 2010.03.12/outbox.cif.g09.slc.cpg/sg8_1_cif.got.tgz:1999.got - 2010.03.31 10:45:26.
