data_PCOD8053153
_publ_section_title
;
Structure prediction by ZEFSAII (Michael W. Deem and Ramdas Pophale) SiO2 
 PCOD8053153
Probable space group: C M
;
_chemical_formula_sum "Si O2"
_cell_formula_units_Z 28
_cell_length_a 29.120691
_cell_length_b 9.812913
_cell_length_c 5.202401
_cell_angle_alpha 90.000000
_cell_angle_beta 68.638063
_cell_angle_gamma 90.000000
_cell_volume 1384.497330
_symmetry_space_group_name_H-M "C M"
_symmetry_group_IT_number 8
_symmetry_cell_setting 'monoclinic'
loop_
_space_group_symop_operation_xyz
x,y,z
x,-y,z
1/2+x,1/2+y,z
1/2+x,1/2-y,z
loop_
_atom_site_type_symbol
_atom_site_label
_atom_site_fract_x
_atom_site_fract_y
_atom_site_fract_z
Si Si1 0.844140 0.342969 0.921200
Si Si2 0.219602 0.855820 0.657009
Si Si3 0.064522 0.841254 0.433528
Si Si4 0.002395 0.841855 0.058166
Si Si5 0.171491 0.774250 0.243946
Si Si6 0.262992 0.651748 0.893984
Si Si7 0.907297 0.656808 0.293478
O O1 0.826383 0.500000 0.942676
O O2 0.796900 0.243633 0.010779
O O3 0.879399 0.306698 0.612271
O O4 0.871995 0.311334 0.127209
O O5 0.183289 0.838840 0.493845
O O6 0.258452 0.731659 0.627038
O O7 0.248803 0.000000 0.564224
O O8 0.184841 0.873260 0.979371
O O9 0.113046 0.745415 0.354537
O O10 0.028590 0.802013 0.739278
O O11 0.080032 0.000000 0.420662
O O12 0.038296 0.807137 0.220072
O O13 0.986871 0.000000 0.094062
O O14 0.954142 0.752303 0.181007
O O15 0.207870 0.642491 0.133366
O O16 0.284321 0.500000 0.809434
O O17 0.924718 0.500000 0.255104
#
# Coordination Sequence:
#
# PCOD8053153 Si02
#       7
#     4   4   4   4   4   4   4
#     4  10  22  39  62  87 111 151 202 239 284 350
#     4  10  20  35  59  83 112 157 202 240 280 337
#     4  10  19  34  58  88 116 149 195 241 281 336
#     4  10  21  36  59  88 115 146 190 241 294 345
#     4  10  22  36  59  87 120 156 200 240 287 340
#     4  10  25  41  58  88 127 159 193 243 300 355
#     4  10  22  41  61  85 115 148 190 244 294 349
#
# _framework density 20.223946000000002
#
# number of rings (size 3 to 8) (size 9 to 14) (size 15 to 20)
#    0.857    1.143    0.000    3.429    2.000    2.857 
#    0.000    1.429    0.000    0.000    0.000    0.000 
#    0.000    0.000    0.000    0.000    0.000    0.000 
#
# Total GULP energy -173470.737941 kJ/mol
# GULP energy per Si atom -12390.766996 kJ/mol
# Density = 2.017792 g / cm^3
# Si number density = 20.223946 Si / 1000 Ang^3
#
#
#
# Elastic Constant Matrix: (Units=GPa)
#
#
# Indices 1 2 3 4 5 6 
#
# 1 94.2629 46.9102 12.8082 0.0000 -4.4796 0.0000
# 2 46.9102 100.7153 5.9405 0.0000 -2.5303 0.0000
# 3 12.8082 5.9405 73.5643 0.0000 15.3283 0.0000
# 4 0.0000 0.0000 0.0000 39.2537 0.0000 -2.7607
# 5 -4.4796 -2.5303 15.3283 0.0000 39.3669 0.0000
# 6 0.0000 0.0000 0.0000 -2.7607 0.0000 22.7418
#
#
#
# Elastic Compliance Matrix: (Units=1/GPa)
#
#
# Indices 1 2 3 4 5 6 
#
# 1 0.014241 -0.006437 -0.002406 0.000000 0.002144 0.000000
# 2 -0.006437 0.012925 0.000062 0.000000 0.000074 0.000000
# 3 -0.002406 0.000062 0.015306 0.000000 -0.006229 0.000000
# 4 0.000000 0.000000 0.000000 0.025695 0.000000 0.003119
# 5 0.002144 0.000074 -0.006229 0.000000 0.028076 0.000000
# 6 0.000000 0.000000 0.000000 0.003119 0.000000 0.044351
#
#
# Mechanical properties :
#
#
# Convention : Reuss Voigt Hill
#
# Bulk Modulus (GPa) = 40.14785 44.42891 42.28838
# Shear Modulus (GPa) = 30.03720 33.79805 31.91763
#
# Velocity S-wave (km/s) = 3.85805 4.09245 3.97698
# Velocity P-wave (km/s) = 6.30403 6.65936 6.48413
#
# Compressibility (1/GPa) = 0.02490793
#
# Stress axis : x y z
#
# Youngs Moduli (GPa) = 70.21995 77.36654 65.33580
#
# Poissons Ratio (x) = 0.49803 0.15722
# Poissons Ratio (y) = 0.45202 -0.00402
# Poissons Ratio (z) = 0.16897 -0.00476
#
# Static dielectric constant tensor:
#      x y z
#    x 3.626630 0.000000 0.193090 
#    y 0.000000 3.382990 0.000000 
#    z 0.193090 0.000000 3.805320 
# 
# 
# High freq. dielectric constant tensor:
#      x y z
#    x 1.790800 0.000000 0.014180 
#    y 0.000000 1.759420 0.000000 
#    z 0.014180 0.000000 1.803410 
# 
# From -- ./inp_files/6318.got.cif
#   From: 2010.03.12/outbox.cif.g09.slc.cpg/sg8_4_cif.got.tgz:6318.got - 2010.03.31 10:45:26.
