data_PCOD8053934
_publ_section_title
;
Structure prediction by ZEFSAII (Michael W. Deem and Ramdas Pophale) SiO2 
 PCOD8053934
Probable space group: C M
;
_chemical_formula_sum "Si O2"
_cell_formula_units_Z 24
_cell_length_a 9.964987
_cell_length_b 9.016954
_cell_length_c 13.335278
_cell_angle_alpha 90.000000
_cell_angle_beta 100.395288
_cell_angle_gamma 90.000000
_cell_volume 1178.558492
_symmetry_space_group_name_H-M "C M"
_symmetry_group_IT_number 8
_symmetry_cell_setting 'monoclinic'
loop_
_space_group_symop_operation_xyz
x,y,z
x,-y,z
1/2+x,1/2+y,z
1/2+x,1/2-y,z
loop_
_atom_site_type_symbol
_atom_site_label
_atom_site_fract_x
_atom_site_fract_y
_atom_site_fract_z
Si Si1 0.478860 0.171163 0.964490
Si Si2 0.869224 0.328900 0.499697
Si Si3 0.665980 0.170844 0.615820
Si Si4 0.049459 0.827974 0.175181
Si Si5 0.219352 0.670791 0.849083
Si Si6 0.808951 0.172029 0.292201
O O1 0.329106 0.229875 0.920364
O O2 0.573028 0.195519 0.880349
O O3 0.468220 0.000000 0.993537
O O4 0.545800 0.257459 0.065363
O O5 0.844641 0.500000 0.470173
O O6 0.742119 0.272342 0.546559
O O7 0.883450 0.239257 0.398752
O O8 0.005025 0.304538 0.582527
O O9 0.706799 0.221772 0.732648
O O10 0.705639 0.000000 0.602239
O O11 0.165434 0.751749 0.256989
O O12 0.904329 0.803242 0.208763
O O13 0.085398 0.000000 0.169809
O O14 0.265076 0.500000 0.863891
O O15 0.780492 0.000000 0.307952
#
# Coordination Sequence:
#
# PCOD8053934 Si02
#       6
#     4   4   4   4   4   4
#     4  11  23  39  61  89 120 155 196 242 292 347
#     4  11  23  39  61  89 119 153 196 243 292 349
#     4  10  22  40  61  86 119 157 196 242 293 344
#     4  11  24  41  62  89 119 154 197 242 291 349
#     4  10  22  40  60  86 120 156 197 243 290 345
#     4  11  24  41  61  87 119 155 196 242 292 348
#
# _framework density 20.363859999999999
#
# number of rings (size 3 to 8) (size 9 to 14) (size 15 to 20)
#    0.000    1.333    0.000    5.000    0.000   14.000 
#    0.000    0.000    0.000    0.000    0.000    0.000 
#    0.000    0.000    0.000    0.000    0.000    0.000 
#
# Total GULP energy -148899.668141 kJ/mol
# GULP energy per Si atom -12408.305678 kJ/mol
# Density = 2.031751 g / cm^3
# Si number density = 20.363860 Si / 1000 Ang^3
#
#
#
# Elastic Constant Matrix: (Units=GPa)
#
#
# Indices 1 2 3 4 5 6 
#
# 1 75.7810 46.9751 11.2948 0.0000 5.1584 0.0000
# 2 46.9751 122.9536 45.8888 0.0000 -0.3126 0.0000
# 3 11.2948 45.8888 104.1333 0.0000 2.1803 0.0000
# 4 0.0000 0.0000 0.0000 38.2829 0.0000 -0.0893
# 5 5.1584 -0.3126 2.1803 0.0000 38.1434 0.0000
# 6 0.0000 0.0000 0.0000 -0.0893 0.0000 27.4598
#
#
#
# Elastic Compliance Matrix: (Units=1/GPa)
#
#
# Indices 1 2 3 4 5 6 
#
# 1 0.017665 -0.007253 0.001333 0.000000 -0.002525 0.000000
# 2 -0.007253 0.012716 -0.004845 0.000000 0.001362 0.000000
# 3 0.001333 -0.004845 0.011612 0.000000 -0.000884 0.000000
# 4 0.000000 0.000000 0.000000 0.026122 0.000000 0.000085
# 5 -0.002525 0.001362 -0.000884 0.000000 0.026620 0.000000
# 6 0.000000 0.000000 0.000000 0.000085 0.000000 0.036417
#
#
# Mechanical properties :
#
#
# Convention : Reuss Voigt Hill
#
# Bulk Modulus (GPa) = 48.86975 56.79838 52.83407
# Shear Modulus (GPa) = 31.34724 34.02450 32.68587
#
# Velocity S-wave (km/s) = 3.92772 4.09201 4.01071
# Velocity P-wave (km/s) = 6.67980 7.09072 6.88833
#
# Compressibility (1/GPa) = 0.02046256
#
# Stress axis : x y z
#
# Youngs Moduli (GPa) = 56.60897 78.64062 86.11587
#
# Poissons Ratio (x) = 0.57038 -0.11479
# Poissons Ratio (y) = 0.41058 0.41727
# Poissons Ratio (z) = -0.07546 0.38105
#
# Static dielectric constant tensor:
#      x y z
#    x 3.587730 0.000000 0.004990 
#    y 0.000000 3.810990 0.000000 
#    z 0.004990 0.000000 3.793800 
# 
# 
# High freq. dielectric constant tensor:
#      x y z
#    x 1.803110 0.000000 0.000480 
#    y 0.000000 1.803900 0.000000 
#    z 0.000480 0.000000 1.809340 
# 
# From -- ./inp_files/19685.got.cif
#   From: 2010.03.12/outbox.cif.g09.slc.cpg/sg8_10_cif.got.tgz:19685.got - 2010.03.31 10:45:26.
