data_PCOD8053423
_publ_section_title
;
Structure prediction by ZEFSAII (Michael W. Deem and Ramdas Pophale) SiO2 
 PCOD8053423
Probable space group: C M
;
_chemical_formula_sum "Si O2"
_cell_formula_units_Z 32
_cell_length_a 16.023351
_cell_length_b 14.281661
_cell_length_c 8.159776
_cell_angle_alpha 90.000000
_cell_angle_beta 116.677056
_cell_angle_gamma 90.000000
_cell_volume 1668.513665
_symmetry_space_group_name_H-M "C M"
_symmetry_group_IT_number 8
_symmetry_cell_setting 'monoclinic'
loop_
_space_group_symop_operation_xyz
x,y,z
x,-y,z
1/2+x,1/2+y,z
1/2+x,1/2-y,z
loop_
_atom_site_type_symbol
_atom_site_label
_atom_site_fract_x
_atom_site_fract_y
_atom_site_fract_z
Si Si1 0.061590 0.751432 0.485740
Si Si2 0.681104 0.603390 0.762711
Si Si3 0.227208 0.610357 0.094387
Si Si4 0.264869 0.892425 0.177127
Si Si5 0.386035 0.739959 0.128219
Si Si6 0.731231 0.761513 0.400631
Si Si7 0.364511 0.188720 0.768287
Si Si8 0.537581 0.107565 0.742876
O O1 0.095804 0.831600 0.637707
O O2 0.142153 0.720316 0.433696
O O3 0.031712 0.663251 0.568102
O O4 0.976671 0.793894 0.305950
O O5 0.654512 0.500000 0.682097
O O6 0.778041 0.628767 0.759936
O O7 0.688496 0.609245 0.965562
O O8 0.244539 0.500000 0.112743
O O9 0.306192 0.660817 0.056228
O O10 0.236626 0.650159 0.285688
O O11 0.127342 0.637581 0.929500
O O12 0.354966 0.836698 0.189283
O O13 0.223071 0.838021 0.297361
O O14 0.291366 0.000000 0.247202
O O15 0.410956 0.755168 0.959761
O O16 0.825325 0.759098 0.594112
O O17 0.443780 0.122268 0.764347
O O18 0.545623 0.000000 0.700512
#
# Coordination Sequence:
#
# PCOD8053423 Si02
#       8
#     4   4   4   4   4   4   4   4
#     4  11  22  35  55  80 111 146 180 220 265 319
#     4   9  19  36  58  83 110 139 175 223 274 322
#     4  10  21  38  57  78 109 147 183 218 260 318
#     4   9  18  35  59  83 107 135 174 228 282 321
#     4  10  21  37  56  80 112 145 178 219 266 320
#     4  10  20  35  55  81 110 142 179 222 270 318
#     4  10  20  36  58  82 109 137 176 228 279 317
#     4  11  22  36  57  83 110 141 178 222 271 321
#
# _framework density 19.178747000000001
#
# number of rings (size 3 to 8) (size 9 to 14) (size 15 to 20)
#    0.000    2.000    0.000    5.625    0.000    5.500 
#    0.000    0.625    0.000    0.750    0.000    0.000 
#    0.000    0.000    0.000    0.000    0.000    0.000 
#
# Total GULP energy -198390.856169 kJ/mol
# GULP energy per Si atom -12399.428511 kJ/mol
# Density = 1.913510 g / cm^3
# Si number density = 19.178747 Si / 1000 Ang^3
#
#
#
# Elastic Constant Matrix: (Units=GPa)
#
#
# Indices 1 2 3 4 5 6 
#
# 1 74.3398 32.9280 40.4200 0.0000 0.1908 0.0000
# 2 32.9280 99.1061 40.9267 0.0000 0.2851 0.0000
# 3 40.4200 40.9267 124.1970 0.0000 5.8581 0.0000
# 4 0.0000 0.0000 0.0000 24.3047 0.0000 3.2281
# 5 0.1908 0.2851 5.8581 0.0000 39.8471 0.0000
# 6 0.0000 0.0000 0.0000 3.2281 0.0000 17.1403
#
#
#
# Elastic Compliance Matrix: (Units=1/GPa)
#
#
# Indices 1 2 3 4 5 6 
#
# 1 0.017653 -0.004031 -0.004445 0.000000 0.000598 0.000000
# 2 -0.004031 0.012610 -0.002860 0.000000 0.000349 0.000000
# 3 -0.004445 -0.002860 0.010512 0.000000 -0.001504 0.000000
# 4 0.000000 0.000000 0.000000 0.042200 0.000000 -0.007948
# 5 0.000598 0.000349 -0.001504 0.000000 0.025312 0.000000
# 6 0.000000 0.000000 0.000000 -0.007948 0.000000 0.059839
#
#
# Mechanical properties :
#
#
# Convention : Reuss Voigt Hill
#
# Bulk Modulus (GPa) = 55.24235 58.46582 56.85408
# Shear Modulus (GPa) = 25.40266 28.48297 26.94281
#
# Velocity S-wave (km/s) = 3.64335 3.85792 3.75217
# Velocity P-wave (km/s) = 6.82386 7.09899 6.96278
#
# Compressibility (1/GPa) = 0.01810205
#
# Stress axis : x y z
#
# Youngs Moduli (GPa) = 56.64907 79.30508 95.13323
#
# Poissons Ratio (x) = 0.31970 0.42285
# Poissons Ratio (y) = 0.22837 0.27206
# Poissons Ratio (z) = 0.25179 0.22679
#
# Static dielectric constant tensor:
#      x y z
#    x 3.405270 0.000000 -0.034500 
#    y 0.000000 3.405690 0.000000 
#    z -0.034500 0.000000 3.820140 
# 
# 
# High freq. dielectric constant tensor:
#      x y z
#    x 1.736680 0.000000 -0.004990 
#    y 0.000000 1.733280 0.000000 
#    z -0.004990 0.000000 1.764830 
# 
# From -- ./inp_files/13242.got.cif
#   From: 2010.03.12/outbox.cif.g09.slc.cpg/sg8_7_cif.got.tgz:13242.got - 2010.03.31 10:45:26.
