data_PCOD8053192
_publ_section_title
;
Structure prediction by ZEFSAII (Michael W. Deem and Ramdas Pophale) SiO2 
 PCOD8053192
Probable space group: C M
;
_chemical_formula_sum "Si O2"
_cell_formula_units_Z 32
_cell_length_a 19.742519
_cell_length_b 8.878093
_cell_length_c 12.091144
_cell_angle_alpha 90.000000
_cell_angle_beta 54.449436
_cell_angle_gamma 90.000000
_cell_volume 1724.257181
_symmetry_space_group_name_H-M "C M"
_symmetry_group_IT_number 8
_symmetry_cell_setting 'monoclinic'
loop_
_space_group_symop_operation_xyz
x,y,z
x,-y,z
1/2+x,1/2+y,z
1/2+x,1/2-y,z
loop_
_atom_site_type_symbol
_atom_site_label
_atom_site_fract_x
_atom_site_fract_y
_atom_site_fract_z
Si Si1 0.219590 0.174893 0.119430
Si Si2 0.113939 0.328027 0.047150
Si Si3 0.751389 0.825114 0.739650
Si Si4 0.357014 0.171955 0.811964
Si Si5 0.448371 0.174044 0.081702
Si Si6 0.522408 0.174034 0.777893
Si Si7 0.274888 0.322495 0.285021
Si Si8 0.695886 0.322503 0.574422
O O1 0.138214 0.222956 0.127086
O O2 0.222570 0.267808 0.229220
O O3 0.213565 0.000000 0.154458
O O4 0.302507 0.213777 0.971318
O O5 0.132183 0.500000 0.063369
O O6 0.017428 0.302646 0.110992
O O7 0.168454 0.286290 0.887773
O O8 0.832765 0.777033 0.731994
O O9 0.748423 0.732202 0.629832
O O10 0.757449 0.000000 0.704585
O O11 0.453537 0.197187 0.748157
O O12 0.338695 0.000000 0.795827
O O13 0.370905 0.276307 0.186021
O O14 0.419699 0.000000 0.100891
O O15 0.485239 0.227128 0.929855
O O16 0.599875 0.276465 0.673909
O O17 0.551127 0.000000 0.758814
O O18 0.267870 0.500000 0.300692
O O19 0.235190 0.250092 0.429818
O O20 0.702990 0.500000 0.558574
#
# Coordination Sequence:
#
# PCOD8053192 Si02
#       8
#     4   4   4   4   4   4   4   4
#     4  10  19  35  57  84 118 153 191 235 287 340
#     4   9  18  33  57  87 118 151 187 233 287 340
#     4  10  19  35  57  84 118 153 191 235 287 340
#     4   9  18  33  57  87 118 151 187 233 287 340
#     4  10  19  37  61  87 119 152 190 237 289 341
#     4  10  19  37  61  87 119 152 190 237 289 341
#     4  12  25  40  59  84 117 155 197 239 290 347
#     4  12  25  40  59  84 117 155 197 239 290 347
#
# _framework density 18.558716
#
# number of rings (size 3 to 8) (size 9 to 14) (size 15 to 20)
#    0.000    1.750    2.500    3.000    0.000    2.500 
#    0.000    1.250    0.000    7.500    0.000    0.000 
#    0.000    0.000    0.000    0.000    0.000    0.000 
#
# Total GULP energy -198470.799051 kJ/mol
# GULP energy per Si atom -12404.424941 kJ/mol
# Density = 1.851648 g / cm^3
# Si number density = 18.558716 Si / 1000 Ang^3
#
#
#
# Elastic Constant Matrix: (Units=GPa)
#
#
# Indices 1 2 3 4 5 6 
#
# 1 108.0258 60.7734 56.6432 0.0000 11.7307 0.0000
# 2 60.7734 128.9683 68.1418 0.0000 11.7960 0.0000
# 3 56.6432 68.1418 110.7905 0.0000 13.6368 0.0000
# 4 0.0000 0.0000 0.0000 29.9666 0.0000 1.2291
# 5 11.7307 11.7960 13.6368 0.0000 21.8870 0.0000
# 6 0.0000 0.0000 0.0000 1.2291 0.0000 36.5682
#
#
#
# Elastic Compliance Matrix: (Units=1/GPa)
#
#
# Indices 1 2 3 4 5 6 
#
# 1 0.014156 -0.004114 -0.004382 0.000000 -0.002640 0.000000
# 2 -0.004114 0.012758 -0.005598 0.000000 -0.001183 0.000000
# 3 -0.004382 -0.005598 0.015216 0.000000 -0.004115 0.000000
# 4 0.000000 0.000000 0.000000 0.033417 0.000000 -0.001123
# 5 -0.002640 -0.001183 -0.004115 0.000000 0.050305 0.000000
# 6 0.000000 0.000000 0.000000 -0.001123 0.000000 0.027384
#
#
# Mechanical properties :
#
#
# Convention : Reuss Voigt Hill
#
# Bulk Modulus (GPa) = 71.72614 79.87793 75.80203
# Shear Modulus (GPa) = 26.87128 28.49945 27.68536
#
# Velocity S-wave (km/s) = 3.80926 3.92297 3.86654
# Velocity P-wave (km/s) = 7.62099 7.97833 7.80170
#
# Compressibility (1/GPa) = 0.01394192
#
# Stress axis : x y z
#
# Youngs Moduli (GPa) = 70.64210 78.37916 65.71929
#
# Poissons Ratio (x) = 0.32243 0.28800
# Poissons Ratio (y) = 0.29061 0.36791
# Poissons Ratio (z) = 0.30958 0.43879
#
# Static dielectric constant tensor:
#      x y z
#    x 3.628510 0.000000 -0.117070 
#    y 0.000000 3.413040 0.000000 
#    z -0.117070 0.000000 3.535550 
# 
# 
# High freq. dielectric constant tensor:
#      x y z
#    x 1.734380 0.000000 0.008860 
#    y 0.000000 1.722180 0.000000 
#    z 0.008860 0.000000 1.694110 
# 
# From -- ./inp_files/23846.got.cif
#   From: 2010.03.12/outbox.cif.g09.slc.cpg/sg8_12_cif.got.tgz:23846.got - 2010.03.31 10:45:26.
