data_PCOD8053324
_publ_section_title
;
Structure prediction by ZEFSAII (Michael W. Deem and Ramdas Pophale) SiO2 
 PCOD8053324
Probable space group: C M
;
_chemical_formula_sum "Si O2"
_cell_formula_units_Z 32
_cell_length_a 27.886199
_cell_length_b 8.971609
_cell_length_c 15.832720
_cell_angle_alpha 90.000000
_cell_angle_beta 26.449752
_cell_angle_gamma 90.000000
_cell_volume 1764.322106
_symmetry_space_group_name_H-M "C M"
_symmetry_group_IT_number 8
_symmetry_cell_setting 'monoclinic'
loop_
_space_group_symop_operation_xyz
x,y,z
x,-y,z
1/2+x,1/2+y,z
1/2+x,1/2-y,z
loop_
_atom_site_type_symbol
_atom_site_label
_atom_site_fract_x
_atom_site_fract_y
_atom_site_fract_z
Si Si1 0.171620 0.825530 0.854290
Si Si2 0.469937 0.826162 0.256726
Si Si3 0.233412 0.168543 0.568498
Si Si4 0.390194 0.323727 0.547760
Si Si5 0.485403 0.326474 0.577338
Si Si6 0.149602 0.325592 0.539776
Si Si7 0.416425 0.175537 0.847311
Si Si8 0.718848 0.675557 0.268604
O O1 0.174320 0.798780 0.749851
O O2 0.269825 0.739826 0.743529
O O3 0.181400 0.000000 0.860538
O O4 0.061216 0.759747 0.062281
O O5 0.360421 0.803712 0.377440
O O6 0.458647 0.755360 0.366908
O O7 0.498620 0.000000 0.221264
O O8 0.185541 0.281214 0.576358
O O9 0.211108 0.000000 0.573936
O O10 0.386391 0.500000 0.537261
O O11 0.449739 0.281752 0.540234
O O12 0.470736 0.500000 0.617156
O O13 0.410193 0.243340 0.763506
O O14 0.609307 0.277467 0.393896
O O15 0.163403 0.500000 0.506822
O O16 0.225182 0.247188 0.351392
O O17 0.026224 0.275557 0.720672
O O18 0.407428 0.000000 0.851835
O O19 0.317553 0.238816 0.057983
O O20 0.728401 0.500000 0.265332
#
# Coordination Sequence:
#
# PCOD8053324 Si02
#       8
#     4   4   4   4   4   4   4   4
#     4  10  21  37  56  79 106 139 178 217 264 318
#     4  10  21  37  56  79 106 138 177 220 267 315
#     4   9  20  37  54  74 103 138 173 210 259 316
#     4  10  20  35  54  79 110 141 177 219 263 313
#     4   9  19  34  53  77 103 134 172 213 257 305
#     4  10  20  33  51  77 104 132 171 215 258 304
#     4   9  19  34  52  75 103 136 172 211 256 306
#     4   9  18  35  54  72 101 138 172 209 256 307
#
# _framework density 18.137277999999998
#
# number of rings (size 3 to 8) (size 9 to 14) (size 15 to 20)
#    0.000    2.500    0.000    2.250    0.000    7.000 
#    0.000    5.000    0.000    0.000    0.000    0.000 
#    0.000    0.000    0.000    0.000    0.000    0.000 
#
# Total GULP energy -198445.908307 kJ/mol
# GULP energy per Si atom -12402.869269 kJ/mol
# Density = 1.809600 g / cm^3
# Si number density = 18.137278 Si / 1000 Ang^3
#
#
#
# Elastic Constant Matrix: (Units=GPa)
#
#
# Indices 1 2 3 4 5 6 
#
# 1 110.1490 40.9852 45.6459 0.0000 10.5991 0.0000
# 2 40.9852 48.3260 28.8548 0.0000 7.8667 0.0000
# 3 45.6459 28.8548 133.4229 0.0000 12.3632 0.0000
# 4 0.0000 0.0000 0.0000 33.0552 0.0000 3.9150
# 5 10.5991 7.8667 12.3632 0.0000 14.2659 0.0000
# 6 0.0000 0.0000 0.0000 3.9150 0.0000 32.5847
#
#
#
# Elastic Compliance Matrix: (Units=1/GPa)
#
#
# Indices 1 2 3 4 5 6 
#
# 1 0.014081 -0.010058 -0.002378 0.000000 -0.002855 0.000000
# 2 -0.010058 0.032165 -0.002788 0.000000 -0.007848 0.000000
# 3 -0.002378 -0.002788 0.009357 0.000000 -0.004805 0.000000
# 4 0.000000 0.000000 0.000000 0.030689 0.000000 -0.003687
# 5 -0.002855 -0.007848 -0.004805 0.000000 0.080710 0.000000
# 6 0.000000 0.000000 0.000000 -0.003687 0.000000 0.031132
#
#
# Mechanical properties :
#
#
# Convention : Reuss Voigt Hill
#
# Bulk Modulus (GPa) = 39.75239 58.09663 48.92451
# Shear Modulus (GPa) = 21.10012 27.74198 24.42105
#
# Velocity S-wave (km/s) = 3.41450 3.91520 3.67339
# Velocity P-wave (km/s) = 6.12456 7.24841 6.71006
#
# Compressibility (1/GPa) = 0.02515572
#
# Stress axis : x y z
#
# Youngs Moduli (GPa) = 71.01782 31.08980 106.87676
#
# Poissons Ratio (x) = 0.31269 0.25411
# Poissons Ratio (y) = 0.71427 0.29798
# Poissons Ratio (z) = 0.16885 0.08668
#
# Static dielectric constant tensor:
#      x y z
#    x 3.310470 0.000000 -0.006290 
#    y 0.000000 3.351560 0.000000 
#    z -0.006290 0.000000 3.464220 
# 
# 
# High freq. dielectric constant tensor:
#      x y z
#    x 1.700690 0.000000 0.004100 
#    y 0.000000 1.707840 0.000000 
#    z 0.004100 0.000000 1.707330 
# 
# From -- ./inp_files/26520.got.cif
#   From: 2010.03.12/outbox.cif.g09.slc.cpg/sg8_14_cif.got.tgz:26520.got - 2010.03.31 10:45:26.
