data_PCOD8053198
_publ_section_title
;
Structure prediction by ZEFSAII (Michael W. Deem and Ramdas Pophale) SiO2 
 PCOD8053198
Probable space group: C M
;
_chemical_formula_sum "Si O2"
_cell_formula_units_Z 32
_cell_length_a 33.269001
_cell_length_b 8.639685
_cell_length_c 12.579341
_cell_angle_alpha 90.000000
_cell_angle_beta 26.436566
_cell_angle_gamma 90.000000
_cell_volume 1609.745719
_symmetry_space_group_name_H-M "C M"
_symmetry_group_IT_number 8
_symmetry_cell_setting 'monoclinic'
loop_
_space_group_symop_operation_xyz
x,y,z
x,-y,z
1/2+x,1/2+y,z
1/2+x,1/2-y,z
loop_
_atom_site_type_symbol
_atom_site_label
_atom_site_fract_x
_atom_site_fract_y
_atom_site_fract_z
Si Si1 0.400660 0.825888 0.003730
Si Si2 0.716100 0.816577 0.145036
Si Si3 0.535868 0.681525 0.974502
Si Si4 0.159484 0.316431 0.864910
Si Si5 0.348931 0.814914 0.351544
Si Si6 0.089113 0.683754 0.259254
Si Si7 0.598028 0.825148 0.617660
Si Si8 0.894348 0.684466 0.786459
O O1 0.353922 0.748226 0.218074
O O2 0.364595 0.000000 0.084287
O O3 0.508060 0.821628 0.760881
O O4 0.378033 0.745591 0.944447
O O5 0.655308 0.749681 0.193451
O O6 0.676494 0.765639 0.353539
O O7 0.721792 0.000000 0.124001
O O8 0.815115 0.743719 0.897786
O O9 0.526448 0.500000 0.013357
O O10 0.591111 0.753081 0.939990
O O11 0.591383 0.714216 0.735027
O O12 0.436386 0.756271 0.208577
O O13 0.165265 0.500000 0.842632
O O14 0.259042 0.246689 0.617983
O O15 0.123377 0.259163 0.064025
O O16 0.351890 0.000000 0.344673
O O17 0.088379 0.500000 0.266873
O O18 0.988380 0.748576 0.517088
O O19 0.616121 0.000000 0.615440
O O20 0.896707 0.500000 0.784971
#
# Coordination Sequence:
#
# PCOD8053198 Si02
#       8
#     4   4   4   4   4   4   4   4
#     4   8  15  31  57  82 111 148 186 228 284 347
#     4  10  20  36  58  86 115 150 191 238 293 349
#     4  11  23  39  59  87 121 159 199 246 297 350
#     4  11  23  40  62  88 117 159 205 247 293 350
#     4  10  21  39  61  89 120 157 197 244 298 353
#     4   9  20  40  62  81 113 156 197 236 286 350
#     4   9  17  34  59  84 116 155 191 236 293 355
#     4  10  19  35  58  85 113 150 192 235 288 348
#
# _framework density 19.878917000000001
#
# number of rings (size 3 to 8) (size 9 to 14) (size 15 to 20)
#    0.000    2.250    1.250    2.625    1.750    1.500 
#    0.000    8.125    0.000    0.000    0.000    0.000 
#    0.000    0.000    0.000    0.000    0.000    0.000 
#
# Total GULP energy -198364.938942 kJ/mol
# GULP energy per Si atom -12397.808684 kJ/mol
# Density = 1.983367 g / cm^3
# Si number density = 19.878917 Si / 1000 Ang^3
#
#
#
# Elastic Constant Matrix: (Units=GPa)
#
#
# Indices 1 2 3 4 5 6 
#
# 1 136.5275 37.0894 91.9332 0.0000 -6.1560 0.0000
# 2 37.0894 62.9969 35.9827 0.0000 1.6964 0.0000
# 3 91.9332 35.9827 160.0455 0.0000 -6.9489 0.0000
# 4 0.0000 0.0000 0.0000 28.3011 0.0000 -8.2937
# 5 -6.1560 1.6964 -6.9489 0.0000 28.4841 0.0000
# 6 0.0000 0.0000 0.0000 -8.2937 0.0000 20.6714
#
#
#
# Elastic Compliance Matrix: (Units=1/GPa)
#
#
# Indices 1 2 3 4 5 6 
#
# 1 0.012746 -0.003897 -0.006383 0.000000 0.001429 0.000000
# 2 -0.003897 0.019530 -0.002264 0.000000 -0.002557 0.000000
# 3 -0.006383 -0.002264 0.010481 0.000000 0.001312 0.000000
# 4 0.000000 0.000000 0.000000 0.040042 0.000000 0.016066
# 5 0.001429 -0.002557 0.001312 0.000000 0.035889 0.000000
# 6 0.000000 0.000000 0.000000 0.016066 0.000000 0.054822
#
#
# Mechanical properties :
#
#
# Convention : Reuss Voigt Hill
#
# Bulk Modulus (GPa) = 56.59512 76.62006 66.60759
# Shear Modulus (GPa) = 24.45153 28.46229 26.45691
#
# Velocity S-wave (km/s) = 3.51097 3.78800 3.65211
# Velocity P-wave (km/s) = 6.70579 7.59993 7.16682
#
# Compressibility (1/GPa) = 0.01766937
#
# Stress axis : x y z
#
# Youngs Moduli (GPa) = 78.45672 51.20408 95.41229
#
# Poissons Ratio (x) = 0.19952 0.60905
# Poissons Ratio (y) = 0.30571 0.21597
# Poissons Ratio (z) = 0.50082 0.11591
#
# Static dielectric constant tensor:
#      x y z
#    x 3.741450 0.000000 0.066250 
#    y 0.000000 3.274740 0.000000 
#    z 0.066250 0.000000 3.756610 
# 
# 
# High freq. dielectric constant tensor:
#      x y z
#    x 1.779350 0.000000 -0.002500 
#    y 0.000000 1.744460 0.000000 
#    z -0.002500 0.000000 1.782370 
# 
# From -- ./inp_files/24803.got.cif
#   From: 2010.03.12/outbox.cif.g09.slc.cpg/sg8_13_cif.got.tgz:24803.got - 2010.03.31 10:45:26.
