data_PCOD8053137
_publ_section_title
;
Structure prediction by ZEFSAII (Michael W. Deem and Ramdas Pophale) SiO2 
 PCOD8053137
Probable space group: C M
;
_chemical_formula_sum "Si O2"
_cell_formula_units_Z 32
_cell_length_a 19.943445
_cell_length_b 8.550861
_cell_length_c 12.159365
_cell_angle_alpha 90.000000
_cell_angle_beta 54.269628
_cell_angle_gamma 90.000000
_cell_volume 1683.278993
_symmetry_space_group_name_H-M "C M"
_symmetry_group_IT_number 8
_symmetry_cell_setting 'monoclinic'
loop_
_space_group_symop_operation_xyz
x,y,z
x,-y,z
1/2+x,1/2+y,z
1/2+x,1/2-y,z
loop_
_atom_site_type_symbol
_atom_site_label
_atom_site_fract_x
_atom_site_fract_y
_atom_site_fract_z
Si Si1 0.399480 0.180303 0.146290
Si Si2 0.619435 0.681232 0.441380
Si Si3 0.445570 0.819430 0.653815
Si Si4 0.763415 0.182887 0.429972
Si Si5 0.882899 0.318923 0.479049
Si Si6 0.017188 0.817516 0.194943
Si Si7 0.667261 0.819044 0.164020
Si Si8 0.343545 0.818754 0.962391
O O1 0.328863 0.283869 0.270744
O O2 0.487949 0.229216 0.111921
O O3 0.380462 0.000000 0.190995
O O4 0.399763 0.211256 0.015959
O O5 0.630832 0.500000 0.402423
O O6 0.526029 0.713675 0.565464
O O7 0.677822 0.729818 0.486793
O O8 0.645623 0.778030 0.309685
O O9 0.385190 0.794920 0.607619
O O10 0.396175 0.762551 0.807883
O O11 0.472925 0.000000 0.637816
O O12 0.798554 0.245090 0.512662
O O13 0.746292 0.000000 0.454716
O O14 0.887394 0.500000 0.441421
O O15 0.962085 0.233482 0.351584
O O16 0.111619 0.776708 0.130970
O O17 0.007086 0.000000 0.184540
O O18 0.648656 0.000000 0.163991
O O19 0.761774 0.783736 0.047350
O O20 0.318129 0.000000 0.976692
#
# Coordination Sequence:
#
# PCOD8053137 Si02
#       8
#     4   4   4   4   4   4   4   4
#     4  10  19  34  57  84 117 152 190 235 288 346
#     4  12  23  37  59  87 117 150 195 243 289 341
#     4  10  22  40  61  86 119 156 191 234 291 350
#     4  11  21  34  56  85 117 149 191 242 289 339
#     4  10  19  34  57  84 117 152 190 235 288 346
#     4  11  21  34  56  85 117 149 191 242 289 339
#     4  12  23  37  59  87 117 150 195 243 289 341
#     4  10  22  40  61  86 119 156 191 234 291 350
#
# _framework density 19.010515999999999
#
# number of rings (size 3 to 8) (size 9 to 14) (size 15 to 20)
#    0.000    1.250    2.500    6.750    0.000    1.500 
#    0.000    1.250    0.000    0.000    0.000    0.000 
#    0.000    0.000    0.000    0.000    0.000    0.000 
#
# Total GULP energy -198475.262386 kJ/mol
# GULP energy per Si atom -12404.703899 kJ/mol
# Density = 1.896725 g / cm^3
# Si number density = 19.010516 Si / 1000 Ang^3
#
#
#
# Elastic Constant Matrix: (Units=GPa)
#
#
# Indices 1 2 3 4 5 6 
#
# 1 124.7824 24.4964 48.9222 0.0000 12.2200 0.0000
# 2 24.4964 79.0800 21.1273 0.0000 0.5229 0.0000
# 3 48.9222 21.1273 101.2008 0.0000 11.4317 0.0000
# 4 0.0000 0.0000 0.0000 20.2387 0.0000 -3.8967
# 5 12.2200 0.5229 11.4317 0.0000 27.2272 0.0000
# 6 0.0000 0.0000 0.0000 -3.8967 0.0000 33.3422
#
#
#
# Elastic Compliance Matrix: (Units=1/GPa)
#
#
# Indices 1 2 3 4 5 6 
#
# 1 0.010365 -0.002053 -0.004263 0.000000 -0.002823 0.000000
# 2 -0.002053 0.013823 -0.002065 0.000000 0.001523 0.000000
# 3 -0.004263 -0.002065 0.012758 0.000000 -0.003404 0.000000
# 4 0.000000 0.000000 0.000000 0.050548 0.000000 0.005907
# 5 -0.002823 0.001523 -0.003404 0.000000 0.039395 0.000000
# 6 0.000000 0.000000 0.000000 0.005907 0.000000 0.030682
#
#
# Mechanical properties :
#
#
# Convention : Reuss Voigt Hill
#
# Bulk Modulus (GPa) = 49.54733 54.90611 52.22672
# Shear Modulus (GPa) = 27.61503 30.19612 28.90557
#
# Velocity S-wave (km/s) = 3.81546 3.98979 3.90359
# Velocity P-wave (km/s) = 6.74759 7.08302 6.91734
#
# Compressibility (1/GPa) = 0.02018272
#
# Stress axis : x y z
#
# Youngs Moduli (GPa) = 96.48051 72.34256 78.38323
#
# Poissons Ratio (x) = 0.14853 0.33415
# Poissons Ratio (y) = 0.19808 0.16189
# Poissons Ratio (z) = 0.41130 0.14941
#
# Static dielectric constant tensor:
#      x y z
#    x 3.789970 0.000000 0.188820 
#    y 0.000000 3.521080 0.000000 
#    z 0.188820 0.000000 3.250690 
# 
# 
# High freq. dielectric constant tensor:
#      x y z
#    x 1.755920 0.000000 0.014750 
#    y 0.000000 1.749910 0.000000 
#    z 0.014750 0.000000 1.702230 
# 
# From -- ./inp_files/23733.got.cif
#   From: 2010.03.12/outbox.cif.g09.slc.cpg/sg8_12_cif.got.tgz:23733.got - 2010.03.31 10:45:26.
