data_PCOD8053136
_publ_section_title
;
Structure prediction by ZEFSAII (Michael W. Deem and Ramdas Pophale) SiO2 
 PCOD8053136
Probable space group: C M
;
_chemical_formula_sum "Si O2"
_cell_formula_units_Z 32
_cell_length_a 20.490224
_cell_length_b 8.855424
_cell_length_c 12.155055
_cell_angle_alpha 90.000000
_cell_angle_beta 52.205351
_cell_angle_gamma 90.000000
_cell_volume 1742.836924
_symmetry_space_group_name_H-M "C M"
_symmetry_group_IT_number 8
_symmetry_cell_setting 'monoclinic'
loop_
_space_group_symop_operation_xyz
x,y,z
x,-y,z
1/2+x,1/2+y,z
1/2+x,1/2-y,z
loop_
_atom_site_type_symbol
_atom_site_label
_atom_site_fract_x
_atom_site_fract_y
_atom_site_fract_z
Si Si1 0.526420 0.676365 0.945490
Si Si2 0.983670 0.674472 0.549420
Si Si3 0.308683 0.677210 0.699611
Si Si4 0.742710 0.824766 0.528367
Si Si5 0.665139 0.321398 0.967387
Si Si6 0.050965 0.673538 0.247168
Si Si7 0.072136 0.821513 0.662345
Si Si8 0.913162 0.174745 0.251416
O O1 0.541081 0.500000 0.920495
O O2 0.528234 0.740240 0.819778
O O3 0.602382 0.741518 0.938773
O O4 0.440632 0.714477 0.097373
O O5 0.959665 0.500000 0.588598
O O6 0.901632 0.768654 0.614164
O O7 0.045871 0.697579 0.383197
O O8 0.029931 0.732429 0.608495
O O9 0.306849 0.500000 0.718672
O O10 0.273096 0.723789 0.617705
O O11 0.254882 0.752873 0.851635
O O12 0.668665 0.717937 0.567841
O O13 0.816390 0.793477 0.365484
O O14 0.715715 0.000000 0.553645
O O15 0.671680 0.500000 0.962120
O O16 0.629838 0.266380 0.121255
O O17 0.063991 0.500000 0.202395
O O18 0.964798 0.727659 0.284107
O O19 0.061274 0.000000 0.656259
O O20 0.934015 0.000000 0.255733
#
# Coordination Sequence:
#
# PCOD8053136 Si02
#       8
#     4   4   4   4   4   4   4   4
#     4   8  16  31  53  80 108 142 182 225 275 329
#     4  11  24  40  57  80 115 155 193 236 287 337
#     4  11  21  35  58  88 116 146 192 237 278 333
#     4  10  20  34  56  85 115 145 185 235 282 334
#     4  10  19  34  57  84 115 147 184 231 286 339
#     4  10  20  34  54  82 113 146 188 236 285 335
#     4  11  22  37  57  81 113 151 193 234 281 340
#     4   9  17  33  56  82 111 144 183 228 282 335
#
# _framework density 18.360868
#
# number of rings (size 3 to 8) (size 9 to 14) (size 15 to 20)
#    0.000    2.000    2.500    2.625    0.000    2.500 
#    0.000    1.875    0.000    6.000    0.000    0.000 
#    0.000    0.000    0.000    0.000    0.000    0.000 
#
# Total GULP energy -198397.897092 kJ/mol
# GULP energy per Si atom -12399.868568 kJ/mol
# Density = 1.831908 g / cm^3
# Si number density = 18.360868 Si / 1000 Ang^3
#
#
#
# Elastic Constant Matrix: (Units=GPa)
#
#
# Indices 1 2 3 4 5 6 
#
# 1 65.7969 31.5744 37.6511 0.0000 3.3147 0.0000
# 2 31.5744 70.1146 50.0298 0.0000 2.1927 0.0000
# 3 37.6511 50.0298 131.0746 0.0000 -3.3316 0.0000
# 4 0.0000 0.0000 0.0000 29.8607 0.0000 -4.1358
# 5 3.3147 2.1927 -3.3316 0.0000 26.8770 0.0000
# 6 0.0000 0.0000 0.0000 -4.1358 0.0000 29.6560
#
#
#
# Elastic Compliance Matrix: (Units=1/GPa)
#
#
# Indices 1 2 3 4 5 6 
#
# 1 0.020484 -0.006745 -0.003371 0.000000 -0.002394 0.000000
# 2 -0.006745 0.021995 -0.006503 0.000000 -0.001769 0.000000
# 3 -0.003371 -0.006503 0.011139 0.000000 0.002327 0.000000
# 4 0.000000 0.000000 0.000000 0.034148 0.000000 0.004762
# 5 -0.002394 -0.001769 0.002327 0.000000 0.037935 0.000000
# 6 0.000000 0.000000 0.000000 0.004762 0.000000 0.034384
#
#
# Mechanical properties :
#
#
# Convention : Reuss Voigt Hill
#
# Bulk Modulus (GPa) = 49.06340 56.16628 52.61484
# Shear Modulus (GPa) = 24.98563 27.12744 26.05654
#
# Velocity S-wave (km/s) = 3.69292 3.84794 3.77123
# Velocity P-wave (km/s) = 6.70546 7.09921 6.90515
#
# Compressibility (1/GPa) = 0.02038179
#
# Stress axis : x y z
#
# Youngs Moduli (GPa) = 48.81804 45.46493 89.77764
#
# Poissons Ratio (x) = 0.30665 0.30260
# Poissons Ratio (y) = 0.32926 0.58381
# Poissons Ratio (z) = 0.16454 0.29565
#
# Static dielectric constant tensor:
#      x y z
#    x 3.287890 0.000000 0.012380 
#    y 0.000000 3.330280 0.000000 
#    z 0.012380 0.000000 3.759440 
# 
# 
# High freq. dielectric constant tensor:
#      x y z
#    x 1.677670 0.000000 -0.004550 
#    y 0.000000 1.711130 0.000000 
#    z -0.004550 0.000000 1.731500 
# 
# From -- ./inp_files/23845.got.cif
#   From: 2010.03.12/outbox.cif.g09.slc.cpg/sg8_12_cif.got.tgz:23845.got - 2010.03.31 10:45:26.
