data_PCOD8053284
_publ_section_title
;
Structure prediction by ZEFSAII (Michael W. Deem and Ramdas Pophale) SiO2 
 PCOD8053284
Probable space group: C M
;
_chemical_formula_sum "Si O2"
_cell_formula_units_Z 32
_cell_length_a 24.794597
_cell_length_b 8.865573
_cell_length_c 23.729475
_cell_angle_alpha 90.000000
_cell_angle_beta 17.995883
_cell_angle_gamma 90.000000
_cell_volume 1611.529660
_symmetry_space_group_name_H-M "C M"
_symmetry_group_IT_number 8
_symmetry_cell_setting 'monoclinic'
loop_
_space_group_symop_operation_xyz
x,y,z
x,-y,z
1/2+x,1/2+y,z
1/2+x,1/2-y,z
loop_
_atom_site_type_symbol
_atom_site_label
_atom_site_fract_x
_atom_site_fract_y
_atom_site_fract_z
Si Si1 0.768930 0.323417 0.823070
Si Si2 0.646049 0.671377 0.568054
Si Si3 0.241649 0.672485 0.967549
Si Si4 0.429465 0.326275 0.090995
Si Si5 0.142061 0.822557 0.177872
Si Si6 0.796722 0.678298 0.532711
Si Si7 0.447940 0.325340 0.941626
Si Si8 0.133314 0.179242 0.456777
O O1 0.802045 0.500000 0.797293
O O2 0.703852 0.256264 0.946790
O O3 0.947110 0.247861 0.623741
O O4 0.619707 0.287080 0.925980
O O5 0.706791 0.500000 0.504534
O O6 0.442840 0.683898 0.784706
O O7 0.748683 0.745665 0.518238
O O8 0.683930 0.744250 0.468938
O O9 0.180454 0.500000 0.021862
O O10 0.132277 0.750038 0.125535
O O11 0.382178 0.500000 0.149685
O O12 0.281650 0.223406 0.265667
O O13 0.430994 0.288307 0.023919
O O14 0.970564 0.762766 0.381187
O O15 0.138619 0.000000 0.175495
O O16 0.312170 0.775626 0.042947
O O17 0.829999 0.500000 0.498183
O O18 0.642882 0.717714 0.728981
O O19 0.408375 0.500000 0.967318
O O20 0.109868 0.000000 0.482511
#
# Coordination Sequence:
#
# PCOD8053284 Si02
#       8
#     4   4   4   4   4   4   4   4
#     4  10  21  38  59  91 128 158 196 253 308 353
#     4   8  16  33  58  87 116 150 198 245 286 342
#     4  10  19  37  62  88 121 161 204 246 294 362
#     4  10  23  41  63  89 119 158 206 254 300 354
#     4  12  25  38  57  92 128 157 192 247 313 366
#     4  10  20  38  63  88 115 157 207 249 292 358
#     4  10  22  44  67  85 113 161 212 252 295 356
#     4  10  21  37  59  90 124 162 203 244 296 361
#
# _framework density 19.856911
#
# number of rings (size 3 to 8) (size 9 to 14) (size 15 to 20)
#    0.000    2.000    1.250    3.000    1.750    3.000 
#    0.000    3.125    0.000    0.000    0.000    0.000 
#    0.000    0.000    0.000    0.000    0.000    0.000 
#
# Total GULP energy -198411.715526 kJ/mol
# GULP energy per Si atom -12400.732220 kJ/mol
# Density = 1.981172 g / cm^3
# Si number density = 19.856911 Si / 1000 Ang^3
#
#
#
# Elastic Constant Matrix: (Units=GPa)
#
#
# Indices 1 2 3 4 5 6 
#
# 1 73.9145 39.7511 36.9404 -0.0087 14.4472 0.0090
# 2 39.7511 99.3246 55.0198 0.0361 3.4228 -0.0227
# 3 36.9404 55.0198 115.8507 0.0174 17.4199 -0.0049
# 4 -0.0087 0.0361 0.0174 29.9643 0.0099 0.5319
# 5 14.4472 3.4228 17.4199 0.0099 23.2588 -0.0036
# 6 0.0090 -0.0227 -0.0049 0.5319 -0.0036 24.2163
#
#
#
# Elastic Compliance Matrix: (Units=1/GPa)
#
#
# Indices 1 2 3 4 5 6 
#
# 1 0.019956 -0.006729 -0.001637 0.000019 -0.010179 -0.000016
# 2 -0.006729 0.016147 -0.006530 -0.000020 0.006694 0.000018
# 3 -0.001637 -0.006530 0.013475 0.000002 -0.008115 -0.000004
# 4 0.000019 -0.000020 0.000002 0.033386 -0.000025 -0.000733
# 5 -0.010179 0.006694 -0.008115 -0.000025 0.054410 0.000017
# 6 -0.000016 0.000018 -0.000004 -0.000733 0.000017 0.041311
#
#
# Mechanical properties :
#
#
# Convention : Reuss Voigt Hill
#
# Bulk Modulus (GPa) = 50.53786 61.39027 55.96407
# Shear Modulus (GPa) = 23.24811 25.97978 24.61394
#
# Velocity S-wave (km/s) = 3.42538 3.62104 3.52457
# Velocity P-wave (km/s) = 6.41487 6.96175 6.69390
#
# Compressibility (1/GPa) = 0.01978714
#
# Stress axis : x y z
#
# Youngs Moduli (GPa) = 50.11097 61.92938 74.21228
#
# Poissons Ratio (x) = 0.41673 0.12146
# Poissons Ratio (y) = 0.33720 0.48458
# Poissons Ratio (z) = 0.08202 0.40437
#
# Static dielectric constant tensor:
#      x y z
#    x 3.663940 -0.000010 0.014880 
#    y -0.000010 3.450520 0.000030 
#    z 0.014880 0.000030 3.616490 
# 
# 
# High freq. dielectric constant tensor:
#      x y z
#    x 1.772600 0.000000 0.000060 
#    y 0.000000 1.758150 0.000000 
#    z 0.000060 0.000000 1.783530 
# 
# From -- ./inp_files/32376.got.cif
#   From: 2010.03.12/outbox.cif.g09.slc.cpg/sg8_17_cif.got.tgz:32376.got - 2010.03.31 10:45:26.
