data_PCOD8053316
_publ_section_title
;
Structure prediction by ZEFSAII (Michael W. Deem and Ramdas Pophale) SiO2 
 PCOD8053316
Probable space group: C M
;
_chemical_formula_sum "Si O2"
_cell_formula_units_Z 32
_cell_length_a 24.258242
_cell_length_b 9.084097
_cell_length_c 21.554761
_cell_angle_alpha 90.000000
_cell_angle_beta 156.775558
_cell_angle_gamma 90.000000
_cell_volume 1873.046205
_symmetry_space_group_name_H-M "C M"
_symmetry_group_IT_number 8
_symmetry_cell_setting 'monoclinic'
loop_
_space_group_symop_operation_xyz
x,y,z
x,-y,z
1/2+x,1/2+y,z
1/2+x,1/2-y,z
loop_
_atom_site_type_symbol
_atom_site_label
_atom_site_fract_x
_atom_site_fract_y
_atom_site_fract_z
Si Si1 0.736900 0.172294 0.197970
Si Si2 0.443561 0.828059 0.691822
Si Si3 0.261164 0.673711 0.855485
Si Si4 0.449783 0.832708 0.498102
Si Si5 0.131657 0.832770 0.969777
Si Si6 0.685462 0.667994 0.891328
Si Si7 0.020056 0.328480 0.080514
Si Si8 0.226320 0.834611 0.373337
O O1 0.708178 0.246778 0.102804
O O2 0.609669 0.211268 0.112509
O O3 0.882974 0.232273 0.375319
O O4 0.751621 0.000000 0.203098
O O5 0.283681 0.804177 0.502887
O O6 0.477683 0.000000 0.734687
O O7 0.482119 0.744624 0.796441
O O8 0.540041 0.758614 0.737040
O O9 0.277503 0.500000 0.878884
O O10 0.108304 0.721113 0.673329
O O11 0.291112 0.750215 0.953588
O O12 0.376076 0.737714 0.926819
O O13 0.359460 0.818068 0.466562
O O14 0.450738 0.000000 0.474955
O O15 0.232959 0.827561 0.013276
O O16 0.100835 0.000000 0.958379
O O17 0.663425 0.500000 0.846665
O O18 0.987136 0.500000 0.051597
O O19 0.105529 0.279543 0.230429
O O20 0.164676 0.000000 0.304946
#
# Coordination Sequence:
#
# PCOD8053316 Si02
#       8
#     4   4   4   4   4   4   4   4
#     4  10  20  33  50  73  99 132 169 206 247 291
#     4   9  15  27  48  74  99 124 158 201 243 289
#     4  11  20  33  52  75 101 135 167 199 250 304
#     4   9  17  30  49  71  96 125 164 207 247 292
#     4   9  18  30  48  74 100 129 164 206 249 288
#     4   9  18  29  47  75 101 127 158 202 247 288
#     4  10  22  34  47  72 105 136 165 203 249 296
#     4   9  16  30  49  72  99 128 163 202 246 294
#
# _framework density 17.084468999999999
#
# number of rings (size 3 to 8) (size 9 to 14) (size 15 to 20)
#    0.750    1.750    1.250    1.875    0.000    3.500 
#    0.000    0.000    0.000    1.500    0.000    7.000 
#    0.000    0.000    0.000    0.000    0.000    0.000 
#
# Total GULP energy -198238.391960 kJ/mol
# GULP energy per Si atom -12389.899498 kJ/mol
# Density = 1.704558 g / cm^3
# Si number density = 17.084469 Si / 1000 Ang^3
#
#
#
# Elastic Constant Matrix: (Units=GPa)
#
#
# Indices 1 2 3 4 5 6 
#
# 1 53.6030 41.4736 40.6885 -0.0001 -10.1066 0.0000
# 2 41.4736 107.2735 52.5612 0.0001 -7.3799 0.0000
# 3 40.6885 52.5612 90.9111 -0.0001 -5.7688 0.0000
# 4 -0.0001 0.0001 -0.0001 29.1235 -0.0001 -2.2704
# 5 -10.1066 -7.3799 -5.7688 -0.0001 27.5437 0.0000
# 6 0.0000 0.0000 0.0000 -2.2704 0.0000 26.8007
#
#
#
# Elastic Compliance Matrix: (Units=1/GPa)
#
#
# Indices 1 2 3 4 5 6 
#
# 1 0.033788 -0.007454 -0.010289 0.000000 0.008246 0.000000
# 2 -0.007454 0.014754 -0.005185 0.000000 0.000132 0.000000
# 3 -0.010289 -0.005185 0.018521 0.000000 -0.001286 0.000000
# 4 0.000000 0.000000 0.000000 0.034565 0.000000 0.002928
# 5 0.008246 0.000132 -0.001286 0.000000 0.039098 0.000000
# 6 0.000000 0.000000 0.000000 0.002928 0.000000 0.037560
#
#
# Mechanical properties :
#
#
# Convention : Reuss Voigt Hill
#
# Bulk Modulus (GPa) = 47.15838 57.91493 52.53665
# Shear Modulus (GPa) = 21.62513 24.49787 23.06150
#
# Velocity S-wave (km/s) = 3.56164 3.79083 3.67802
# Velocity P-wave (km/s) = 6.67658 7.28926 6.98963
#
# Compressibility (1/GPa) = 0.02120514
#
# Stress axis : x y z
#
# Youngs Moduli (GPa) = 29.59611 67.77980 53.99181
#
# Poissons Ratio (x) = 0.50525 0.55554
# Poissons Ratio (y) = 0.22062 0.27997
# Poissons Ratio (z) = 0.30453 0.35146
#
# Static dielectric constant tensor:
#      x y z
#    x 2.909310 0.000000 -0.098130 
#    y 0.000000 3.265610 0.000000 
#    z -0.098130 0.000000 3.088850 
# 
# 
# High freq. dielectric constant tensor:
#      x y z
#    x 1.621790 0.000000 -0.016450 
#    y 0.000000 1.675480 0.000000 
#    z -0.016450 0.000000 1.643380 
# 
# From -- ./inp_files/32618.got.cif
#   From: 2010.03.12/outbox.cif.g09.slc.cpg/sg8_17_cif.got.tgz:32618.got - 2010.03.31 10:45:26.
