data_PCOD8053718
_publ_section_title
;
Structure prediction by ZEFSAII (Michael W. Deem and Ramdas Pophale) SiO2 
 PCOD8053718
Probable space group: C M
;
_chemical_formula_sum "Si O2"
_cell_formula_units_Z 32
_cell_length_a 24.780861
_cell_length_b 9.002322
_cell_length_c 23.480851
_cell_angle_alpha 90.000000
_cell_angle_beta 161.474211
_cell_angle_gamma 90.000000
_cell_volume 1664.351286
_symmetry_space_group_name_H-M "C M"
_symmetry_group_IT_number 8
_symmetry_cell_setting 'monoclinic'
loop_
_space_group_symop_operation_xyz
x,y,z
x,-y,z
1/2+x,1/2+y,z
1/2+x,1/2-y,z
loop_
_atom_site_type_symbol
_atom_site_label
_atom_site_fract_x
_atom_site_fract_y
_atom_site_fract_z
Si Si1 0.717450 0.175766 0.048780
Si Si2 0.857396 0.336193 0.476714
Si Si3 0.232710 0.665191 0.851529
Si Si4 0.373639 0.676186 0.714038
Si Si5 0.344640 0.167735 0.068857
Si Si6 0.727971 0.834361 0.450231
Si Si7 0.041824 0.826553 0.571979
Si Si8 0.556218 0.673476 0.454442
O O1 0.732798 0.235036 0.999765
O O2 0.884335 0.224380 0.250826
O O3 0.694444 0.000000 0.025294
O O4 0.550929 0.249270 0.910943
O O5 0.788426 0.500000 0.391656
O O6 0.871523 0.237085 0.433069
O O7 0.736151 0.267874 0.402937
O O8 0.045518 0.346441 0.692549
O O9 0.311192 0.500000 0.921474
O O10 0.346658 0.762407 0.007722
O O11 0.209947 0.746841 0.767269
O O12 0.383680 0.500000 0.731990
O O13 0.344125 0.721363 0.618475
O O14 0.219319 0.736157 0.597340
O O15 0.537247 0.167733 0.283392
O O16 0.271218 0.000000 0.993232
O O17 0.782221 0.000000 0.486042
O O18 0.028674 0.789160 0.492847
O O19 0.055557 0.000000 0.597805
O O20 0.591028 0.500000 0.478660
#
# Coordination Sequence:
#
# PCOD8053718 Si02
#       8
#     4   4   4   4   4   4   4   4
#     4  11  23  39  60  89 124 160 200 250 304 362
#     4   9  19  33  53  81 109 145 190 236 291 348
#     4   9  19  34  53  82 110 145 190 236 292 348
#     4  11  23  39  61  89 122 161 203 251 303 360
#     4  11  21  35  55  84 120 157 199 246 299 360
#     4  10  21  35  53  82 119 156 197 244 297 356
#     4   9  18  36  61  83 111 156 200 245 297 354
#     4  10  22  41  64  90 121 160 207 252 301 358
#
# _framework density 19.226710000000001
#
# number of rings (size 3 to 8) (size 9 to 14) (size 15 to 20)
#    0.750    1.250    1.250    2.625    0.000    5.500 
#    0.000    1.250    0.000    3.000    0.000    0.000 
#    0.000    0.000    0.000    0.000    0.000    0.000 
#
# Total GULP energy -198320.594081 kJ/mol
# GULP energy per Si atom -12395.037130 kJ/mol
# Density = 1.918295 g / cm^3
# Si number density = 19.226710 Si / 1000 Ang^3
#
#
#
# Elastic Constant Matrix: (Units=GPa)
#
#
# Indices 1 2 3 4 5 6 
#
# 1 107.7449 61.8704 34.3831 0.0011 -1.6581 0.0062
# 2 61.8704 123.3328 38.2024 -0.0210 -0.0567 -0.0106
# 3 34.3831 38.2024 83.0455 -0.0295 2.2055 -0.0117
# 4 0.0011 -0.0210 -0.0295 27.6338 -0.0088 2.8340
# 5 -1.6581 -0.0567 2.2055 -0.0088 30.2187 -0.0028
# 6 0.0062 -0.0106 -0.0117 2.8340 -0.0028 33.4075
#
#
#
# Elastic Compliance Matrix: (Units=1/GPa)
#
#
# Indices 1 2 3 4 5 6 
#
# 1 0.013641 -0.005930 -0.002945 -0.000007 0.000952 -0.000005
# 2 -0.005930 0.012037 -0.003080 0.000006 -0.000078 0.000003
# 3 -0.002945 -0.003080 0.014711 0.000013 -0.001241 0.000004
# 4 -0.000007 0.000006 0.000013 0.036505 0.000009 -0.003097
# 5 0.000952 -0.000078 -0.001241 0.000009 0.033235 0.000001
# 6 -0.000005 0.000003 0.000004 -0.003097 0.000001 0.030196
#
#
# Mechanical properties :
#
#
# Convention : Reuss Voigt Hill
#
# Bulk Modulus (GPa) = 60.68583 64.78167 62.73375
# Shear Modulus (GPa) = 29.45887 30.22982 29.84435
#
# Velocity S-wave (km/s) = 3.91856 3.96950 3.94411
# Velocity P-wave (km/s) = 7.21840 7.40108 7.31031
#
# Compressibility (1/GPa) = 0.01647831
#
# Stress axis : x y z
#
# Youngs Moduli (GPa) = 73.30806 83.07634 67.97807
#
# Poissons Ratio (x) = 0.49268 0.20019
# Poissons Ratio (y) = 0.43475 0.20936
# Poissons Ratio (z) = 0.21589 0.25586
#
# Static dielectric constant tensor:
#      x y z
#    x 3.250580 0.000000 -0.042170 
#    y 0.000000 3.571990 0.000000 
#    z -0.042170 0.000000 3.344930 
# 
# 
# High freq. dielectric constant tensor:
#      x y z
#    x 1.730910 0.000000 -0.001560 
#    y 0.000000 1.759590 0.000000 
#    z -0.001560 0.000000 1.733090 
# 
# From -- ./inp_files/32420.got.cif
#   From: 2010.03.12/outbox.cif.g09.slc.cpg/sg8_17_cif.got.tgz:32420.got - 2010.03.31 10:45:26.
