data_PCOD8053299
_publ_section_title
;
Structure prediction by ZEFSAII (Michael W. Deem and Ramdas Pophale) SiO2 
 PCOD8053299
Probable space group: C M
;
_chemical_formula_sum "Si O2"
_cell_formula_units_Z 28
_cell_length_a 8.825225
_cell_length_b 32.791429
_cell_length_c 5.296185
_cell_angle_alpha 90.000000
_cell_angle_beta 126.878263
_cell_angle_gamma 90.000000
_cell_volume 1226.003472
_symmetry_space_group_name_H-M "C M"
_symmetry_group_IT_number 8
_symmetry_cell_setting 'monoclinic'
loop_
_space_group_symop_operation_xyz
x,y,z
x,-y,z
1/2+x,1/2+y,z
1/2+x,1/2-y,z
loop_
_atom_site_type_symbol
_atom_site_label
_atom_site_fract_x
_atom_site_fract_y
_atom_site_fract_z
Si Si1 0.197390 0.000000 0.361941
Si Si2 0.610848 0.086872 0.253441
Si Si3 0.939610 0.787243 0.564392
Si Si4 0.952582 0.500000 0.117131
Si Si5 0.039115 0.086872 0.181707
Si Si6 0.612963 0.878520 0.755641
Si Si7 0.210352 0.712756 0.835135
Si Si8 0.036999 0.121481 0.679675
O O1 0.055477 0.038273 0.212426
O O2 0.314774 0.000000 0.738694
O O3 0.335198 0.000000 0.259119
O O4 0.508280 0.106937 0.395047
O O5 0.825968 0.102666 0.452939
O O6 0.507407 0.102892 0.895050
O O7 0.594496 0.038273 0.251444
O O8 0.776093 0.784672 0.611043
O O9 0.045556 0.829912 0.709259
O O10 0.074979 0.749999 0.760376
O O11 0.873869 0.784672 0.208819
O O12 0.141680 0.106938 0.528444
O O13 0.823990 0.102663 0.950960
O O14 0.142552 0.102893 0.030192
O O15 0.604412 0.829913 0.768116
#
# Coordination Sequence:
#
# PCOD8053299 Si02
#       8
#     2   4   4   2   4   4   4   4
#     4  12  26  42  56  94 136 164 206 268 332 386
#     4  10  20  38  66  86 120 163 210 261 310 379
#     4  12  23  43  68 100 139 172 225 287 334 397
#     4  12  26  42  56  94 136 164 206 268 332 386
#     4  10  20  38  66  86 120 163 210 261 310 379
#     4  10  19  39  68  88 114 163 219 262 304 386
#     4  12  23  43  68 100 139 172 225 287 334 397
#     4  10  19  39  68  88 114 163 219 262 304 386
#
# _framework density 22.838436000000002
#
# number of rings (size 3 to 8) (size 9 to 14) (size 15 to 20)
#    0.000    1.143    5.714    2.571    0.000    4.571 
#    0.000    8.571    0.000    0.000    0.000    0.000 
#    0.000    0.000    0.000    0.000    0.000    0.000 
#
# Total GULP energy -173516.592189 kJ/mol
# GULP energy per Si atom -12394.042299 kJ/mol
# Density = 2.278646 g / cm^3
# Si number density = 22.838436 Si / 1000 Ang^3
#
#
#
# Elastic Constant Matrix: (Units=GPa)
#
#
# Indices 1 2 3 4 5 6 
#
# 1 37.4339 27.0251 38.8576 0.0000 -25.8049 0.0000
# 2 27.0251 209.5360 26.0969 0.0000 1.3388 0.0000
# 3 38.8576 26.0969 95.3578 0.0000 -57.6039 0.0000
# 4 0.0000 0.0000 0.0000 35.9477 0.0000 -7.0852
# 5 -25.8049 1.3388 -57.6039 0.0000 54.0407 0.0000
# 6 0.0000 0.0000 0.0000 -7.0852 0.0000 31.0291
#
#
#
# Elastic Compliance Matrix: (Units=1/GPa)
#
#
# Indices 1 2 3 4 5 6 
#
# 1 0.051292 -0.005059 -0.013046 0.000000 0.010712 0.000000
# 2 -0.005059 0.005841 -0.003043 0.000000 -0.005805 0.000000
# 3 -0.013046 -0.003043 0.036278 0.000000 0.032516 0.000000
# 4 0.000000 0.000000 0.000000 0.029129 0.000000 0.006651
# 5 0.010712 -0.005805 0.032516 0.000000 0.058423 0.000000
# 6 0.000000 0.000000 0.000000 0.006651 0.000000 0.033747
#
#
# Mechanical properties :
#
#
# Convention : Reuss Voigt Hill
#
# Bulk Modulus (GPa) = 19.56393 58.47632 39.02012
# Shear Modulus (GPa) = 18.24515 40.89338 29.56926
#
# Velocity S-wave (km/s) = 2.82951 4.23608 3.60212
# Velocity P-wave (km/s) = 4.38858 7.04172 5.86709
#
# Compressibility (1/GPa) = 0.05111448
#
# Stress axis : x y z
#
# Youngs Moduli (GPa) = 19.49611 171.20110 27.56483
#
# Poissons Ratio (x) = 0.86612 0.35961
# Poissons Ratio (y) = 0.09863 0.08389
# Poissons Ratio (z) = 0.25435 0.52104
#
# Static dielectric constant tensor:
#      x y z
#    x 4.853220 0.000000 -1.757220 
#    y 0.000000 4.311760 0.000000 
#    z -1.757220 0.000000 6.073320 
# 
# 
# High freq. dielectric constant tensor:
#      x y z
#    x 1.887980 0.000000 -0.042060 
#    y 0.000000 1.913650 0.000000 
#    z -0.042060 0.000000 1.917190 
# 
# From -- ./inp_files/1879.got.cif
#   From: 2010.03.12/outbox.cif.g09.slc.cpg/sg8_1_cif.got.tgz:1879.got - 2010.03.31 10:45:26.
