data_PCOD8053312
_publ_section_title
;
Structure prediction by ZEFSAII (Michael W. Deem and Ramdas Pophale) SiO2 
 PCOD8053312
Probable space group: C M
;
_chemical_formula_sum "Si O2"
_cell_formula_units_Z 32
_cell_length_a 8.814643
_cell_length_b 21.594811
_cell_length_c 14.176861
_cell_angle_alpha 90.000000
_cell_angle_beta 140.096377
_cell_angle_gamma 90.000000
_cell_volume 1731.129744
_symmetry_space_group_name_H-M "C M"
_symmetry_group_IT_number 8
_symmetry_cell_setting 'monoclinic'
loop_
_space_group_symop_operation_xyz
x,y,z
x,-y,z
1/2+x,1/2+y,z
1/2+x,1/2-y,z
loop_
_atom_site_type_symbol
_atom_site_label
_atom_site_fract_x
_atom_site_fract_y
_atom_site_fract_z
Si Si1 0.892970 0.570206 0.043910
Si Si2 0.038040 0.653958 0.789020
Si Si3 0.412623 0.678923 0.645577
Si Si4 0.591809 0.271650 0.546267
Si Si5 0.776365 0.233611 0.062864
Si Si6 0.992624 0.155510 0.895189
Si Si7 0.713519 0.430515 0.748363
Si Si8 0.712505 0.182734 0.224523
O O1 0.942323 0.500000 0.100721
O O2 0.117024 0.612429 0.179440
O O3 0.659589 0.595393 0.986315
O O4 0.851958 0.573225 0.912671
O O5 0.230267 0.635112 0.801273
O O6 0.850785 0.699524 0.650736
O O7 0.894214 0.593666 0.755141
O O8 0.171159 0.684233 0.940504
O O9 0.543912 0.726104 0.635549
O O10 0.135611 0.701132 0.525593
O O11 0.520849 0.681837 0.801921
O O12 0.467666 0.609632 0.633059
O O13 0.388850 0.309021 0.396056
O O14 0.848583 0.196466 0.191892
O O15 0.003600 0.267919 0.130960
O O16 0.583452 0.286236 0.999548
O O17 0.636370 0.500000 0.686699
#
# Coordination Sequence:
#
# PCOD8053312 Si02
#       8
#     4   4   4   4   4   4   4   4
#     4   9  19  36  57  79 110 152 189 227 277 332
#     4  11  20  33  57  84 108 146 183 233 284 334
#     4  10  20  34  54  82 114 147 184 228 279 336
#     4  11  22  33  53  84 119 147 182 227 295 337
#     4  11  20  33  53  79 110 143 183 231 283 326
#     4  10  20  32  57  85 110 141 188 239 278 329
#     4   9  19  35  56  84 111 144 191 233 275 330
#     4  11  22  36  53  83 118 146 184 234 277 340
#
# _framework density 18.485039
#
# number of rings (size 3 to 8) (size 9 to 14) (size 15 to 20)
#    0.000    1.750    3.750    1.500    3.500    0.500 
#    0.000    2.500    0.000    0.000    0.000    5.250 
#    0.000    0.000    0.000    0.000    0.000    0.000 
#
# Total GULP energy -198232.804593 kJ/mol
# GULP energy per Si atom -12389.550287 kJ/mol
# Density = 1.844297 g / cm^3
# Si number density = 18.485039 Si / 1000 Ang^3
#
#
#
# Elastic Constant Matrix: (Units=GPa)
#
#
# Indices 1 2 3 4 5 6 
#
# 1 97.4615 61.1077 22.2550 0.0000 0.2144 0.0000
# 2 61.1077 126.5693 37.7799 0.0000 1.7211 0.0000
# 3 22.2550 37.7799 70.0924 -0.0002 0.0790 -0.0002
# 4 0.0000 0.0000 -0.0002 22.5858 -0.0001 4.6013
# 5 0.2144 1.7211 0.0790 -0.0001 12.7833 0.0000
# 6 0.0000 0.0000 -0.0002 4.6013 0.0000 23.2877
#
#
#
# Elastic Compliance Matrix: (Units=1/GPa)
#
#
# Indices 1 2 3 4 5 6 
#
# 1 0.014780 -0.006846 -0.001004 0.000000 0.000680 0.000000
# 2 -0.006846 0.012606 -0.004619 0.000000 -0.001554 0.000000
# 3 -0.001004 -0.004619 0.017075 0.000000 0.000533 0.000000
# 4 0.000000 0.000000 0.000000 0.046133 0.000000 -0.009115
# 5 0.000680 -0.001554 0.000533 0.000000 0.078422 0.000000
# 6 0.000000 0.000000 0.000000 -0.009115 0.000000 0.044742
#
#
# Mechanical properties :
#
#
# Convention : Reuss Voigt Hill
#
# Bulk Modulus (GPa) = 51.22031 59.60096 55.41064
# Shear Modulus (GPa) = 20.39132 23.26341 21.82737
#
# Velocity S-wave (km/s) = 3.32494 3.55138 3.44002
# Velocity P-wave (km/s) = 6.51993 7.00922 6.76900
#
# Compressibility (1/GPa) = 0.01952350
#
# Stress axis : x y z
#
# Youngs Moduli (GPa) = 67.65761 79.32873 58.56580
#
# Poissons Ratio (x) = 0.54305 0.05880
# Poissons Ratio (y) = 0.46315 0.27053
# Poissons Ratio (z) = 0.06792 0.36644
#
# Static dielectric constant tensor:
#      x y z
#    x 3.517670 0.000000 0.080860 
#    y 0.000000 3.472120 0.000000 
#    z 0.080860 0.000000 3.152260 
# 
# 
# High freq. dielectric constant tensor:
#      x y z
#    x 1.727120 0.000000 -0.003410 
#    y 0.000000 1.700170 0.000000 
#    z -0.003410 0.000000 1.687280 
# 
# From -- ./inp_files/8964.got.cif
#   From: 2010.03.12/outbox.cif.g09.slc.cpg/sg8_5_cif.got.tgz:8964.got - 2010.03.31 10:45:26.
