data_PCOD8053834
_publ_section_title
;
Structure prediction by ZEFSAII (Michael W. Deem and Ramdas Pophale) SiO2 
 PCOD8053834
Probable space group: C M
;
_chemical_formula_sum "Si O2"
_cell_formula_units_Z 24
_cell_length_a 17.449577
_cell_length_b 15.938311
_cell_length_c 8.747205
_cell_angle_alpha 90.000000
_cell_angle_beta 148.130298
_cell_angle_gamma 90.000000
_cell_volume 1284.463143
_symmetry_space_group_name_H-M "C M"
_symmetry_group_IT_number 8
_symmetry_cell_setting 'monoclinic'
loop_
_space_group_symop_operation_xyz
x,y,z
x,-y,z
1/2+x,1/2+y,z
1/2+x,1/2-y,z
loop_
_atom_site_type_symbol
_atom_site_label
_atom_site_fract_x
_atom_site_fract_y
_atom_site_fract_z
Si Si1 0.676850 0.596743 0.893960
Si Si2 0.498050 0.842942 0.469269
Si Si3 0.214923 0.276438 0.421891
Si Si4 0.028803 0.754749 0.823024
Si Si5 0.765129 0.905593 0.757594
Si Si6 0.049959 0.823594 0.379969
O O1 0.635225 0.500000 0.858828
O O2 0.600040 0.657809 0.886616
O O3 0.624859 0.618663 0.634583
O O4 0.849940 0.605713 0.199779
O O5 0.526620 0.815390 0.690092
O O6 0.635683 0.900451 0.661393
O O7 0.487134 0.761606 0.343953
O O8 0.369440 0.268944 0.609844
O O9 0.210457 0.360635 0.512554
O O10 0.169610 0.197334 0.452351
O O11 0.108800 0.286154 0.100750
O O12 0.798291 0.000000 0.769172
O O13 0.912800 0.867885 0.073076
#
# Coordination Sequence:
#
# PCOD8053834 Si02
#       6
#     4   4   4   4   4   4
#     4  11  23  39  61  90 121 153 196 248 294 341
#     4  10  21  39  63  87 116 160 199 238 285 357
#     4  11  22  40  64  87 116 158 202 239 288 359
#     4  11  22  40  64  87 116 159 201 238 290 357
#     4  11  23  39  61  90 121 152 196 250 294 339
#     4  10  21  39  63  87 114 162 200 235 287 359
#
# _framework density 18.684850000000001
#
# number of rings (size 3 to 8) (size 9 to 14) (size 15 to 20)
#    0.000    1.333    3.333    4.000    4.667    0.667 
#    0.000    1.667    0.000    0.000    0.000    0.000 
#    0.000    0.000    0.000    0.000    0.000    0.000 
#
# Total GULP energy -148800.982532 kJ/mol
# GULP energy per Si atom -12400.081878 kJ/mol
# Density = 1.864232 g / cm^3
# Si number density = 18.684850 Si / 1000 Ang^3
#
#
#
# Elastic Constant Matrix: (Units=GPa)
#
#
# Indices 1 2 3 4 5 6 
#
# 1 181.4076 40.2456 176.1433 0.0000 7.1088 0.0000
# 2 40.2456 102.3292 73.6254 0.0000 -6.9087 0.0000
# 3 176.1433 73.6254 369.1046 0.0000 0.4533 0.0000
# 4 0.0000 0.0000 0.0000 7.0786 0.0000 11.0620
# 5 7.1088 -6.9087 0.4533 0.0000 46.7989 0.0000
# 6 0.0000 0.0000 0.0000 11.0620 0.0000 11.1146
#
#
#
# Elastic Compliance Matrix: (Units=1/GPa)
#
#
# Indices 1 2 3 4 5 6 
#
# 1 0.010428 -0.000739 -0.004827 0.000000 -0.001646 0.000000
# 2 -0.000739 0.011600 -0.001963 0.000000 0.001844 0.000000
# 3 -0.004827 -0.001963 0.005404 0.000000 0.000391 0.000000
# 4 0.000000 0.000000 0.000000 -0.254382 0.000000 0.253179
# 5 -0.001646 0.001844 0.000391 0.000000 0.021887 0.000000
# 6 0.000000 0.000000 0.000000 0.253179 0.000000 -0.162009
#
#
# Mechanical properties :
#
#
# Convention : Reuss Voigt Hill
#
# Bulk Modulus (GPa) = 80.82283 136.98556 108.90419
# Shear Modulus (GPa) = -14.37239 37.18689 11.40725
#
# Velocity S-wave (km/s) = -2.77646 4.46602 2.47353
# Velocity P-wave (km/s) = 5.75078 10.00333 8.15899
#
# Compressibility (1/GPa) = 0.01237274
#
# Stress axis : x y z
#
# Youngs Moduli (GPa) = 95.89821 86.20488 185.05449
#
# Poissons Ratio (x) = 0.06375 0.89322
# Poissons Ratio (y) = 0.07092 0.36331
# Poissons Ratio (z) = 0.46288 0.16924
#
# Static dielectric constant tensor:
#      x y z
#    x 3.512250 0.000000 -0.100640 
#    y 0.000000 3.358000 0.000000 
#    z -0.100640 0.000000 3.437760 
# 
# 
# High freq. dielectric constant tensor:
#      x y z
#    x 1.737450 0.000000 0.002640 
#    y 0.000000 1.709160 0.000000 
#    z 0.002640 0.000000 1.744860 
# 
# From -- ./inp_files/7818.got.cif
#   From: 2010.03.12/outbox.cif.g09.slc.cpg/sg8_4_cif.got.tgz:7818.got - 2010.03.31 10:45:26.
