data_PCOD8053790
_publ_section_title
;
Structure prediction by ZEFSAII (Michael W. Deem and Ramdas Pophale) SiO2 
 PCOD8053790
Probable space group: C M
;
_chemical_formula_sum "Si O2"
_cell_formula_units_Z 32
_cell_length_a 15.469183
_cell_length_b 8.823052
_cell_length_c 25.887888
_cell_angle_alpha 90.000000
_cell_angle_beta 152.555962
_cell_angle_gamma 90.000000
_cell_volume 1628.443192
_symmetry_space_group_name_H-M "C M"
_symmetry_group_IT_number 8
_symmetry_cell_setting 'monoclinic'
loop_
_space_group_symop_operation_xyz
x,y,z
x,-y,z
1/2+x,1/2+y,z
1/2+x,1/2-y,z
loop_
_atom_site_type_symbol
_atom_site_label
_atom_site_fract_x
_atom_site_fract_y
_atom_site_fract_z
Si Si1 0.442760 0.175886 0.233060
Si Si2 0.743664 0.176498 0.223765
Si Si3 0.147818 0.823161 0.988059
Si Si4 0.033459 0.176113 0.467184
Si Si5 0.835857 0.320977 0.453472
Si Si6 0.851877 0.179297 0.007157
Si Si7 0.782795 0.179949 0.854335
Si Si8 0.899643 0.319356 0.602656
O O1 0.330986 0.229933 0.223588
O O2 0.635720 0.263618 0.327756
O O3 0.488383 0.000000 0.263614
O O4 0.318185 0.207878 0.117071
O O5 0.862249 0.206743 0.337881
O O6 0.743982 0.000000 0.209194
O O7 0.535456 0.234292 0.124702
O O8 0.180794 0.727416 0.953493
O O9 0.956768 0.761331 0.912506
O O10 0.131164 0.000000 0.965393
O O11 0.998981 0.264552 0.502018
O O12 0.224659 0.239784 0.543524
O O13 0.052603 0.000000 0.490487
O O14 0.832029 0.500000 0.451833
O O15 0.878822 0.257155 0.533427
O O16 0.804021 0.236717 0.924244
O O17 0.885253 0.000000 0.026570
O O18 0.590752 0.245679 0.728632
O O19 0.780145 0.000000 0.852428
O O20 0.899718 0.500000 0.602012
#
# Coordination Sequence:
#
# PCOD8053790 Si02
#       8
#     4   4   4   4   4   4   4   4
#     4  11  21  36  59  86 117 152 187 229 284 343
#     4  11  21  36  59  86 117 152 187 229 284 343
#     4  10  21  38  58  84 115 151 189 230 286 343
#     4  10  21  38  58  84 115 151 189 230 286 343
#     4  11  22  37  58  88 116 149 192 234 282 337
#     4  11  22  37  58  88 116 149 192 234 282 337
#     4   9  19  38  60  80 111 154 194 233 282 338
#     4   9  19  38  60  80 111 154 194 233 282 338
#
# _framework density 19.650670999999999
#
# number of rings (size 3 to 8) (size 9 to 14) (size 15 to 20)
#    0.000    1.750    2.500    2.250    0.000    6.000 
#    0.000    0.000    0.000    5.250    0.000    0.000 
#    0.000    0.000    0.000    0.000    0.000    0.000 
#
# Total GULP energy -198461.410757 kJ/mol
# GULP energy per Si atom -12403.838172 kJ/mol
# Density = 1.960595 g / cm^3
# Si number density = 19.650671 Si / 1000 Ang^3
#
#
#
# Elastic Constant Matrix: (Units=GPa)
#
#
# Indices 1 2 3 4 5 6 
#
# 1 176.3666 32.5958 72.1785 0.0002 8.6680 0.0000
# 2 32.5958 31.3057 33.4068 0.0005 -1.0534 0.0001
# 3 72.1785 33.4068 133.1029 0.0024 13.2356 0.0002
# 4 0.0002 0.0005 0.0024 19.3709 0.0003 1.7089
# 5 8.6680 -1.0534 13.2356 0.0003 15.1548 0.0000
# 6 0.0000 0.0001 0.0002 1.7089 0.0000 38.5739
#
#
#
# Elastic Compliance Matrix: (Units=1/GPa)
#
#
# Indices 1 2 3 4 5 6 
#
# 1 0.007894 -0.005480 -0.002648 0.000000 -0.002583 0.000000
# 2 -0.005480 0.050234 -0.011274 0.000000 0.016472 0.000000
# 3 -0.002648 -0.011274 0.012819 -0.000001 -0.010465 0.000000
# 4 0.000000 0.000000 -0.000001 0.051826 0.000000 -0.002296
# 5 -0.002583 0.016472 -0.010465 0.000000 0.077747 0.000000
# 6 0.000000 0.000000 0.000000 -0.002296 0.000000 0.026026
#
#
# Mechanical properties :
#
#
# Convention : Reuss Voigt Hill
#
# Bulk Modulus (GPa) = 31.11192 68.57082 49.84137
# Shear Modulus (GPa) = 18.11164 28.12618 23.11891
#
# Velocity S-wave (km/s) = 3.03921 3.78737 3.43373
# Velocity P-wave (km/s) = 5.30873 7.35501 6.41400
#
# Compressibility (1/GPa) = 0.03214202
#
# Stress axis : x y z
#
# Youngs Moduli (GPa) = 126.68616 19.90687 78.00658
#
# Poissons Ratio (x) = 0.10908 0.20659
# Poissons Ratio (y) = 0.69419 0.87948
# Poissons Ratio (z) = 0.33551 0.22444
#
# Static dielectric constant tensor:
#      x y z
#    x 3.792450 0.000000 0.025040 
#    y 0.000000 3.327830 0.000000 
#    z 0.025040 0.000000 3.761240 
# 
# 
# High freq. dielectric constant tensor:
#      x y z
#    x 1.784010 0.000000 0.002300 
#    y 0.000000 1.741850 0.000000 
#    z 0.002300 0.000000 1.763760 
# 
# From -- ./inp_files/26550.got.cif
#   From: 2010.03.12/outbox.cif.g09.slc.cpg/sg8_14_cif.got.tgz:26550.got - 2010.03.31 10:45:26.
