data_PCOD8053109
_publ_section_title
;
Structure prediction by ZEFSAII (Michael W. Deem and Ramdas Pophale) SiO2 
 PCOD8053109
Probable space group: C M
;
_chemical_formula_sum "Si O2"
_cell_formula_units_Z 32
_cell_length_a 28.715676
_cell_length_b 8.654522
_cell_length_c 14.297979
_cell_angle_alpha 90.000000
_cell_angle_beta 150.378715
_cell_angle_gamma 90.000000
_cell_volume 1756.291125
_symmetry_space_group_name_H-M "C M"
_symmetry_group_IT_number 8
_symmetry_cell_setting 'monoclinic'
loop_
_space_group_symop_operation_xyz
x,y,z
x,-y,z
1/2+x,1/2+y,z
1/2+x,1/2-y,z
loop_
_atom_site_type_symbol
_atom_site_label
_atom_site_fract_x
_atom_site_fract_y
_atom_site_fract_z
Si Si1 0.390030 0.174614 0.646620
Si Si2 0.742766 0.182382 0.845571
Si Si3 0.204839 0.678837 0.989582
Si Si4 0.137616 0.183247 0.490893
Si Si5 0.520574 0.321613 0.738391
Si Si6 0.850491 0.327579 0.377223
Si Si7 0.812983 0.181997 0.696884
Si Si8 0.931058 0.182083 0.077589
O O1 0.486726 0.260726 0.781894
O O2 0.319587 0.172753 0.433522
O O3 0.341624 0.270707 0.643387
O O4 0.412682 0.000000 0.719697
O O5 0.719974 0.236296 0.910366
O O6 0.666660 0.261231 0.644808
O O7 0.732034 0.000000 0.813183
O O8 0.849866 0.235188 0.008956
O O9 0.231079 0.500000 0.045548
O O10 0.100008 0.709100 0.839200
O O11 0.266454 0.781579 0.165000
O O12 0.213108 0.241004 0.546793
O O13 0.033620 0.252210 0.283019
O O14 0.135636 0.000000 0.485644
O O15 0.551691 0.500000 0.796908
O O16 0.436033 0.295139 0.515800
O O17 0.884776 0.500000 0.410062
O O18 0.798454 0.000000 0.678220
O O19 0.895374 0.235983 0.912474
O O20 0.941351 0.000000 0.098051
#
# Coordination Sequence:
#
# PCOD8053109 Si02
#       8
#     4   4   4   4   4   4   4   4
#     4   9  19  37  57  80 112 144 180 233 279 323
#     4   9  20  37  55  78 110 143 178 225 274 326
#     4  11  21  35  57  83 112 149 189 231 280 334
#     4  10  19  34  56  81 108 140 179 227 274 325
#     4  10  20  36  56  78 109 148 187 227 276 330
#     4   9  20  37  55  78 111 144 182 234 278 326
#     4  10  19  35  57  79 108 145 181 220 272 333
#     4   8  17  35  55  77 106 139 176 217 267 325
#
# _framework density 18.220213999999999
#
# number of rings (size 3 to 8) (size 9 to 14) (size 15 to 20)
#    0.750    1.750    0.000    3.375    0.000    2.000 
#    2.250    7.500    0.000    0.000    0.000    0.000 
#    0.000    0.000    0.000    0.000    0.000    0.000 
#
# Total GULP energy -198261.533703 kJ/mol
# GULP energy per Si atom -12391.345856 kJ/mol
# Density = 1.817874 g / cm^3
# Si number density = 18.220214 Si / 1000 Ang^3
#
#
#
# Elastic Constant Matrix: (Units=GPa)
#
#
# Indices 1 2 3 4 5 6 
#
# 1 135.4319 27.5053 59.0855 0.0000 0.3472 0.0000
# 2 27.5053 61.3636 25.3945 0.0000 -3.6138 0.0000
# 3 59.0855 25.3945 127.9952 0.0000 6.5498 0.0000
# 4 0.0000 0.0000 0.0000 28.9611 0.0000 -0.7652
# 5 0.3472 -3.6138 6.5498 0.0000 21.7613 0.0000
# 6 0.0000 0.0000 0.0000 -0.7652 0.0000 27.3752
#
#
#
# Elastic Compliance Matrix: (Units=1/GPa)
#
#
# Indices 1 2 3 4 5 6 
#
# 1 0.009647 -0.002651 -0.003958 0.000000 0.000597 0.000000
# 2 -0.002651 0.018845 -0.002719 0.000000 0.003990 0.000000
# 3 -0.003958 -0.002719 0.010359 0.000000 -0.003506 0.000000
# 4 0.000000 0.000000 0.000000 0.034555 0.000000 0.000966
# 5 0.000597 0.003990 -0.003506 0.000000 0.047661 0.000000
# 6 0.000000 0.000000 0.000000 0.000966 0.000000 0.036556
#
#
# Mechanical properties :
#
#
# Convention : Reuss Voigt Hill
#
# Bulk Modulus (GPa) = 49.51874 60.97346 55.24610
# Shear Modulus (GPa) = 27.32059 29.80656 28.56358
#
# Velocity S-wave (km/s) = 3.87649 4.04902 3.96370
# Velocity P-wave (km/s) = 6.87555 7.44290 7.16485
#
# Compressibility (1/GPa) = 0.02019438
#
# Stress axis : x y z
#
# Youngs Moduli (GPa) = 103.65384 53.06458 96.53589
#
# Poissons Ratio (x) = 0.14068 0.38209
# Poissons Ratio (y) = 0.27481 0.26250
# Poissons Ratio (z) = 0.41027 0.14429
#
# Static dielectric constant tensor:
#      x y z
#    x 3.323380 0.000000 -0.000400 
#    y 0.000000 3.229720 0.000000 
#    z -0.000400 0.000000 3.347740 
# 
# 
# High freq. dielectric constant tensor:
#      x y z
#    x 1.701290 0.000000 0.000890 
#    y 0.000000 1.706140 0.000000 
#    z 0.000890 0.000000 1.696580 
# 
# From -- ./inp_files/28330.got.cif
#   From: 2010.03.12/outbox.cif.g09.slc.cpg/sg8_15_cif.got.tgz:28330.got - 2010.03.31 10:45:26.
