data_PCOD8053891
_publ_section_title
;
Structure prediction by ZEFSAII (Michael W. Deem and Ramdas Pophale) SiO2 
 PCOD8053891
Probable space group: C M
;
_chemical_formula_sum "Si O2"
_cell_formula_units_Z 14
_cell_length_a 7.587946
_cell_length_b 12.444800
_cell_length_c 6.798933
_cell_angle_alpha 90.000000
_cell_angle_beta 102.600720
_cell_angle_gamma 90.000000
_cell_volume 626.562606
_symmetry_space_group_name_H-M "C M"
_symmetry_group_IT_number 8
_symmetry_cell_setting 'monoclinic'
loop_
_space_group_symop_operation_xyz
x,y,z
x,-y,z
1/2+x,1/2+y,z
1/2+x,1/2-y,z
loop_
_atom_site_type_symbol
_atom_site_label
_atom_site_fract_x
_atom_site_fract_y
_atom_site_fract_z
Si Si1 0.185710 0.500000 0.650311
Si Si2 0.305686 0.114071 0.017500
Si Si3 0.404207 0.346546 0.957851
Si Si4 0.906005 0.000000 0.311129
Si Si5 0.808660 0.500000 0.396281
O O1 0.250131 0.392248 0.776544
O O2 0.258252 0.500000 0.444950
O O3 0.967581 0.500000 0.594690
O O4 0.408219 0.217100 0.960587
O O5 0.094332 0.119183 0.913064
O O6 0.380786 0.000000 0.944558
O O7 0.324197 0.106197 0.260063
O O8 0.374252 0.394372 0.168584
O O9 0.110334 0.000000 0.449763
#
# Coordination Sequence:
#
# PCOD8053891 Si02
#       5
#     2   4   4   2   2
#     4  11  21  43  66 104 124 173 225 267 326 392
#     4   9  20  43  64  92 133 173 211 269 328 392
#     4  10  21  43  65  96 132 170 218 268 332 387
#     4   9  21  43  68  90 142 169 211 281 322 392
#     4   8  20  42  64  98 128 166 230 258 328 386
#
# _framework density 22.344137
#
# number of rings (size 3 to 8) (size 9 to 14) (size 15 to 20)
#    0.857    1.714    2.857    0.000    4.000    0.000 
#   12.857    2.857    0.000    0.000    0.000    0.000 
#    0.000    0.000    0.000    0.000    0.000    0.000 
#
# Total GULP energy -86730.240790 kJ/mol
# GULP energy per Si atom -12390.034399 kJ/mol
# Density = 2.229328 g / cm^3
# Si number density = 22.344137 Si / 1000 Ang^3
#
#
#
# Elastic Constant Matrix: (Units=GPa)
#
#
# Indices 1 2 3 4 5 6 
#
# 1 64.7164 14.2942 38.3922 0.0000 29.5770 0.0000
# 2 14.2942 196.6854 27.3427 0.0000 5.0401 0.0000
# 3 38.3922 27.3427 78.1155 0.0000 14.9154 0.0000
# 4 0.0000 0.0000 0.0000 14.4446 0.0000 -1.8744
# 5 29.5770 5.0401 14.9154 0.0000 42.7587 0.0000
# 6 0.0000 0.0000 0.0000 -1.8744 0.0000 29.7993
#
#
#
# Elastic Compliance Matrix: (Units=1/GPa)
#
#
# Indices 1 2 3 4 5 6 
#
# 1 0.029902 -0.000153 -0.011460 0.000000 -0.016668 0.000000
# 2 -0.000153 0.005345 -0.001817 0.000000 0.000109 0.000000
# 3 -0.011460 -0.001817 0.018765 0.000000 0.001596 0.000000
# 4 0.000000 0.000000 0.000000 0.069800 0.000000 0.004390
# 5 -0.016668 0.000109 0.001596 0.000000 0.034347 0.000000
# 6 0.000000 0.000000 0.000000 0.004390 0.000000 0.033834
#
#
# Mechanical properties :
#
#
# Convention : Reuss Voigt Hill
#
# Bulk Modulus (GPa) = 36.82823 55.50838 46.16831
# Shear Modulus (GPa) = 21.93906 34.69975 28.31941
#
# Velocity S-wave (km/s) = 3.13688 3.94505 3.56395
# Velocity P-wave (km/s) = 5.44409 6.75630 6.13538
#
# Compressibility (1/GPa) = 0.02715308
#
# Stress axis : x y z
#
# Youngs Moduli (GPa) = 33.44235 187.08650 53.29000
#
# Poissons Ratio (x) = 0.02860 0.61071
# Poissons Ratio (y) = 0.00511 0.09681
# Poissons Ratio (z) = 0.38326 0.33988
#
# Static dielectric constant tensor:
#      x y z
#    x 3.824070 0.000000 0.198720 
#    y 0.000000 4.182530 0.000000 
#    z 0.198720 0.000000 3.651940 
# 
# 
# High freq. dielectric constant tensor:
#      x y z
#    x 1.882000 0.000000 0.013940 
#    y 0.000000 1.869620 0.000000 
#    z 0.013940 0.000000 1.855000 
# 
# From -- ./inp_files/838.got.cif
#   From: 2010.03.12/outbox.cif.g09.slc.cpg/sg8_1_cif.got.tgz:838.got - 2010.03.31 10:45:26.
