data_PCOD8053123
_publ_section_title
;
Structure prediction by ZEFSAII (Michael W. Deem and Ramdas Pophale) SiO2 
 PCOD8053123
Probable space group: C M
;
_chemical_formula_sum "Si O2"
_cell_formula_units_Z 32
_cell_length_a 20.015609
_cell_length_b 8.762416
_cell_length_c 24.688111
_cell_angle_alpha 90.000000
_cell_angle_beta 157.095452
_cell_angle_gamma 90.000000
_cell_volume 1685.194760
_symmetry_space_group_name_H-M "C M"
_symmetry_group_IT_number 8
_symmetry_cell_setting 'monoclinic'
loop_
_space_group_symop_operation_xyz
x,y,z
x,-y,z
1/2+x,1/2+y,z
1/2+x,1/2-y,z
loop_
_atom_site_type_symbol
_atom_site_label
_atom_site_fract_x
_atom_site_fract_y
_atom_site_fract_z
Si Si1 0.598540 0.180347 0.270200
Si Si2 0.937091 0.320917 0.262985
Si Si3 0.547263 0.320115 0.972881
Si Si4 0.252440 0.179643 0.545118
Si Si5 0.998918 0.677470 0.823680
Si Si6 0.824570 0.822577 0.994427
Si Si7 0.917425 0.680556 0.555771
Si Si8 0.767278 0.320247 0.837395
O O1 0.498437 0.231817 0.249525
O O2 0.507739 0.262265 0.151856
O O3 0.793304 0.240788 0.418935
O O4 0.595467 0.000000 0.258938
O O5 0.951666 0.500000 0.279688
O O6 0.060574 0.247884 0.400681
O O7 0.743261 0.264789 0.126971
O O8 0.528297 0.500000 0.966914
O O9 0.479875 0.277038 0.863156
O O10 0.442007 0.232575 0.939860
O O11 0.351386 0.235652 0.672486
O O12 0.359632 0.233259 0.572635
O O13 0.237748 0.000000 0.534058
O O14 0.974289 0.500000 0.819641
O O15 0.184281 0.706524 0.935953
O O16 0.836170 0.000000 0.987288
O O17 0.768465 0.728473 0.900460
O O18 0.910765 0.500000 0.543355
O O19 0.108773 0.740545 0.688190
O O20 0.746480 0.500000 0.817261
#
# Coordination Sequence:
#
# PCOD8053123 Si02
#       8
#     4   4   4   4   4   4   4   4
#     4  10  19  34  56  89 121 149 191 243 290 339
#     4   9  19  34  54  83 116 149 187 232 285 340
#     4  11  23  40  59  83 117 156 194 237 290 353
#     4   9  18  33  56  85 115 147 186 233 283 338
#     4  10  20  36  58  87 117 148 192 240 287 341
#     4  11  21  37  60  87 118 154 196 244 290 344
#     4  10  19  36  58  85 117 155 193 234 293 351
#     4  12  25  40  59  85 117 156 197 245 296 348
#
# _framework density 18.988902
#
# number of rings (size 3 to 8) (size 9 to 14) (size 15 to 20)
#    0.000    1.750    2.500    2.625    0.000    3.000 
#    0.000    1.250    0.000    3.000    0.000    0.000 
#    0.000    0.000    0.000    0.000    0.000    0.000 
#
# Total GULP energy -198464.683059 kJ/mol
# GULP energy per Si atom -12404.042691 kJ/mol
# Density = 1.894568 g / cm^3
# Si number density = 18.988902 Si / 1000 Ang^3
#
#
#
# Elastic Constant Matrix: (Units=GPa)
#
#
# Indices 1 2 3 4 5 6 
#
# 1 32.7916 19.2774 15.8168 -0.0065 1.8547 -0.0002
# 2 19.2774 50.1049 28.2723 -0.0089 -0.8391 0.0005
# 3 15.8168 28.2723 135.8009 -0.0079 -7.3747 0.0013
# 4 -0.0065 -0.0089 -0.0079 37.0971 0.0014 -2.6803
# 5 1.8547 -0.8391 -7.3747 0.0014 27.0429 0.0009
# 6 -0.0002 0.0005 0.0013 -2.6803 0.0009 29.4073
#
#
#
# Elastic Compliance Matrix: (Units=1/GPa)
#
#
# Indices 1 2 3 4 5 6 
#
# 1 0.040090 -0.014434 -0.001866 0.000003 -0.003706 0.000001
# 2 -0.014434 0.027821 -0.004071 0.000003 0.000743 0.000000
# 3 -0.001866 -0.004071 0.008555 0.000000 0.002335 0.000000
# 4 0.000003 0.000003 0.000000 0.027135 -0.000001 0.002473
# 5 -0.003706 0.000743 0.002335 -0.000001 0.037892 -0.000001
# 6 0.000001 0.000000 0.000000 0.002473 -0.000001 0.034231
#
#
# Mechanical properties :
#
#
# Convention : Reuss Voigt Hill
#
# Bulk Modulus (GPa) = 27.99047 38.38116 33.18582
# Shear Modulus (GPa) = 21.89403 29.06485 25.47944
#
# Velocity S-wave (km/s) = 3.39926 3.91656 3.66704
# Velocity P-wave (km/s) = 5.49354 6.38035 5.95348
#
# Compressibility (1/GPa) = 0.03572644
#
# Stress axis : x y z
#
# Youngs Moduli (GPa) = 24.94364 35.94451 116.88748
#
# Poissons Ratio (x) = 0.51881 0.21807
# Poissons Ratio (y) = 0.36003 0.47579
# Poissons Ratio (z) = 0.04654 0.14631
#
# Static dielectric constant tensor:
#      x y z
#    x 3.210830 0.000000 -0.050050 
#    y 0.000000 3.410520 0.000000 
#    z -0.050050 0.000000 3.756570 
# 
# 
# High freq. dielectric constant tensor:
#      x y z
#    x 1.705460 0.000000 -0.007890 
#    y 0.000000 1.742100 0.000000 
#    z -0.007890 0.000000 1.755040 
# 
# From -- ./inp_files/33046.got.cif
#   From: 2010.03.12/outbox.cif.g09.slc.cpg/sg8_17_cif.got.tgz:33046.got - 2010.03.31 10:45:26.
