data_PCOD8053508
_publ_section_title
;
Structure prediction by ZEFSAII (Michael W. Deem and Ramdas Pophale) SiO2 
 PCOD8053508
Probable space group: C M
;
_chemical_formula_sum "Si O2"
_cell_formula_units_Z 26
_cell_length_a 26.682191
_cell_length_b 8.008903
_cell_length_c 7.540703
_cell_angle_alpha 90.000000
_cell_angle_beta 56.100476
_cell_angle_gamma 90.000000
_cell_volume 1337.498499
_symmetry_space_group_name_H-M "C M"
_symmetry_group_IT_number 8
_symmetry_cell_setting 'monoclinic'
loop_
_space_group_symop_operation_xyz
x,y,z
x,-y,z
1/2+x,1/2+y,z
1/2+x,1/2-y,z
loop_
_atom_site_type_symbol
_atom_site_label
_atom_site_fract_x
_atom_site_fract_y
_atom_site_fract_z
Si Si1 0.305010 0.817899 0.000000
Si Si2 0.598811 0.684415 0.136410
Si Si3 0.178789 0.314023 0.268109
Si Si4 0.483182 0.500000 0.353844
Si Si5 0.885336 0.000000 0.257434
Si Si6 0.307926 0.814975 0.413234
Si Si7 0.881344 0.000000 0.840063
Si Si8 0.172097 0.806405 0.666169
O O1 0.234310 0.799700 0.091555
O O2 0.310265 0.816748 0.198896
O O3 0.326516 0.000000 0.883090
O O4 0.345368 0.665749 0.847185
O O5 0.628541 0.500000 0.095169
O O6 0.619359 0.789885 0.265587
O O7 0.525829 0.666248 0.274182
O O8 0.624795 0.765262 0.903929
O O9 0.203489 0.500000 0.201477
O O10 0.159324 0.287287 0.508763
O O11 0.448643 0.500000 0.234699
O O12 0.443290 0.500000 0.609532
O O13 0.850803 0.834064 0.395614
O O14 0.894366 0.000000 0.026325
O O15 0.239622 0.773966 0.607501
O O16 0.327686 0.000000 0.446241
O O17 0.161450 0.000000 0.646532
#
# Coordination Sequence:
#
# PCOD8053508 Si02
#       8
#     4   4   4   2   2   4   2   4
#     4   9  17  33  58  90 123 148 184 240 303 366
#     4   9  21  39  55  77 112 156 207 244 282 346
#     4  11  20  33  57  90 124 153 190 244 306 365
#     4  10  24  40  58  82 110 158 220 238 274 350
#     4  10  20  36  58  84 116 152 189 244 292 340
#     4   8  16  31  55  88 115 142 183 235 297 359
#     4  10  20  38  60  90 118 152 197 244 292 354
#     4   9  18  34  58  85 113 151 191 238 306 362
#
# _framework density 19.439274000000001
#
# number of rings (size 3 to 8) (size 9 to 14) (size 15 to 20)
#    0.462    2.154    0.769    2.308    3.231    3.077 
#    0.000    3.846    0.000    3.692    0.000    0.000 
#    0.000    0.000    0.000    0.000    0.000    0.000 
#
# Total GULP energy -161087.905853 kJ/mol
# GULP energy per Si atom -12391.377373 kJ/mol
# Density = 1.939503 g / cm^3
# Si number density = 19.439274 Si / 1000 Ang^3
#
#
#
# Elastic Constant Matrix: (Units=GPa)
#
#
# Indices 1 2 3 4 5 6 
#
# 1 109.5876 42.9865 44.0015 0.0000 -10.0653 0.0000
# 2 42.9865 119.0370 39.0453 0.0000 -11.1496 0.0000
# 3 44.0015 39.0453 124.0944 0.0000 -11.2419 0.0000
# 4 0.0000 0.0000 0.0000 14.3297 0.0000 -11.9826
# 5 -10.0653 -11.1496 -11.2419 0.0000 25.6428 0.0000
# 6 0.0000 0.0000 0.0000 -11.9826 0.0000 9.0188
#
#
#
# Elastic Compliance Matrix: (Units=1/GPa)
#
#
# Indices 1 2 3 4 5 6 
#
# 1 0.011714 -0.003059 -0.003015 0.000000 0.001946 0.000000
# 2 -0.003059 0.010378 -0.001958 0.000000 0.002453 0.000000
# 3 -0.003015 -0.001958 0.009955 0.000000 0.002329 0.000000
# 4 0.000000 0.000000 0.000000 -0.628699 0.000000 -0.835301
# 5 0.001946 0.002453 0.002329 0.000000 0.041849 0.000000
# 6 0.000000 0.000000 0.000000 -0.835301 0.000000 -0.998917
#
#
# Mechanical properties :
#
#
# Convention : Reuss Voigt Hill
#
# Bulk Modulus (GPa) = 62.57047 67.19841 64.88444
# Shear Modulus (GPa) = -3.26301 24.91064 10.82382
#
# Velocity S-wave (km/s) = -1.29700 3.58363 2.36222
# Velocity P-wave (km/s) = 5.47856 7.19490 6.39458
#
# Compressibility (1/GPa) = 0.01598198
#
# Stress axis : x y z
#
# Youngs Moduli (GPa) = 85.36538 96.36200 100.45644
#
# Poissons Ratio (x) = 0.29478 0.30286
# Poissons Ratio (y) = 0.26114 0.19672
# Poissons Ratio (z) = 0.25736 0.18871
#
# Static dielectric constant tensor:
#      x y z
#    x 3.253590 0.000000 0.020580 
#    y 0.000000 3.895470 0.000000 
#    z 0.020580 0.000000 3.390250 
# 
# 
# High freq. dielectric constant tensor:
#      x y z
#    x 1.736990 0.000000 0.012300 
#    y 0.000000 1.753380 0.000000 
#    z 0.012300 0.000000 1.739790 
# 
# From -- ./inp_files/17320.got.cif
#   From: 2010.03.12/outbox.cif.g09.slc.cpg/sg8_9_cif.got.tgz:17320.got - 2010.03.31 10:45:26.
