data_PCOD8053777
_publ_section_title
;
Structure prediction by ZEFSAII (Michael W. Deem and Ramdas Pophale) SiO2 
 PCOD8053777
Probable space group: C M
;
_chemical_formula_sum "Si O2"
_cell_formula_units_Z 28
_cell_length_a 12.420370
_cell_length_b 13.972681
_cell_length_c 11.525891
_cell_angle_alpha 90.000000
_cell_angle_beta 48.865643
_cell_angle_gamma 90.000000
_cell_volume 1506.542059
_symmetry_space_group_name_H-M "C M"
_symmetry_group_IT_number 8
_symmetry_cell_setting 'monoclinic'
loop_
_space_group_symop_operation_xyz
x,y,z
x,-y,z
1/2+x,1/2+y,z
1/2+x,1/2-y,z
loop_
_atom_site_type_symbol
_atom_site_label
_atom_site_fract_x
_atom_site_fract_y
_atom_site_fract_z
Si Si1 0.091860 0.608730 0.344180
Si Si2 0.451765 0.785248 0.634501
Si Si3 0.549341 0.768044 0.157491
Si Si4 0.808863 0.105201 0.630912
Si Si5 0.764677 0.179399 0.419041
Si Si6 0.522175 0.106260 0.957266
Si Si7 0.275933 0.887059 0.959836
O O1 0.058522 0.500000 0.332960
O O2 0.122376 0.669613 0.206996
O O3 0.231386 0.613245 0.329746
O O4 0.956851 0.653397 0.510787
O O5 0.392145 0.680233 0.651326
O O6 0.614846 0.771056 0.565443
O O7 0.352067 0.841552 0.794189
O O8 0.381030 0.758261 0.301288
O O9 0.567850 0.821169 0.023587
O O10 0.625588 0.664893 0.091788
O O11 0.831029 0.119520 0.477896
O O12 0.868507 0.000000 0.621154
O O13 0.640006 0.111259 0.773001
O O14 0.514347 0.000000 0.017084
O O15 0.371779 0.132131 0.005167
O O16 0.250667 0.000000 0.956339
#
# Coordination Sequence:
#
# PCOD8053777 Si02
#       7
#     4   4   4   4   4   4   4
#     4  10  21  37  60  85 112 153 193 227 282 345
#     4  10  21  40  61  84 112 149 201 240 275 340
#     4  12  22  38  57  90 122 148 183 247 291 336
#     4  11  20  37  64  87 111 151 200 240 282 338
#     4  10  21  38  60  84 116 154 192 238 281 341
#     4  10  21  37  60  86 115 156 193 231 290 349
#     4  11  23  39  61  86 114 153 197 239 282 341
#
# _framework density 18.585607
#
# number of rings (size 3 to 8) (size 9 to 14) (size 15 to 20)
#    0.857    0.571    4.286    2.143    0.000    1.143 
#    0.000    1.429    0.000    0.857    0.000    0.000 
#    0.000    0.000    0.000    0.000    0.000    0.000 
#
# Total GULP energy -173535.376401 kJ/mol
# GULP energy per Si atom -12395.384029 kJ/mol
# Density = 1.854331 g / cm^3
# Si number density = 18.585607 Si / 1000 Ang^3
#
#
#
# Elastic Constant Matrix: (Units=GPa)
#
#
# Indices 1 2 3 4 5 6 
#
# 1 70.0044 54.1430 28.5282 0.0000 3.9372 0.0000
# 2 54.1430 143.1135 42.8370 0.0000 6.9205 0.0000
# 3 28.5282 42.8370 77.5102 0.0000 10.2866 0.0000
# 4 0.0000 0.0000 0.0000 22.6193 0.0000 2.3254
# 5 3.9372 6.9205 10.2866 0.0000 33.7490 0.0000
# 6 0.0000 0.0000 0.0000 2.3254 0.0000 24.9875
#
#
#
# Elastic Compliance Matrix: (Units=1/GPa)
#
#
# Indices 1 2 3 4 5 6 
#
# 1 0.021199 -0.006813 -0.004059 0.000000 0.000161 0.000000
# 2 -0.006813 0.010565 -0.003282 0.000000 -0.000371 0.000000
# 3 -0.004059 -0.003282 0.016734 0.000000 -0.003954 0.000000
# 4 0.000000 0.000000 0.000000 0.044637 0.000000 -0.004154
# 5 0.000161 -0.000371 -0.003954 0.000000 0.030893 0.000000
# 6 0.000000 0.000000 0.000000 -0.004154 0.000000 0.040407
#
#
# Mechanical properties :
#
#
# Convention : Reuss Voigt Hill
#
# Bulk Modulus (GPa) = 49.52738 60.18274 54.85506
# Shear Modulus (GPa) = 25.06604 27.27915 26.17259
#
# Velocity S-wave (km/s) = 3.67642 3.83529 3.75669
# Velocity P-wave (km/s) = 6.68786 7.21556 6.95672
#
# Compressibility (1/GPa) = 0.02019085
#
# Stress axis : x y z
#
# Youngs Moduli (GPa) = 47.17188 94.64861 59.75855
#
# Poissons Ratio (x) = 0.64485 0.24253
# Poissons Ratio (y) = 0.32139 0.19614
# Poissons Ratio (z) = 0.19145 0.31066
#
# Static dielectric constant tensor:
#      x y z
#    x 3.236160 0.000000 0.019920 
#    y 0.000000 3.312440 0.000000 
#    z 0.019920 0.000000 3.318910 
# 
# 
# High freq. dielectric constant tensor:
#      x y z
#    x 1.709370 0.000000 0.007410 
#    y 0.000000 1.717260 0.000000 
#    z 0.007410 0.000000 1.722860 
# 
# From -- ./inp_files/22054.got.cif
#   From: 2010.03.12/outbox.cif.g09.slc.cpg/sg8_12_cif.got.tgz:22054.got - 2010.03.31 10:45:26.
