data_PCOD8053074
_publ_section_title
;
Structure prediction by ZEFSAII (Michael W. Deem and Ramdas Pophale) SiO2 
 PCOD8053074
Probable space group: C M
;
_chemical_formula_sum "Si O2"
_cell_formula_units_Z 32
_cell_length_a 8.421281
_cell_length_b 29.193880
_cell_length_c 11.400718
_cell_angle_alpha 90.000000
_cell_angle_beta 35.934821
_cell_angle_gamma 90.000000
_cell_volume 1644.902092
_symmetry_space_group_name_H-M "C M"
_symmetry_group_IT_number 8
_symmetry_cell_setting 'monoclinic'
loop_
_space_group_symop_operation_xyz
x,y,z
x,-y,z
1/2+x,1/2+y,z
1/2+x,1/2-y,z
loop_
_atom_site_type_symbol
_atom_site_label
_atom_site_fract_x
_atom_site_fract_y
_atom_site_fract_z
Si Si1 0.614710 0.707408 0.632510
Si Si2 0.691156 0.136556 0.916253
Si Si3 0.740784 0.096452 0.258940
Si Si4 0.833369 0.050879 0.970900
Si Si5 0.845746 0.378127 0.899137
Si Si6 0.715632 0.710727 0.832639
Si Si7 0.616240 0.185771 0.204383
Si Si8 0.462247 0.947730 0.646799
O O1 0.465223 0.658933 0.700633
O O2 0.770212 0.706392 0.662422
O O3 0.382687 0.745971 0.777569
O O4 0.845618 0.715516 0.394608
O O5 0.746779 0.084333 0.918263
O O6 0.468409 0.137256 0.948922
O O7 0.593260 0.165701 0.087199
O O8 0.616073 0.145798 0.302179
O O9 0.617300 0.073643 0.445873
O O10 0.686803 0.063476 0.180218
O O11 0.054979 0.101314 0.099835
O O12 0.150108 0.055302 0.801473
O O13 0.746778 0.000000 0.984699
O O14 0.831498 0.334472 0.823249
O O15 0.021806 0.417333 0.727454
O O16 0.391891 0.715755 0.051491
O O17 0.555570 0.000000 0.614057
#
# Coordination Sequence:
#
# PCOD8053074 Si02
#       8
#     4   4   4   4   4   4   4   4
#     4  11  21  38  60  82 111 145 184 232 281 330
#     4  10  21  36  55  81 113 146 187 229 273 337
#     4   9  17  34  56  79 108 144 187 228 271 330
#     4   9  18  33  54  78 106 144 186 231 280 328
#     4  10  21  37  55  80 115 148 181 228 277 326
#     4  10  22  38  57  84 112 144 188 229 275 339
#     4   9  20  37  58  82 111 148 185 228 278 328
#     4  10  19  33  56  82 108 143 187 231 278 330
#
# _framework density 19.454044
#
# number of rings (size 3 to 8) (size 9 to 14) (size 15 to 20)
#    0.000    2.250    0.000    4.875    0.000    4.000 
#    0.000    3.750    0.000    0.000    0.000    0.000 
#    0.000    0.000    0.000    0.000    0.000    0.000 
#
# Total GULP energy -198363.232155 kJ/mol
# GULP energy per Si atom -12397.702010 kJ/mol
# Density = 1.940977 g / cm^3
# Si number density = 19.454044 Si / 1000 Ang^3
#
#
#
# Elastic Constant Matrix: (Units=GPa)
#
#
# Indices 1 2 3 4 5 6 
#
# 1 98.2801 36.0911 24.6605 0.0000 5.9990 0.0000
# 2 36.0911 98.9254 50.1922 0.0000 2.4887 0.0000
# 3 24.6605 50.1922 113.2928 0.0000 8.5031 0.0000
# 4 0.0000 0.0000 0.0000 25.8785 0.0000 -2.8504
# 5 5.9990 2.4887 8.5031 0.0000 16.2641 0.0000
# 6 0.0000 0.0000 0.0000 -2.8504 0.0000 22.2985
#
#
#
# Elastic Compliance Matrix: (Units=1/GPa)
#
#
# Indices 1 2 3 4 5 6 
#
# 1 0.012002 -0.003997 -0.000578 0.000000 -0.003513 0.000000
# 2 -0.003997 0.014389 -0.005673 0.000000 0.002238 0.000000
# 3 -0.000578 -0.005673 0.011849 0.000000 -0.005114 0.000000
# 4 0.000000 0.000000 0.000000 0.039194 0.000000 0.005010
# 5 -0.003513 0.002238 -0.005114 0.000000 0.065112 0.000000
# 6 0.000000 0.000000 0.000000 0.005010 0.000000 0.045487
#
#
# Mechanical properties :
#
#
# Convention : Reuss Voigt Hill
#
# Bulk Modulus (GPa) = 56.35393 59.15400 57.75397
# Shear Modulus (GPa) = 23.31616 26.19184 24.75400
#
# Velocity S-wave (km/s) = 3.46573 3.67324 3.57099
# Velocity P-wave (km/s) = 6.71160 6.96156 6.83772
#
# Compressibility (1/GPa) = 0.01774499
#
# Stress axis : x y z
#
# Youngs Moduli (GPa) = 83.31694 69.49885 84.39221
#
# Poissons Ratio (x) = 0.27780 0.04878
# Poissons Ratio (y) = 0.33303 0.47872
# Poissons Ratio (z) = 0.04816 0.39424
#
# Static dielectric constant tensor:
#      x y z
#    x 3.405080 0.000000 0.046480 
#    y 0.000000 3.752630 0.000000 
#    z 0.046480 0.000000 3.549650 
# 
# 
# High freq. dielectric constant tensor:
#      x y z
#    x 1.744250 0.000000 0.009600 
#    y 0.000000 1.761030 0.000000 
#    z 0.009600 0.000000 1.757190 
# 
# From -- ./inp_files/19469.got.cif
#   From: 2010.03.12/outbox.cif.g09.slc.cpg/sg8_10_cif.got.tgz:19469.got - 2010.03.31 10:45:26.
