data_PCOD8053590
_publ_section_title
;
Structure prediction by ZEFSAII (Michael W. Deem and Ramdas Pophale) SiO2 
 PCOD8053590
Probable space group: C M
;
_chemical_formula_sum "Si O2"
_cell_formula_units_Z 32
_cell_length_a 24.326034
_cell_length_b 8.675622
_cell_length_c 14.277469
_cell_angle_alpha 90.000000
_cell_angle_beta 31.228782
_cell_angle_gamma 90.000000
_cell_volume 1562.196239
_symmetry_space_group_name_H-M "C M"
_symmetry_group_IT_number 8
_symmetry_cell_setting 'monoclinic'
loop_
_space_group_symop_operation_xyz
x,y,z
x,-y,z
1/2+x,1/2+y,z
1/2+x,1/2-y,z
loop_
_atom_site_type_symbol
_atom_site_label
_atom_site_fract_x
_atom_site_fract_y
_atom_site_fract_z
Si Si1 0.761850 0.182036 0.076840
Si Si2 0.994832 0.185002 0.778944
Si Si3 0.130213 0.831800 0.742026
Si Si4 0.281058 0.815383 0.674462
Si Si5 0.329611 0.169330 0.317382
Si Si6 0.681842 0.817746 0.991745
Si Si7 0.181334 0.817335 0.375601
Si Si8 0.454665 0.320207 0.290329
O O1 0.719486 0.238440 0.038692
O O2 0.682314 0.241997 0.271945
O O3 0.767176 0.000000 0.072306
O O4 0.879173 0.251164 0.924075
O O5 0.034402 0.250902 0.823950
O O6 0.074572 0.242491 0.581675
O O7 0.997655 0.000000 0.779560
O O8 0.179254 0.749615 0.762635
O O9 0.225567 0.850234 0.530702
O O10 0.090448 0.000000 0.832192
O O11 0.389925 0.770353 0.464588
O O12 0.277837 0.000000 0.687879
O O13 0.274092 0.733813 0.785238
O O14 0.287490 0.234286 0.278736
O O15 0.413683 0.282040 0.244767
O O16 0.382664 0.000000 0.228733
O O17 0.575912 0.728091 0.119882
O O18 0.663587 0.000000 0.014329
O O19 0.179668 0.000000 0.368203
O O20 0.441878 0.500000 0.327354
#
# Coordination Sequence:
#
# PCOD8053590 Si02
#       8
#     4   4   4   4   4   4   4   4
#     4  10  22  37  54  78 109 144 186 233 277 321
#     4   8  15  32  55  78 105 139 173 210 263 330
#     4   7  12  26  52  81 107 134 168 210 266 333
#     4  10  20  37  60  86 114 145 181 230 289 346
#     4   8  15  31  54  82 114 145 176 220 278 339
#     4  11  24  40  54  77 114 154 197 242 281 329
#     4   9  18  34  58  83 110 145 181 219 272 333
#     4  11  22  37  59  85 111 148 192 236 286 337
#
# _framework density 20.483982000000001
#
# number of rings (size 3 to 8) (size 9 to 14) (size 15 to 20)
#    0.000    2.750    0.000    4.125    0.000    3.500 
#    0.000    3.125    0.000    3.000    0.000    0.000 
#    0.000    0.000    0.000    0.000    0.000    0.000 
#
# Total GULP energy -198274.420680 kJ/mol
# GULP energy per Si atom -12392.151293 kJ/mol
# Density = 2.043736 g / cm^3
# Si number density = 20.483982 Si / 1000 Ang^3
#
#
#
# Elastic Constant Matrix: (Units=GPa)
#
#
# Indices 1 2 3 4 5 6 
#
# 1 70.2644 18.8933 4.2152 0.0008 10.5608 -0.0007
# 2 18.8933 42.8604 2.9220 -0.0018 0.8520 0.0015
# 3 4.2152 2.9220 40.5987 -0.0007 3.8681 0.0006
# 4 0.0008 -0.0018 -0.0007 26.5863 0.0007 3.5680
# 5 10.5608 0.8520 3.8681 0.0007 37.8933 -0.0004
# 6 -0.0007 0.0015 0.0006 3.5680 -0.0004 17.5843
#
#
#
# Elastic Compliance Matrix: (Units=1/GPa)
#
#
# Indices 1 2 3 4 5 6 
#
# 1 0.016919 -0.007314 -0.000804 -0.000001 -0.004469 0.000001
# 2 -0.007314 0.026613 -0.001306 0.000002 0.001573 -0.000003
# 3 -0.000804 -0.001306 0.025028 0.000001 -0.002301 -0.000001
# 4 -0.000001 0.000002 0.000001 0.038666 -0.000001 -0.007846
# 5 -0.004469 0.001573 -0.002301 -0.000001 0.027835 0.000001
# 6 0.000001 -0.000003 -0.000001 -0.007846 0.000001 0.058461
#
#
# Mechanical properties :
#
#
# Convention : Reuss Voigt Hill
#
# Bulk Modulus (GPa) = 20.11626 22.86493 21.49059
# Shear Modulus (GPa) = 21.83963 24.92564 23.38263
#
# Velocity S-wave (km/s) = 3.26878 3.49210 3.38229
# Velocity P-wave (km/s) = 4.90799 5.23892 5.07615
#
# Compressibility (1/GPa) = 0.04971104
#
# Stress axis : x y z
#
# Youngs Moduli (GPa) = 59.10670 37.57493 39.95509
#
# Poissons Ratio (x) = 0.27483 0.03214
# Poissons Ratio (y) = 0.43232 0.05218
# Poissons Ratio (z) = 0.04755 0.04907
#
# Static dielectric constant tensor:
#      x y z
#    x 4.178570 0.000000 0.072550 
#    y 0.000000 3.311720 0.000000 
#    z 0.072550 0.000000 3.589880 
# 
# 
# High freq. dielectric constant tensor:
#      x y z
#    x 1.807880 0.000000 0.004640 
#    y 0.000000 1.766460 0.000000 
#    z 0.004640 0.000000 1.792450 
# 
# From -- ./inp_files/28207.got.cif
#   From: 2010.03.12/outbox.cif.g09.slc.cpg/sg8_15_cif.got.tgz:28207.got - 2010.03.31 10:45:26.
