data_PCOD8053413
_publ_section_title
;
Structure prediction by ZEFSAII (Michael W. Deem and Ramdas Pophale) SiO2 
 PCOD8053413
Probable space group: C M
;
_chemical_formula_sum "Si O2"
_cell_formula_units_Z 32
_cell_length_a 20.561705
_cell_length_b 9.213095
_cell_length_c 25.202420
_cell_angle_alpha 90.000000
_cell_angle_beta 22.059643
_cell_angle_gamma 90.000000
_cell_volume 1793.079782
_symmetry_space_group_name_H-M "C M"
_symmetry_group_IT_number 8
_symmetry_cell_setting 'monoclinic'
loop_
_space_group_symop_operation_xyz
x,y,z
x,-y,z
1/2+x,1/2+y,z
1/2+x,1/2-y,z
loop_
_atom_site_type_symbol
_atom_site_label
_atom_site_fract_x
_atom_site_fract_y
_atom_site_fract_z
Si Si1 0.468910 0.329930 0.649620
Si Si2 0.540211 0.332377 0.207830
Si Si3 0.025530 0.171401 0.485129
Si Si4 0.744816 0.328604 0.626425
Si Si5 0.872219 0.168681 0.224135
Si Si6 0.801496 0.670068 0.461889
Si Si7 0.398121 0.168661 0.887417
Si Si8 0.730100 0.332390 0.903728
O O1 0.450618 0.500000 0.671731
O O2 0.486581 0.287054 0.575176
O O3 0.635192 0.269696 0.555768
O O4 0.295535 0.257802 0.803863
O O5 0.506873 0.500000 0.244745
O O6 0.435243 0.284759 0.234851
O O7 0.474841 0.242239 0.307668
O O8 0.743769 0.302440 0.045792
O O9 0.885116 0.249961 0.555829
O O10 0.213298 0.231211 0.326803
O O11 0.019986 0.000000 0.479490
O O12 0.750440 0.500000 0.632015
O O13 0.783838 0.287079 0.536326
O O14 0.556987 0.268860 0.784766
O O15 0.817608 0.000000 0.264580
O O16 0.026552 0.197587 0.065768
O O17 0.819811 0.500000 0.439752
O O18 0.335049 0.215110 0.876735
O O19 0.452831 0.000000 0.846928
O O20 0.763365 0.500000 0.866824
#
# Coordination Sequence:
#
# PCOD8053413 Si02
#       8
#     4   4   4   4   4   4   4   4
#     4  10  20  35  54  81 112 139 178 228 271 315
#     4   9  18  32  55  84 111 140 177 223 269 317
#     4  11  23  38  56  79 110 147 182 221 270 324
#     4  11  23  38  56  79 110 147 182 221 270 324
#     4   9  18  34  54  81 113 142 177 221 269 319
#     4  10  20  35  54  81 112 139 178 228 271 315
#     4   9  18  34  54  81 113 142 177 221 269 319
#     4   9  18  32  55  84 111 140 177 223 269 317
#
# _framework density 17.846388999999999
#
# number of rings (size 3 to 8) (size 9 to 14) (size 15 to 20)
#    0.000    2.250    2.500    2.250    0.000    3.500 
#    0.000    3.750    0.000    0.000    0.000    0.000 
#    0.000    0.000    0.000    0.000    0.000    0.000 
#
# Total GULP energy -198436.217290 kJ/mol
# GULP energy per Si atom -12402.263581 kJ/mol
# Density = 1.780577 g / cm^3
# Si number density = 17.846389 Si / 1000 Ang^3
#
#
#
# Elastic Constant Matrix: (Units=GPa)
#
#
# Indices 1 2 3 4 5 6 
#
# 1 98.2942 53.2531 61.4520 0.0070 -7.6280 0.0000
# 2 53.2531 66.6412 61.2723 0.0361 -3.0519 0.0055
# 3 61.4520 61.2723 131.1440 0.0368 -1.2090 0.0063
# 4 0.0070 0.0361 0.0368 39.9773 0.0045 1.2227
# 5 -7.6280 -3.0519 -1.2090 0.0045 29.2939 -0.0021
# 6 0.0000 0.0055 0.0063 1.2227 -0.0021 29.1917
#
#
#
# Elastic Compliance Matrix: (Units=1/GPa)
#
#
# Indices 1 2 3 4 5 6 
#
# 1 0.019000 -0.012033 -0.003248 0.000010 0.003560 0.000003
# 2 -0.012033 0.034074 -0.010281 -0.000019 -0.000008 -0.000003
# 3 -0.003248 -0.010281 0.013938 -0.000003 -0.001342 -0.000001
# 4 0.000010 -0.000019 -0.000003 0.025046 -0.000003 -0.001049
# 5 0.003560 -0.000008 -0.001342 -0.000003 0.035008 0.000003
# 6 0.000003 -0.000003 -0.000001 -0.001049 0.000003 0.034300
#
#
# Mechanical properties :
#
#
# Convention : Reuss Voigt Hill
#
# Bulk Modulus (GPa) = 62.94487 72.00381 67.47434
# Shear Modulus (GPa) = 22.95809 27.69938 25.32874
#
# Velocity S-wave (km/s) = 3.59057 3.94394 3.77140
# Velocity P-wave (km/s) = 7.24821 7.82136 7.54023
#
# Compressibility (1/GPa) = 0.01588692
#
# Stress axis : x y z
#
# Youngs Moduli (GPa) = 52.63224 29.34750 71.74418
#
# Poissons Ratio (x) = 0.35315 0.23302
# Poissons Ratio (y) = 0.63335 0.73763
# Poissons Ratio (z) = 0.17095 0.30173
#
# Static dielectric constant tensor:
#      x y z
#    x 3.127260 0.000000 0.046100 
#    y 0.000000 3.203580 0.000010 
#    z 0.046100 0.000010 3.350500 
# 
# 
# High freq. dielectric constant tensor:
#      x y z
#    x 1.667300 0.000000 0.006720 
#    y 0.000000 1.689650 0.000000 
#    z 0.006720 0.000000 1.700620 
# 
# From -- ./inp_files/29774.got.cif
#   From: 2010.03.12/outbox.cif.g09.slc.cpg/sg8_15_cif.got.tgz:29774.got - 2010.03.31 10:45:26.
