data_PCOD8053779
_publ_section_title
;
Structure prediction by ZEFSAII (Michael W. Deem and Ramdas Pophale) SiO2 
 PCOD8053779
Probable space group: C M
;
_chemical_formula_sum "Si O2"
_cell_formula_units_Z 32
_cell_length_a 11.284254
_cell_length_b 26.443249
_cell_length_c 8.967013
_cell_angle_alpha 90.000000
_cell_angle_beta 34.174875
_cell_angle_gamma 90.000000
_cell_volume 1502.989156
_symmetry_space_group_name_H-M "C M"
_symmetry_group_IT_number 8
_symmetry_cell_setting 'monoclinic'
loop_
_space_group_symop_operation_xyz
x,y,z
x,-y,z
1/2+x,1/2+y,z
1/2+x,1/2-y,z
loop_
_atom_site_type_symbol
_atom_site_label
_atom_site_fract_x
_atom_site_fract_y
_atom_site_fract_z
Si Si1 0.375000 0.819530 0.405250
Si Si2 0.212339 0.629430 0.885882
Si Si3 0.344996 0.629783 0.427353
Si Si4 0.986648 0.222365 0.667318
Si Si5 0.021236 0.621445 0.523106
Si Si6 0.129663 0.941939 0.966601
Si Si7 0.127468 0.225175 0.196072
Si Si8 0.841314 0.058694 0.999612
O O1 0.128094 0.810305 0.635114
O O2 0.414328 0.834721 0.535800
O O3 0.480186 0.765288 0.266538
O O4 0.471751 0.863432 0.196278
O O5 0.216698 0.614610 0.708893
O O6 0.305643 0.685124 0.802533
O O7 0.349885 0.588162 0.833583
O O8 0.171552 0.648850 0.487900
O O9 0.532388 0.670214 0.257222
O O10 0.443961 0.577700 0.266239
O O11 0.125566 0.236997 0.376780
O O12 0.867500 0.268662 0.879608
O O13 0.838102 0.589012 0.790307
O O14 0.148658 0.581909 0.290969
O O15 0.059186 0.934466 0.866070
O O16 0.169102 0.000000 0.963282
O O17 0.794917 0.000000 0.017132
#
# Coordination Sequence:
#
# PCOD8053779 Si02
#       8
#     4   4   4   4   4   4   4   4
#     4  10  22  38  61  85 118 159 209 257 305 374
#     4   9  20  40  57  88 118 161 200 253 312 367
#     4  10  23  39  62  89 129 160 209 258 320 373
#     4  10  22  41  61  84 124 159 210 259 310 374
#     4  10  21  38  62  89 120 165 207 258 314 375
#     4  10  21  37  60  91 123 162 210 262 314 373
#     4  10  24  39  60  90 118 166 208 259 315 379
#     4   9  18  36  62  88 117 156 208 258 306 371
#
# _framework density 21.290906
#
# number of rings (size 3 to 8) (size 9 to 14) (size 15 to 20)
#    0.000    2.250    0.000    1.125    3.500    7.000 
#    0.000    0.000    0.000    0.000    0.000    0.000 
#    0.000    0.000    0.000    0.000    0.000    0.000 
#
# Total GULP energy -198320.457274 kJ/mol
# GULP energy per Si atom -12395.028580 kJ/mol
# Density = 2.124245 g / cm^3
# Si number density = 21.290906 Si / 1000 Ang^3
#
#
#
# Elastic Constant Matrix: (Units=GPa)
#
#
# Indices 1 2 3 4 5 6 
#
# 1 116.4230 34.2286 62.6233 0.0000 9.9784 0.0000
# 2 34.2286 72.2046 19.9760 0.0000 6.9200 0.0000
# 3 62.6233 19.9760 96.2857 0.0000 10.4900 0.0000
# 4 0.0000 0.0000 0.0000 24.5771 0.0000 -3.2010
# 5 9.9784 6.9200 10.4900 0.0000 36.6189 0.0000
# 6 0.0000 0.0000 0.0000 -3.2010 0.0000 31.3035
#
#
#
# Elastic Compliance Matrix: (Units=1/GPa)
#
#
# Indices 1 2 3 4 5 6 
#
# 1 0.014495 -0.004475 -0.008424 0.000000 -0.000691 0.000000
# 2 -0.004475 0.016212 -0.000260 0.000000 -0.001770 0.000000
# 3 -0.008424 -0.000260 0.016168 0.000000 -0.002287 0.000000
# 4 0.000000 0.000000 0.000000 0.041237 0.000000 0.004217
# 5 -0.000691 -0.001770 -0.002287 0.000000 0.028486 0.000000
# 6 0.000000 0.000000 0.000000 0.004217 0.000000 0.032377
#
#
# Mechanical properties :
#
#
# Convention : Reuss Voigt Hill
#
# Bulk Modulus (GPa) = 48.64433 57.61878 53.13156
# Shear Modulus (GPa) = 27.45040 29.70559 28.57799
#
# Velocity S-wave (km/s) = 3.59458 3.73932 3.66767
# Velocity P-wave (km/s) = 6.33444 6.76497 6.55324
#
# Compressibility (1/GPa) = 0.02055738
#
# Stress axis : x y z
#
# Youngs Moduli (GPa) = 68.98724 61.68108 61.85113
#
# Poissons Ratio (x) = 0.27601 0.52104
# Poissons Ratio (y) = 0.30870 0.01610
# Poissons Ratio (z) = 0.58115 0.01606
#
# Static dielectric constant tensor:
#      x y z
#    x 3.795390 0.000000 0.099080 
#    y 0.000000 3.691890 0.000000 
#    z 0.099080 0.000000 3.942840 
# 
# 
# High freq. dielectric constant tensor:
#      x y z
#    x 1.827360 0.000000 -0.000600 
#    y 0.000000 1.826090 0.000000 
#    z -0.000600 0.000000 1.831130 
# 
# From -- ./inp_files/3307.got.cif
#   From: 2010.03.12/outbox.cif.g09.slc.cpg/sg8_2_cif.got.tgz:3307.got - 2010.03.31 10:45:26.
