data_PCOD8053552
_publ_section_title
;
Structure prediction by ZEFSAII (Michael W. Deem and Ramdas Pophale) SiO2 
 PCOD8053552
Probable space group: C M
;
_chemical_formula_sum "Si O2"
_cell_formula_units_Z 32
_cell_length_a 15.312616
_cell_length_b 8.670825
_cell_length_c 22.536537
_cell_angle_alpha 90.000000
_cell_angle_beta 148.644719
_cell_angle_gamma 90.000000
_cell_volume 1556.994030
_symmetry_space_group_name_H-M "C M"
_symmetry_group_IT_number 8
_symmetry_cell_setting 'monoclinic'
loop_
_space_group_symop_operation_xyz
x,y,z
x,-y,z
1/2+x,1/2+y,z
1/2+x,1/2-y,z
loop_
_atom_site_type_symbol
_atom_site_label
_atom_site_fract_x
_atom_site_fract_y
_atom_site_fract_z
Si Si1 0.337160 0.177831 0.014580
Si Si2 0.298185 0.824951 0.795994
Si Si3 0.118154 0.322462 0.795592
Si Si4 0.176400 0.676357 0.026738
Si Si5 0.986245 0.321925 0.406737
Si Si6 0.157744 0.822022 0.142522
Si Si7 0.994502 0.822119 0.538414
Si Si8 0.808563 0.680145 0.538579
O O1 0.306435 0.218617 0.065585
O O2 0.486478 0.280275 0.075882
O O3 0.384744 0.000000 0.035649
O O4 0.166611 0.217904 0.879874
O O5 0.252261 0.705969 0.821121
O O6 0.183424 0.794289 0.671900
O O7 0.268914 0.000000 0.802371
O O8 0.491372 0.798761 0.891595
O O9 0.124899 0.500000 0.819090
O O10 0.934109 0.275511 0.665221
O O11 0.233019 0.500000 0.053160
O O12 0.182396 0.719997 0.098752
O O13 0.036479 0.500000 0.429908
O O14 0.122585 0.221311 0.451004
O O15 0.807727 0.285530 0.274350
O O16 0.972461 0.279167 0.467439
O O17 0.152593 0.000000 0.120786
O O18 0.857699 0.772784 0.507965
O O19 0.964405 0.000000 0.504738
O O20 0.822262 0.500000 0.531840
#
# Coordination Sequence:
#
# PCOD8053552 Si02
#       8
#     4   4   4   4   4   4   4   4
#     4  12  25  40  62  93 126 165 209 254 310 372
#     4   9  19  36  60  91 127 162 201 252 311 367
#     4  10  20  36  61  91 128 165 203 253 309 367
#     4  11  23  40  64  94 126 162 207 256 311 371
#     4  11  25  43  65  92 124 165 212 259 308 368
#     4  11  25  46  66  89 124 164 211 263 312 365
#     4  10  21  39  63  93 128 164 206 256 308 366
#     4  10  22  40  63  93 127 165 207 253 309 370
#
# _framework density 20.552423000000001
#
# number of rings (size 3 to 8) (size 9 to 14) (size 15 to 20)
#    0.000    1.500    1.250    3.375    1.750    5.500 
#    0.000    0.000    0.000    0.000    0.000    0.000 
#    0.000    0.000    0.000    0.000    0.000    0.000 
#
# Total GULP energy -198483.491610 kJ/mol
# GULP energy per Si atom -12405.218226 kJ/mol
# Density = 2.050565 g / cm^3
# Si number density = 20.552423 Si / 1000 Ang^3
#
#
#
# Elastic Constant Matrix: (Units=GPa)
#
#
# Indices 1 2 3 4 5 6 
#
# 1 97.0830 14.9113 38.7830 0.0000 -5.8956 0.0000
# 2 14.9113 61.1841 34.2549 0.0001 1.1650 0.0000
# 3 38.7830 34.2549 84.1298 0.0007 -12.5818 0.0001
# 4 0.0000 0.0001 0.0007 27.3848 0.0001 -0.5278
# 5 -5.8956 1.1650 -12.5818 0.0001 18.6230 0.0000
# 6 0.0000 0.0000 0.0001 -0.5278 0.0000 39.1967
#
#
#
# Elastic Compliance Matrix: (Units=1/GPa)
#
#
# Indices 1 2 3 4 5 6 
#
# 1 0.012628 0.000238 -0.005921 0.000000 -0.000017 0.000000
# 2 0.000238 0.022289 -0.010436 0.000000 -0.008370 0.000000
# 3 -0.005921 -0.010436 0.020782 -0.000001 0.012819 0.000000
# 4 0.000000 0.000000 -0.000001 0.036526 0.000000 0.000492
# 5 -0.000017 -0.008370 0.012819 0.000000 0.062876 0.000000
# 6 0.000000 0.000000 0.000000 0.000492 0.000000 0.025519
#
#
# Mechanical properties :
#
#
# Convention : Reuss Voigt Hill
#
# Bulk Modulus (GPa) = 42.62621 46.47727 44.55174
# Shear Modulus (GPa) = 22.65732 27.33742 24.99737
#
# Velocity S-wave (km/s) = 3.32387 3.65105 3.49129
# Velocity P-wave (km/s) = 5.95953 6.35898 6.16250
#
# Compressibility (1/GPa) = 0.02345974
#
# Stress axis : x y z
#
# Youngs Moduli (GPa) = 79.18794 44.86588 48.11782
#
# Poissons Ratio (x) = -0.01066 0.28489
# Poissons Ratio (y) = -0.01881 0.50218
# Poissons Ratio (z) = 0.46885 0.46824
#
# Static dielectric constant tensor:
#      x y z
#    x 3.591000 0.000000 -0.028120 
#    y 0.000000 3.765820 0.000000 
#    z -0.028120 0.000000 3.811770 
# 
# 
# High freq. dielectric constant tensor:
#      x y z
#    x 1.803120 0.000000 -0.002210 
#    y 0.000000 1.811130 0.000000 
#    z -0.002210 0.000000 1.801400 
# 
# From -- ./inp_files/31958.got.cif
#   From: 2010.03.12/outbox.cif.g09.slc.cpg/sg8_16_cif.got.tgz:31958.got - 2010.03.31 10:45:26.
