data_PCOD8053230
_publ_section_title
;
Structure prediction by ZEFSAII (Michael W. Deem and Ramdas Pophale) SiO2 
 PCOD8053230
Probable space group: C M
;
_chemical_formula_sum "Si O2"
_cell_formula_units_Z 28
_cell_length_a 16.094531
_cell_length_b 17.470083
_cell_length_c 9.963832
_cell_angle_alpha 90.000000
_cell_angle_beta 151.283997
_cell_angle_gamma 90.000000
_cell_volume 1346.060510
_symmetry_space_group_name_H-M "C M"
_symmetry_group_IT_number 8
_symmetry_cell_setting 'monoclinic'
loop_
_space_group_symop_operation_xyz
x,y,z
x,-y,z
1/2+x,1/2+y,z
1/2+x,1/2-y,z
loop_
_atom_site_type_symbol
_atom_site_label
_atom_site_fract_x
_atom_site_fract_y
_atom_site_fract_z
Si Si1 0.886650 0.806351 0.705470
Si Si2 0.091985 0.767626 0.740289
Si Si3 0.272451 0.146280 0.628448
Si Si4 0.688131 0.412633 0.229067
Si Si5 0.447851 0.714314 0.253549
Si Si6 0.299294 0.915625 0.099584
Si Si7 0.524863 0.138900 0.209668
O O1 0.824961 0.735828 0.708560
O O2 0.725908 0.864248 0.451127
O O3 0.952538 0.767775 0.661402
O O4 0.028967 0.854604 0.986857
O O5 0.997402 0.749860 0.467570
O O6 0.239893 0.701465 0.968607
O O7 0.176465 0.852635 0.856533
O O8 0.292390 0.107419 0.511743
O O9 0.070410 0.141087 0.392892
O O10 0.404593 0.105650 0.918609
O O11 0.620947 0.500000 0.141644
O O12 0.817160 0.400962 0.285139
O O13 0.475808 0.773577 0.171977
O O14 0.485671 0.910922 0.288947
O O15 0.217715 0.000000 0.962004
#
# Coordination Sequence:
#
# PCOD8053230 Si02
#       7
#     4   4   4   4   4   4   4
#     4  10  22  36  61  91 122 160 204 258 309 368
#     4  10  21  34  59  89 116 156 200 250 310 359
#     4  11  21  37  58  91 122 158 208 258 306 360
#     4  10  23  41  61  87 125 165 207 255 316 371
#     4  10  19  36  54  87 120 151 199 252 302 357
#     4   9  19  39  58  81 115 160 200 240 303 371
#     4  10  21  35  57  88 117 154 200 257 297 360
#
# _framework density 20.801441000000001
#
# number of rings (size 3 to 8) (size 9 to 14) (size 15 to 20)
#    0.000    2.000    2.857    1.714   10.000    1.143 
#    0.000    0.000    0.000    0.000    0.000    0.000 
#    0.000    0.000    0.000    0.000    0.000    0.000 
#
# Total GULP energy -173454.436527 kJ/mol
# GULP energy per Si atom -12389.602609 kJ/mol
# Density = 2.075410 g / cm^3
# Si number density = 20.801441 Si / 1000 Ang^3
#
#
#
# Elastic Constant Matrix: (Units=GPa)
#
#
# Indices 1 2 3 4 5 6 
#
# 1 124.3576 14.8288 69.0972 0.0000 1.9329 0.0000
# 2 14.8288 46.9495 -3.1827 0.0000 0.2853 0.0000
# 3 69.0972 -3.1827 105.7469 0.0000 -10.5625 0.0000
# 4 0.0000 0.0000 0.0000 16.1068 0.0000 -2.2737
# 5 1.9329 0.2853 -10.5625 0.0000 39.9929 0.0000
# 6 0.0000 0.0000 0.0000 -2.2737 0.0000 18.9080
#
#
#
# Elastic Compliance Matrix: (Units=1/GPa)
#
#
# Indices 1 2 3 4 5 6 
#
# 1 0.014065 -0.005078 -0.009663 0.000000 -0.003196 0.000000
# 2 -0.005078 0.023176 0.004133 0.000000 0.001172 0.000000
# 3 -0.009663 0.004133 0.016370 0.000000 0.004761 0.000000
# 4 0.000000 0.000000 0.000000 0.063158 0.000000 0.007595
# 5 -0.003196 0.001172 0.004761 0.000000 0.026408 0.000000
# 6 0.000000 0.000000 0.000000 0.007595 0.000000 0.053801
#
#
# Mechanical properties :
#
#
# Convention : Reuss Voigt Hill
#
# Bulk Modulus (GPa) = 30.86802 48.72673 39.79738
# Shear Modulus (GPa) = 21.83470 28.08893 24.96181
#
# Velocity S-wave (km/s) = 3.24338 3.67868 3.46787
# Velocity P-wave (km/s) = 5.37565 6.44353 5.93366
#
# Compressibility (1/GPa) = 0.03239598
#
# Stress axis : x y z
#
# Youngs Moduli (GPa) = 71.09642 43.14730 61.08644
#
# Poissons Ratio (x) = 0.21911 0.59026
# Poissons Ratio (y) = 0.36104 -0.25245
# Poissons Ratio (z) = 0.68698 -0.17832
#
# Static dielectric constant tensor:
#      x y z
#    x 4.122870 0.000000 0.174190 
#    y 0.000000 3.453510 0.000000 
#    z 0.174190 0.000000 3.721680 
# 
# 
# High freq. dielectric constant tensor:
#      x y z
#    x 1.835730 0.000000 -0.007200 
#    y 0.000000 1.767890 0.000000 
#    z -0.007200 0.000000 1.799970 
# 
# From -- ./inp_files/8535.got.cif
#   From: 2010.03.12/outbox.cif.g09.slc.cpg/sg8_5_cif.got.tgz:8535.got - 2010.03.31 10:45:26.
