data_PCOD8053991
_publ_section_title
;
Structure prediction by ZEFSAII (Michael W. Deem and Ramdas Pophale) SiO2 
 PCOD8053991
Probable space group: C M
;
_chemical_formula_sum "Si O2"
_cell_formula_units_Z 22
_cell_length_a 21.766668
_cell_length_b 9.934449
_cell_length_c 14.023649
_cell_angle_alpha 90.000000
_cell_angle_beta 160.344754
_cell_angle_gamma 90.000000
_cell_volume 1020.001513
_symmetry_space_group_name_H-M "C M"
_symmetry_group_IT_number 8
_symmetry_cell_setting 'monoclinic'
loop_
_space_group_symop_operation_xyz
x,y,z
x,-y,z
1/2+x,1/2+y,z
1/2+x,1/2-y,z
loop_
_atom_site_type_symbol
_atom_site_label
_atom_site_fract_x
_atom_site_fract_y
_atom_site_fract_z
Si Si1 0.630551 0.000000 0.015160
Si Si2 0.694245 0.157716 0.791495
Si Si3 0.147704 0.000000 0.026639
Si Si4 0.301706 0.745654 0.158263
Si Si5 0.725777 0.500000 0.348394
Si Si6 0.411173 0.705929 0.924857
Si Si7 0.773555 0.000000 0.587629
Si Si8 0.007871 0.500000 0.035901
O O1 0.728800 0.128369 0.117822
O O2 0.654348 0.000000 0.164258
O O3 0.412627 0.000000 0.679158
O O4 0.514549 0.234325 0.492098
O O5 0.854861 0.185824 0.951604
O O6 0.649492 0.000000 0.735493
O O7 0.768240 0.214218 0.999067
O O8 0.182584 0.126157 0.010725
O O9 0.940995 0.000000 0.759543
O O10 0.276483 0.000000 0.309568
O O11 0.610594 0.635857 0.203545
O O12 0.269670 0.631188 0.648547
O O13 0.395564 0.860882 0.868304
O O14 0.591622 0.000000 0.262778
#
# Coordination Sequence:
#
# PCOD8053991 Si02
#       8
#     2   4   2   4   2   4   2   2
#     4  12  26  43  69 115 147 178 248 291 365 431
#     4  12  26  51  72 105 149 195 243 295 361 436
#     4  10  22  43  67 101 137 182 236 285 348 425
#     4  12  27  44  77 103 146 199 233 296 358 433
#     4  10  22  46  77  96 147 197 227 303 371 419
#     4  10  25  47  74 101 138 190 236 295 363 415
#     4  10  24  46  69  95 143 184 224 291 364 409
#     4  12  28  40  72 111 132 179 235 304 344 422
#
# _framework density 21.568597
#
# number of rings (size 3 to 8) (size 9 to 14) (size 15 to 20)
#    0.000    1.091    3.636    3.273   10.182    1.455 
#    0.000    0.000    0.000    0.000    0.000    0.000 
#    0.000    0.000    0.000    0.000    0.000    0.000 
#
# Total GULP energy -136401.228537 kJ/mol
# GULP energy per Si atom -12400.111685 kJ/mol
# Density = 2.151951 g / cm^3
# Si number density = 21.568597 Si / 1000 Ang^3
#
#
#
# Elastic Constant Matrix: (Units=GPa)
#
#
# Indices 1 2 3 4 5 6 
#
# 1 172.2506 74.4767 43.3511 0.0000 -20.7992 0.0000
# 2 74.4767 199.3114 44.7473 0.0000 -6.8157 0.0000
# 3 43.3511 44.7473 89.5955 0.0000 -19.9730 0.0000
# 4 0.0000 0.0000 0.0000 22.6021 0.0000 1.4291
# 5 -20.7992 -6.8157 -19.9730 0.0000 33.1731 0.0000
# 6 0.0000 0.0000 0.0000 1.4291 0.0000 48.7387
#
#
#
# Elastic Compliance Matrix: (Units=1/GPa)
#
#
# Indices 1 2 3 4 5 6 
#
# 1 0.007668 -0.002347 -0.001818 0.000000 0.003231 0.000000
# 2 -0.002347 0.006380 -0.002410 0.000000 -0.001612 0.000000
# 3 -0.001818 -0.002410 0.014877 0.000000 0.007322 0.000000
# 4 0.000000 0.000000 0.000000 0.044326 0.000000 -0.001300
# 5 0.003231 -0.001612 0.007322 0.000000 0.036248 0.000000
# 6 0.000000 0.000000 0.000000 -0.001300 0.000000 0.020556
#
#
# Mechanical properties :
#
#
# Convention : Reuss Voigt Hill
#
# Bulk Modulus (GPa) = 63.39029 87.36753 75.37891
# Shear Modulus (GPa) = 33.67853 40.80828 37.24340
#
# Velocity S-wave (km/s) = 3.95582 4.35446 4.15992
# Velocity P-wave (km/s) = 7.09356 8.11643 7.62217
#
# Compressibility (1/GPa) = 0.01577529
#
# Stress axis : x y z
#
# Youngs Moduli (GPa) = 130.41650 156.73581 67.21807
#
# Poissons Ratio (x) = 0.36780 0.12219
# Poissons Ratio (y) = 0.30604 0.16202
# Poissons Ratio (z) = 0.23707 0.37779
#
# Static dielectric constant tensor:
#      x y z
#    x 4.148740 0.000000 -0.142090 
#    y 0.000000 3.772050 0.000000 
#    z -0.142090 0.000000 3.680580 
# 
# 
# High freq. dielectric constant tensor:
#      x y z
#    x 1.869740 0.000000 -0.008770 
#    y 0.000000 1.861520 0.000000 
#    z -0.008770 0.000000 1.831010 
# 
# From -- ./inp_files/28173.got.cif
#   From: 2010.03.12/outbox.cif.g09.slc.cpg/sg8_15_cif.got.tgz:28173.got - 2010.03.31 10:45:26.
