data_PCOD8053665
_publ_section_title
;
Structure prediction by ZEFSAII (Michael W. Deem and Ramdas Pophale) SiO2 
 PCOD8053665
Probable space group: C M
;
_chemical_formula_sum "Si O2"
_cell_formula_units_Z 24
_cell_length_a 16.355611
_cell_length_b 16.925324
_cell_length_c 11.038964
_cell_angle_alpha 90.000000
_cell_angle_beta 24.164360
_cell_angle_gamma 90.000000
_cell_volume 1250.929399
_symmetry_space_group_name_H-M "C M"
_symmetry_group_IT_number 8
_symmetry_cell_setting 'monoclinic'
loop_
_space_group_symop_operation_xyz
x,y,z
x,-y,z
1/2+x,1/2+y,z
1/2+x,1/2-y,z
loop_
_atom_site_type_symbol
_atom_site_label
_atom_site_fract_x
_atom_site_fract_y
_atom_site_fract_z
Si Si1 0.676750 0.844552 0.380990
Si Si2 0.123958 0.593395 0.704592
Si Si3 0.308395 0.186117 0.290811
Si Si4 0.978125 0.206072 0.268130
Si Si5 0.365945 0.172405 0.613392
Si Si6 0.612082 0.592111 0.755139
O O1 0.567629 0.885062 0.642735
O O2 0.681862 0.748774 0.382673
O O3 0.558799 0.866974 0.417616
O O4 0.899999 0.876668 0.083277
O O5 0.125857 0.500000 0.724564
O O6 0.341284 0.627935 0.445273
O O7 0.955634 0.633902 0.012705
O O8 0.433024 0.234713 0.219993
O O9 0.156204 0.128616 0.564567
O O10 0.936464 0.246539 0.453835
O O11 0.210412 0.185485 0.934325
O O12 0.276917 0.114031 0.632916
O O13 0.606876 0.500000 0.746349
#
# Coordination Sequence:
#
# PCOD8053665 Si02
#       6
#     4   4   4   4   4   4
#     4  11  23  38  65  88 117 155 203 244 288 352
#     4  11  21  38  62  90 123 156 191 245 305 350
#     4  10  20  40  61  87 117 158 200 239 289 352
#     4  10  20  39  61  90 114 156 202 245 283 348
#     4  11  23  38  66  87 118 156 206 240 292 347
#     4  11  23  41  61  88 123 155 194 247 297 349
#
# _framework density 19.185734
#
# number of rings (size 3 to 8) (size 9 to 14) (size 15 to 20)
#    0.000    1.333    5.000    3.000    4.667    1.333 
#    0.000    0.000    0.000    0.000    0.000    0.000 
#    0.000    0.000    0.000    0.000    0.000    0.000 
#
# Total GULP energy -148786.634215 kJ/mol
# GULP energy per Si atom -12398.886185 kJ/mol
# Density = 1.914207 g / cm^3
# Si number density = 19.185734 Si / 1000 Ang^3
#
#
#
# Elastic Constant Matrix: (Units=GPa)
#
#
# Indices 1 2 3 4 5 6 
#
# 1 96.6098 27.9962 36.3909 0.0217 -4.4576 -0.0271
# 2 27.9962 134.3217 42.8259 0.0243 9.7772 -0.0264
# 3 36.3909 42.8259 89.8810 0.0303 29.7793 -0.0161
# 4 0.0217 0.0243 0.0303 18.6763 -0.0049 2.4776
# 5 -4.4576 9.7772 29.7793 -0.0049 30.9990 0.0228
# 6 -0.0271 -0.0264 -0.0161 2.4776 0.0228 9.9562
#
#
#
# Elastic Compliance Matrix: (Units=1/GPa)
#
#
# Indices 1 2 3 4 5 6 
#
# 1 0.014596 -0.000931 -0.009181 0.000003 0.011212 -0.000004
# 2 -0.000931 0.008909 -0.004243 -0.000005 0.001132 0.000013
# 3 -0.009181 -0.004243 0.024730 -0.000039 -0.023739 0.000068
# 4 0.000003 -0.000005 -0.000039 0.055372 0.000059 -0.013780
# 5 0.011212 0.001132 -0.023739 0.000059 0.056319 -0.000148
# 6 -0.000004 0.000013 0.000068 -0.013780 -0.000148 0.103870
#
#
# Mechanical properties :
#
#
# Convention : Reuss Voigt Hill
#
# Bulk Modulus (GPa) = 51.21650 59.47094 55.34372
# Shear Modulus (GPa) = 16.72153 26.16624 21.44389
#
# Velocity S-wave (km/s) = 2.95542 3.69702 3.34683
# Velocity P-wave (km/s) = 6.19670 7.02060 6.62147
#
# Compressibility (1/GPa) = 0.01952496
#
# Stress axis : x y z
#
# Youngs Moduli (GPa) = 68.51016 112.24165 40.43696
#
# Poissons Ratio (x) = 0.10453 0.37125
# Poissons Ratio (y) = 0.06380 0.17158
# Poissons Ratio (z) = 0.62899 0.47626
#
# Static dielectric constant tensor:
#      x y z
#    x 3.449690 0.000040 0.245190 
#    y 0.000040 3.547200 0.000060 
#    z 0.245190 0.000060 3.707610 
# 
# 
# High freq. dielectric constant tensor:
#      x y z
#    x 1.735400 0.000000 0.014890 
#    y 0.000000 1.737830 0.000000 
#    z 0.014890 0.000000 1.758250 
# 
# From -- ./inp_files/8122.got.cif
#   From: 2010.03.12/outbox.cif.g09.slc.cpg/sg8_5_cif.got.tgz:8122.got - 2010.03.31 10:45:26.
