data_PCOD8053113
_publ_section_title
;
Structure prediction by ZEFSAII (Michael W. Deem and Ramdas Pophale) SiO2 
 PCOD8053113
Probable space group: C M
;
_chemical_formula_sum "Si O2"
_cell_formula_units_Z 32
_cell_length_a 14.296507
_cell_length_b 9.094098
_cell_length_c 22.447533
_cell_angle_alpha 90.000000
_cell_angle_beta 37.406165
_cell_angle_gamma 90.000000
_cell_volume 1772.869692
_symmetry_space_group_name_H-M "C M"
_symmetry_group_IT_number 8
_symmetry_cell_setting 'monoclinic'
loop_
_space_group_symop_operation_xyz
x,y,z
x,-y,z
1/2+x,1/2+y,z
1/2+x,1/2-y,z
loop_
_atom_site_type_symbol
_atom_site_label
_atom_site_fract_x
_atom_site_fract_y
_atom_site_fract_z
Si Si1 0.361980 0.164823 0.046330
Si Si2 0.848416 0.174168 0.937211
Si Si3 0.215609 0.673962 0.220627
Si Si4 0.950063 0.829291 0.423610
Si Si5 0.057100 0.672918 0.738885
Si Si6 0.004906 0.336064 0.092226
Si Si7 0.597387 0.831020 0.583136
Si Si8 0.402051 0.327367 0.582204
O O1 0.223596 0.252736 0.150397
O O2 0.505919 0.157260 0.019233
O O3 0.306645 0.000000 0.057213
O O4 0.422211 0.252346 0.958281
O O5 0.928106 0.235597 0.838168
O O6 0.867849 0.000000 0.929025
O O7 0.669772 0.223710 0.029188
O O8 0.217964 0.500000 0.213272
O O9 0.364943 0.729029 0.183751
O O10 0.060662 0.724749 0.330451
O O11 0.778821 0.800101 0.486061
O O12 0.963848 0.782681 0.485720
O O13 0.995505 0.000000 0.392074
O O14 0.032657 0.500000 0.761786
O O15 0.040203 0.712640 0.677909
O O16 0.224528 0.723045 0.678223
O O17 0.974703 0.500000 0.133360
O O18 0.506441 0.740689 0.580188
O O19 0.561623 0.000000 0.588926
O O20 0.410409 0.500000 0.585022
#
# Coordination Sequence:
#
# PCOD8053113 Si02
#       8
#     4   4   4   4   4   4   4   4
#     4   9  19  37  55  74 106 145 176 216 271 318
#     4  11  21  35  56  83 107 139 185 226 263 315
#     4  10  19  34  56  82 108 139 182 226 263 311
#     4   9  18  36  56  76 108 146 176 212 270 326
#     4   9  20  37  54  76 109 146 176 213 270 326
#     4   8  19  37  53  72 106 144 176 216 269 315
#     4   9  19  36  57  80 106 138 180 221 263 318
#     4   9  19  36  57  79 106 141 179 216 265 323
#
# _framework density 18.049831000000001
#
# number of rings (size 3 to 8) (size 9 to 14) (size 15 to 20)
#    0.750    2.000    0.000    3.000    0.000    4.000 
#    2.250    6.250    0.000    0.000    0.000    0.000 
#    0.000    0.000    0.000    0.000    0.000    0.000 
#
# Total GULP energy -198294.546031 kJ/mol
# GULP energy per Si atom -12393.409127 kJ/mol
# Density = 1.800875 g / cm^3
# Si number density = 18.049831 Si / 1000 Ang^3
#
#
#
# Elastic Constant Matrix: (Units=GPa)
#
#
# Indices 1 2 3 4 5 6 
#
# 1 62.8693 15.0628 14.3265 0.0000 3.9447 0.0000
# 2 15.0628 80.8596 41.4718 0.0000 5.8408 0.0000
# 3 14.3265 41.4718 74.6478 0.0000 6.6200 0.0000
# 4 0.0000 0.0000 0.0000 33.9884 0.0000 -0.0432
# 5 3.9447 5.8408 6.6200 0.0000 19.5182 0.0000
# 6 0.0000 0.0000 0.0000 -0.0432 0.0000 29.9370
#
#
#
# Elastic Compliance Matrix: (Units=1/GPa)
#
#
# Indices 1 2 3 4 5 6 
#
# 1 0.016967 -0.002003 -0.001951 0.000000 -0.002168 0.000000
# 2 -0.002003 0.017606 -0.009244 0.000000 -0.001729 0.000000
# 3 -0.001951 -0.009244 0.019203 0.000000 -0.003353 0.000000
# 4 0.000000 0.000000 0.000000 0.029422 0.000000 0.000042
# 5 -0.002168 -0.001729 -0.003353 0.000000 0.053327 0.000000
# 6 0.000000 0.000000 0.000000 0.000042 0.000000 0.033404
#
#
# Mechanical properties :
#
#
# Convention : Reuss Voigt Hill
#
# Bulk Modulus (GPa) = 36.52269 40.01099 38.26684
# Shear Modulus (GPa) = 24.33673 26.52310 25.42991
#
# Velocity S-wave (km/s) = 3.67591 3.83748 3.75757
# Velocity P-wave (km/s) = 6.18828 6.46917 6.33028
#
# Compressibility (1/GPa) = 0.02738024
#
# Stress axis : x y z
#
# Youngs Moduli (GPa) = 58.93928 56.79863 52.07405
#
# Poissons Ratio (x) = 0.11379 0.10160
# Poissons Ratio (y) = 0.11808 0.48135
# Poissons Ratio (z) = 0.11499 0.52502
#
# Static dielectric constant tensor:
#      x y z
#    x 3.295650 0.000000 -0.015620 
#    y 0.000000 3.219730 0.000000 
#    z -0.015620 0.000000 3.193150 
# 
# 
# High freq. dielectric constant tensor:
#      x y z
#    x 1.690280 0.000000 0.001650 
#    y 0.000000 1.699460 0.000000 
#    z 0.001650 0.000000 1.689930 
# 
# From -- ./inp_files/31987.got.cif
#   From: 2010.03.12/outbox.cif.g09.slc.cpg/sg8_16_cif.got.tgz:31987.got - 2010.03.31 10:45:26.
