data_PCOD8053339
_publ_section_title
;
Structure prediction by ZEFSAII (Michael W. Deem and Ramdas Pophale) SiO2 
 PCOD8053339
Probable space group: C M
;
_chemical_formula_sum "Si O2"
_cell_formula_units_Z 32
_cell_length_a 24.698494
_cell_length_b 8.817761
_cell_length_c 7.598349
_cell_angle_alpha 90.000000
_cell_angle_beta 89.639710
_cell_angle_gamma 90.000000
_cell_volume 1654.776889
_symmetry_space_group_name_H-M "C M"
_symmetry_group_IT_number 8
_symmetry_cell_setting 'monoclinic'
loop_
_space_group_symop_operation_xyz
x,y,z
x,-y,z
1/2+x,1/2+y,z
1/2+x,1/2-y,z
loop_
_atom_site_type_symbol
_atom_site_label
_atom_site_fract_x
_atom_site_fract_y
_atom_site_fract_z
Si Si1 0.034980 0.834869 0.437460
Si Si2 0.728562 0.680486 0.139086
Si Si3 0.850747 0.320997 0.168065
Si Si4 0.150977 0.817904 0.443739
Si Si5 0.925988 0.677480 0.843494
Si Si6 0.152629 0.180829 0.836466
Si Si7 0.418923 0.318672 0.468334
Si Si8 0.534533 0.333615 0.853016
O O1 0.091518 0.753235 0.381148
O O2 0.036922 0.853516 0.645645
O O3 0.977471 0.753130 0.395463
O O4 0.033737 0.000000 0.346645
O O5 0.727335 0.500000 0.137541
O O6 0.789848 0.739357 0.140836
O O7 0.697078 0.742182 0.311753
O O8 0.698763 0.744616 0.965642
O O9 0.852743 0.500000 0.200061
O O10 0.872403 0.240449 0.342302
O O11 0.884455 0.273367 0.996187
O O12 0.164782 0.757472 0.639474
O O13 0.147440 0.000000 0.444316
O O14 0.923953 0.500000 0.806332
O O15 0.907985 0.762066 0.666371
O O16 0.986042 0.722162 0.909613
O O17 0.093246 0.232967 0.909638
O O18 0.152947 0.000000 0.833767
O O19 0.420214 0.500000 0.472750
O O20 0.524056 0.500000 0.938383
#
# Coordination Sequence:
#
# PCOD8053339 Si02
#       8
#     4   4   4   4   4   4   4   4
#     4   7  12  24  43  71  99 118 147 198 255 300
#     4   9  17  28  43  66  95 128 166 203 244 294
#     4  10  22  36  49  73 107 139 173 211 252 301
#     4   8  13  23  41  65  93 120 149 195 250 295
#     4  10  20  34  52  75 107 141 169 203 251 307
#     4   8  14  25  43  68  95 122 157 206 254 291
#     4  10  20  35  56  78 101 132 171 215 258 300
#     4   8  14  27  48  74 101 126 160 205 250 300
#
# _framework density 19.337956999999999
#
# number of rings (size 3 to 8) (size 9 to 14) (size 15 to 20)
#    0.000    3.250    0.000    3.000    0.000    3.000 
#    0.000    6.250    0.000    0.750    0.000   12.250 
#    0.000    0.000    0.000    0.000    0.000    0.000 
#
# Total GULP energy -198218.416027 kJ/mol
# GULP energy per Si atom -12388.651002 kJ/mol
# Density = 1.929394 g / cm^3
# Si number density = 19.337957 Si / 1000 Ang^3
#
#
#
# Elastic Constant Matrix: (Units=GPa)
#
#
# Indices 1 2 3 4 5 6 
#
# 1 152.0361 11.7334 59.7546 0.0000 2.7123 0.0000
# 2 11.7334 24.4131 13.5767 0.0000 -1.4672 0.0000
# 3 59.7546 13.5767 95.9210 0.0000 1.4451 0.0000
# 4 0.0000 0.0000 0.0000 12.9293 0.0000 1.2644
# 5 2.7123 -1.4672 1.4451 0.0000 37.0611 0.0000
# 6 0.0000 0.0000 0.0000 1.2644 0.0000 21.3210
#
#
#
# Elastic Compliance Matrix: (Units=1/GPa)
#
#
# Indices 1 2 3 4 5 6 
#
# 1 0.008755 -0.001311 -0.005261 0.000000 -0.000487 0.000000
# 2 -0.001311 0.044807 -0.005557 0.000000 0.002087 0.000000
# 3 -0.005261 -0.005557 0.014495 0.000000 -0.000400 0.000000
# 4 0.000000 0.000000 0.000000 0.077795 0.000000 -0.004614
# 5 -0.000487 0.002087 -0.000400 0.000000 0.027116 0.000000
# 6 0.000000 0.000000 0.000000 -0.004614 0.000000 0.047176
#
#
# Mechanical properties :
#
#
# Convention : Reuss Voigt Hill
#
# Bulk Modulus (GPa) = 22.83125 49.16661 35.99893
# Shear Modulus (GPa) = 19.30485 26.74932 23.02709
#
# Velocity S-wave (km/s) = 3.16300 3.72325 3.45450
# Velocity P-wave (km/s) = 5.01712 6.63050 5.87941
#
# Compressibility (1/GPa) = 0.04379962
#
# Stress axis : x y z
#
# Youngs Moduli (GPa) = 114.22010 22.31778 68.98865
#
# Poissons Ratio (x) = 0.02927 0.36295
# Poissons Ratio (y) = 0.14978 0.38334
# Poissons Ratio (z) = 0.60092 0.12401
#
# Static dielectric constant tensor:
#      x y z
#    x 4.029200 0.000000 0.052830 
#    y 0.000000 2.960210 0.000000 
#    z 0.052830 0.000000 3.488510 
# 
# 
# High freq. dielectric constant tensor:
#      x y z
#    x 1.764080 0.000000 0.001830 
#    y 0.000000 1.686250 0.000000 
#    z 0.001830 0.000000 1.748320 
# 
# From -- ./inp_files/16759.got.cif
#   From: 2010.03.12/outbox.cif.g09.slc.cpg/sg8_9_cif.got.tgz:16759.got - 2010.03.31 10:45:26.
