data_PCOD8053753
_publ_section_title
;
Structure prediction by ZEFSAII (Michael W. Deem and Ramdas Pophale) SiO2 
 PCOD8053753
Probable space group: C M
;
_chemical_formula_sum "Si O2"
_cell_formula_units_Z 24
_cell_length_a 15.228281
_cell_length_b 13.937065
_cell_length_c 5.044936
_cell_angle_alpha 90.000000
_cell_angle_beta 93.068392
_cell_angle_gamma 90.000000
_cell_volume 1069.189774
_symmetry_space_group_name_H-M "C M"
_symmetry_group_IT_number 8
_symmetry_cell_setting 'monoclinic'
loop_
_space_group_symop_operation_xyz
x,y,z
x,-y,z
1/2+x,1/2+y,z
1/2+x,1/2-y,z
loop_
_atom_site_type_symbol
_atom_site_label
_atom_site_fract_x
_atom_site_fract_y
_atom_site_fract_z
Si Si1 0.714050 0.270278 0.335730
Si Si2 0.616201 0.895791 0.074897
Si Si3 0.753840 0.000000 0.815360
Si Si4 0.247981 0.110548 0.833140
Si Si5 0.941553 0.318764 0.832719
Si Si6 0.908458 0.204738 0.333834
Si Si7 0.870950 0.000000 0.334796
O O1 0.635816 0.193745 0.271212
O O2 0.696764 0.325863 0.606887
O O3 0.804237 0.211636 0.364224
O O4 0.717363 0.351630 0.111896
O O5 0.613369 0.000000 0.227135
O O6 0.523529 0.885329 0.912901
O O7 0.694052 0.904438 0.863954
O O8 0.787818 0.000000 0.521661
O O9 0.835971 0.000000 0.028881
O O10 0.353371 0.117767 0.815881
O O11 0.220510 0.000000 0.799938
O O12 0.959207 0.272647 0.548006
O O13 0.933697 0.232793 0.041361
O O14 0.932299 0.093282 0.386801
#
# Coordination Sequence:
#
# PCOD8053753 Si02
#       7
#     4   4   2   4   4   4   2
#     4  10  21  36  61  90 116 154 205 248 297 363
#     4  10  22  41  61  97 127 160 191 263 321 372
#     4  10  24  32  66  94 124 153 197 252 328 358
#     4  10  21  39  62  84 116 160 206 247 292 355
#     4  10  22  38  59  89 122 156 197 250 314 363
#     4  10  21  37  60  87 119 161 204 252 294 363
#     4  12  20  40  62  92 120 159 219 252 300 366
#
# _framework density 22.446902000000001
#
# number of rings (size 3 to 8) (size 9 to 14) (size 15 to 20)
#    0.500    1.333    1.667    2.000    4.667    2.667 
#    0.000    1.667   11.000    0.000    0.000    0.000 
#    0.000    0.000    0.000    0.000    0.000    0.000 
#
# Total GULP energy -148790.781782 kJ/mol
# GULP energy per Si atom -12399.231815 kJ/mol
# Density = 2.239581 g / cm^3
# Si number density = 22.446902 Si / 1000 Ang^3
#
#
#
# Elastic Constant Matrix: (Units=GPa)
#
#
# Indices 1 2 3 4 5 6 
#
# 1 41.5887 17.0091 5.5674 0.0000 21.1894 0.0000
# 2 17.0091 144.3047 24.6514 0.0000 18.6445 0.0000
# 3 5.5674 24.6514 87.3107 0.0000 11.1896 0.0000
# 4 0.0000 0.0000 0.0000 22.9942 0.0000 8.5558
# 5 21.1894 18.6445 11.1896 0.0000 27.7777 0.0000
# 6 0.0000 0.0000 0.0000 8.5558 0.0000 22.9572
#
#
#
# Elastic Compliance Matrix: (Units=1/GPa)
#
#
# Indices 1 2 3 4 5 6 
#
# 1 0.039638 -0.001051 0.001639 0.000000 -0.030191 0.000000
# 2 -0.001051 0.007826 -0.001658 0.000000 -0.003783 0.000000
# 3 0.001639 -0.001658 0.012479 0.000000 -0.005164 0.000000
# 4 0.000000 0.000000 0.000000 0.050491 0.000000 -0.018817
# 5 -0.030191 -0.003783 -0.005164 0.000000 0.063650 0.000000
# 6 0.000000 0.000000 0.000000 -0.018817 0.000000 0.050572
#
#
# Mechanical properties :
#
#
# Convention : Reuss Voigt Hill
#
# Bulk Modulus (GPa) = 17.30062 40.85109 29.07586
# Shear Modulus (GPa) = 20.32003 29.81091 25.06547
#
# Velocity S-wave (km/s) = 3.01200 3.64821 3.34527
# Velocity P-wave (km/s) = 4.45200 5.99870 5.28227
#
# Compressibility (1/GPa) = 0.05780139
#
# Stress axis : x y z
#
# Youngs Moduli (GPa) = 25.22843 127.78525 80.13658
#
# Poissons Ratio (x) = 0.13433 -0.13130
# Poissons Ratio (y) = 0.02652 0.13284
# Poissons Ratio (z) = -0.04134 0.21182
#
# Static dielectric constant tensor:
#      x y z
#    x 3.657660 0.000000 0.099830 
#    y 0.000000 3.958610 0.000000 
#    z 0.099830 0.000000 3.991090 
# 
# 
# High freq. dielectric constant tensor:
#      x y z
#    x 1.848280 0.000000 0.007400 
#    y 0.000000 1.888470 0.000000 
#    z 0.007400 0.000000 1.885980 
# 
# From -- ./inp_files/3885.got.cif
#   From: 2010.03.12/outbox.cif.g09.slc.cpg/sg8_2_cif.got.tgz:3885.got - 2010.03.31 10:45:26.
