data_PCOD8053076
_publ_section_title
;
Structure prediction by ZEFSAII (Michael W. Deem and Ramdas Pophale) SiO2 
 PCOD8053076
Probable space group: C M
;
_chemical_formula_sum "Si O2"
_cell_formula_units_Z 32
_cell_length_a 27.614923
_cell_length_b 8.864029
_cell_length_c 13.868736
_cell_angle_alpha 90.000000
_cell_angle_beta 30.214593
_cell_angle_gamma 90.000000
_cell_volume 1708.390270
_symmetry_space_group_name_H-M "C M"
_symmetry_group_IT_number 8
_symmetry_cell_setting 'monoclinic'
loop_
_space_group_symop_operation_xyz
x,y,z
x,-y,z
1/2+x,1/2+y,z
1/2+x,1/2-y,z
loop_
_atom_site_type_symbol
_atom_site_label
_atom_site_fract_x
_atom_site_fract_y
_atom_site_fract_z
Si Si1 0.080520 0.322445 0.166550
Si Si2 0.066808 0.675731 0.538125
Si Si3 0.699579 0.671371 0.813294
Si Si4 0.670840 0.675883 0.187573
Si Si5 0.387054 0.678748 0.469845
Si Si6 0.795826 0.671400 0.459745
Si Si7 0.757555 0.175013 0.324432
Si Si8 0.361073 0.175853 0.974687
O O1 0.068109 0.500000 0.190001
O O2 0.158638 0.268058 0.109952
O O3 0.980091 0.242992 0.363307
O O4 0.111349 0.267140 0.006895
O O5 0.063691 0.500000 0.515067
O O6 0.090493 0.770438 0.402073
O O7 0.149530 0.707943 0.474281
O O8 0.964191 0.729780 0.756630
O O9 0.694112 0.500000 0.861241
O O10 0.797434 0.751293 0.683361
O O11 0.701319 0.675576 0.692920
O O12 0.655700 0.500000 0.194086
O O13 0.778445 0.711667 0.038890
O O14 0.385731 0.500000 0.475893
O O15 0.380760 0.735903 0.368558
O O16 0.831209 0.500000 0.383967
O O17 0.768643 0.742297 0.405951
O O18 0.776197 0.000000 0.308293
O O19 0.837731 0.234620 0.112412
O O20 0.363334 0.000000 0.996901
#
# Coordination Sequence:
#
# PCOD8053076 Si02
#       8
#     4   4   4   4   4   4   4   4
#     4  12  23  37  58  83 113 153 191 231 282 337
#     4   9  19  37  57  81 110 143 183 227 278 337
#     4   9  20  38  57  80 111 148 188 233 278 330
#     4  10  21  36  56  81 110 144 184 233 283 333
#     4  10  20  37  58  81 111 144 186 235 280 332
#     4   9  19  37  58  80 113 151 185 229 282 331
#     4  10  19  33  56  83 112 144 183 229 275 330
#     4   9  19  37  58  79 108 145 182 227 280 334
#
# _framework density 18.731083000000002
#
# number of rings (size 3 to 8) (size 9 to 14) (size 15 to 20)
#    0.750    1.500    0.000    3.375    0.000    2.500 
#    2.250    3.750    0.000    0.000    0.000    0.000 
#    0.000    0.000    0.000    0.000    0.000    0.000 
#
# Total GULP energy -198340.979002 kJ/mol
# GULP energy per Si atom -12396.311188 kJ/mol
# Density = 1.868845 g / cm^3
# Si number density = 18.731083 Si / 1000 Ang^3
#
#
#
# Elastic Constant Matrix: (Units=GPa)
#
#
# Indices 1 2 3 4 5 6 
#
# 1 53.1149 16.9387 9.9216 0.0000 4.1174 0.0000
# 2 16.9387 86.4606 18.4241 0.0000 0.1392 0.0000
# 3 9.9216 18.4241 92.2968 0.0000 -7.6747 0.0000
# 4 0.0000 0.0000 0.0000 32.8219 0.0000 4.4405
# 5 4.1174 0.1392 -7.6747 0.0000 22.0508 0.0000
# 6 0.0000 0.0000 0.0000 4.4405 0.0000 34.1806
#
#
#
# Elastic Compliance Matrix: (Units=1/GPa)
#
#
# Indices 1 2 3 4 5 6 
#
# 1 0.020688 -0.003647 -0.001869 0.000000 -0.004490 0.000000
# 2 -0.003647 0.012742 -0.002164 0.000000 -0.000153 0.000000
# 3 -0.001869 -0.002164 0.011840 0.000000 0.004484 0.000000
# 4 0.000000 0.000000 0.000000 0.031013 0.000000 -0.004029
# 5 -0.004490 -0.000153 0.004484 0.000000 0.047750 0.000000
# 6 0.000000 0.000000 0.000000 -0.004029 0.000000 0.029780
#
#
# Mechanical properties :
#
#
# Convention : Reuss Voigt Hill
#
# Bulk Modulus (GPa) = 33.43533 35.82679 34.63106
# Shear Modulus (GPa) = 27.91068 30.24983 29.08025
#
# Velocity S-wave (km/s) = 3.86433 4.02301 3.94447
# Velocity P-wave (km/s) = 6.14815 6.38341 6.26688
#
# Compressibility (1/GPa) = 0.02990848
#
# Stress axis : x y z
#
# Youngs Moduli (GPa) = 48.33830 78.48093 84.45681
#
# Poissons Ratio (x) = 0.28625 0.15786
# Poissons Ratio (y) = 0.17631 0.18278
# Poissons Ratio (z) = 0.09035 0.16984
#
# Static dielectric constant tensor:
#      x y z
#    x 3.265000 0.000000 -0.017770 
#    y 0.000000 3.475500 0.000000 
#    z -0.017770 0.000000 3.378840 
# 
# 
# High freq. dielectric constant tensor:
#      x y z
#    x 1.713450 0.000000 0.002340 
#    y 0.000000 1.739970 0.000000 
#    z 0.002340 0.000000 1.720290 
# 
# From -- ./inp_files/26454.got.cif
#   From: 2010.03.12/outbox.cif.g09.slc.cpg/sg8_14_cif.got.tgz:26454.got - 2010.03.31 10:45:26.
