data_PCOD8053581
_publ_section_title
;
Structure prediction by ZEFSAII (Michael W. Deem and Ramdas Pophale) SiO2 
 PCOD8053581
Probable space group: C M
;
_chemical_formula_sum "Si O2"
_cell_formula_units_Z 32
_cell_length_a 12.915536
_cell_length_b 23.336220
_cell_length_c 5.154980
_cell_angle_alpha 90.000000
_cell_angle_beta 69.890207
_cell_angle_gamma 90.000000
_cell_volume 1458.988741
_symmetry_space_group_name_H-M "C M"
_symmetry_group_IT_number 8
_symmetry_cell_setting 'monoclinic'
loop_
_space_group_symop_operation_xyz
x,y,z
x,-y,z
1/2+x,1/2+y,z
1/2+x,1/2-y,z
loop_
_atom_site_type_symbol
_atom_site_label
_atom_site_fract_x
_atom_site_fract_y
_atom_site_fract_z
Si Si1 0.122780 0.327580 0.717940
Si Si2 0.629861 0.431640 0.668840
Si Si3 0.800793 0.062095 0.150013
Si Si4 0.390330 0.796014 0.939624
Si Si5 0.762435 0.181373 0.081556
Si Si6 0.555473 0.936714 0.553686
Si Si7 0.508415 0.434647 0.275892
Si Si8 0.357122 0.130907 0.485613
O O1 0.210195 0.321838 0.412170
O O2 0.076266 0.393393 0.776317
O O3 0.018045 0.287642 0.751206
O O4 0.170116 0.306585 0.948449
O O5 0.635400 0.500000 0.667129
O O6 0.575047 0.406770 0.977751
O O7 0.752519 0.408642 0.521102
O O8 0.549963 0.407139 0.509044
O O9 0.819380 0.119553 0.962512
O O10 0.671401 0.057239 0.309243
O O11 0.838237 0.000000 0.988867
O O12 0.875859 0.071125 0.344890
O O13 0.329739 0.829650 0.759074
O O14 0.349203 0.731738 0.005192
O O15 0.378500 0.829747 0.218747
O O16 0.463303 0.909554 0.444189
O O17 0.517525 0.000000 0.683795
O O18 0.544767 0.500000 0.256468
#
# Coordination Sequence:
#
# PCOD8053581 Si02
#       8
#     4   4   4   4   4   4   4   4
#     4  10  22  41  64  91 127 161 205 263 305 371
#     4  10  20  37  59  85 123 165 205 252 305 361
#     4   9  19  38  63  93 123 156 202 256 314 375
#     4  11  23  42  62  89 125 166 207 257 311 358
#     4  11  23  42  65  90 124 165 207 256 315 365
#     4   9  19  37  66  97 126 162 203 257 325 379
#     4   9  19  35  56  84 122 160 196 249 304 361
#     4  11  22  40  63  91 127 163 210 260 305 370
#
# _framework density 21.933001999999998
#
# number of rings (size 3 to 8) (size 9 to 14) (size 15 to 20)
#    0.000    2.000    0.000    4.125    0.000    2.500 
#    6.750   13.125    0.000    0.000    0.000    0.000 
#    0.000    0.000    0.000    0.000    0.000    0.000 
#
# Total GULP energy -198230.348363 kJ/mol
# GULP energy per Si atom -12389.396773 kJ/mol
# Density = 2.188308 g / cm^3
# Si number density = 21.933002 Si / 1000 Ang^3
#
#
#
# Elastic Constant Matrix: (Units=GPa)
#
#
# Indices 1 2 3 4 5 6 
#
# 1 119.2781 58.1027 26.5694 0.0000 2.5035 0.0000
# 2 58.1027 146.5856 38.5571 0.0000 -9.8198 0.0000
# 3 26.5694 38.5571 79.9670 0.0000 16.1836 0.0000
# 4 0.0000 0.0000 0.0000 22.2120 0.0000 -2.2098
# 5 2.5035 -9.8198 16.1836 0.0000 28.7273 0.0000
# 6 0.0000 0.0000 0.0000 -2.2098 0.0000 29.7959
#
#
#
# Elastic Compliance Matrix: (Units=1/GPa)
#
#
# Indices 1 2 3 4 5 6 
#
# 1 0.010646 -0.003981 -0.001303 0.000000 -0.001555 0.000000
# 2 -0.003981 0.010125 -0.004887 0.000000 0.006561 0.000000
# 3 -0.001303 -0.004887 0.017618 0.000000 -0.011482 0.000000
# 4 0.000000 0.000000 0.000000 0.045355 0.000000 0.003364
# 5 -0.001555 0.006561 -0.011482 0.000000 0.043657 0.000000
# 6 0.000000 0.000000 0.000000 0.003364 0.000000 0.033811
#
#
# Mechanical properties :
#
#
# Convention : Reuss Voigt Hill
#
# Bulk Modulus (GPa) = 55.41127 65.80989 60.61058
# Shear Modulus (GPa) = 26.65670 30.98713 28.82191
#
# Velocity S-wave (km/s) = 3.49000 3.76281 3.62897
# Velocity P-wave (km/s) = 6.44661 6.99632 6.72708
#
# Compressibility (1/GPa) = 0.01804687
#
# Stress axis : x y z
#
# Youngs Moduli (GPa) = 93.93236 98.76593 56.75985
#
# Poissons Ratio (x) = 0.39321 0.07396
# Poissons Ratio (y) = 0.37396 0.27738
# Poissons Ratio (z) = 0.12239 0.48266
#
# Static dielectric constant tensor:
#      x y z
#    x 4.147290 0.000000 0.066850 
#    y 0.000000 4.306230 0.000000 
#    z 0.066850 0.000000 3.845870 
# 
# 
# High freq. dielectric constant tensor:
#      x y z
#    x 1.879360 0.000000 0.004650 
#    y 0.000000 1.850820 0.000000 
#    z 0.004650 0.000000 1.843360 
# 
# From -- ./inp_files/3163.got.cif
#   From: 2010.03.12/outbox.cif.g09.slc.cpg/sg8_2_cif.got.tgz:3163.got - 2010.03.31 10:45:26.
