data_PCOD8053714
_publ_section_title
;
Structure prediction by ZEFSAII (Michael W. Deem and Ramdas Pophale) SiO2 
 PCOD8053714
Probable space group: C M
;
_chemical_formula_sum "Si O2"
_cell_formula_units_Z 32
_cell_length_a 18.588160
_cell_length_b 8.954966
_cell_length_c 25.357797
_cell_angle_alpha 90.000000
_cell_angle_beta 23.595328
_cell_angle_gamma 90.000000
_cell_volume 1689.544290
_symmetry_space_group_name_H-M "C M"
_symmetry_group_IT_number 8
_symmetry_cell_setting 'monoclinic'
loop_
_space_group_symop_operation_xyz
x,y,z
x,-y,z
1/2+x,1/2+y,z
1/2+x,1/2-y,z
loop_
_atom_site_type_symbol
_atom_site_label
_atom_site_fract_x
_atom_site_fract_y
_atom_site_fract_z
Si Si1 0.455700 0.677652 0.636740
Si Si2 0.670852 0.676091 0.390343
Si Si3 0.030514 0.830045 0.173639
Si Si4 0.508374 0.823167 0.396709
Si Si5 0.198997 0.825801 0.172328
Si Si6 0.061806 0.677469 0.877820
Si Si7 0.912295 0.327472 0.869160
Si Si8 0.606209 0.323095 0.645517
O O1 0.451207 0.500000 0.640386
O O2 0.568646 0.734877 0.510974
O O3 0.252163 0.740612 0.769983
O O4 0.548016 0.740522 0.627532
O O5 0.652773 0.500000 0.395559
O O6 0.581549 0.753669 0.400752
O O7 0.879107 0.718119 0.255060
O O8 0.078783 0.793937 0.201657
O O9 0.961826 0.000000 0.214930
O O10 0.201704 0.805245 0.021319
O O11 0.629573 0.772983 0.266634
O O12 0.305629 0.764499 0.524319
O O13 0.515876 0.000000 0.395905
O O14 0.192309 0.000000 0.192151
O O15 0.403343 0.772106 0.023763
O O16 0.057903 0.500000 0.877476
O O17 0.024568 0.736024 0.843601
O O18 0.958554 0.500000 0.827940
O O19 0.963945 0.233976 0.783439
O O20 0.600634 0.500000 0.648892
#
# Coordination Sequence:
#
# PCOD8053714 Si02
#       8
#     4   4   4   4   4   4   4   4
#     4   9  18  33  53  77 104 134 173 221 267 311
#     4  11  22  36  57  80 102 138 188 229 267 325
#     4   9  19  36  56  80 113 145 174 219 273 316
#     4  11  23  37  52  75 112 147 177 225 279 317
#     4   9  18  34  57  82 106 140 183 217 258 323
#     4   8  15  31  55  79 104 134 171 217 260 303
#     4   9  18  34  56  80 107 141 176 211 258 316
#     4  10  21  35  52  77 108 141 176 219 270 317
#
# _framework density 18.940017999999998
#
# number of rings (size 3 to 8) (size 9 to 14) (size 15 to 20)
#    0.000    2.500    0.000    3.750    0.000    5.000 
#    0.000    4.375    0.000    2.250    0.000    0.000 
#    0.000    0.000    0.000    0.000    0.000    0.000 
#
# Total GULP energy -198414.909819 kJ/mol
# GULP energy per Si atom -12400.931864 kJ/mol
# Density = 1.889691 g / cm^3
# Si number density = 18.940018 Si / 1000 Ang^3
#
#
#
# Elastic Constant Matrix: (Units=GPa)
#
#
# Indices 1 2 3 4 5 6 
#
# 1 147.5389 39.7449 87.2845 -0.0058 1.8256 0.0015
# 2 39.7449 39.8897 33.7411 0.0106 0.9463 -0.0034
# 3 87.2845 33.7411 127.9346 0.0275 3.3039 -0.0086
# 4 -0.0058 0.0106 0.0275 29.1964 -0.0012 7.3740
# 5 1.8256 0.9463 3.3039 -0.0012 39.9816 0.0000
# 6 0.0015 -0.0034 -0.0086 7.3740 0.0000 16.8052
#
#
#
# Elastic Compliance Matrix: (Units=1/GPa)
#
#
# Indices 1 2 3 4 5 6 
#
# 1 0.012665 -0.006835 -0.006842 0.000015 0.000149 -0.000012
# 2 -0.006835 0.035957 -0.004816 -0.000013 -0.000141 0.000011
# 3 -0.006842 -0.004816 0.013773 -0.000016 -0.000712 0.000014
# 4 0.000015 -0.000013 -0.000016 0.038520 0.000002 -0.016902
# 5 0.000149 -0.000141 -0.000712 0.000002 0.025067 -0.000001
# 6 -0.000012 0.000011 0.000014 -0.016902 -0.000001 0.066922
#
#
# Mechanical properties :
#
#
# Convention : Reuss Voigt Hill
#
# Bulk Modulus (GPa) = 39.35740 70.76713 55.06227
# Shear Modulus (GPa) = 20.97671 27.50281 24.23976
#
# Velocity S-wave (km/s) = 3.33157 3.81478 3.58133
# Velocity P-wave (km/s) = 5.96861 7.53978 6.79973
#
# Compressibility (1/GPa) = 0.02540818
#
# Stress axis : x y z
#
# Youngs Moduli (GPa) = 78.95692 27.81125 72.60546
#
# Poissons Ratio (x) = 0.19010 0.49677
# Poissons Ratio (y) = 0.53970 0.34967
# Poissons Ratio (z) = 0.54023 0.13394
#
# Static dielectric constant tensor:
#      x y z
#    x 3.598020 -0.000020 -0.104040 
#    y -0.000020 3.131080 0.000030 
#    z -0.104040 0.000030 3.612460 
# 
# 
# High freq. dielectric constant tensor:
#      x y z
#    x 1.742670 0.000000 -0.000940 
#    y 0.000000 1.706260 0.000000 
#    z -0.000940 0.000000 1.749090 
# 
# From -- ./inp_files/33039.got.cif
#   From: 2010.03.12/outbox.cif.g09.slc.cpg/sg8_17_cif.got.tgz:33039.got - 2010.03.31 10:45:26.
