data_PCOD8053416
_publ_section_title
;
Structure prediction by ZEFSAII (Michael W. Deem and Ramdas Pophale) SiO2 
 PCOD8053416
Probable space group: C M
;
_chemical_formula_sum "Si O2"
_cell_formula_units_Z 24
_cell_length_a 18.295564
_cell_length_b 8.453009
_cell_length_c 24.584699
_cell_angle_alpha 90.000000
_cell_angle_beta 160.690741
_cell_angle_gamma 90.000000
_cell_volume 1257.224285
_symmetry_space_group_name_H-M "C M"
_symmetry_group_IT_number 8
_symmetry_cell_setting 'monoclinic'
loop_
_space_group_symop_operation_xyz
x,y,z
x,-y,z
1/2+x,1/2+y,z
1/2+x,1/2-y,z
loop_
_atom_site_type_symbol
_atom_site_label
_atom_site_fract_x
_atom_site_fract_y
_atom_site_fract_z
Si Si1 0.818580 0.679990 0.069910
Si Si2 0.180115 0.180049 0.261688
Si Si3 0.036362 0.685356 0.431768
Si Si4 0.390396 0.817231 0.966961
Si Si5 0.519857 0.184436 0.767878
Si Si6 0.742957 0.819924 0.131158
O O1 0.764375 0.500000 0.017769
O O2 0.770910 0.707695 0.099418
O O3 0.079117 0.715796 0.240150
O O4 0.666184 0.789107 0.924733
O O5 0.423426 0.231007 0.410907
O O6 0.179464 0.000000 0.281230
O O7 0.023255 0.200319 0.099433
O O8 0.003007 0.500000 0.396931
O O9 0.290280 0.727919 0.614987
O O10 0.924041 0.781370 0.304013
O O11 0.136253 0.760503 0.795563
O O12 0.415361 0.000000 0.003108
O O13 0.492411 0.795973 0.978335
O O14 0.479478 0.000000 0.730201
O O15 0.778848 0.000000 0.137776
#
# Coordination Sequence:
#
# PCOD8053416 Si02
#       6
#     4   4   4   4   4   4
#     4  11  21  34  54  78 106 138 173 214 257 305
#     4   9  17  31  52  75 101 134 172 211 252 305
#     4  10  20  35  55  79 106 136 172 213 257 306
#     4   9  17  31  52  75 101 134 172 211 252 305
#     4  11  21  34  54  78 106 138 173 214 257 305
#     4  10  20  35  55  79 106 136 172 213 257 306
#
# _framework density 19.089673000000001
#
# number of rings (size 3 to 8) (size 9 to 14) (size 15 to 20)
#    0.000    2.000    0.000    7.000    0.000    4.000 
#    0.000    1.667    0.000    8.000    0.000    0.000 
#    0.000    0.000    0.000    0.000    0.000    0.000 
#
# Total GULP energy -148728.186202 kJ/mol
# GULP energy per Si atom -12394.015517 kJ/mol
# Density = 1.904622 g / cm^3
# Si number density = 19.089673 Si / 1000 Ang^3
#
#
#
# Elastic Constant Matrix: (Units=GPa)
#
#
# Indices 1 2 3 4 5 6 
#
# 1 132.3036 30.5989 39.9747 0.0103 28.0746 0.0023
# 2 30.5989 68.0015 11.8956 0.0084 11.4509 -0.0060
# 3 39.9747 11.8956 70.4578 -0.0650 32.6837 0.0136
# 4 0.0103 0.0084 -0.0650 25.1442 0.0176 1.1436
# 5 28.0746 11.4509 32.6837 0.0176 34.6530 0.0041
# 6 0.0023 -0.0060 0.0136 1.1436 0.0041 27.4365
#
#
#
# Elastic Compliance Matrix: (Units=1/GPa)
#
#
# Indices 1 2 3 4 5 6 
#
# 1 0.010191 -0.003326 -0.003378 -0.000009 -0.003971 0.000001
# 2 -0.003326 0.016665 0.000672 0.000000 -0.003446 0.000004
# 3 -0.003378 0.000672 0.026364 0.000086 -0.022351 -0.000013
# 4 -0.000009 0.000000 0.000086 0.039846 -0.000093 -0.001661
# 5 -0.003971 -0.003446 -0.022351 -0.000093 0.054294 0.000006
# 6 0.000001 0.000004 -0.000013 -0.001661 0.000006 0.036517
#
#
# Mechanical properties :
#
#
# Convention : Reuss Voigt Hill
#
# Bulk Modulus (GPa) = 24.29808 48.41127 36.35467
# Shear Modulus (GPa) = 23.84795 29.99966 26.92381
#
# Velocity S-wave (km/s) = 3.53832 3.96853 3.75958
# Velocity P-wave (km/s) = 5.42669 6.81278 6.15885
#
# Compressibility (1/GPa) = 0.04115551
#
# Stress axis : x y z
#
# Youngs Moduli (GPa) = 98.12607 60.00637 37.92981
#
# Poissons Ratio (x) = 0.19958 0.12814
# Poissons Ratio (y) = 0.32637 -0.02549
# Poissons Ratio (z) = 0.33151 -0.04032
#
# Static dielectric constant tensor:
#      x y z
#    x 3.795480 -0.000030 0.622330 
#    y -0.000030 3.500640 -0.000030 
#    z 0.622330 -0.000030 3.285900 
# 
# 
# High freq. dielectric constant tensor:
#      x y z
#    x 1.747330 0.000000 0.041620 
#    y 0.000000 1.756730 0.000000 
#    z 0.041620 0.000000 1.702750 
# 
# From -- ./inp_files/15701.got.cif
#   From: 2010.03.12/outbox.cif.g09.slc.cpg/sg8_8_cif.got.tgz:15701.got - 2010.03.31 10:45:26.
