data_PCOD8053556
_publ_section_title
;
Structure prediction by ZEFSAII (Michael W. Deem and Ramdas Pophale) SiO2 
 PCOD8053556
Probable space group: C M
;
_chemical_formula_sum "Si O2"
_cell_formula_units_Z 24
_cell_length_a 20.164672
_cell_length_b 8.925249
_cell_length_c 18.635979
_cell_angle_alpha 90.000000
_cell_angle_beta 158.323231
_cell_angle_gamma 90.000000
_cell_volume 1238.868866
_symmetry_space_group_name_H-M "C M"
_symmetry_group_IT_number 8
_symmetry_cell_setting 'monoclinic'
loop_
_space_group_symop_operation_xyz
x,y,z
x,-y,z
1/2+x,1/2+y,z
1/2+x,1/2-y,z
loop_
_atom_site_type_symbol
_atom_site_label
_atom_site_fract_x
_atom_site_fract_y
_atom_site_fract_z
Si Si1 0.508150 0.176425 0.449730
Si Si2 0.721090 0.170442 0.905818
Si Si3 0.711456 0.825636 0.238803
Si Si4 0.301986 0.173813 0.843082
Si Si5 0.811915 0.327436 0.486389
Si Si6 0.529764 0.672991 0.322010
O O1 0.317715 0.244221 0.282054
O O2 0.664637 0.228343 0.659895
O O3 0.553872 0.225623 0.415588
O O4 0.494148 0.000000 0.440048
O O5 0.789627 0.282269 0.913789
O O6 0.514029 0.198089 0.716972
O O7 0.753181 0.000000 0.911342
O O8 0.833759 0.200928 0.091097
O O9 0.779293 0.770477 0.383736
O O10 0.754420 0.000000 0.277291
O O11 0.501923 0.792310 0.016348
O O12 0.252617 0.000000 0.784934
O O13 0.774689 0.500000 0.428710
O O14 0.680493 0.274661 0.417199
O O15 0.557260 0.500000 0.371370
#
# Coordination Sequence:
#
# PCOD8053556 Si02
#       6
#     4   4   4   4   4   4
#     4  12  26  42  62  90 127 166 209 258 310 364
#     4  10  20  36  62  93 122 159 202 247 302 369
#     4  11  23  39  63  93 124 161 206 256 308 367
#     4  11  23  39  63  93 124 161 206 256 308 367
#     4  10  20  36  62  93 122 159 202 247 302 369
#     4  10  22  40  60  88 129 166 201 248 308 370
#
# _framework density 19.372509000000001
#
# number of rings (size 3 to 8) (size 9 to 14) (size 15 to 20)
#    0.000    1.333    3.333    2.500    0.000    4.667 
#    0.000    3.333    0.000    0.000    0.000    0.000 
#    0.000    0.000    0.000    0.000    0.000    0.000 
#
# Total GULP energy -148870.651790 kJ/mol
# GULP energy per Si atom -12405.887649 kJ/mol
# Density = 1.932842 g / cm^3
# Si number density = 19.372509 Si / 1000 Ang^3
#
#
#
# Elastic Constant Matrix: (Units=GPa)
#
#
# Indices 1 2 3 4 5 6 
#
# 1 83.0051 30.8433 15.2513 0.0001 9.1076 0.0000
# 2 30.8433 83.9108 30.3885 0.0014 8.4470 0.0007
# 3 15.2513 30.3885 74.9176 0.0016 16.0744 0.0007
# 4 0.0001 0.0014 0.0016 27.0401 0.0006 -1.9559
# 5 9.1076 8.4470 16.0744 0.0006 30.1433 0.0002
# 6 0.0000 0.0007 0.0007 -1.9559 0.0002 38.6292
#
#
#
# Elastic Compliance Matrix: (Units=1/GPa)
#
#
# Indices 1 2 3 4 5 6 
#
# 1 0.014204 -0.004818 -0.000346 0.000000 -0.002757 0.000000
# 2 -0.004818 0.015631 -0.005343 -0.000001 -0.000075 0.000000
# 3 -0.000346 -0.005343 0.017211 -0.000001 -0.007576 0.000000
# 4 0.000000 -0.000001 -0.000001 0.037118 0.000000 0.001879
# 5 -0.002757 -0.000075 -0.007576 0.000000 0.038069 0.000000
# 6 0.000000 0.000000 0.000000 0.001879 0.000000 0.025982
#
#
# Mechanical properties :
#
#
# Convention : Reuss Voigt Hill
#
# Bulk Modulus (GPa) = 38.41438 43.86662 41.14050
# Shear Modulus (GPa) = 28.10446 30.18588 29.14517
#
# Velocity S-wave (km/s) = 3.81299 3.95166 3.88295
# Velocity P-wave (km/s) = 6.26559 6.59650 6.43317
#
# Compressibility (1/GPa) = 0.02603192
#
# Stress axis : x y z
#
# Youngs Moduli (GPa) = 70.40355 63.97481 58.10110
#
# Poissons Ratio (x) = 0.30825 0.02008
# Poissons Ratio (y) = 0.33922 0.31046
# Poissons Ratio (z) = 0.02433 0.34184
#
# Static dielectric constant tensor:
#      x y z
#    x 3.482560 0.000000 0.173250 
#    y 0.000000 3.558310 0.000000 
#    z 0.173250 0.000000 3.780500 
# 
# 
# High freq. dielectric constant tensor:
#      x y z
#    x 1.748450 0.000000 0.009050 
#    y 0.000000 1.754740 0.000000 
#    z 0.009050 0.000000 1.770430 
# 
# From -- ./inp_files/15885.got.cif
#   From: 2010.03.12/outbox.cif.g09.slc.cpg/sg8_8_cif.got.tgz:15885.got - 2010.03.31 10:45:26.
