data_PCOD8053118
_publ_section_title
;
Structure prediction by ZEFSAII (Michael W. Deem and Ramdas Pophale) SiO2 
 PCOD8053118
Probable space group: C M
;
_chemical_formula_sum "Si O2"
_cell_formula_units_Z 32
_cell_length_a 20.354045
_cell_length_b 8.558242
_cell_length_c 12.151413
_cell_angle_alpha 90.000000
_cell_angle_beta 52.519122
_cell_angle_gamma 90.000000
_cell_volume 1679.731665
_symmetry_space_group_name_H-M "C M"
_symmetry_group_IT_number 8
_symmetry_cell_setting 'monoclinic'
loop_
_space_group_symop_operation_xyz
x,y,z
x,-y,z
1/2+x,1/2+y,z
1/2+x,1/2-y,z
loop_
_atom_site_type_symbol
_atom_site_label
_atom_site_fract_x
_atom_site_fract_y
_atom_site_fract_z
Si Si1 0.299460 0.816852 0.506890
Si Si2 0.040469 0.317750 0.798232
Si Si3 0.644595 0.819520 0.071707
Si Si4 0.179245 0.817634 0.810173
Si Si5 0.219398 0.181013 0.209472
Si Si6 0.651374 0.683205 0.509638
Si Si7 0.896174 0.181885 0.068477
Si Si8 0.958664 0.684428 0.227936
O O1 0.266791 0.772136 0.662231
O O2 0.234557 0.751649 0.483096
O O3 0.391385 0.752892 0.386196
O O4 0.303994 0.000000 0.488168
O O5 0.021613 0.500000 0.821234
O O6 0.105705 0.277078 0.827583
O O7 0.073245 0.270472 0.643671
O O8 0.954775 0.226421 0.906133
O O9 0.692381 0.784828 0.134716
O O10 0.548615 0.771974 0.183426
O O11 0.654068 0.000000 0.032636
O O12 0.686819 0.723102 0.930264
O O13 0.160143 0.000000 0.813017
O O14 0.157835 0.220118 0.373665
O O15 0.312604 0.218808 0.148871
O O16 0.213128 0.000000 0.184019
O O17 0.641196 0.500000 0.543201
O O18 0.945739 0.224002 0.128164
O O19 0.874239 0.000000 0.086985
O O20 0.950561 0.500000 0.212925
#
# Coordination Sequence:
#
# PCOD8053118 Si02
#       8
#     4   4   4   4   4   4   4   4
#     4   8  15  31  56  83 109 143 188 236 283 335
#     4  11  21  34  56  86 118 151 191 241 293 342
#     4  11  23  37  57  85 119 156 196 242 288 344
#     4  10  19  34  56  83 115 153 194 237 289 342
#     4  11  23  41  62  82 116 159 197 239 295 353
#     4   9  18  35  58  83 112 150 193 238 290 346
#     4  12  23  36  58  88 118 148 195 247 290 343
#     4  10  19  36  59  84 115 152 192 236 288 341
#
# _framework density 19.050663
#
# number of rings (size 3 to 8) (size 9 to 14) (size 15 to 20)
#    0.000    1.750    2.500    4.125    0.000    1.500 
#    0.000    1.875    0.000    4.500    0.000    0.000 
#    0.000    0.000    0.000    0.000    0.000    0.000 
#
# Total GULP energy -198399.709893 kJ/mol
# GULP energy per Si atom -12399.981868 kJ/mol
# Density = 1.900730 g / cm^3
# Si number density = 19.050663 Si / 1000 Ang^3
#
#
#
# Elastic Constant Matrix: (Units=GPa)
#
#
# Indices 1 2 3 4 5 6 
#
# 1 47.8729 11.4548 24.4592 0.0000 4.0433 0.0000
# 2 11.4548 50.7283 29.4004 0.0000 -0.9175 0.0000
# 3 24.4592 29.4004 136.0651 0.0000 -3.6421 0.0000
# 4 0.0000 0.0000 0.0000 28.6043 0.0000 1.3778
# 5 4.0433 -0.9175 -3.6421 0.0000 28.1202 0.0000
# 6 0.0000 0.0000 0.0000 1.3778 0.0000 25.3496
#
#
#
# Elastic Compliance Matrix: (Units=1/GPa)
#
#
# Indices 1 2 3 4 5 6 
#
# 1 0.023909 -0.003336 -0.003685 0.000000 -0.004024 0.000000
# 2 -0.003336 0.023001 -0.004352 0.000000 0.000666 0.000000
# 3 -0.003685 -0.004352 0.008994 0.000000 0.001553 0.000000
# 4 0.000000 0.000000 0.000000 0.035052 0.000000 -0.001905
# 5 -0.004024 0.000666 0.001553 0.000000 0.036363 0.000000
# 6 0.000000 0.000000 0.000000 -0.001905 0.000000 0.039552
#
#
# Mechanical properties :
#
#
# Convention : Reuss Voigt Hill
#
# Bulk Modulus (GPa) = 30.15920 40.58834 35.37377
# Shear Modulus (GPa) = 24.91660 27.70495 26.31078
#
# Velocity S-wave (km/s) = 3.62043 3.81764 3.72034
# Velocity P-wave (km/s) = 5.77426 6.38625 6.08795
#
# Compressibility (1/GPa) = 0.03315738
#
# Stress axis : x y z
#
# Youngs Moduli (GPa) = 41.82460 43.47692 111.18755
#
# Poissons Ratio (x) = 0.14504 0.40971
# Poissons Ratio (y) = 0.13953 0.48393
# Poissons Ratio (z) = 0.15412 0.18923
#
# Static dielectric constant tensor:
#      x y z
#    x 3.156460 0.000000 -0.197420 
#    y 0.000000 3.328110 0.000000 
#    z -0.197420 0.000000 3.922120 
# 
# 
# High freq. dielectric constant tensor:
#      x y z
#    x 1.702560 0.000000 -0.008620 
#    y 0.000000 1.733890 0.000000 
#    z -0.008620 0.000000 1.762090 
# 
# From -- ./inp_files/23870.got.cif
#   From: 2010.03.12/outbox.cif.g09.slc.cpg/sg8_12_cif.got.tgz:23870.got - 2010.03.31 10:45:26.
