data_PCOD8053449
_publ_section_title
;
Structure prediction by ZEFSAII (Michael W. Deem and Ramdas Pophale) SiO2 
 PCOD8053449
Probable space group: C M
;
_chemical_formula_sum "Si O2"
_cell_formula_units_Z 32
_cell_length_a 24.011073
_cell_length_b 9.155668
_cell_length_c 14.168220
_cell_angle_alpha 90.000000
_cell_angle_beta 149.044856
_cell_angle_gamma 90.000000
_cell_volume 1602.100923
_symmetry_space_group_name_H-M "C M"
_symmetry_group_IT_number 8
_symmetry_cell_setting 'monoclinic'
loop_
_space_group_symop_operation_xyz
x,y,z
x,-y,z
1/2+x,1/2+y,z
1/2+x,1/2-y,z
loop_
_atom_site_type_symbol
_atom_site_label
_atom_site_fract_x
_atom_site_fract_y
_atom_site_fract_z
Si Si1 0.113660 0.838318 0.825820
Si Si2 0.312020 0.671522 0.579273
Si Si3 0.230598 0.828774 0.816053
Si Si4 0.349573 0.163613 0.258756
Si Si5 0.921699 0.167852 0.190882
Si Si6 0.754456 0.169708 0.283909
Si Si7 0.666077 0.333867 0.512074
Si Si8 0.525890 0.829308 0.862873
O O1 0.130678 0.788676 0.741710
O O2 0.037264 0.726994 0.771355
O O3 0.060736 0.000000 0.755331
O O4 0.231502 0.840129 0.042462
O O5 0.328167 0.500000 0.614242
O O6 0.270287 0.714592 0.414968
O O7 0.223029 0.724808 0.523428
O O8 0.425566 0.749598 0.766839
O O9 0.195759 0.786145 0.660980
O O10 0.257299 0.000000 0.866410
O O11 0.337723 0.739164 0.996591
O O12 0.426243 0.252492 0.298956
O O13 0.342783 0.243310 0.350161
O O14 0.395202 0.000000 0.339033
O O15 0.038095 0.181067 0.311112
O O16 0.889421 0.000000 0.161981
O O17 0.775619 0.000000 0.296442
O O18 0.631984 0.211301 0.077297
O O19 0.703999 0.500000 0.548135
O O20 0.502968 0.000000 0.827122
#
# Coordination Sequence:
#
# PCOD8053449 Si02
#       8
#     4   4   4   4   4   4   4   4
#     4   8  15  30  53  82 112 141 175 215 265 325
#     4  11  24  40  57  79 108 144 187 231 274 324
#     4   9  19  37  59  81 110 148 183 220 271 327
#     4   9  17  31  55  86 115 143 178 221 270 325
#     4  10  20  35  57  85 115 145 179 224 275 324
#     4   9  20  38  58  81 111 146 181 221 273 329
#     4  10  23  41  57  77 108 146 188 230 272 322
#     4  10  20  36  58  83 111 143 179 222 272 324
#
# _framework density 19.973773000000001
#
# number of rings (size 3 to 8) (size 9 to 14) (size 15 to 20)
#    0.000    2.500    0.000    2.250    0.000    8.000 
#    0.000    6.250    0.000    0.000    0.000    0.000 
#    0.000    0.000    0.000    0.000    0.000    0.000 
#
# Total GULP energy -198425.027730 kJ/mol
# GULP energy per Si atom -12401.564233 kJ/mol
# Density = 1.992831 g / cm^3
# Si number density = 19.973773 Si / 1000 Ang^3
#
#
#
# Elastic Constant Matrix: (Units=GPa)
#
#
# Indices 1 2 3 4 5 6 
#
# 1 86.1942 31.5027 12.5178 0.0000 0.5058 0.0000
# 2 31.5027 82.8939 20.5594 0.0000 3.7642 0.0000
# 3 12.5178 20.5594 46.7835 0.0000 0.7506 0.0000
# 4 0.0000 0.0000 0.0000 24.0405 0.0000 3.9965
# 5 0.5058 3.7642 0.7506 0.0000 29.4354 0.0000
# 6 0.0000 0.0000 0.0000 3.9965 0.0000 41.0529
#
#
#
# Elastic Compliance Matrix: (Units=1/GPa)
#
#
# Indices 1 2 3 4 5 6 
#
# 1 0.013575 -0.004799 -0.001530 0.000000 0.000419 0.000000
# 2 -0.004799 0.015309 -0.005416 0.000000 -0.001737 0.000000
# 3 -0.001530 -0.005416 0.024163 0.000000 0.000103 0.000000
# 4 0.000000 0.000000 0.000000 0.042281 0.000000 -0.004116
# 5 0.000419 -0.001737 0.000103 0.000000 0.034185 0.000000
# 6 0.000000 0.000000 0.000000 -0.004116 0.000000 0.024760
#
#
# Mechanical properties :
#
#
# Convention : Reuss Voigt Hill
#
# Bulk Modulus (GPa) = 33.83191 38.33683 36.08437
# Shear Modulus (GPa) = 26.65027 28.99189 27.82108
#
# Velocity S-wave (km/s) = 3.65672 3.81399 3.73618
# Velocity P-wave (km/s) = 5.89947 6.21535 6.05947
#
# Compressibility (1/GPa) = 0.02955790
#
# Stress axis : x y z
#
# Youngs Moduli (GPa) = 73.66316 65.31917 41.38561
#
# Poissons Ratio (x) = 0.31344 0.06333
# Poissons Ratio (y) = 0.35348 0.22415
# Poissons Ratio (z) = 0.11272 0.35377
#
# Static dielectric constant tensor:
#      x y z
#    x 3.689510 0.000000 -0.042080 
#    y 0.000000 3.693450 0.000000 
#    z -0.042080 0.000000 3.475380 
# 
# 
# High freq. dielectric constant tensor:
#      x y z
#    x 1.776870 0.000000 0.000420 
#    y 0.000000 1.781560 0.000000 
#    z 0.000420 0.000000 1.771990 
# 
# From -- ./inp_files/26525.got.cif
#   From: 2010.03.12/outbox.cif.g09.slc.cpg/sg8_14_cif.got.tgz:26525.got - 2010.03.31 10:45:26.
