data_PCOD8053315
_publ_section_title
;
Structure prediction by ZEFSAII (Michael W. Deem and Ramdas Pophale) SiO2 
 PCOD8053315
Probable space group: C M
;
_chemical_formula_sum "Si O2"
_cell_formula_units_Z 32
_cell_length_a 14.052729
_cell_length_b 9.420824
_cell_length_c 19.522094
_cell_angle_alpha 90.000000
_cell_angle_beta 134.452594
_cell_angle_gamma 90.000000
_cell_volume 1844.891529
_symmetry_space_group_name_H-M "C M"
_symmetry_group_IT_number 8
_symmetry_cell_setting 'monoclinic'
loop_
_space_group_symop_operation_xyz
x,y,z
x,-y,z
1/2+x,1/2+y,z
1/2+x,1/2-y,z
loop_
_atom_site_type_symbol
_atom_site_label
_atom_site_fract_x
_atom_site_fract_y
_atom_site_fract_z
Si Si1 0.754760 0.839657 0.642020
Si Si2 0.253864 0.663997 0.482624
Si Si3 0.726723 0.334591 0.121421
Si Si4 0.720376 0.335003 0.960346
Si Si5 0.445495 0.836335 0.483063
Si Si6 0.467560 0.164014 0.993081
Si Si7 0.457892 0.831268 0.336858
Si Si8 0.459348 0.165397 0.830226
O O1 0.786961 0.814053 0.578888
O O2 0.599807 0.814884 0.579104
O O3 0.834653 0.726784 0.726804
O O4 0.795554 0.000000 0.683381
O O5 0.264650 0.500000 0.467438
O O6 0.360260 0.749167 0.493338
O O7 0.105464 0.723969 0.391510
O O8 0.703041 0.500000 0.123459
O O9 0.851732 0.276042 0.227870
O O10 0.758063 0.303825 0.057981
O O11 0.595619 0.253354 0.080588
O O12 0.686590 0.500000 0.931533
O O13 0.843569 0.285213 0.976141
O O14 0.593311 0.243929 0.873447
O O15 0.416759 0.778162 0.391862
O O16 0.404337 0.000000 0.468304
O O17 0.432137 0.193031 0.896431
O O18 0.500615 0.000000 0.023221
O O19 0.466136 0.000000 0.343505
O O20 0.474840 0.000000 0.821346
#
# Coordination Sequence:
#
# PCOD8053315 Si02
#       8
#     4   4   4   4   4   4   4   4
#     4   9  19  35  51  68  96 131 160 191 238 291
#     4   9  18  33  52  72  96 127 161 197 236 281
#     4   9  17  31  52  73  94 127 167 198 228 279
#     4   9  18  33  51  70  96 130 162 193 236 288
#     4   9  18  33  51  71  98 129 159 195 238 283
#     4   9  19  34  49  70 100 127 155 198 246 283
#     4   8  16  32  50  70  99 131 160 192 236 286
#     4  10  20  33  50  72  97 124 158 202 242 279
#
# _framework density 17.345193999999999
#
# number of rings (size 3 to 8) (size 9 to 14) (size 15 to 20)
#    0.000    3.000    0.000    1.875    0.000    4.000 
#    0.000    8.125    0.000    0.000    0.000    0.000 
#    0.000    0.000    0.000    0.000    0.000    0.000 
#
# Total GULP energy -198402.022699 kJ/mol
# GULP energy per Si atom -12400.126419 kJ/mol
# Density = 1.730572 g / cm^3
# Si number density = 17.345194 Si / 1000 Ang^3
#
#
#
# Elastic Constant Matrix: (Units=GPa)
#
#
# Indices 1 2 3 4 5 6 
#
# 1 142.5470 56.3073 47.8757 0.0000 13.3775 0.0000
# 2 56.3073 67.4093 51.1073 0.0000 6.9223 0.0000
# 3 47.8757 51.1073 114.2632 0.0000 8.2504 0.0000
# 4 0.0000 0.0000 0.0000 25.8793 0.0000 3.8315
# 5 13.3775 6.9223 8.2504 0.0000 12.3873 0.0000
# 6 0.0000 0.0000 0.0000 3.8315 0.0000 30.5515
#
#
#
# Elastic Compliance Matrix: (Units=1/GPa)
#
#
# Indices 1 2 3 4 5 6 
#
# 1 0.011058 -0.008148 -0.000478 0.000000 -0.007070 0.000000
# 2 -0.008148 0.028906 -0.009438 0.000000 -0.001068 0.000000
# 3 -0.000478 -0.009438 0.013400 0.000000 -0.003134 0.000000
# 4 0.000000 0.000000 0.000000 0.039372 0.000000 -0.004938
# 5 -0.007070 -0.001068 -0.003134 0.000000 0.091047 0.000000
# 6 0.000000 0.000000 0.000000 -0.004938 0.000000 0.033351
#
#
# Mechanical properties :
#
#
# Convention : Reuss Voigt Hill
#
# Bulk Modulus (GPa) = 58.02071 70.53334 64.27703
# Shear Modulus (GPa) = 19.30449 25.02557 22.16503
#
# Velocity S-wave (km/s) = 3.33972 3.80254 3.57862
# Velocity P-wave (km/s) = 6.95664 7.74802 7.36297
#
# Compressibility (1/GPa) = 0.01723522
#
# Stress axis : x y z
#
# Youngs Moduli (GPa) = 90.43289 34.59486 74.62824
#
# Poissons Ratio (x) = 0.28188 0.03569
# Poissons Ratio (y) = 0.73686 0.70433
# Poissons Ratio (z) = 0.04325 0.32650
#
# Static dielectric constant tensor:
#      x y z
#    x 3.212330 0.000000 0.021790 
#    y 0.000000 3.080980 0.000000 
#    z 0.021790 0.000000 3.305460 
# 
# 
# High freq. dielectric constant tensor:
#      x y z
#    x 1.672000 0.000000 0.002410 
#    y 0.000000 1.656010 0.000000 
#    z 0.002410 0.000000 1.671950 
# 
# From -- ./inp_files/25855.got.cif
#   From: 2010.03.12/outbox.cif.g09.slc.cpg/sg8_13_cif.got.tgz:25855.got - 2010.03.31 10:45:26.
