data_PCOD8053690
_publ_section_title
;
Structure prediction by ZEFSAII (Michael W. Deem and Ramdas Pophale) SiO2 
 PCOD8053690
Probable space group: C M
;
_chemical_formula_sum "Si O2"
_cell_formula_units_Z 32
_cell_length_a 11.822182
_cell_length_b 18.418625
_cell_length_c 8.934000
_cell_angle_alpha 90.000000
_cell_angle_beta 51.083780
_cell_angle_gamma 90.000000
_cell_volume 1513.620035
_symmetry_space_group_name_H-M "C M"
_symmetry_group_IT_number 8
_symmetry_cell_setting 'monoclinic'
loop_
_space_group_symop_operation_xyz
x,y,z
x,-y,z
1/2+x,1/2+y,z
1/2+x,1/2-y,z
loop_
_atom_site_type_symbol
_atom_site_label
_atom_site_fract_x
_atom_site_fract_y
_atom_site_fract_z
Si Si1 0.146910 0.800444 0.838670
Si Si2 0.078145 0.417942 0.341353
Si Si3 0.791446 0.165903 0.553777
Si Si4 0.256097 0.167633 0.062865
Si Si5 0.518832 0.081174 0.730912
Si Si6 0.564788 0.415926 0.419842
Si Si7 0.320310 0.303058 0.185122
Si Si8 0.268697 0.083734 0.527871
O O1 0.210063 0.733027 0.695320
O O2 0.194084 0.791343 0.970441
O O3 0.214061 0.873668 0.717878
O O4 0.973132 0.807636 0.971733
O O5 0.135734 0.500000 0.266686
O O6 0.005328 0.409722 0.564645
O O7 0.213248 0.364362 0.205432
O O8 0.940034 0.399240 0.348196
O O9 0.684228 0.097603 0.637891
O O10 0.840592 0.188750 0.345983
O O11 0.927207 0.138365 0.539286
O O12 0.416661 0.138008 0.899581
O O13 0.152715 0.100305 0.194010
O O14 0.253833 0.224497 0.202298
O O15 0.479991 0.000000 0.815217
O O16 0.516149 0.500000 0.461273
O O17 0.670121 0.395894 0.468848
O O18 0.253253 0.000000 0.584121
#
# Coordination Sequence:
#
# PCOD8053690 Si02
#       8
#     4   4   4   4   4   4   4   4
#     4  12  25  42  66  99 134 176 219 275 332 402
#     4   9  20  41  69  95 126 171 219 270 330 390
#     4  11  24  44  67  96 135 176 217 277 331 394
#     4  12  24  40  65  98 133 171 222 274 331 397
#     4  10  20  40  66  92 124 168 220 269 320 383
#     4  11  25  43  67  99 137 179 222 276 335 394
#     4  11  25  43  66 102 131 173 223 277 337 394
#     4  10  23  43  68  97 134 180 222 272 338 398
#
# _framework density 21.141369999999998
#
# number of rings (size 3 to 8) (size 9 to 14) (size 15 to 20)
#    0.000    1.250    3.750    1.500    3.500    2.500 
#    0.000    0.000    0.000    0.000    0.000    0.000 
#    0.000    0.000    0.000    0.000    0.000    0.000 
#
# Total GULP energy -198413.078650 kJ/mol
# GULP energy per Si atom -12400.817416 kJ/mol
# Density = 2.109325 g / cm^3
# Si number density = 21.141370 Si / 1000 Ang^3
#
#
#
# Elastic Constant Matrix: (Units=GPa)
#
#
# Indices 1 2 3 4 5 6 
#
# 1 143.0506 62.6478 41.7243 0.0000 -20.9559 0.0000
# 2 62.6478 123.4516 52.5055 0.0000 -14.8803 0.0000
# 3 41.7243 52.5055 80.9673 0.0000 -25.6947 0.0000
# 4 0.0000 0.0000 0.0000 30.3937 0.0000 -2.3976
# 5 -20.9559 -14.8803 -25.6947 0.0000 33.0355 0.0000
# 6 0.0000 0.0000 0.0000 -2.3976 0.0000 33.4770
#
#
#
# Elastic Compliance Matrix: (Units=1/GPa)
#
#
# Indices 1 2 3 4 5 6 
#
# 1 0.009567 -0.003873 -0.001389 0.000000 0.003244 0.000000
# 2 -0.003873 0.012769 -0.006956 0.000000 -0.002116 0.000000
# 3 -0.001389 -0.006956 0.021646 0.000000 0.012822 0.000000
# 4 0.000000 0.000000 0.000000 0.033088 0.000000 0.002370
# 5 0.003244 -0.002116 0.012822 0.000000 0.041348 0.000000
# 6 0.000000 0.000000 0.000000 0.002370 0.000000 0.030041
#
#
# Mechanical properties :
#
#
# Convention : Reuss Voigt Hill
#
# Bulk Modulus (GPa) = 51.16093 73.46940 62.31516
# Shear Modulus (GPa) = 27.86876 32.08736 29.97806
#
# Velocity S-wave (km/s) = 3.63465 3.90006 3.76969
# Velocity P-wave (km/s) = 6.47041 7.42345 6.96325
#
# Compressibility (1/GPa) = 0.01954616
#
# Stress axis : x y z
#
# Youngs Moduli (GPa) = 104.52449 78.31225 46.19727
#
# Poissons Ratio (x) = 0.30332 0.06417
# Poissons Ratio (y) = 0.40485 0.32135
# Poissons Ratio (z) = 0.14519 0.54474
#
# Static dielectric constant tensor:
#      x y z
#    x 3.969550 0.000000 -0.106210 
#    y 0.000000 3.803410 0.000000 
#    z -0.106210 0.000000 3.634450 
# 
# 
# High freq. dielectric constant tensor:
#      x y z
#    x 1.841270 0.000000 -0.012240 
#    y 0.000000 1.836260 0.000000 
#    z -0.012240 0.000000 1.814860 
# 
# From -- ./inp_files/11457.got.cif
#   From: 2010.03.12/outbox.cif.g09.slc.cpg/sg8_6_cif.got.tgz:11457.got - 2010.03.31 10:45:26.
