data_PCOD8053633
_publ_section_title
;
Structure prediction by ZEFSAII (Michael W. Deem and Ramdas Pophale) SiO2 
 PCOD8053633
Probable space group: C M
;
_chemical_formula_sum "Si O2"
_cell_formula_units_Z 32
_cell_length_a 12.373193
_cell_length_b 19.031401
_cell_length_c 8.499291
_cell_angle_alpha 90.000000
_cell_angle_beta 130.108754
_cell_angle_gamma 90.000000
_cell_volume 1530.721471
_symmetry_space_group_name_H-M "C M"
_symmetry_group_IT_number 8
_symmetry_cell_setting 'monoclinic'
loop_
_space_group_symop_operation_xyz
x,y,z
x,-y,z
1/2+x,1/2+y,z
1/2+x,1/2-y,z
loop_
_atom_site_type_symbol
_atom_site_label
_atom_site_fract_x
_atom_site_fract_y
_atom_site_fract_z
Si Si1 0.177010 0.267494 0.025840
Si Si2 0.656253 0.290214 0.493380
Si Si3 0.051863 0.144092 0.700922
Si Si4 0.301277 0.921913 0.070663
Si Si5 0.766694 0.081964 0.540324
Si Si6 0.346801 0.166478 0.397538
Si Si7 0.685897 0.832455 0.731238
Si Si8 0.031898 0.326296 0.171756
O O1 0.296748 0.235121 0.251293
O O2 0.065569 0.312565 0.022197
O O3 0.088599 0.211480 0.841734
O O4 0.245513 0.322096 0.963777
O O5 0.575956 0.342769 0.537192
O O6 0.766815 0.334002 0.489900
O O7 0.741133 0.232344 0.675351
O O8 0.545666 0.247001 0.280013
O O9 0.889764 0.124804 0.570948
O O10 0.143150 0.078657 0.852567
O O11 0.304054 0.903166 0.259213
O O12 0.375542 0.858546 0.042075
O O13 0.365270 0.000000 0.107884
O O14 0.753082 0.097582 0.716128
O O15 0.624287 0.110658 0.330035
O O16 0.784628 0.000000 0.528388
O O17 0.514611 0.168382 0.574499
#
# Coordination Sequence:
#
# PCOD8053633 Si02
#       8
#     4   4   4   4   4   4   4   4
#     4   9  22  36  60  95 121 143 199 248 318 343
#     4   9  20  36  60  89 121 141 198 240 314 342
#     4  10  23  37  64  88 120 157 193 258 294 359
#     4  11  22  40  57  85 122 163 206 237 290 358
#     4  11  23  42  60  83 121 169 205 235 295 363
#     4  10  20  38  60  92 119 158 191 257 295 357
#     4  10  21  36  64  87 123 154 196 249 302 358
#     4  10  21  35  65  89 121 155 190 256 298 356
#
# _framework density 20.905173999999999
#
# number of rings (size 3 to 8) (size 9 to 14) (size 15 to 20)
#    0.000    2.000    2.500    0.750   12.250    2.000 
#    2.250    2.500    0.000    0.000    0.000    0.000 
#    0.000    0.000    0.000    0.000    0.000    0.000 
#
# Total GULP energy -198299.924268 kJ/mol
# GULP energy per Si atom -12393.745267 kJ/mol
# Density = 2.085759 g / cm^3
# Si number density = 20.905174 Si / 1000 Ang^3
#
#
#
# Elastic Constant Matrix: (Units=GPa)
#
#
# Indices 1 2 3 4 5 6 
#
# 1 133.5738 41.8866 22.6176 0.0000 -27.8858 0.0000
# 2 41.8866 84.9479 11.0346 0.0000 -12.4684 0.0000
# 3 22.6176 11.0346 42.9064 0.0000 -18.7705 0.0000
# 4 0.0000 0.0000 0.0000 11.7131 0.0000 3.1230
# 5 -27.8858 -12.4684 -18.7705 0.0000 40.4230 0.0000
# 6 0.0000 0.0000 0.0000 3.1230 0.0000 26.7690
#
#
#
# Elastic Compliance Matrix: (Units=1/GPa)
#
#
# Indices 1 2 3 4 5 6 
#
# 1 0.010100 -0.004000 -0.002243 0.000000 0.004692 0.000000
# 2 -0.004000 0.014038 -0.001022 0.000000 0.001096 0.000000
# 3 -0.002243 -0.001022 0.030039 0.000000 0.012086 0.000000
# 4 0.000000 0.000000 0.000000 0.088116 0.000000 -0.010280
# 5 0.004692 0.001096 0.012086 0.000000 0.033926 0.000000
# 6 0.000000 0.000000 0.000000 -0.010280 0.000000 0.038556
#
#
# Mechanical properties :
#
#
# Convention : Reuss Voigt Hill
#
# Bulk Modulus (GPa) = 25.22248 45.83398 35.52823
# Shear Modulus (GPa) = 20.61680 28.17362 24.39521
#
# Velocity S-wave (km/s) = 3.14380 3.67507 3.41977
# Velocity P-wave (km/s) = 5.02686 6.32301 5.71182
#
# Compressibility (1/GPa) = 0.03964717
#
# Stress axis : x y z
#
# Youngs Moduli (GPa) = 99.00723 71.23517 33.28993
#
# Poissons Ratio (x) = 0.28496 0.07466
# Poissons Ratio (y) = 0.39605 0.03403
# Poissons Ratio (z) = 0.22204 0.07282
#
# Static dielectric constant tensor:
#      x y z
#    x 4.046860 0.000000 -0.285380 
#    y 0.000000 3.498930 0.000000 
#    z -0.285380 0.000000 3.769180 
# 
# 
# High freq. dielectric constant tensor:
#      x y z
#    x 1.834150 0.000000 -0.004690 
#    y 0.000000 1.782140 0.000000 
#    z -0.004690 0.000000 1.809070 
# 
# From -- ./inp_files/11464.got.cif
#   From: 2010.03.12/outbox.cif.g09.slc.cpg/sg8_6_cif.got.tgz:11464.got - 2010.03.31 10:45:26.
