data_PCOD8053981
_publ_section_title
;
Structure prediction by ZEFSAII (Michael W. Deem and Ramdas Pophale) SiO2 
 PCOD8053981
Probable space group: C M
;
_chemical_formula_sum "Si O2"
_cell_formula_units_Z 28
_cell_length_a 8.949093
_cell_length_b 29.908137
_cell_length_c 6.812497
_cell_angle_alpha 90.000000
_cell_angle_beta 49.913123
_cell_angle_gamma 90.000000
_cell_volume 1395.003384
_symmetry_space_group_name_H-M "C M"
_symmetry_group_IT_number 8
_symmetry_cell_setting 'monoclinic'
loop_
_space_group_symop_operation_xyz
x,y,z
x,-y,z
1/2+x,1/2+y,z
1/2+x,1/2-y,z
loop_
_atom_site_type_symbol
_atom_site_label
_atom_site_fract_x
_atom_site_fract_y
_atom_site_fract_z
Si Si1 0.915210 0.689565 0.193580
Si Si2 0.881226 0.597793 0.406425
Si Si3 0.968798 0.551869 0.930176
Si Si4 0.121066 0.947394 0.933321
Si Si5 0.057205 0.751621 0.406973
Si Si6 0.232794 0.598668 0.411154
Si Si7 0.199527 0.310097 0.619286
O O1 0.823665 0.647901 0.389037
O O2 0.746326 0.717283 0.229609
O O3 0.042778 0.721127 0.226491
O O4 0.056125 0.670054 0.906088
O O5 0.694327 0.576219 0.671738
O O6 0.065367 0.599643 0.391846
O O7 0.941584 0.567351 0.174155
O O8 0.014981 0.500000 0.890281
O O9 0.156681 0.574527 0.671491
O O10 0.771807 0.563133 0.979235
O O11 0.099150 0.000000 0.911830
O O12 0.915168 0.927117 0.167939
O O13 0.070672 0.721588 0.589216
O O14 0.867321 0.782431 0.585532
O O15 0.292733 0.649328 0.416180
#
# Coordination Sequence:
#
# PCOD8053981 Si02
#       7
#     4   4   4   4   4   4   4
#     4  11  22  42  63  92 125 162 208 251 307 363
#     4  11  23  40  65  93 128 162 204 257 308 368
#     4  10  22  42  65  89 121 163 204 256 317 369
#     4  10  24  43  63  92 126 164 207 253 312 371
#     4  10  24  40  61  91 125 164 201 257 306 364
#     4  11  23  40  65  93 127 161 207 258 304 369
#     4  11  22  41  62  92 124 162 209 250 308 362
#
# _framework density 20.071635000000001
#
# number of rings (size 3 to 8) (size 9 to 14) (size 15 to 20)
#    0.000    1.429    2.857    1.714    2.000    4.000 
#   10.286    0.000    0.000    0.000    0.000    0.000 
#    0.000    0.000    0.000    0.000    0.000    0.000 
#
# Total GULP energy -173662.060171 kJ/mol
# GULP energy per Si atom -12404.432869 kJ/mol
# Density = 2.002595 g / cm^3
# Si number density = 20.071635 Si / 1000 Ang^3
#
#
#
# Elastic Constant Matrix: (Units=GPa)
#
#
# Indices 1 2 3 4 5 6 
#
# 1 82.1780 45.9749 39.3003 0.0000 -2.2935 0.0000
# 2 45.9749 117.3202 50.6087 0.0000 -7.7201 0.0000
# 3 39.3003 50.6087 132.9352 0.0000 -8.6171 0.0000
# 4 0.0000 0.0000 0.0000 39.3607 0.0000 -5.4365
# 5 -2.2935 -7.7201 -8.6171 0.0000 28.8449 0.0000
# 6 0.0000 0.0000 0.0000 -5.4365 0.0000 9.1128
#
#
#
# Elastic Compliance Matrix: (Units=1/GPa)
#
#
# Indices 1 2 3 4 5 6 
#
# 1 0.016487 -0.005259 -0.002935 0.000000 -0.000973 0.000000
# 2 -0.005259 0.011949 -0.002870 0.000000 0.001923 0.000000
# 3 -0.002935 -0.002870 0.009604 0.000000 0.001868 0.000000
# 4 0.000000 0.000000 0.000000 0.027687 0.000000 0.016518
# 5 -0.000973 0.001923 0.001868 0.000000 0.035663 0.000000
# 6 0.000000 0.000000 0.000000 0.016518 0.000000 0.119590
#
#
# Mechanical properties :
#
#
# Convention : Reuss Voigt Hill
#
# Bulk Modulus (GPa) = 62.84375 67.13348 64.98861
# Shear Modulus (GPa) = 20.12784 28.56698 24.34741
#
# Velocity S-wave (km/s) = 3.17014 3.77669 3.48663
# Velocity P-wave (km/s) = 6.69159 7.24827 6.97549
#
# Compressibility (1/GPa) = 0.01591248
#
# Stress axis : x y z
#
# Youngs Moduli (GPa) = 60.65238 83.68970 104.12573
#
# Poissons Ratio (x) = 0.44011 0.30564
# Poissons Ratio (y) = 0.31896 0.29880
# Poissons Ratio (z) = 0.17803 0.24016
#
# Static dielectric constant tensor:
#      x y z
#    x 3.656080 0.000000 0.113260 
#    y 0.000000 3.818800 0.000000 
#    z 0.113260 0.000000 3.611050 
# 
# 
# High freq. dielectric constant tensor:
#      x y z
#    x 1.781820 0.000000 0.008540 
#    y 0.000000 1.801380 0.000000 
#    z 0.008540 0.000000 1.787020 
# 
# From -- ./inp_files/1832.got.cif
#   From: 2010.03.12/outbox.cif.g09.slc.cpg/sg8_1_cif.got.tgz:1832.got - 2010.03.31 10:45:26.
