data_PCOD8053176
_publ_section_title
;
Structure prediction by ZEFSAII (Michael W. Deem and Ramdas Pophale) SiO2 
 PCOD8053176
Probable space group: C M
;
_chemical_formula_sum "Si O2"
_cell_formula_units_Z 32
_cell_length_a 14.149752
_cell_length_b 8.564891
_cell_length_c 15.653659
_cell_angle_alpha 90.000000
_cell_angle_beta 63.477760
_cell_angle_gamma 90.000000
_cell_volume 1697.436869
_symmetry_space_group_name_H-M "C M"
_symmetry_group_IT_number 8
_symmetry_cell_setting 'monoclinic'
loop_
_space_group_symop_operation_xyz
x,y,z
x,-y,z
1/2+x,1/2+y,z
1/2+x,1/2-y,z
loop_
_atom_site_type_symbol
_atom_site_label
_atom_site_fract_x
_atom_site_fract_y
_atom_site_fract_z
Si Si1 0.500000 0.179737 0.768690
Si Si2 0.949770 0.182764 0.265306
Si Si3 0.240074 0.684507 0.263308
Si Si4 0.923942 0.679543 0.612383
Si Si5 0.701012 0.318928 0.773750
Si Si6 0.533544 0.682579 0.408870
Si Si7 0.783630 0.819548 0.906234
Si Si8 0.175535 0.182018 0.111658
O O1 0.488504 0.213191 0.672800
O O2 0.594743 0.283688 0.765795
O O3 0.391364 0.221154 0.859917
O O4 0.526146 0.000000 0.776110
O O5 0.845383 0.254350 0.264887
O O6 0.965643 0.245702 0.355510
O O7 0.051466 0.224101 0.166746
O O8 0.933019 0.000000 0.277660
O O9 0.245937 0.500000 0.243875
O O10 0.143665 0.723844 0.365835
O O11 0.230175 0.775342 0.178597
O O12 0.935735 0.500000 0.579915
O O13 0.801427 0.725046 0.674604
O O14 0.969692 0.789523 0.520938
O O15 0.706011 0.500000 0.796507
O O16 0.705361 0.223648 0.860218
O O17 0.558666 0.500000 0.388079
O O18 0.813787 0.000000 0.888659
O O19 0.724783 0.785837 0.017839
O O20 0.193306 0.000000 0.084929
#
# Coordination Sequence:
#
# PCOD8053176 Si02
#       8
#     4   4   4   4   4   4   4   4
#     4  10  21  38  58  81 110 145 185 229 277 327
#     4   8  18  35  54  75 103 139 175 214 263 319
#     4  10  19  35  56  78 105 139 180 223 270 324
#     4   9  20  37  55  78 109 143 179 222 271 323
#     4  10  21  38  58  82 112 144 181 228 279 329
#     4  10  20  35  54  78 107 141 179 220 270 323
#     4  11  22  37  57  82 111 146 186 225 273 329
#     4  10  20  37  56  78 109 141 177 223 273 324
#
# _framework density 18.851953000000002
#
# number of rings (size 3 to 8) (size 9 to 14) (size 15 to 20)
#    0.000    2.250    0.000    4.500    0.000    5.000 
#    0.000   15.000    0.000    0.000    0.000    0.000 
#    0.000    0.000    0.000    0.000    0.000    0.000 
#
# Total GULP energy -198437.336449 kJ/mol
# GULP energy per Si atom -12402.333528 kJ/mol
# Density = 1.880904 g / cm^3
# Si number density = 18.851953 Si / 1000 Ang^3
#
#
#
# Elastic Constant Matrix: (Units=GPa)
#
#
# Indices 1 2 3 4 5 6 
#
# 1 138.4621 15.6538 41.2052 0.0000 -4.7155 0.0000
# 2 15.6538 50.6838 21.3777 0.0000 0.8852 0.0000
# 3 41.2052 21.3777 106.1994 0.0000 -3.4211 0.0000
# 4 0.0000 0.0000 0.0000 33.2314 0.0000 -0.2505
# 5 -4.7155 0.8852 -3.4211 0.0000 13.1346 0.0000
# 6 0.0000 0.0000 0.0000 -0.2505 0.0000 29.2519
#
#
#
# Elastic Compliance Matrix: (Units=1/GPa)
#
#
# Indices 1 2 3 4 5 6 
#
# 1 0.008313 -0.001398 -0.002869 0.000000 0.002332 0.000000
# 2 -0.001398 0.021885 -0.003960 0.000000 -0.003008 0.000000
# 3 -0.002869 -0.003960 0.011398 0.000000 0.002206 0.000000
# 4 0.000000 0.000000 0.000000 0.030094 0.000000 0.000258
# 5 0.002332 -0.003008 0.002206 0.000000 0.077749 0.000000
# 6 0.000000 0.000000 0.000000 0.000258 0.000000 0.034188
#
#
# Mechanical properties :
#
#
# Convention : Reuss Voigt Hill
#
# Bulk Modulus (GPa) = 39.77452 50.20206 44.98829
# Shear Modulus (GPa) = 23.98529 29.59750 26.79139
#
# Velocity S-wave (km/s) = 3.57080 3.96662 3.77390
# Velocity P-wave (km/s) = 6.17616 6.90407 6.55023
#
# Compressibility (1/GPa) = 0.02514173
#
# Stress axis : x y z
#
# Youngs Moduli (GPa) = 120.28656 45.69398 87.73796
#
# Poissons Ratio (x) = 0.06389 0.25172
# Poissons Ratio (y) = 0.16819 0.34742
# Poissons Ratio (z) = 0.34511 0.18094
#
# Static dielectric constant tensor:
#      x y z
#    x 3.658290 0.000000 0.008820 
#    y 0.000000 3.360990 0.000000 
#    z 0.008820 0.000000 3.365800 
# 
# 
# High freq. dielectric constant tensor:
#      x y z
#    x 1.735500 0.000000 -0.000750 
#    y 0.000000 1.731750 0.000000 
#    z -0.000750 0.000000 1.731340 
# 
# From -- ./inp_files/26515.got.cif
#   From: 2010.03.12/outbox.cif.g09.slc.cpg/sg8_14_cif.got.tgz:26515.got - 2010.03.31 10:45:26.
