data_PCOD8053350
_publ_section_title
;
Structure prediction by ZEFSAII (Michael W. Deem and Ramdas Pophale) SiO2 
 PCOD8053350
Probable space group: C M
;
_chemical_formula_sum "Si O2"
_cell_formula_units_Z 32
_cell_length_a 25.161938
_cell_length_b 8.955789
_cell_length_c 16.602613
_cell_angle_alpha 90.000000
_cell_angle_beta 153.629679
_cell_angle_gamma 90.000000
_cell_volume 1661.784587
_symmetry_space_group_name_H-M "C M"
_symmetry_group_IT_number 8
_symmetry_cell_setting 'monoclinic'
loop_
_space_group_symop_operation_xyz
x,y,z
x,-y,z
1/2+x,1/2+y,z
1/2+x,1/2-y,z
loop_
_atom_site_type_symbol
_atom_site_label
_atom_site_fract_x
_atom_site_fract_y
_atom_site_fract_z
Si Si1 0.922140 0.322685 0.922350
Si Si2 0.972540 0.167136 0.419483
Si Si3 0.287252 0.331321 0.027112
Si Si4 0.971922 0.676509 0.169336
Si Si5 0.606465 0.822302 0.040325
Si Si6 0.857365 0.326737 0.405247
Si Si7 0.555135 0.174932 0.794087
Si Si8 0.154462 0.176753 0.533061
O O1 0.917674 0.500000 0.914835
O O2 0.789532 0.262563 0.721587
O O3 0.965820 0.267489 0.068952
O O4 0.013613 0.259174 0.980101
O O5 0.858393 0.168809 0.207031
O O6 0.949615 0.282111 0.460220
O O7 0.089047 0.220187 0.527841
O O8 0.991243 0.000000 0.479619
O O9 0.280730 0.500000 0.983517
O O10 0.349521 0.226665 0.046036
O O11 0.157039 0.262236 0.871703
O O12 0.982110 0.500000 0.189466
O O13 0.089047 0.747875 0.368575
O O14 0.738418 0.769895 0.242246
O O15 0.605752 0.000000 0.039761
O O16 0.566378 0.756612 0.899035
O O17 0.824984 0.500000 0.352364
O O18 0.923782 0.292735 0.580135
O O19 0.580779 0.000000 0.835350
O O20 0.145917 0.000000 0.507998
#
# Coordination Sequence:
#
# PCOD8053350 Si02
#       8
#     4   4   4   4   4   4   4   4
#     4   9  20  37  60  82 105 145 192 226 261 323
#     4   9  17  32  56  79 109 147 183 217 263 329
#     4   9  17  34  56  78 108 148 186 217 261 330
#     4  10  20  34  53  85 116 139 174 229 282 316
#     4  10  20  41  62  75 104 152 192 221 263 325
#     4  11  22  34  53  85 115 137 176 234 283 318
#     4   9  19  35  55  78 106 143 185 222 265 325
#     4   9  19  37  57  80 109 147 188 220 260 328
#
# _framework density 19.256406999999999
#
# number of rings (size 3 to 8) (size 9 to 14) (size 15 to 20)
#    0.000    2.500    1.250    1.500    1.750    3.000 
#    0.000    6.250    0.000    0.000    0.000    0.000 
#    0.000    0.000    0.000    0.000    0.000    0.000 
#
# Total GULP energy -198382.062571 kJ/mol
# GULP energy per Si atom -12398.878911 kJ/mol
# Density = 1.921258 g / cm^3
# Si number density = 19.256407 Si / 1000 Ang^3
#
#
#
# Elastic Constant Matrix: (Units=GPa)
#
#
# Indices 1 2 3 4 5 6 
#
# 1 138.8833 26.5843 82.1404 0.0000 1.9047 0.0000
# 2 26.5843 35.4132 25.6942 0.0000 -3.7966 0.0000
# 3 82.1404 25.6942 126.0592 0.0000 2.6186 0.0000
# 4 0.0000 0.0000 0.0000 24.5307 0.0000 -0.7831
# 5 1.9047 -3.7966 2.6186 0.0000 25.8299 0.0000
# 6 0.0000 0.0000 0.0000 -0.7831 0.0000 21.2563
#
#
#
# Elastic Compliance Matrix: (Units=1/GPa)
#
#
# Indices 1 2 3 4 5 6 
#
# 1 0.012188 -0.004087 -0.007092 0.000000 -0.000780 0.000000
# 2 -0.004087 0.035328 -0.004662 0.000000 0.005967 0.000000
# 3 -0.007092 -0.004662 0.013536 0.000000 -0.001534 0.000000
# 4 0.000000 0.000000 0.000000 0.040813 0.000000 0.001504
# 5 -0.000780 0.005967 -0.001534 0.000000 0.039805 0.000000
# 6 0.000000 0.000000 0.000000 0.001504 0.000000 0.047100
#
#
# Mechanical properties :
#
#
# Convention : Reuss Voigt Hill
#
# Bulk Modulus (GPa) = 34.04821 63.24373 48.64597
# Shear Modulus (GPa) = 21.71614 25.38583 23.55099
#
# Velocity S-wave (km/s) = 3.36182 3.63479 3.50097
# Velocity P-wave (km/s) = 5.72617 7.10843 6.45441
#
# Compressibility (1/GPa) = 0.02937012
#
# Stress axis : x y z
#
# Youngs Moduli (GPa) = 82.04735 28.30601 73.87544
#
# Poissons Ratio (x) = 0.11569 0.52396
# Poissons Ratio (y) = 0.33534 0.34438
# Poissons Ratio (z) = 0.58192 0.13195
#
# Static dielectric constant tensor:
#      x y z
#    x 3.699460 0.000000 0.024780 
#    y 0.000000 3.190830 0.000000 
#    z 0.024780 0.000000 3.556610 
# 
# 
# High freq. dielectric constant tensor:
#      x y z
#    x 1.748620 0.000000 0.001590 
#    y 0.000000 1.717010 0.000000 
#    z 0.001590 0.000000 1.756010 
# 
# From -- ./inp_files/28188.got.cif
#   From: 2010.03.12/outbox.cif.g09.slc.cpg/sg8_15_cif.got.tgz:28188.got - 2010.03.31 10:45:26.
