data_PCOD8053304
_publ_section_title
;
Structure prediction by ZEFSAII (Michael W. Deem and Ramdas Pophale) SiO2 
 PCOD8053304
Probable space group: C M
;
_chemical_formula_sum "Si O2"
_cell_formula_units_Z 20
_cell_length_a 7.818125
_cell_length_b 17.308464
_cell_length_c 9.518632
_cell_angle_alpha 90.000000
_cell_angle_beta 131.160921
_cell_angle_gamma 90.000000
_cell_volume 969.733068
_symmetry_space_group_name_H-M "C M"
_symmetry_group_IT_number 8
_symmetry_cell_setting 'monoclinic'
loop_
_space_group_symop_operation_xyz
x,y,z
x,-y,z
1/2+x,1/2+y,z
1/2+x,1/2-y,z
loop_
_atom_site_type_symbol
_atom_site_label
_atom_site_fract_x
_atom_site_fract_y
_atom_site_fract_z
Si Si1 0.342810 0.204005 0.870360
Si Si2 0.649778 0.153425 0.630427
Si Si3 0.664317 0.411198 0.406664
Si Si4 0.491042 0.589201 0.621493
Si Si5 0.305798 0.651229 0.004428
O O1 0.229552 0.256311 0.682811
O O2 0.160099 0.138442 0.812327
O O3 0.392496 0.259777 0.030360
O O4 0.564418 0.156709 0.949921
O O5 0.377562 0.144615 0.492766
O O6 0.737478 0.114178 0.533272
O O7 0.760712 0.111203 0.828055
O O8 0.745810 0.500000 0.448941
O O9 0.539837 0.390726 0.485464
O O10 0.481279 0.399298 0.185447
O O11 0.530941 0.500000 0.673604
#
# Coordination Sequence:
#
# PCOD8053304 Si02
#       5
#     4   4   4   4   4
#     4  10  19  43  64  96 124 176 221 260 327 382
#     4  10  21  44  69  91 131 176 221 267 320 397
#     4  11  25  42  65 100 134 174 216 274 337 385
#     4  11  22  41  69  99 132 169 219 276 332 386
#     4  10  22  42  66  94 133 171 223 267 323 396
#
# _framework density 20.624231000000002
#
# number of rings (size 3 to 8) (size 9 to 14) (size 15 to 20)
#    1.200    0.400    4.000    0.600    0.000    4.000 
#    7.200    0.000    0.000    0.000    0.000    0.000 
#    0.000    0.000    0.000    0.000    0.000    0.000 
#
# Total GULP energy -123895.714156 kJ/mol
# GULP energy per Si atom -12389.571416 kJ/mol
# Density = 2.057729 g / cm^3
# Si number density = 20.624231 Si / 1000 Ang^3
#
#
#
# Elastic Constant Matrix: (Units=GPa)
#
#
# Indices 1 2 3 4 5 6 
#
# 1 129.8769 18.1048 33.3383 0.0000 18.5198 0.0000
# 2 18.1048 70.6227 17.8586 0.0000 6.8028 0.0000
# 3 33.3383 17.8586 84.9475 0.0000 15.2861 0.0000
# 4 0.0000 0.0000 0.0000 31.2813 0.0000 0.6694
# 5 18.5198 6.8028 15.2861 0.0000 22.6518 0.0000
# 6 0.0000 0.0000 0.0000 0.6694 0.0000 22.6405
#
#
#
# Elastic Compliance Matrix: (Units=1/GPa)
#
#
# Indices 1 2 3 4 5 6 
#
# 1 0.009282 -0.001239 -0.002372 0.000000 -0.005616 0.000000
# 2 -0.001239 0.015266 -0.002368 0.000000 -0.001974 0.000000
# 3 -0.002372 -0.002368 0.014482 0.000000 -0.007123 0.000000
# 4 0.000000 0.000000 0.000000 0.031988 0.000000 -0.000946
# 5 -0.005616 -0.001974 -0.007123 0.000000 0.054138 0.000000
# 6 0.000000 0.000000 0.000000 -0.000946 0.000000 0.044197
#
#
# Mechanical properties :
#
#
# Convention : Reuss Voigt Hill
#
# Bulk Modulus (GPa) = 36.93650 47.11671 42.02661
# Shear Modulus (GPa) = 26.26948 29.72442 27.99695
#
# Velocity S-wave (km/s) = 3.57279 3.80048 3.68839
# Velocity P-wave (km/s) = 5.91337 6.49254 6.20971
#
# Compressibility (1/GPa) = 0.02707349
#
# Stress axis : x y z
#
# Youngs Moduli (GPa) = 107.73616 65.50376 69.04958
#
# Poissons Ratio (x) = 0.08114 0.16377
# Poissons Ratio (y) = 0.13346 0.16351
# Poissons Ratio (z) = 0.25552 0.15512
#
# Static dielectric constant tensor:
#      x y z
#    x 3.823740 0.000000 -0.010830 
#    y 0.000000 3.577820 0.000000 
#    z -0.010830 0.000000 3.317490 
# 
# 
# High freq. dielectric constant tensor:
#      x y z
#    x 1.820810 0.000000 0.012290 
#    y 0.000000 1.799660 0.000000 
#    z 0.012290 0.000000 1.768620 
# 
# From -- ./inp_files/1315.got.cif
#   From: 2010.03.12/outbox.cif.g09.slc.cpg/sg8_1_cif.got.tgz:1315.got - 2010.03.31 10:45:26.
