data_PCOD8053485
_publ_section_title
;
Structure prediction by ZEFSAII (Michael W. Deem and Ramdas Pophale) SiO2 
 PCOD8053485
Probable space group: C M
;
_chemical_formula_sum "Si O2"
_cell_formula_units_Z 32
_cell_length_a 11.774674
_cell_length_b 14.128439
_cell_length_c 19.597958
_cell_angle_alpha 90.000000
_cell_angle_beta 148.927510
_cell_angle_gamma 90.000000
_cell_volume 1682.698803
_symmetry_space_group_name_H-M "C M"
_symmetry_group_IT_number 8
_symmetry_cell_setting 'monoclinic'
loop_
_space_group_symop_operation_xyz
x,y,z
x,-y,z
1/2+x,1/2+y,z
1/2+x,1/2-y,z
loop_
_atom_site_type_symbol
_atom_site_label
_atom_site_fract_x
_atom_site_fract_y
_atom_site_fract_z
Si Si1 0.468080 0.104132 0.338220
Si Si2 0.542981 0.894522 0.856056
Si Si3 0.235145 0.774666 0.462649
Si Si4 0.455210 0.274158 0.719092
Si Si5 0.009906 0.889088 0.143852
Si Si6 0.871023 0.111643 0.220079
Si Si7 0.890534 0.392473 0.931934
Si Si8 0.566543 0.895270 0.547095
O O1 0.642349 0.172198 0.389687
O O2 0.221998 0.149711 0.211383
O O3 0.525761 0.095469 0.446794
O O4 0.480319 0.000000 0.309748
O O5 0.425650 0.820777 0.747054
O O6 0.446292 0.889017 0.881408
O O7 0.506996 0.000000 0.807843
O O8 0.800387 0.868406 0.989246
O O9 0.366226 0.757610 0.599757
O O10 0.396181 0.821805 0.491487
O O11 0.013059 0.839798 0.354193
O O12 0.701385 0.315399 0.846953
O O13 0.310693 0.354234 0.681824
O O14 0.973628 0.847985 0.201552
O O15 0.048135 0.000000 0.174095
O O16 0.903631 0.000000 0.242283
O O17 0.609117 0.135047 0.088091
O O18 0.815020 0.500000 0.911872
O O19 0.549850 0.000000 0.572774
#
# Coordination Sequence:
#
# PCOD8053485 Si02
#       8
#     4   4   4   4   4   4   4   4
#     4   9  18  32  52  78 103 134 175 215 257 304
#     4   9  19  34  52  76 108 141 172 211 260 313
#     4  11  21  31  53  83 109 133 176 219 271 315
#     4  11  22  34  52  81 111 140 177 212 270 324
#     4   8  14  30  54  75  98 135 178 215 252 301
#     4   9  17  32  56  82 104 134 178 227 268 304
#     4   9  19  37  58  77 101 139 185 228 261 302
#     4  10  20  36  54  74 104 140 178 217 256 313
#
# _framework density 19.01707
#
# number of rings (size 3 to 8) (size 9 to 14) (size 15 to 20)
#    0.000    2.500    1.250    3.000    1.750    1.500 
#    0.000    0.625    0.000    1.500    0.000    2.625 
#    0.000    0.000    0.000    0.000    0.000    0.000 
#
# Total GULP energy -198212.045399 kJ/mol
# GULP energy per Si atom -12388.252837 kJ/mol
# Density = 1.897379 g / cm^3
# Si number density = 19.017070 Si / 1000 Ang^3
#
#
#
# Elastic Constant Matrix: (Units=GPa)
#
#
# Indices 1 2 3 4 5 6 
#
# 1 48.3185 43.0689 22.7170 0.0012 23.5505 0.0006
# 2 43.0689 100.3279 35.1445 0.0025 14.7010 0.0009
# 3 22.7170 35.1445 76.5524 0.0067 22.3982 0.0025
# 4 0.0012 0.0025 0.0067 31.8058 0.0015 -2.1506
# 5 23.5505 14.7010 22.3982 0.0015 21.4241 0.0005
# 6 0.0006 0.0009 0.0025 -2.1506 0.0005 13.8064
#
#
#
# Elastic Compliance Matrix: (Units=1/GPa)
#
#
# Indices 1 2 3 4 5 6 
#
# 1 0.075990 -0.025321 0.012147 0.000000 -0.078856 -0.000001
# 2 -0.025321 0.020503 -0.008538 0.000000 0.022691 0.000001
# 3 0.012147 -0.008538 0.022432 -0.000003 -0.030946 -0.000004
# 4 0.000000 0.000000 -0.000003 0.031775 0.000001 0.004950
# 5 -0.078856 0.022691 -0.030946 0.000001 0.150142 0.000003
# 6 -0.000001 0.000001 -0.000004 0.004950 0.000003 0.073201
#
#
# Mechanical properties :
#
#
# Convention : Reuss Voigt Hill
#
# Bulk Modulus (GPa) = 13.24490 47.45107 30.34798
# Shear Modulus (GPa) = 11.29598 21.69181 16.49389
#
# Velocity S-wave (km/s) = 2.43984 3.38101 2.94823
# Velocity P-wave (km/s) = 3.86225 6.34411 5.25189
#
# Compressibility (1/GPa) = 0.07550077
#
# Stress axis : x y z
#
# Youngs Moduli (GPa) = 13.15967 48.77329 44.57824
#
# Poissons Ratio (x) = 1.23500 -0.54148
# Poissons Ratio (y) = 0.33322 0.38060
# Poissons Ratio (z) = -0.15985 0.41642
#
# Static dielectric constant tensor:
#      x y z
#    x 3.268460 -0.000010 0.422970 
#    y -0.000010 3.714460 -0.000010 
#    z 0.422970 -0.000010 3.722870 
# 
# 
# High freq. dielectric constant tensor:
#      x y z
#    x 1.702780 0.000000 0.029800 
#    y 0.000000 1.740820 0.000000 
#    z 0.029800 0.000000 1.743370 
# 
# From -- ./inp_files/28891.got.cif
#   From: 2010.03.12/outbox.cif.g09.slc.cpg/sg8_15_cif.got.tgz:28891.got - 2010.03.31 10:45:26.
