data_PCOD8053693
_publ_section_title
;
Structure prediction by ZEFSAII (Michael W. Deem and Ramdas Pophale) SiO2 
 PCOD8053693
Probable space group: C M
;
_chemical_formula_sum "Si O2"
_cell_formula_units_Z 28
_cell_length_a 13.283075
_cell_length_b 24.902614
_cell_length_c 5.131635
_cell_angle_alpha 90.000000
_cell_angle_beta 50.616489
_cell_angle_gamma 90.000000
_cell_volume 1311.993657
_symmetry_space_group_name_H-M "C M"
_symmetry_group_IT_number 8
_symmetry_cell_setting 'monoclinic'
loop_
_space_group_symop_operation_xyz
x,y,z
x,-y,z
1/2+x,1/2+y,z
1/2+x,1/2-y,z
loop_
_atom_site_type_symbol
_atom_site_label
_atom_site_fract_x
_atom_site_fract_y
_atom_site_fract_z
Si Si1 0.420490 0.059692 0.740460
Si Si2 0.987387 0.383225 0.155290
Si Si3 0.131463 0.938236 0.315901
Si Si4 0.494104 0.339586 0.306280
Si Si5 0.212528 0.697698 0.712735
Si Si6 0.165307 0.235424 0.283366
Si Si7 0.214385 0.854993 0.552531
O O1 0.504874 0.069783 0.340476
O O2 0.448727 0.000000 0.792221
O O3 0.471750 0.097697 0.885695
O O4 0.265497 0.065845 0.930280
O O5 0.852630 0.355188 0.472907
O O6 0.106476 0.343493 0.991607
O O7 0.168760 0.915072 0.540627
O O8 0.019313 0.899760 0.378440
O O9 0.081252 0.000000 0.420012
O O10 0.347271 0.334490 0.444612
O O11 0.520924 0.290057 0.463047
O O12 0.598639 0.328425 0.906800
O O13 0.163356 0.721251 0.519086
O O14 0.230148 0.741351 0.913297
O O15 0.243639 0.182581 0.250771
#
# Coordination Sequence:
#
# PCOD8053693 Si02
#       7
#     4   4   4   4   4   4   4
#     4  10  20  40  69  95 126 170 219 269 323 385
#     4  11  23  41  63  98 127 168 211 273 319 393
#     4   9  20  39  67  99 129 169 219 277 327 382
#     4  11  24  45  66  99 132 174 221 275 323 401
#     4  12  28  41  69  92 141 171 221 265 340 382
#     4  11  26  43  63  95 126 182 214 269 313 398
#     4  10  22  41  67  92 131 164 224 266 325 385
#
# _framework density 21.341567000000001
#
# number of rings (size 3 to 8) (size 9 to 14) (size 15 to 20)
#    0.000    1.429    2.857    1.286    8.000    1.143 
#    0.000    1.429    0.000    0.000    0.000    0.000 
#    0.000    0.000    0.000    0.000    0.000    0.000 
#
# Total GULP energy -173464.195772 kJ/mol
# GULP energy per Si atom -12390.299698 kJ/mol
# Density = 2.129299 g / cm^3
# Si number density = 21.341567 Si / 1000 Ang^3
#
#
#
# Elastic Constant Matrix: (Units=GPa)
#
#
# Indices 1 2 3 4 5 6 
#
# 1 92.1011 51.0311 51.0458 0.0000 -5.0314 0.0000
# 2 51.0311 122.5107 45.3706 0.0000 -16.7576 0.0000
# 3 51.0458 45.3706 95.7425 0.0000 -5.5483 0.0000
# 4 0.0000 0.0000 0.0000 30.0743 0.0000 10.6791
# 5 -5.0314 -16.7576 -5.5483 0.0000 32.6538 0.0000
# 6 0.0000 0.0000 0.0000 10.6791 0.0000 19.4470
#
#
#
# Elastic Compliance Matrix: (Units=1/GPa)
#
#
# Indices 1 2 3 4 5 6 
#
# 1 0.017343 -0.004743 -0.007055 0.000000 -0.000960 0.000000
# 2 -0.004743 0.011842 -0.002801 0.000000 0.004870 0.000000
# 3 -0.007055 -0.002801 0.015540 0.000000 0.000116 0.000000
# 4 0.000000 0.000000 0.000000 0.041305 0.000000 -0.022682
# 5 -0.000960 0.004870 0.000116 0.000000 0.032995 0.000000
# 6 0.000000 0.000000 0.000000 -0.022682 0.000000 0.063877
#
#
# Mechanical properties :
#
#
# Convention : Reuss Voigt Hill
#
# Bulk Modulus (GPa) = 64.39905 67.24991 65.82448
# Shear Modulus (GPa) = 23.01233 27.29547 25.15390
#
# Velocity S-wave (km/s) = 3.28729 3.58017 3.43685
# Velocity P-wave (km/s) = 6.68201 6.97637 6.83078
#
# Compressibility (1/GPa) = 0.01552818
#
# Stress axis : x y z
#
# Youngs Moduli (GPa) = 57.65996 84.44869 64.35105
#
# Poissons Ratio (x) = 0.40053 0.45397
# Poissons Ratio (y) = 0.27348 0.18022
# Poissons Ratio (z) = 0.40677 0.23650
#
# Static dielectric constant tensor:
#      x y z
#    x 3.825020 0.000000 0.215590 
#    y 0.000000 3.884540 0.000000 
#    z 0.215590 0.000000 3.590950 
# 
# 
# High freq. dielectric constant tensor:
#      x y z
#    x 1.829990 0.000000 0.025490 
#    y 0.000000 1.841370 0.000000 
#    z 0.025490 0.000000 1.814050 
# 
# From -- ./inp_files/4339.got.cif
#   From: 2010.03.12/outbox.cif.g09.slc.cpg/sg8_3_cif.got.tgz:4339.got - 2010.03.31 10:45:26.
