data_PCOD8053302
_publ_section_title
;
Structure prediction by ZEFSAII (Michael W. Deem and Ramdas Pophale) SiO2 
 PCOD8053302
Probable space group: C M
;
_chemical_formula_sum "Si O2"
_cell_formula_units_Z 32
_cell_length_a 13.770977
_cell_length_b 12.707096
_cell_length_c 8.203090
_cell_angle_alpha 90.000000
_cell_angle_beta 89.592672
_cell_angle_gamma 90.000000
_cell_volume 1435.415281
_symmetry_space_group_name_H-M "C M"
_symmetry_group_IT_number 8
_symmetry_cell_setting 'monoclinic'
loop_
_space_group_symop_operation_xyz
x,y,z
x,-y,z
1/2+x,1/2+y,z
1/2+x,1/2-y,z
loop_
_atom_site_type_symbol
_atom_site_label
_atom_site_fract_x
_atom_site_fract_y
_atom_site_fract_z
Si Si1 0.588790 0.873514 0.301680
Si Si2 0.734821 0.885299 0.869576
Si Si3 0.928039 0.745760 0.471090
Si Si4 0.788137 0.199375 0.207126
Si Si5 0.536756 0.798764 0.958869
Si Si6 0.256654 0.183911 0.675226
Si Si7 0.050414 0.123914 0.706212
Si Si8 0.830095 0.614828 0.993073
O O1 0.517321 0.836123 0.445981
O O2 0.700018 0.835294 0.328961
O O3 0.583621 0.000000 0.276929
O O4 0.550290 0.803929 0.151788
O O5 0.618291 0.875536 0.883783
O O6 0.772235 0.803057 0.737957
O O7 0.760620 0.000000 0.801281
O O8 0.787077 0.874111 0.046311
O O9 0.888414 0.805325 0.308443
O O10 0.838959 0.672289 0.536557
O O11 0.961709 0.834410 0.597517
O O12 0.778064 0.317687 0.134985
O O13 0.549593 0.681881 0.883031
O O14 0.429609 0.837767 0.920628
O O15 0.149997 0.154813 0.608287
O O16 0.265040 0.107163 0.831746
O O17 0.038285 0.000000 0.733843
O O18 0.847050 0.500000 0.069128
#
# Coordination Sequence:
#
# PCOD8053302 Si02
#       8
#     4   4   4   4   4   4   4   4
#     4  11  24  44  69  95 130 168 211 273 325 370
#     4   9  19  38  65  93 125 163 208 272 329 366
#     4  12  24  43  61  93 132 174 215 260 306 397
#     4  10  22  39  64  95 129 161 212 272 312 387
#     4  10  19  40  66  97 123 158 219 272 305 386
#     4  10  23  41  62  93 127 166 219 267 307 388
#     4  11  25  45  65  91 134 176 209 265 326 373
#     4  11  20  38  68  97 124 164 213 273 324 369
#
# _framework density 22.293202000000001
#
# number of rings (size 3 to 8) (size 9 to 14) (size 15 to 20)
#    0.000    1.500    2.500    4.125    0.000    2.500 
#    0.000    6.250    0.000    0.000    0.000    0.000 
#    0.000    0.000    0.000    0.000    0.000    0.000 
#
# Total GULP energy -198270.955161 kJ/mol
# GULP energy per Si atom -12391.934698 kJ/mol
# Density = 2.224246 g / cm^3
# Si number density = 22.293202 Si / 1000 Ang^3
#
#
#
# Elastic Constant Matrix: (Units=GPa)
#
#
# Indices 1 2 3 4 5 6 
#
# 1 105.4208 36.6648 19.6238 0.0000 -3.9400 0.0000
# 2 36.6648 166.9999 33.5816 0.0000 -7.5063 0.0000
# 3 19.6238 33.5816 51.1771 0.0000 2.0266 0.0000
# 4 0.0000 0.0000 0.0000 15.4964 0.0000 -0.8539
# 5 -3.9400 -7.5063 2.0266 0.0000 41.0044 0.0000
# 6 0.0000 0.0000 0.0000 -0.8539 0.0000 17.8062
#
#
#
# Elastic Compliance Matrix: (Units=1/GPa)
#
#
# Indices 1 2 3 4 5 6 
#
# 1 0.010669 -0.001698 -0.003011 0.000000 0.000863 0.000000
# 2 -0.001698 0.007261 -0.004167 0.000000 0.001372 0.000000
# 3 -0.003011 -0.004167 0.023517 0.000000 -0.002214 0.000000
# 4 0.000000 0.000000 0.000000 0.064702 0.000000 0.003103
# 5 0.000863 0.001372 -0.002214 0.000000 0.024831 0.000000
# 6 0.000000 0.000000 0.000000 0.003103 0.000000 0.056309
#
#
# Mechanical properties :
#
#
# Convention : Reuss Voigt Hill
#
# Bulk Modulus (GPa) = 42.20572 55.92646 49.06609
# Shear Modulus (GPa) = 23.48085 30.44325 26.96205
#
# Velocity S-wave (km/s) = 3.24894 3.69939 3.48146
# Velocity P-wave (km/s) = 5.74868 6.58700 6.18207
#
# Compressibility (1/GPa) = 0.02369347
#
# Stress axis : x y z
#
# Youngs Moduli (GPa) = 93.72830 137.73079 42.52274
#
# Poissons Ratio (x) = 0.23389 0.12803
# Poissons Ratio (y) = 0.15916 0.17721
# Poissons Ratio (z) = 0.28221 0.57398
#
# Static dielectric constant tensor:
#      x y z
#    x 4.456860 0.000000 0.005680 
#    y 0.000000 3.785490 0.000000 
#    z 0.005680 0.000000 3.856650 
# 
# 
# High freq. dielectric constant tensor:
#      x y z
#    x 1.895320 0.000000 0.002890 
#    y 0.000000 1.857860 0.000000 
#    z 0.002890 0.000000 1.861660 
# 
# From -- ./inp_files/12773.got.cif
#   From: 2010.03.12/outbox.cif.g09.slc.cpg/sg8_7_cif.got.tgz:12773.got - 2010.03.31 10:45:26.
