data_PCOD8053698
_publ_section_title
;
Structure prediction by ZEFSAII (Michael W. Deem and Ramdas Pophale) SiO2 
 PCOD8053698
Probable space group: C M
;
_chemical_formula_sum "Si O2"
_cell_formula_units_Z 28
_cell_length_a 12.518537
_cell_length_b 13.364649
_cell_length_c 7.872306
_cell_angle_alpha 90.000000
_cell_angle_beta 108.365227
_cell_angle_gamma 90.000000
_cell_volume 1250.000422
_symmetry_space_group_name_H-M "C M"
_symmetry_group_IT_number 8
_symmetry_cell_setting 'monoclinic'
loop_
_space_group_symop_operation_xyz
x,y,z
x,-y,z
1/2+x,1/2+y,z
1/2+x,1/2-y,z
loop_
_atom_site_type_symbol
_atom_site_label
_atom_site_fract_x
_atom_site_fract_y
_atom_site_fract_z
Si Si1 0.125000 0.386639 0.988820
Si Si2 0.747457 0.807173 0.726707
Si Si3 0.031158 0.758444 0.471156
Si Si4 0.481136 0.385329 0.769819
Si Si5 0.109649 0.805352 0.160580
Si Si6 0.372607 0.111752 0.882722
Si Si7 0.352384 0.112569 0.265385
O O1 0.151157 0.500000 0.061353
O O2 0.210416 0.354026 0.885910
O O3 0.995607 0.378054 0.857842
O O4 0.144689 0.311442 0.156359
O O5 0.643773 0.809009 0.543712
O O6 0.787065 0.691810 0.763959
O O7 0.846522 0.875410 0.702587
O O8 0.030624 0.834142 0.627575
O O9 0.038696 0.819536 0.297916
O O10 0.921112 0.688162 0.420072
O O11 0.517643 0.500000 0.784693
O O12 0.531608 0.334337 0.962693
O O13 0.219624 0.873487 0.222660
O O14 0.323024 0.000000 0.827686
O O15 0.389694 0.131972 0.091101
O O16 0.382322 0.000000 0.336345
#
# Coordination Sequence:
#
# PCOD8053698 Si02
#       7
#     4   4   4   4   4   4   4
#     4  11  22  40  70 104 138 183 231 279 349 417
#     4  12  22  45  68 104 144 184 227 295 346 416
#     4  12  26  45  71 100 142 182 231 289 349 416
#     4  12  27  48  70 101 141 185 233 293 358 418
#     4  12  24  46  74 101 140 180 236 293 346 412
#     4  10  20  40  71 102 137 184 233 284 344 413
#     4  11  23  42  68 100 136 180 229 285 346 410
#
# _framework density 22.399991
#
# number of rings (size 3 to 8) (size 9 to 14) (size 15 to 20)
#    0.000    0.571    5.714    1.714    0.000    4.000 
#    0.000    5.714    0.000    0.000    0.000    0.000 
#    0.000    0.000    0.000    0.000    0.000    0.000 
#
# Total GULP energy -173656.910251 kJ/mol
# GULP energy per Si atom -12404.065018 kJ/mol
# Density = 2.234901 g / cm^3
# Si number density = 22.399991 Si / 1000 Ang^3
#
#
#
# Elastic Constant Matrix: (Units=GPa)
#
#
# Indices 1 2 3 4 5 6 
#
# 1 113.5298 18.2198 31.4756 0.0000 -5.2464 0.0000
# 2 18.2198 111.8730 30.2368 0.0000 -2.8765 0.0000
# 3 31.4756 30.2368 100.5043 0.0000 -13.2460 0.0000
# 4 0.0000 0.0000 0.0000 17.1987 0.0000 1.7873
# 5 -5.2464 -2.8765 -13.2460 0.0000 36.7950 0.0000
# 6 0.0000 0.0000 0.0000 1.7873 0.0000 36.5045
#
#
#
# Elastic Compliance Matrix: (Units=1/GPa)
#
#
# Indices 1 2 3 4 5 6 
#
# 1 0.009719 -0.000831 -0.002750 0.000000 0.000331 0.000000
# 2 -0.000831 0.009804 -0.002734 0.000000 -0.000336 0.000000
# 3 -0.002750 -0.002734 0.012129 0.000000 0.003761 0.000000
# 4 0.000000 0.000000 0.000000 0.058441 0.000000 -0.002861
# 5 0.000331 -0.000336 0.003761 0.000000 0.028552 0.000000
# 6 0.000000 0.000000 0.000000 -0.002861 0.000000 0.027534
#
#
# Mechanical properties :
#
#
# Convention : Reuss Voigt Hill
#
# Bulk Modulus (GPa) = 52.56826 53.97462 53.27144
# Shear Modulus (GPa) = 30.27526 34.49796 32.38661
#
# Velocity S-wave (km/s) = 3.68037 3.92865 3.80653
# Velocity P-wave (km/s) = 6.44818 6.68784 6.56910
#
# Compressibility (1/GPa) = 0.01902288
#
# Stress axis : x y z
#
# Youngs Moduli (GPa) = 102.88675 101.99650 82.44577
#
# Poissons Ratio (x) = 0.08477 0.22675
# Poissons Ratio (y) = 0.08551 0.22538
# Poissons Ratio (z) = 0.28297 0.27882
#
# Static dielectric constant tensor:
#      x y z
#    x 4.158110 0.000000 -0.073180 
#    y 0.000000 4.142620 0.000000 
#    z -0.073180 0.000000 3.775620 
# 
# 
# High freq. dielectric constant tensor:
#      x y z
#    x 1.897980 0.000000 -0.004460 
#    y 0.000000 1.884460 0.000000 
#    z -0.004460 0.000000 1.863490 
# 
# From -- ./inp_files/10662.got.cif
#   From: 2010.03.12/outbox.cif.g09.slc.cpg/sg8_6_cif.got.tgz:10662.got - 2010.03.31 10:45:26.
