data_PCOD8053117
_publ_section_title
;
Structure prediction by ZEFSAII (Michael W. Deem and Ramdas Pophale) SiO2 
 PCOD8053117
Probable space group: C M
;
_chemical_formula_sum "Si O2"
_cell_formula_units_Z 32
_cell_length_a 20.019302
_cell_length_b 8.613005
_cell_length_c 24.857363
_cell_angle_alpha 90.000000
_cell_angle_beta 156.659334
_cell_angle_gamma 90.000000
_cell_volume 1698.127009
_symmetry_space_group_name_H-M "C M"
_symmetry_group_IT_number 8
_symmetry_cell_setting 'monoclinic'
loop_
_space_group_symop_operation_xyz
x,y,z
x,-y,z
1/2+x,1/2+y,z
1/2+x,1/2-y,z
loop_
_atom_site_type_symbol
_atom_site_label
_atom_site_fract_x
_atom_site_fract_y
_atom_site_fract_z
Si Si1 0.435710 0.681356 0.292280
Si Si2 0.775303 0.683427 0.351115
Si Si3 0.930504 0.180741 0.795176
Si Si4 0.571329 0.318209 0.508649
Si Si5 0.554124 0.818341 0.275798
Si Si6 0.253943 0.317495 0.988063
Si Si7 0.472591 0.317481 0.054578
Si Si8 0.071209 0.817450 0.013202
O O1 0.461880 0.500000 0.302396
O O2 0.485048 0.731428 0.388899
O O3 0.557496 0.771941 0.341015
O O4 0.243437 0.723830 0.138495
O O5 0.802354 0.500000 0.368477
O O6 0.707608 0.730008 0.359912
O O7 0.640101 0.747400 0.207655
O O8 0.951902 0.766869 0.469500
O O9 0.744875 0.227258 0.641204
O O10 0.060722 0.272181 0.853513
O O11 0.959820 0.225248 0.879181
O O12 0.959255 0.000000 0.806684
O O13 0.607166 0.500000 0.538547
O O14 0.581352 0.000000 0.288950
O O15 0.371566 0.770662 0.117615
O O16 0.281237 0.500000 0.017087
O O17 0.308047 0.267033 0.967230
O O18 0.488198 0.500000 0.067258
O O19 0.465137 0.260643 0.987292
O O20 0.113662 0.000000 0.047133
#
# Coordination Sequence:
#
# PCOD8053117 Si02
#       8
#     4   4   4   4   4   4   4   4
#     4  11  22  36  57  86 114 148 196 245 290 337
#     4  10  19  35  59  85 115 151 189 236 289 344
#     4  11  23  37  57  84 115 156 196 236 287 347
#     4  11  24  40  58  83 117 156 196 241 290 345
#     4  11  21  34  56  86 118 150 188 240 290 341
#     4  10  19  34  56  83 115 151 189 237 288 337
#     4   8  16  31  55  84 111 142 181 229 285 333
#     4  10  19  35  58  85 113 146 191 238 285 340
#
# _framework density 18.844291999999999
#
# number of rings (size 3 to 8) (size 9 to 14) (size 15 to 20)
#    0.000    1.750    2.500    3.750    0.000    2.000 
#    0.000    1.875    0.000    6.000    0.000    0.000 
#    0.000    0.000    0.000    0.000    0.000    0.000 
#
# Total GULP energy -198416.505447 kJ/mol
# GULP energy per Si atom -12401.031590 kJ/mol
# Density = 1.880140 g / cm^3
# Si number density = 18.844292 Si / 1000 Ang^3
#
#
#
# Elastic Constant Matrix: (Units=GPa)
#
#
# Indices 1 2 3 4 5 6 
#
# 1 125.3608 24.9424 30.7617 0.0000 17.1274 0.0000
# 2 24.9424 54.1149 14.3939 -0.0080 -5.9095 0.0003
# 3 30.7617 14.3939 61.9167 -0.0086 11.5918 0.0006
# 4 0.0000 -0.0080 -0.0086 28.3802 -0.0002 5.4837
# 5 17.1274 -5.9095 11.5918 -0.0002 27.2058 0.0007
# 6 0.0000 0.0003 0.0006 5.4837 0.0007 29.4223
#
#
#
# Elastic Compliance Matrix: (Units=1/GPa)
#
#
# Indices 1 2 3 4 5 6 
#
# 1 0.010519 -0.004774 -0.002915 -0.000002 -0.006417 0.000001
# 2 -0.004774 0.023082 -0.004885 0.000005 0.010100 -0.000001
# 3 -0.002915 -0.004885 0.020201 0.000005 -0.007833 -0.000001
# 4 -0.000002 0.000005 0.000005 0.036552 0.000001 -0.006813
# 5 -0.006417 0.010100 -0.007833 0.000001 0.046328 -0.000001
# 6 0.000001 -0.000001 -0.000001 -0.006813 -0.000001 0.035258
#
#
# Mechanical properties :
#
#
# Convention : Reuss Voigt Hill
#
# Bulk Modulus (GPa) = 34.89882 42.39872 38.64877
# Shear Modulus (GPa) = 24.19683 28.42128 26.30905
#
# Velocity S-wave (km/s) = 3.58724 3.88779 3.74053
# Velocity P-wave (km/s) = 5.97641 6.53464 6.26175
#
# Compressibility (1/GPa) = 0.02865427
#
# Stress axis : x y z
#
# Youngs Moduli (GPa) = 95.06826 43.32406 49.50228
#
# Poissons Ratio (x) = 0.20682 0.14429
# Poissons Ratio (y) = 0.45383 0.24183
# Poissons Ratio (z) = 0.27711 0.21165
#
# Static dielectric constant tensor:
#      x y z
#    x 3.989930 0.000000 0.039410 
#    y 0.000000 3.357720 0.000000 
#    z 0.039410 0.000000 3.144440 
# 
# 
# High freq. dielectric constant tensor:
#      x y z
#    x 1.750510 0.000000 0.013050 
#    y 0.000000 1.731220 0.000000 
#    z 0.013050 0.000000 1.698300 
# 
# From -- ./inp_files/30046.got.cif
#   From: 2010.03.12/outbox.cif.g09.slc.cpg/sg8_16_cif.got.tgz:30046.got - 2010.03.31 10:45:26.
