data_PCOD8053885
_publ_section_title
;
Structure prediction by ZEFSAII (Michael W. Deem and Ramdas Pophale) SiO2 
 PCOD8053885
Probable space group: C M
;
_chemical_formula_sum "Si O2"
_cell_formula_units_Z 24
_cell_length_a 14.708581
_cell_length_b 17.028921
_cell_length_c 10.118928
_cell_angle_alpha 90.000000
_cell_angle_beta 27.797697
_cell_angle_gamma 90.000000
_cell_volume 1181.967143
_symmetry_space_group_name_H-M "C M"
_symmetry_group_IT_number 8
_symmetry_cell_setting 'monoclinic'
loop_
_space_group_symop_operation_xyz
x,y,z
x,-y,z
1/2+x,1/2+y,z
1/2+x,1/2-y,z
loop_
_atom_site_type_symbol
_atom_site_label
_atom_site_fract_x
_atom_site_fract_y
_atom_site_fract_z
Si Si1 0.945470 0.091144 0.114190
Si Si2 0.237844 0.662407 0.141559
Si Si3 0.657000 0.907716 0.719703
Si Si4 0.772409 0.342711 0.106815
Si Si5 0.379446 0.591545 0.696518
Si Si6 0.345177 0.909906 0.734909
O O1 0.897752 0.139875 0.045058
O O2 0.805406 0.117111 0.413503
O O3 0.913918 0.000000 0.123547
O O4 0.168127 0.109412 0.864652
O O5 0.266443 0.752839 0.068748
O O6 0.022575 0.647466 0.474831
O O7 0.262576 0.610710 0.979222
O O8 0.748668 0.882033 0.740839
O O9 0.610891 0.000000 0.774847
O O10 0.458796 0.859191 0.958532
O O11 0.582327 0.361895 0.437263
O O12 0.775443 0.397671 0.974309
O O13 0.426496 0.500000 0.627944
O O14 0.413120 0.000000 0.632744
#
# Coordination Sequence:
#
# PCOD8053885 Si02
#       6
#     4   4   4   4   4   4
#     4  10  21  41  69  94 119 167 223 258 298 376
#     4  12  26  40  63  98 136 160 200 270 329 363
#     4  10  21  41  69  93 120 168 222 257 298 377
#     4  12  24  40  66  95 130 169 208 253 323 382
#     4  11  24  43  64  94 128 165 212 266 311 364
#     4  11  22  43  71  92 119 173 223 254 301 382
#
# _framework density 20.305133000000001
#
# number of rings (size 3 to 8) (size 9 to 14) (size 15 to 20)
#    0.000    1.000    3.333    4.000    0.000    4.000 
#    0.000    1.667    0.000    0.000    0.000    0.000 
#    0.000    0.000    0.000    0.000    0.000    0.000 
#
# Total GULP energy -148900.950045 kJ/mol
# GULP energy per Si atom -12408.412504 kJ/mol
# Density = 2.025892 g / cm^3
# Si number density = 20.305133 Si / 1000 Ang^3
#
#
#
# Elastic Constant Matrix: (Units=GPa)
#
#
# Indices 1 2 3 4 5 6 
#
# 1 126.9340 49.0199 32.3945 0.0442 -3.1881 -0.0946
# 2 49.0199 71.1713 24.8917 0.0449 -11.3350 -0.1215
# 3 32.3945 24.8917 70.2207 -0.0006 -3.2598 -0.0041
# 4 0.0442 0.0449 -0.0006 29.0390 -0.0132 1.0671
# 5 -3.1881 -11.3350 -3.2598 -0.0132 42.2970 0.0548
# 6 -0.0946 -0.1215 -0.0041 1.0671 0.0548 14.6472
#
#
#
# Elastic Compliance Matrix: (Units=1/GPa)
#
#
# Indices 1 2 3 4 5 6 
#
# 1 0.011248 -0.006974 -0.002774 -0.000008 -0.001235 0.000019
# 2 -0.006974 0.021021 -0.004012 -0.000024 0.004798 0.000112
# 3 -0.002774 -0.004012 0.016944 0.000013 0.000022 -0.000047
# 4 -0.000008 -0.000024 0.000013 0.034529 0.000008 -0.002516
# 5 -0.001235 0.004798 0.000022 0.000008 0.024837 -0.000062
# 6 0.000019 0.000112 -0.000047 -0.002516 -0.000062 0.068457
#
#
# Mechanical properties :
#
#
# Convention : Reuss Voigt Hill
#
# Bulk Modulus (GPa) = 46.09614 53.43758 49.76686
# Shear Modulus (GPa) = 23.60864 27.99798 25.80331
#
# Velocity S-wave (km/s) = 3.41353 3.71733 3.56866
# Velocity P-wave (km/s) = 6.18767 6.69322 6.44540
#
# Compressibility (1/GPa) = 0.02169379
#
# Stress axis : x y z
#
# Youngs Moduli (GPa) = 88.90245 47.57083 59.01874
#
# Poissons Ratio (x) = 0.33174 0.16374
# Poissons Ratio (y) = 0.61998 0.23676
# Poissons Ratio (z) = 0.24665 0.19084
#
# Static dielectric constant tensor:
#      x y z
#    x 3.779790 -0.000010 -0.080300 
#    y -0.000010 3.502150 0.000010 
#    z -0.080300 0.000010 3.554970 
# 
# 
# High freq. dielectric constant tensor:
#      x y z
#    x 1.805340 0.000000 -0.006210 
#    y 0.000000 1.788760 0.000000 
#    z -0.006210 0.000000 1.794430 
# 
# From -- ./inp_files/13533.got.cif
#   From: 2010.03.12/outbox.cif.g09.slc.cpg/sg8_7_cif.got.tgz:13533.got - 2010.03.31 10:45:26.
