data_PCOD8053020
_publ_section_title
;
Structure prediction by ZEFSAII (Michael W. Deem and Ramdas Pophale) SiO2 
 PCOD8053020
Probable space group: C M
;
_chemical_formula_sum "Si O2"
_cell_formula_units_Z 32
_cell_length_a 19.910762
_cell_length_b 8.750042
_cell_length_c 12.087247
_cell_angle_alpha 90.000000
_cell_angle_beta 54.207721
_cell_angle_gamma 90.000000
_cell_volume 1708.136791
_symmetry_space_group_name_H-M "C M"
_symmetry_group_IT_number 8
_symmetry_cell_setting 'monoclinic'
loop_
_space_group_symop_operation_xyz
x,y,z
x,-y,z
1/2+x,1/2+y,z
1/2+x,1/2-y,z
loop_
_atom_site_type_symbol
_atom_site_label
_atom_site_fract_x
_atom_site_fract_y
_atom_site_fract_z
Si Si1 0.937390 0.323994 0.063140
Si Si2 0.599554 0.823257 0.030724
Si Si3 0.706936 0.322498 0.097449
Si Si4 0.232513 0.819748 0.744882
Si Si5 0.677491 0.177804 0.581617
Si Si6 0.340234 0.322613 0.815617
Si Si7 0.752583 0.676321 0.298545
Si Si8 0.502726 0.676313 0.782597
O O1 0.936500 0.500000 0.023201
O O2 0.848269 0.275915 0.194997
O O3 0.002631 0.300013 0.099825
O O4 0.960792 0.216961 0.938972
O O5 0.622489 0.741958 0.124431
O O6 0.623466 0.000000 0.015956
O O7 0.651648 0.750845 0.880505
O O8 0.715692 0.500000 0.060481
O O9 0.704357 0.293621 0.230545
O O10 0.786224 0.239155 0.969606
O O11 0.233208 0.767747 0.617046
O O12 0.315921 0.763109 0.725557
O O13 0.227335 0.000000 0.756984
O O14 0.710269 0.216657 0.428913
O O15 0.581394 0.220055 0.682873
O O16 0.687196 0.000000 0.595791
O O17 0.320464 0.500000 0.819959
O O18 0.436656 0.294347 0.748347
O O19 0.744357 0.500000 0.342466
O O20 0.530529 0.500000 0.759317
#
# Coordination Sequence:
#
# PCOD8053020 Si02
#       8
#     4   4   4   4   4   4   4   4
#     4  10  20  36  59  85 115 151 191 238 284 335
#     4  10  19  32  55  86 117 148 186 236 283 334
#     4  10  19  33  56  83 114 152 188 231 284 338
#     4  11  21  35  57  84 115 152 191 235 289 344
#     4  12  25  40  59  83 116 156 196 240 292 346
#     4  10  20  34  56  87 118 147 187 238 286 337
#     4  10  22  40  59  82 114 154 197 237 286 344
#     4  11  22  36  59  88 117 150 192 241 286 340
#
# _framework density 18.733861000000001
#
# number of rings (size 3 to 8) (size 9 to 14) (size 15 to 20)
#    0.000    1.500    2.500    5.250    0.000    3.500 
#    0.000    1.250    0.000    3.000    0.000    0.000 
#    0.000    0.000    0.000    0.000    0.000    0.000 
#
# Total GULP energy -198450.571153 kJ/mol
# GULP energy per Si atom -12403.160697 kJ/mol
# Density = 1.869122 g / cm^3
# Si number density = 18.733861 Si / 1000 Ang^3
#
#
#
# Elastic Constant Matrix: (Units=GPa)
#
#
# Indices 1 2 3 4 5 6 
#
# 1 113.3894 -3.5338 28.5920 0.0000 6.3001 0.0000
# 2 -3.5338 -396.5035 -92.3917 0.0000 -38.4009 0.0000
# 3 28.5920 -92.3917 45.7398 0.0000 -1.5503 0.0000
# 4 0.0000 0.0000 0.0000 30.0643 0.0000 3.4806
# 5 6.3001 -38.4009 -1.5503 0.0000 18.9312 0.0000
# 6 0.0000 0.0000 0.0000 3.4806 0.0000 30.5210
#
#
#
# Elastic Compliance Matrix: (Units=1/GPa)
#
#
# Indices 1 2 3 4 5 6 
#
# 1 0.009997 0.001041 -0.004200 0.000000 -0.001560 0.000000
# 2 0.001041 -0.001374 -0.003542 0.000000 -0.003424 0.000000
# 3 -0.004200 -0.003542 0.017184 0.000000 -0.004381 0.000000
# 4 0.000000 0.000000 0.000000 0.033707 0.000000 -0.003844
# 5 -0.001560 -0.003424 -0.004381 0.000000 0.046038 0.000000
# 6 0.000000 0.000000 0.000000 -0.003844 0.000000 0.033203
#
#
# Mechanical properties :
#
#
# Convention : Reuss Voigt Hill
#
# Bulk Modulus (GPa) = 80.62280 -41.33793 19.64243
# Shear Modulus (GPa) = 31.99114 4.56724 18.27919
#
# Velocity S-wave (km/s) = 4.13687 1.56309 3.12706
# Velocity P-wave (km/s) = 8.12081 4.34236 4.85239
#
# Compressibility (1/GPa) = 0.01240344
#
# Stress axis : x y z
#
# Youngs Moduli (GPa) = 100.02630 -727.66929 58.19298
#
# Poissons Ratio (x) = 0.75727 0.24442
# Poissons Ratio (y) = -0.10410 0.20615
# Poissons Ratio (z) = 0.42012 -2.57776
#
# Static dielectric constant tensor:
#      x y z
#    x 3.844030 0.000000 0.053150 
#    y 0.000000 3.525950 0.000000 
#    z 0.053150 0.000000 3.121020 
# 
# 
# High freq. dielectric constant tensor:
#      x y z
#    x 1.747250 0.000000 0.008260 
#    y 0.000000 1.740690 0.000000 
#    z 0.008260 0.000000 1.690830 
# 
# From -- ./inp_files/23863.got.cif
#   From: 2010.03.12/outbox.cif.g09.slc.cpg/sg8_12_cif.got.tgz:23863.got - 2010.03.31 10:45:26.
