data_PCOD8053505
_publ_section_title
;
Structure prediction by ZEFSAII (Michael W. Deem and Ramdas Pophale) SiO2 
 PCOD8053505
Probable space group: C M
;
_chemical_formula_sum "Si O2"
_cell_formula_units_Z 28
_cell_length_a 16.854040
_cell_length_b 13.390646
_cell_length_c 6.656238
_cell_angle_alpha 90.000000
_cell_angle_beta 53.442676
_cell_angle_gamma 90.000000
_cell_volume 1206.677621
_symmetry_space_group_name_H-M "C M"
_symmetry_group_IT_number 8
_symmetry_cell_setting 'monoclinic'
loop_
_space_group_symop_operation_xyz
x,y,z
x,-y,z
1/2+x,1/2+y,z
1/2+x,1/2-y,z
loop_
_atom_site_type_symbol
_atom_site_label
_atom_site_fract_x
_atom_site_fract_y
_atom_site_fract_z
Si Si1 0.478410 0.117821 0.405610
Si Si2 0.180139 0.306426 0.038321
Si Si3 0.314522 0.388584 0.130848
Si Si4 0.635582 0.188846 0.643014
Si Si5 0.776833 0.608996 0.849732
Si Si6 0.228329 0.108491 0.457999
Si Si7 0.923471 0.306437 0.058896
O O1 0.585170 0.160441 0.316912
O O2 0.394013 0.136348 0.705006
O O3 0.451768 0.180568 0.248057
O O4 0.486209 0.000000 0.343332
O O5 0.277625 0.367861 0.958397
O O6 0.161741 0.327539 0.835767
O O7 0.201709 0.189497 0.054839
O O8 0.358100 0.500000 0.085557
O O9 0.213537 0.379746 0.411768
O O10 0.399229 0.311315 0.068822
O O11 0.647734 0.304751 0.558216
O O12 0.519856 0.160484 0.782753
O O13 0.748654 0.500000 0.979720
O O14 0.770616 0.607067 0.617861
O O15 0.322669 0.130111 0.163984
O O16 0.182990 0.000000 0.471277
#
# Coordination Sequence:
#
# PCOD8053505 Si02
#       7
#     4   4   4   4   4   4   4
#     4   9  17  33  59  86 110 145 189 228 273 329
#     4  10  20  36  58  83 115 146 182 231 280 326
#     4  11  24  38  54  83 116 145 185 232 279 333
#     4   9  20  37  57  78 107 148 185 221 270 330
#     4   8  15  30  53  79 108 142 180 222 269 322
#     4   8  14  28  52  79 103 132 175 222 265 313
#     4   9  18  34  53  78 109 142 180 224 270 323
#
# _framework density 23.20421
#
# number of rings (size 3 to 8) (size 9 to 14) (size 15 to 20)
#    0.000    2.857    0.000    2.571    0.000    5.143 
#    0.000    5.714    0.000    3.429    0.000    0.000 
#    0.000    0.000    0.000    0.000    0.000    0.000 
#
# Total GULP energy -173493.008111 kJ/mol
# GULP energy per Si atom -12392.357722 kJ/mol
# Density = 2.315140 g / cm^3
# Si number density = 23.204210 Si / 1000 Ang^3
#
#
#
# Elastic Constant Matrix: (Units=GPa)
#
#
# Indices 1 2 3 4 5 6 
#
# 1 63.0394 21.0153 8.9277 0.0000 -20.8569 0.0000
# 2 21.0153 143.7299 4.5357 0.0000 -10.4200 0.0000
# 3 8.9277 4.5357 85.0910 0.0000 -10.7804 0.0000
# 4 0.0000 0.0000 0.0000 24.0427 0.0000 -8.9590
# 5 -20.8569 -10.4200 -10.7804 0.0000 18.4971 0.0000
# 6 0.0000 0.0000 0.0000 -8.9590 0.0000 23.6187
#
#
#
# Elastic Compliance Matrix: (Units=1/GPa)
#
#
# Indices 1 2 3 4 5 6 
#
# 1 0.025790 -0.001722 0.001023 0.000000 0.028706 0.000000
# 2 -0.001722 0.007370 0.000073 0.000000 0.002253 0.000000
# 3 0.001023 0.000073 0.012732 0.000000 0.008615 0.000000
# 4 0.000000 0.000000 0.000000 0.048439 0.000000 0.018374
# 5 0.028706 0.002253 0.008615 0.000000 0.092721 0.000000
# 6 0.000000 0.000000 0.000000 0.018374 0.000000 0.049309
#
#
# Mechanical properties :
#
#
# Convention : Reuss Voigt Hill
#
# Bulk Modulus (GPa) = 22.40113 40.09084 31.24599
# Shear Modulus (GPa) = 19.80245 30.39047 25.09646
#
# Velocity S-wave (km/s) = 2.92447 3.62290 3.29226
# Velocity P-wave (km/s) = 4.59110 5.90046 5.28648
#
# Compressibility (1/GPa) = 0.04464060
#
# Stress axis : x y z
#
# Youngs Moduli (GPa) = 38.77487 135.67977 78.53985
#
# Poissons Ratio (x) = 0.23364 -0.08033
# Poissons Ratio (y) = 0.06677 -0.00575
# Poissons Ratio (z) = -0.03966 -0.00994
#
# Static dielectric constant tensor:
#      x y z
#    x 4.290400 0.000000 -0.040000 
#    y 0.000000 4.181070 0.000000 
#    z -0.040000 0.000000 4.346150 
# 
# 
# High freq. dielectric constant tensor:
#      x y z
#    x 1.925200 0.000000 0.017350 
#    y 0.000000 1.901740 0.000000 
#    z 0.017350 0.000000 1.919820 
# 
# From -- ./inp_files/16198.got.cif
#   From: 2010.03.12/outbox.cif.g09.slc.cpg/sg8_9_cif.got.tgz:16198.got - 2010.03.31 10:45:26.
