data_PCOD8053225
_publ_section_title
;
Structure prediction by ZEFSAII (Michael W. Deem and Ramdas Pophale) SiO2 
 PCOD8053225
Probable space group: C M
;
_chemical_formula_sum "Si O2"
_cell_formula_units_Z 32
_cell_length_a 15.383587
_cell_length_b 8.533430
_cell_length_c 25.889303
_cell_angle_alpha 90.000000
_cell_angle_beta 152.733519
_cell_angle_gamma 90.000000
_cell_volume 1557.004875
_symmetry_space_group_name_H-M "C M"
_symmetry_group_IT_number 8
_symmetry_cell_setting 'monoclinic'
loop_
_space_group_symop_operation_xyz
x,y,z
x,-y,z
1/2+x,1/2+y,z
1/2+x,1/2-y,z
loop_
_atom_site_type_symbol
_atom_site_label
_atom_site_fract_x
_atom_site_fract_y
_atom_site_fract_z
Si Si1 0.817160 0.683138 0.753420
Si Si2 0.299233 0.815740 0.142809
Si Si3 0.438758 0.818280 0.510251
Si Si4 0.677791 0.318090 0.892863
Si Si5 0.898736 0.815931 0.376524
Si Si6 0.405098 0.180848 0.915374
Si Si7 0.980138 0.314661 0.134460
Si Si8 0.084048 0.316088 0.379138
O O1 0.765576 0.500000 0.724798
O O2 0.645540 0.784791 0.641746
O O3 0.858161 0.741788 0.833351
O O4 0.998272 0.713962 0.813002
O O5 0.382090 0.742190 0.133724
O O6 0.421384 0.749002 0.254997
O O7 0.325612 0.000000 0.155581
O O8 0.080016 0.773108 0.032682
O O9 0.436981 0.773183 0.449579
O O10 0.288851 0.717663 0.463429
O O11 0.389891 0.000000 0.490689
O O12 0.633623 0.500000 0.881695
O O13 0.723327 0.292401 0.856376
O O14 0.861130 0.258654 0.021980
O O15 0.697707 0.757435 0.246558
O O16 0.062628 0.771853 0.422474
O O17 0.900160 0.000000 0.388933
O O18 0.463777 0.000000 0.944873
O O19 0.977364 0.500000 0.136290
O O20 0.063554 0.500000 0.377915
#
# Coordination Sequence:
#
# PCOD8053225 Si02
#       8
#     4   4   4   4   4   4   4   4
#     4  11  24  42  61  86 120 157 202 260 314 362
#     4  10  19  35  61  91 124 163 200 244 301 360
#     4  12  26  44  65  89 118 163 214 261 314 367
#     4  10  20  38  62  88 121 160 201 243 298 368
#     4  11  22  41  66  94 127 163 204 254 312 371
#     4  10  22  38  60  91 123 157 199 251 305 360
#     4   9  17  33  60  90 123 161 196 242 305 365
#     4  11  23  41  63  93 130 166 206 253 305 367
#
# _framework density 20.55228
#
# number of rings (size 3 to 8) (size 9 to 14) (size 15 to 20)
#    0.000    1.500    2.500    3.000    0.000    4.000 
#    0.000    5.000    0.000    0.000    0.000    0.000 
#    0.000    0.000    0.000    0.000    0.000    0.000 
#
# Total GULP energy -198460.104619 kJ/mol
# GULP energy per Si atom -12403.756539 kJ/mol
# Density = 2.050550 g / cm^3
# Si number density = 20.552280 Si / 1000 Ang^3
#
#
#
# Elastic Constant Matrix: (Units=GPa)
#
#
# Indices 1 2 3 4 5 6 
#
# 1 129.5279 8.6907 35.5790 0.0000 2.0807 0.0000
# 2 8.6907 42.4802 15.0749 0.0001 -2.0768 0.0001
# 3 35.5790 15.0749 107.6921 0.0025 11.5296 0.0002
# 4 0.0000 0.0001 0.0025 24.4516 0.0004 6.8803
# 5 2.0807 -2.0768 11.5296 0.0004 10.0716 0.0000
# 6 0.0000 0.0001 0.0002 6.8803 0.0000 29.9668
#
#
#
# Elastic Compliance Matrix: (Units=1/GPa)
#
#
# Indices 1 2 3 4 5 6 
#
# 1 0.008532 -0.000657 -0.002876 0.000000 0.001394 0.000000
# 2 -0.000657 0.025805 -0.004535 0.000000 0.010649 0.000000
# 3 -0.002876 -0.004535 0.012431 -0.000001 -0.014571 0.000000
# 4 0.000000 0.000000 -0.000001 0.043722 -0.000001 -0.010038
# 5 0.001394 0.010649 -0.014571 -0.000001 0.117878 0.000000
# 6 0.000000 0.000000 0.000000 -0.010038 0.000000 0.035675
#
#
# Mechanical properties :
#
#
# Convention : Reuss Voigt Hill
#
# Bulk Modulus (GPa) = 32.64624 44.26547 38.45585
# Shear Modulus (GPa) = 18.49186 27.58836 23.04011
#
# Velocity S-wave (km/s) = 3.00283 3.66778 3.35184
# Velocity P-wave (km/s) = 5.28599 6.28662 5.80789
#
# Compressibility (1/GPa) = 0.03063140
#
# Stress axis : x y z
#
# Youngs Moduli (GPa) = 117.20538 38.75254 80.44520
#
# Poissons Ratio (x) = 0.02545 0.23137
# Poissons Ratio (y) = 0.07697 0.36484
# Poissons Ratio (z) = 0.33710 0.17575
#
# Static dielectric constant tensor:
#      x y z
#    x 3.809750 0.000000 -0.097970 
#    y 0.000000 3.474010 0.000000 
#    z -0.097970 0.000000 3.757060 
# 
# 
# High freq. dielectric constant tensor:
#      x y z
#    x 1.817510 0.000000 -0.002660 
#    y 0.000000 1.786320 0.000000 
#    z -0.002660 0.000000 1.800360 
# 
# From -- ./inp_files/28174.got.cif
#   From: 2010.03.12/outbox.cif.g09.slc.cpg/sg8_15_cif.got.tgz:28174.got - 2010.03.31 10:45:26.
