data_PCOD8053912
_publ_section_title
;
Structure prediction by ZEFSAII (Michael W. Deem and Ramdas Pophale) SiO2 
 PCOD8053912
Probable space group: C M
;
_chemical_formula_sum "Si O2"
_cell_formula_units_Z 26
_cell_length_a 15.867898
_cell_length_b 7.631063
_cell_length_c 22.474257
_cell_angle_alpha 90.000000
_cell_angle_beta 151.149394
_cell_angle_gamma 90.000000
_cell_volume 1313.142417
_symmetry_space_group_name_H-M "C M"
_symmetry_group_IT_number 8
_symmetry_cell_setting 'monoclinic'
loop_
_space_group_symop_operation_xyz
x,y,z
x,-y,z
1/2+x,1/2+y,z
1/2+x,1/2-y,z
loop_
_atom_site_type_symbol
_atom_site_label
_atom_site_fract_x
_atom_site_fract_y
_atom_site_fract_z
Si Si1 0.764930 0.802849 0.850620
Si Si2 0.865528 0.198050 0.263722
Si Si3 0.813136 0.000000 0.693016
Si Si4 0.450939 0.800305 0.853382
Si Si5 0.615952 0.000000 0.458039
Si Si6 0.504969 0.795367 0.098985
Si Si7 0.002344 0.000000 0.696573
Si Si8 0.330078 0.797190 0.109178
O O1 0.919218 0.735261 0.903291
O O2 0.600476 0.676677 0.738369
O O3 0.703454 0.000000 0.797661
O O4 0.846693 0.799584 0.966925
O O5 0.691257 0.269530 0.188944
O O6 0.850540 0.191198 0.182856
O O7 0.021475 0.323931 0.379247
O O8 0.906055 0.000000 0.310161
O O9 0.818313 0.823665 0.735127
O O10 0.985135 0.000000 0.757559
O O11 0.638214 0.000000 0.543964
O O12 0.410896 0.000000 0.810453
O O13 0.651567 0.753801 0.965294
O O14 0.809227 0.000000 0.547332
O O15 0.484264 0.753666 0.156839
O O16 0.482770 0.000000 0.072632
O O17 0.330523 0.000000 0.127007
#
# Coordination Sequence:
#
# PCOD8053912 Si02
#       8
#     4   4   2   4   2   4   2   4
#     4  12  22  37  66  99 133 171 213 270 344 400
#     4  11  23  44  69  95 129 179 225 269 330 395
#     4  10  24  43  63  92 123 179 226 264 328 390
#     4  12  22  38  65  99 137 172 214 277 343 400
#     4  10  26  47  69  85 135 182 223 275 322 381
#     4  10  22  38  63 100 137 167 207 273 340 397
#     4  10  24  44  62  91 132 169 221 275 326 383
#     4  11  21  38  65  99 137 172 211 273 344 401
#
# _framework density 19.799831999999999
#
# number of rings (size 3 to 8) (size 9 to 14) (size 15 to 20)
#    0.462    0.615    5.385    1.385    1.077    4.308 
#    0.000    1.538    0.000    0.000    0.000    0.000 
#    0.000    0.000    0.000    0.000    0.000    0.000 
#
# Total GULP energy -161184.569058 kJ/mol
# GULP energy per Si atom -12398.813004 kJ/mol
# Density = 1.975477 g / cm^3
# Si number density = 19.799832 Si / 1000 Ang^3
#
#
#
# Elastic Constant Matrix: (Units=GPa)
#
#
# Indices 1 2 3 4 5 6 
#
# 1 117.9946 29.5397 33.9726 -0.0011 6.4292 0.0000
# 2 29.5397 126.3642 44.0248 0.0016 12.7191 0.0000
# 3 33.9726 44.0248 108.0505 -0.0061 7.7229 -0.0003
# 4 -0.0011 0.0016 -0.0061 23.5596 -0.0005 0.2927
# 5 6.4292 12.7191 7.7229 -0.0005 31.5361 0.0001
# 6 0.0000 0.0000 -0.0003 0.2927 0.0001 27.6845
#
#
#
# Elastic Compliance Matrix: (Units=1/GPa)
#
#
# Indices 1 2 3 4 5 6 
#
# 1 0.009541 -0.001308 -0.002408 0.000000 -0.000828 0.000000
# 2 -0.001308 0.009661 -0.003324 -0.000002 -0.002816 0.000000
# 3 -0.002408 -0.003324 0.011435 0.000003 -0.000969 0.000000
# 4 0.000000 -0.000002 0.000003 0.042451 0.000001 -0.000449
# 5 -0.000828 -0.002816 -0.000969 0.000001 0.033251 0.000000
# 6 0.000000 0.000000 0.000000 -0.000449 0.000000 0.036126
#
#
# Mechanical properties :
#
#
# Convention : Reuss Voigt Hill
#
# Bulk Modulus (GPa) = 60.39350 63.05371 61.72361
# Shear Modulus (GPa) = 30.85205 32.88086 31.86646
#
# Velocity S-wave (km/s) = 3.95168 4.07955 4.01612
# Velocity P-wave (km/s) = 7.16863 7.35561 7.26272
#
# Compressibility (1/GPa) = 0.01655807
#
# Stress axis : x y z
#
# Youngs Moduli (GPa) = 104.81354 103.51087 87.44781
#
# Poissons Ratio (x) = 0.13541 0.21054
# Poissons Ratio (y) = 0.13712 0.29065
# Poissons Ratio (z) = 0.25234 0.34404
#
# Static dielectric constant tensor:
#      x y z
#    x 3.758740 0.000000 0.047100 
#    y 0.000000 3.608270 0.000000 
#    z 0.047100 0.000000 3.187200 
# 
# 
# High freq. dielectric constant tensor:
#      x y z
#    x 1.780300 0.000000 0.000330 
#    y 0.000000 1.783510 0.000000 
#    z 0.000330 0.000000 1.732690 
# 
# From -- ./inp_files/27812.got.cif
#   From: 2010.03.12/outbox.cif.g09.slc.cpg/sg8_14_cif.got.tgz:27812.got - 2010.03.31 10:45:26.
