data_PCOD8053927
_publ_section_title
;
Structure prediction by ZEFSAII (Michael W. Deem and Ramdas Pophale) SiO2 
 PCOD8053927
Probable space group: C M
;
_chemical_formula_sum "Si O2"
_cell_formula_units_Z 28
_cell_length_a 8.765523
_cell_length_b 13.042015
_cell_length_c 11.995906
_cell_angle_alpha 90.000000
_cell_angle_beta 68.702700
_cell_angle_gamma 90.000000
_cell_volume 1277.719633
_symmetry_space_group_name_H-M "C M"
_symmetry_group_IT_number 8
_symmetry_cell_setting 'monoclinic'
loop_
_space_group_symop_operation_xyz
x,y,z
x,-y,z
1/2+x,1/2+y,z
1/2+x,1/2-y,z
loop_
_atom_site_type_symbol
_atom_site_label
_atom_site_fract_x
_atom_site_fract_y
_atom_site_fract_z
Si Si1 0.104970 0.615175 0.867960
Si Si2 0.724834 0.119074 0.400294
Si Si3 0.170927 0.883165 0.698318
Si Si4 0.044418 0.241828 0.270132
Si Si5 0.029702 0.302682 0.649954
Si Si6 0.397660 0.384577 0.944492
Si Si7 0.378058 0.196925 0.102226
O O1 0.132939 0.500000 0.820470
O O2 0.069546 0.681763 0.769574
O O3 0.265303 0.657247 0.889294
O O4 0.947610 0.619872 0.991409
O O5 0.607460 0.182581 0.349383
O O6 0.651120 0.129603 0.543345
O O7 0.906875 0.165557 0.353172
O O8 0.730412 0.000000 0.364222
O O9 0.071380 0.819609 0.628646
O O10 0.345355 0.829439 0.668934
O O11 0.076535 0.882648 0.841347
O O12 0.192831 0.000000 0.649790
O O13 0.190163 0.171887 0.180863
O O14 0.979394 0.314496 0.188950
O O15 0.349837 0.500000 0.993673
O O16 0.394879 0.314623 0.054662
#
# Coordination Sequence:
#
# PCOD8053927 Si02
#       7
#     4   4   4   4   4   4   4
#     4  11  23  38  63 100 134 175 219 275 350 413
#     4  11  25  49  72  96 135 184 232 286 339 395
#     4  11  24  41  66 101 141 182 219 268 339 410
#     4  10  25  43  68  96 128 180 236 280 334 394
#     4  12  24  43  71 101 141 177 226 284 338 406
#     4  10  22  39  62  95 136 182 217 263 345 418
#     4  11  21  41  64  95 135 166 221 288 339 400
#
# _framework density 21.914041999999998
#
# number of rings (size 3 to 8) (size 9 to 14) (size 15 to 20)
#    0.000    1.143    2.857    3.000    2.000    3.429 
#    0.000    7.143    0.000    0.000    0.000    0.000 
#    0.000    0.000    0.000    0.000    0.000    0.000 
#
# Total GULP energy -173607.692994 kJ/mol
# GULP energy per Si atom -12400.549500 kJ/mol
# Density = 2.186416 g / cm^3
# Si number density = 21.914042 Si / 1000 Ang^3
#
#
#
# Elastic Constant Matrix: (Units=GPa)
#
#
# Indices 1 2 3 4 5 6 
#
# 1 138.5159 58.1431 46.8390 0.0000 -24.3996 0.0000
# 2 58.1431 133.3497 17.8272 0.0000 1.5536 0.0000
# 3 46.8390 17.8272 92.1112 0.0000 -19.7747 0.0000
# 4 0.0000 0.0000 0.0000 23.2044 0.0000 -1.9614
# 5 -24.3996 1.5536 -19.7747 0.0000 29.1173 0.0000
# 6 0.0000 0.0000 0.0000 -1.9614 0.0000 32.8131
#
#
#
# Elastic Compliance Matrix: (Units=1/GPa)
#
#
# Indices 1 2 3 4 5 6 
#
# 1 0.011727 -0.004753 -0.003371 0.000000 0.007791 0.000000
# 2 -0.004753 0.009695 -0.000498 0.000000 -0.004839 0.000000
# 3 -0.003371 -0.000498 0.014126 0.000000 0.006795 0.000000
# 4 0.000000 0.000000 0.000000 0.043314 0.000000 0.002589
# 5 0.007791 -0.004839 0.006795 0.000000 0.045746 0.000000
# 6 0.000000 0.000000 0.000000 0.002589 0.000000 0.030630
#
#
# Mechanical properties :
#
#
# Convention : Reuss Voigt Hill
#
# Bulk Modulus (GPa) = 54.63471 67.73282 61.18377
# Shear Modulus (GPa) = 27.99830 33.10479 30.55154
#
# Velocity S-wave (km/s) = 3.57829 3.89094 3.73789
# Velocity P-wave (km/s) = 6.48519 7.15272 6.82712
#
# Compressibility (1/GPa) = 0.01830338
#
# Stress axis : x y z
#
# Youngs Moduli (GPa) = 85.27476 103.15063 70.79337
#
# Poissons Ratio (x) = 0.49031 0.23861
# Poissons Ratio (y) = 0.40534 0.03525
# Poissons Ratio (z) = 0.28742 0.05137
#
# Static dielectric constant tensor:
#      x y z
#    x 4.086560 0.000000 -0.171950 
#    y 0.000000 3.929230 0.000000 
#    z -0.171950 0.000000 3.974270 
# 
# 
# High freq. dielectric constant tensor:
#      x y z
#    x 1.871360 0.000000 -0.014660 
#    y 0.000000 1.854990 0.000000 
#    z -0.014660 0.000000 1.858280 
# 
# From -- ./inp_files/18756.got.cif
#   From: 2010.03.12/outbox.cif.g09.slc.cpg/sg8_10_cif.got.tgz:18756.got - 2010.03.31 10:45:26.
