data_PCOD8053001
_publ_section_title
;
Structure prediction by ZEFSAII (Michael W. Deem and Ramdas Pophale) SiO2 
 PCOD8053001
Probable space group: C M
;
_chemical_formula_sum "Si O2"
_cell_formula_units_Z 32
_cell_length_a 14.388278
_cell_length_b 9.124748
_cell_length_c 29.308832
_cell_angle_alpha 90.000000
_cell_angle_beta 152.197141
_cell_angle_gamma 90.000000
_cell_volume 1794.797321
_symmetry_space_group_name_H-M "C M"
_symmetry_group_IT_number 8
_symmetry_cell_setting 'monoclinic'
loop_
_space_group_symop_operation_xyz
x,y,z
x,-y,z
1/2+x,1/2+y,z
1/2+x,1/2-y,z
loop_
_atom_site_type_symbol
_atom_site_label
_atom_site_fract_x
_atom_site_fract_y
_atom_site_fract_z
Si Si1 0.385090 0.330108 0.337100
Si Si2 0.966571 0.329733 0.005427
Si Si3 0.542079 0.335344 0.496271
Si Si4 0.128980 0.671401 0.977913
Si Si5 0.569226 0.329372 0.139299
Si Si6 0.152041 0.173576 0.640094
Si Si7 0.523131 0.671433 0.842156
Si Si8 0.820745 0.338827 0.540009
O O1 0.317307 0.500000 0.303715
O O2 0.379297 0.275869 0.388396
O O3 0.248070 0.227181 0.247874
O O4 0.616974 0.314695 0.421745
O O5 0.014074 0.500000 0.032624
O O6 0.732081 0.297061 0.907813
O O7 0.047325 0.275195 0.991485
O O8 0.082425 0.245384 0.095624
O O9 0.477267 0.500000 0.479388
O O10 0.564395 0.256402 0.554694
O O11 0.760002 0.332135 0.566954
O O12 0.085004 0.500000 0.951282
O O13 0.015087 0.760780 0.889318
O O14 0.363854 0.706325 0.076330
O O15 0.597130 0.500000 0.143419
O O16 0.359464 0.251040 0.740197
O O17 0.985195 0.213816 0.604664
O O18 0.187526 0.000000 0.653991
O O19 0.478874 0.500000 0.827093
O O20 0.910222 0.500000 0.567489
#
# Coordination Sequence:
#
# PCOD8053001 Si02
#       8
#     4   4   4   4   4   4   4   4
#     4   8  16  35  56  71 102 144 174 207 254 303
#     4   9  19  37  57  75 102 138 173 209 254 310
#     4   7  16  34  52  70  99 138 173 207 250 299
#     4   9  19  37  56  77 105 134 169 214 259 304
#     4  10  19  32  53  81 109 133 168 214 258 303
#     4  11  20  33  54  78 104 136 171 213 262 304
#     4  10  21  35  53  77 104 135 173 212 254 308
#     4   8  17  35  53  71  99 136 175 212 249 299
#
# _framework density 17.829311000000001
#
# number of rings (size 3 to 8) (size 9 to 14) (size 15 to 20)
#    0.750    2.250    0.000    1.125    0.000    3.000 
#    2.250    5.000    0.000    0.000    0.000    0.000 
#    0.000    0.000    0.000    0.000    0.000    0.000 
#
# Total GULP energy -198214.236670 kJ/mol
# GULP energy per Si atom -12388.389792 kJ/mol
# Density = 1.778873 g / cm^3
# Si number density = 17.829311 Si / 1000 Ang^3
#
#
#
# Elastic Constant Matrix: (Units=GPa)
#
#
# Indices 1 2 3 4 5 6 
#
# 1 79.3827 27.3997 21.5340 -0.0003 -12.9693 0.0001
# 2 27.3997 58.4950 32.7314 -0.0001 -6.7177 0.0001
# 3 21.5340 32.7314 73.1375 0.0008 -11.2426 -0.0001
# 4 -0.0003 -0.0001 0.0008 33.1043 0.0000 1.4280
# 5 -12.9693 -6.7177 -11.2426 0.0000 23.1013 -0.0001
# 6 0.0001 0.0001 -0.0001 1.4280 -0.0001 23.0583
#
#
#
# Elastic Compliance Matrix: (Units=1/GPa)
#
#
# Indices 1 2 3 4 5 6 
#
# 1 0.016112 -0.006266 -0.000896 0.000000 0.006787 0.000000
# 2 -0.006266 0.025313 -0.009612 0.000000 -0.000835 0.000000
# 3 -0.000896 -0.009612 0.019165 0.000000 0.006029 0.000000
# 4 0.000000 0.000000 0.000000 0.030288 0.000000 -0.001876
# 5 0.006787 -0.000835 0.006029 0.000000 0.049789 0.000000
# 6 0.000000 0.000000 0.000000 -0.001876 0.000000 0.043485
#
#
# Mechanical properties :
#
#
# Convention : Reuss Voigt Hill
#
# Bulk Modulus (GPa) = 36.97976 41.59395 39.28685
# Shear Modulus (GPa) = 22.05414 24.47611 23.26513
#
# Velocity S-wave (km/s) = 3.52086 3.70915 3.61623
# Velocity P-wave (km/s) = 6.10857 6.45936 6.28641
#
# Compressibility (1/GPa) = 0.02704182
#
# Stress axis : x y z
#
# Youngs Moduli (GPa) = 62.06559 39.50528 52.17815
#
# Poissons Ratio (x) = 0.24754 0.04677
# Poissons Ratio (y) = 0.38890 0.50153
# Poissons Ratio (z) = 0.05563 0.37972
#
# Static dielectric constant tensor:
#      x y z
#    x 3.259290 0.000000 -0.118260 
#    y 0.000000 3.155250 0.000000 
#    z -0.118260 0.000000 3.242730 
# 
# 
# High freq. dielectric constant tensor:
#      x y z
#    x 1.679030 0.000000 -0.006790 
#    y 0.000000 1.680880 0.000000 
#    z -0.006790 0.000000 1.686340 
# 
# From -- ./inp_files/30703.got.cif
#   From: 2010.03.12/outbox.cif.g09.slc.cpg/sg8_16_cif.got.tgz:30703.got - 2010.03.31 10:45:26.
