data_PCOD8053563
_publ_section_title
;
Structure prediction by ZEFSAII (Michael W. Deem and Ramdas Pophale) SiO2 
 PCOD8053563
Probable space group: C M
;
_chemical_formula_sum "Si O2"
_cell_formula_units_Z 32
_cell_length_a 24.434721
_cell_length_b 8.885454
_cell_length_c 14.322976
_cell_angle_alpha 90.000000
_cell_angle_beta 148.380973
_cell_angle_gamma 90.000000
_cell_volume 1630.325119
_symmetry_space_group_name_H-M "C M"
_symmetry_group_IT_number 8
_symmetry_cell_setting 'monoclinic'
loop_
_space_group_symop_operation_xyz
x,y,z
x,-y,z
1/2+x,1/2+y,z
1/2+x,1/2-y,z
loop_
_atom_site_type_symbol
_atom_site_label
_atom_site_fract_x
_atom_site_fract_y
_atom_site_fract_z
Si Si1 0.587830 0.678791 0.601770
Si Si2 0.118027 0.829491 0.281306
Si Si3 0.820723 0.677357 0.898748
Si Si4 0.952954 0.325771 0.923506
Si Si5 0.576203 0.322211 0.951417
Si Si6 0.771830 0.672830 0.357270
Si Si7 0.001668 0.679002 0.662073
Si Si8 0.493686 0.671740 0.272780
O O1 0.583219 0.500000 0.611974
O O2 0.705283 0.734562 0.753556
O O3 0.544056 0.768857 0.624906
O O4 0.518254 0.728772 0.412202
O O5 0.236442 0.805563 0.415182
O O6 0.101624 0.812754 0.368656
O O7 0.083264 0.000000 0.199278
O O8 0.049072 0.702355 0.132635
O O9 0.828488 0.500000 0.916196
O O10 0.851793 0.726220 0.837453
O O11 0.898387 0.738745 0.090223
O O12 0.946329 0.500000 0.885113
O O13 0.972424 0.230112 0.857721
O O14 0.574273 0.500000 0.937722
O O15 0.576046 0.247065 0.849707
O O16 0.680819 0.264006 0.156657
O O17 0.786716 0.500000 0.353509
O O18 0.884524 0.748337 0.504534
O O19 0.004485 0.500000 0.673642
O O20 0.457732 0.500000 0.223480
#
# Coordination Sequence:
#
# PCOD8053563 Si02
#       8
#     4   4   4   4   4   4   4   4
#     4  10  22  39  54  74 105 144 184 220 261 316
#     4   8  14  29  53  79 105 136 171 211 262 323
#     4   9  19  35  56  79 108 143 176 212 263 318
#     4   9  16  29  52  83 111 136 171 216 259 310
#     4  10  20  37  58  80 108 143 174 210 264 324
#     4   8  17  34  56  78 104 137 171 207 260 321
#     4  11  23  38  55  78 104 137 183 230 264 303
#     4   9  18  33  56  81 105 134 174 220 265 311
#
# _framework density 19.627987000000001
#
# number of rings (size 3 to 8) (size 9 to 14) (size 15 to 20)
#    0.000    2.750    0.000    1.875    0.000    3.500 
#    0.000   13.750    0.000    4.500    0.000    0.000 
#    0.000    0.000    0.000    0.000    0.000    0.000 
#
# Total GULP energy -198253.622914 kJ/mol
# GULP energy per Si atom -12390.851432 kJ/mol
# Density = 1.958331 g / cm^3
# Si number density = 19.627987 Si / 1000 Ang^3
#
#
#
# Elastic Constant Matrix: (Units=GPa)
#
#
# Indices 1 2 3 4 5 6 
#
# 1 95.6877 24.6059 14.1366 0.0000 -2.3862 0.0000
# 2 24.6059 39.7483 12.2249 0.0000 0.8031 0.0000
# 3 14.1366 12.2249 46.5924 0.0000 5.5868 0.0000
# 4 0.0000 0.0000 0.0000 20.9617 0.0000 -1.9016
# 5 -2.3862 0.8031 5.5868 0.0000 35.3790 0.0000
# 6 0.0000 0.0000 0.0000 -1.9016 0.0000 33.7416
#
#
#
# Elastic Compliance Matrix: (Units=1/GPa)
#
#
# Indices 1 2 3 4 5 6 
#
# 1 0.012650 -0.007210 -0.002108 0.000000 0.001350 0.000000
# 2 -0.007210 0.031485 -0.006044 0.000000 -0.000247 0.000000
# 3 -0.002108 -0.006044 0.024146 0.000000 -0.003818 0.000000
# 4 0.000000 0.000000 0.000000 0.047951 0.000000 0.002702
# 5 0.001350 -0.000247 -0.003818 0.000000 0.028965 0.000000
# 6 0.000000 0.000000 0.000000 0.002702 0.000000 0.029789
#
#
# Mechanical properties :
#
#
# Convention : Reuss Voigt Hill
#
# Bulk Modulus (GPa) = 26.62605 31.55147 29.08876
# Shear Modulus (GPa) = 22.91167 26.75385 24.83276
#
# Velocity S-wave (km/s) = 3.42028 3.69595 3.56078
# Velocity P-wave (km/s) = 5.40301 5.85859 5.63540
#
# Compressibility (1/GPa) = 0.03755721
#
# Stress axis : x y z
#
# Youngs Moduli (GPa) = 79.05303 31.76086 41.41467
#
# Poissons Ratio (x) = 0.22898 0.08731
# Poissons Ratio (y) = 0.56994 0.25031
# Poissons Ratio (z) = 0.16666 0.19196
#
# Static dielectric constant tensor:
#      x y z
#    x 3.856740 0.000000 0.138660 
#    y 0.000000 3.356900 0.000000 
#    z 0.138660 0.000000 3.518350 
# 
# 
# High freq. dielectric constant tensor:
#      x y z
#    x 1.776610 0.000000 0.001570 
#    y 0.000000 1.745500 0.000000 
#    z 0.001570 0.000000 1.745210 
# 
# From -- ./inp_files/26541.got.cif
#   From: 2010.03.12/outbox.cif.g09.slc.cpg/sg8_14_cif.got.tgz:26541.got - 2010.03.31 10:45:26.
