data_PCOD8053168
_publ_section_title
;
Structure prediction by ZEFSAII (Michael W. Deem and Ramdas Pophale) SiO2 
 PCOD8053168
Probable space group: C M
;
_chemical_formula_sum "Si O2"
_cell_formula_units_Z 24
_cell_length_a 18.207408
_cell_length_b 7.466940
_cell_length_c 17.857928
_cell_angle_alpha 90.000000
_cell_angle_beta 32.738319
_cell_angle_gamma 90.000000
_cell_volume 1312.988560
_symmetry_space_group_name_H-M "C M"
_symmetry_group_IT_number 8
_symmetry_cell_setting 'monoclinic'
loop_
_space_group_symop_operation_xyz
x,y,z
x,-y,z
1/2+x,1/2+y,z
1/2+x,1/2-y,z
loop_
_atom_site_type_symbol
_atom_site_label
_atom_site_fract_x
_atom_site_fract_y
_atom_site_fract_z
Si Si1 0.676580 0.500000 0.009290
Si Si2 0.107436 0.793832 0.792437
Si Si3 0.155824 0.500000 0.512899
Si Si4 0.200611 0.706650 0.870919
Si Si5 0.977644 0.500000 0.811375
Si Si6 0.907529 0.292971 0.481278
Si Si7 0.446775 0.500000 0.326688
Si Si8 0.500057 0.293248 0.560803
O O1 0.580726 0.500000 0.162525
O O2 0.647891 0.323002 0.985202
O O3 0.829903 0.500000 0.904639
O O4 0.104468 0.747509 0.882739
O O5 0.994773 0.676916 0.847207
O O6 0.253876 0.741732 0.633865
O O7 0.071506 0.000000 0.809444
O O8 0.089244 0.500000 0.651124
O O9 0.317327 0.500000 0.383246
O O10 0.115052 0.677508 0.502392
O O11 0.191554 0.500000 0.901557
O O12 0.354308 0.764076 0.719104
O O13 0.922264 0.500000 0.447010
O O14 0.003278 0.246139 0.469545
O O15 0.952170 0.177564 0.372323
O O16 0.531853 0.500000 0.549600
#
# Coordination Sequence:
#
# PCOD8053168 Si02
#       8
#     2   4   2   4   2   4   2   4
#     4  12  26  42  58  88 130 161 193 248 308 355
#     4  10  19  34  65  95 117 148 202 254 295 346
#     4  12  22  38  60  96 122 148 203 260 295 337
#     4  10  19  36  64  91 117 159 201 239 297 360
#     4  12  22  38  60  96 122 148 203 260 295 337
#     4  10  19  36  64  91 117 159 201 239 297 360
#     4  12  26  42  58  88 130 161 193 248 308 355
#     4  10  19  34  65  95 117 148 202 254 295 346
#
# _framework density 18.27891
#
# number of rings (size 3 to 8) (size 9 to 14) (size 15 to 20)
#    0.000    1.333    6.667    0.000    0.000    2.667 
#    0.000    1.667    0.000    0.000    0.000    0.000 
#    0.000    0.000    0.000    0.000    0.000    0.000 
#
# Total GULP energy -148862.548302 kJ/mol
# GULP energy per Si atom -12405.212358 kJ/mol
# Density = 1.823731 g / cm^3
# Si number density = 18.278910 Si / 1000 Ang^3
#
#
#
# Elastic Constant Matrix: (Units=GPa)
#
#
# Indices 1 2 3 4 5 6 
#
# 1 87.7760 45.5222 6.6084 0.0005 17.7604 -0.0003
# 2 45.5222 126.1318 22.4274 0.0017 16.8115 -0.0011
# 3 6.6084 22.4274 42.4492 0.0013 20.9311 -0.0010
# 4 0.0005 0.0017 0.0013 18.5925 -0.0010 9.8600
# 5 17.7604 16.8115 20.9311 -0.0010 21.4148 0.0006
# 6 -0.0003 -0.0011 -0.0010 9.8600 0.0006 39.5685
#
#
#
# Elastic Compliance Matrix: (Units=1/GPa)
#
#
# Indices 1 2 3 4 5 6 
#
# 1 0.017516 -0.005431 0.010044 -0.000002 -0.020081 0.000001
# 2 -0.005431 0.010669 -0.005564 0.000000 0.001567 0.000000
# 3 0.010044 -0.005564 0.051901 -0.000008 -0.054691 0.000004
# 4 -0.000002 0.000000 -0.000008 0.061975 0.000014 -0.015443
# 5 -0.020081 0.001567 -0.054691 0.000014 0.115576 -0.000007
# 6 0.000001 0.000000 0.000004 -0.015443 -0.000007 0.029121
#
#
# Mechanical properties :
#
#
# Convention : Reuss Voigt Hill
#
# Bulk Modulus (GPa) = 12.79040 45.05254 28.92147
# Shear Modulus (GPa) = 15.88708 28.03510 21.96109
#
# Velocity S-wave (km/s) = 2.95133 3.92055 3.46995
# Velocity P-wave (km/s) = 4.31582 6.72273 5.64896
#
# Compressibility (1/GPa) = 0.07818365
#
# Stress axis : x y z
#
# Youngs Moduli (GPa) = 57.08983 93.73079 19.26750
#
# Poissons Ratio (x) = 0.50908 -0.19352
# Poissons Ratio (y) = 0.31007 0.10720
# Poissons Ratio (z) = -0.57342 0.52152
#
# Static dielectric constant tensor:
#      x y z
#    x 3.468230 0.000000 0.146930 
#    y 0.000000 3.936170 0.000000 
#    z 0.146930 0.000000 2.915040 
# 
# 
# High freq. dielectric constant tensor:
#      x y z
#    x 1.719480 0.000000 0.016460 
#    y 0.000000 1.729080 0.000000 
#    z 0.016460 0.000000 1.656780 
# 
# From -- ./inp_files/26493.got.cif
#   From: 2010.03.12/outbox.cif.g09.slc.cpg/sg8_14_cif.got.tgz:26493.got - 2010.03.31 10:45:26.
