data_PCOD8053130
_publ_section_title
;
Structure prediction by ZEFSAII (Michael W. Deem and Ramdas Pophale) SiO2 
 PCOD8053130
Probable space group: C M
;
_chemical_formula_sum "Si O2"
_cell_formula_units_Z 32
_cell_length_a 27.095980
_cell_length_b 8.684351
_cell_length_c 22.240575
_cell_angle_alpha 90.000000
_cell_angle_beta 18.633080
_cell_angle_gamma 90.000000
_cell_volume 1672.121684
_symmetry_space_group_name_H-M "C M"
_symmetry_group_IT_number 8
_symmetry_cell_setting 'monoclinic'
loop_
_space_group_symop_operation_xyz
x,y,z
x,-y,z
1/2+x,1/2+y,z
1/2+x,1/2-y,z
loop_
_atom_site_type_symbol
_atom_site_label
_atom_site_fract_x
_atom_site_fract_y
_atom_site_fract_z
Si Si1 0.710710 0.180861 0.592050
Si Si2 0.550158 0.329867 0.884935
Si Si3 0.505587 0.181363 0.309231
Si Si4 0.200020 0.183896 0.887601
Si Si5 0.627280 0.817933 0.553345
Si Si6 0.302648 0.320109 0.893271
Si Si7 0.408266 0.817838 0.160476
Si Si8 0.873501 0.667900 0.578343
O O1 0.577676 0.250355 0.788632
O O2 0.882883 0.239896 0.406867
O O3 0.675657 0.229942 0.564498
O O4 0.707702 0.000000 0.604583
O O5 0.478638 0.500000 0.957164
O O6 0.711878 0.345432 0.730975
O O7 0.435758 0.232237 0.059590
O O8 0.488789 0.250124 0.397358
O O9 0.466330 0.000000 0.355612
O O10 0.678275 0.213998 0.088788
O O11 0.035746 0.254197 0.059532
O O12 0.187357 0.000000 0.895648
O O13 0.245427 0.229974 0.901333
O O14 0.335048 0.250232 0.686383
O O15 0.461881 0.745529 0.732254
O O16 0.744103 0.748199 0.370101
O O17 0.620000 0.000000 0.553391
O O18 0.315197 0.500000 0.863852
O O19 0.407418 0.000000 0.165301
O O20 0.942335 0.500000 0.513741
#
# Coordination Sequence:
#
# PCOD8053130 Si02
#       8
#     4   4   4   4   4   4   4   4
#     4  10  20  34  56  84 110 140 182 228 272 323
#     4   9  17  32  55  82 112 143 176 218 274 332
#     4   9  18  34  56  80 106 137 176 221 270 324
#     4  10  19  34  57  82 110 144 180 219 270 330
#     4  11  24  40  55  75 109 151 190 229 279 332
#     4  11  23  37  54  78 108 144 187 232 275 322
#     4  11  21  35  58  86 113 141 182 232 276 323
#     4   7  13  28  51  77 102 132 171 213 256 312
#
# _framework density 19.137364000000002
#
# number of rings (size 3 to 8) (size 9 to 14) (size 15 to 20)
#    0.000    2.250    0.000    5.250    0.000    5.000 
#    0.000    1.875    0.000    4.500    0.000    0.000 
#    0.000    0.000    0.000    0.000    0.000    0.000 
#
# Total GULP energy -198305.957431 kJ/mol
# GULP energy per Si atom -12394.122339 kJ/mol
# Density = 1.909381 g / cm^3
# Si number density = 19.137364 Si / 1000 Ang^3
#
#
#
# Elastic Constant Matrix: (Units=GPa)
#
#
# Indices 1 2 3 4 5 6 
#
# 1 27.7477 25.1531 54.6048 0.0023 8.0220 0.0007
# 2 25.1531 99.7143 50.0573 0.0012 5.3810 -0.0011
# 3 54.6048 50.0573 151.6832 -0.0012 17.6991 -0.0002
# 4 0.0023 0.0012 -0.0012 29.7184 -0.0002 1.7990
# 5 8.0220 5.3810 17.6991 -0.0002 30.4264 0.0006
# 6 0.0007 -0.0011 -0.0002 1.7990 0.0006 27.2340
#
#
#
# Elastic Compliance Matrix: (Units=1/GPa)
#
#
# Indices 1 2 3 4 5 6 
#
# 1 0.135534 -0.011665 -0.043999 -0.000012 -0.008076 -0.000003
# 2 -0.011665 0.013025 -0.000203 0.000000 0.000890 0.000001
# 3 -0.043999 -0.000203 0.022681 0.000004 -0.001557 0.000001
# 4 -0.000012 0.000000 0.000004 0.033784 0.000001 -0.002232
# 5 -0.008076 0.000890 -0.001557 0.000001 0.035744 -0.000001
# 6 -0.000003 0.000001 0.000001 -0.002232 -0.000001 0.036866
#
#
# Mechanical properties :
#
#
# Convention : Reuss Voigt Hill
#
# Bulk Modulus (GPa) = 16.80515 59.86395 38.33455
# Shear Modulus (GPa) = 12.21883 27.43110 19.82496
#
# Velocity S-wave (km/s) = 2.52956 3.79011 3.22208
# Velocity P-wave (km/s) = 4.16317 7.10650 5.82384
#
# Compressibility (1/GPa) = 0.05950556
#
# Stress axis : x y z
#
# Youngs Moduli (GPa) = 7.37820 76.77522 44.09017
#
# Poissons Ratio (x) = 0.89558 1.93994
# Poissons Ratio (y) = 0.08607 0.00895
# Poissons Ratio (z) = 0.32464 0.01558
#
# Static dielectric constant tensor:
#      x y z
#    x 3.484720 0.000000 0.489010 
#    y 0.000000 3.526090 0.000010 
#    z 0.489010 0.000010 3.798910 
# 
# 
# High freq. dielectric constant tensor:
#      x y z
#    x 1.727440 0.000000 0.032670 
#    y 0.000000 1.741480 0.000000 
#    z 0.032670 0.000000 1.750310 
# 
# From -- ./inp_files/31651.got.cif
#   From: 2010.03.12/outbox.cif.g09.slc.cpg/sg8_16_cif.got.tgz:31651.got - 2010.03.31 10:45:26.
