data_PCOD8053976
_publ_section_title
;
Structure prediction by ZEFSAII (Michael W. Deem and Ramdas Pophale) SiO2 
 PCOD8053976
Probable space group: C M
;
_chemical_formula_sum "Si O2"
_cell_formula_units_Z 26
_cell_length_a 13.974549
_cell_length_b 7.589260
_cell_length_c 34.019510
_cell_angle_alpha 90.000000
_cell_angle_beta 157.079536
_cell_angle_gamma 90.000000
_cell_volume 1405.142186
_symmetry_space_group_name_H-M "C M"
_symmetry_group_IT_number 8
_symmetry_cell_setting 'monoclinic'
loop_
_space_group_symop_operation_xyz
x,y,z
x,-y,z
1/2+x,1/2+y,z
1/2+x,1/2-y,z
loop_
_atom_site_type_symbol
_atom_site_label
_atom_site_fract_x
_atom_site_fract_y
_atom_site_fract_z
Si Si1 0.053190 0.000000 0.806670
Si Si2 0.157074 0.803294 0.524433
Si Si3 0.247219 0.500000 0.618804
Si Si4 0.153688 0.798688 0.140028
Si Si5 0.510805 0.000000 0.608358
Si Si6 0.668105 0.792178 0.300955
Si Si7 0.433679 0.197626 0.135926
Si Si8 0.423580 0.704386 0.969511
O O1 0.192663 0.177851 0.870904
O O2 0.000764 0.000000 0.739815
O O3 0.791467 0.000000 0.730656
O O4 0.915957 0.712875 0.413435
O O5 0.246722 0.676064 0.592727
O O6 0.368905 0.825692 0.571045
O O7 0.100572 0.000000 0.520695
O O8 0.017019 0.500000 0.562747
O O9 0.045066 0.689722 0.134968
O O10 0.433543 0.738768 0.238630
O O11 0.144927 0.000000 0.149967
O O12 0.985065 0.765582 0.038512
O O13 0.618042 0.714947 0.237883
O O14 0.709381 0.000000 0.314908
O O15 0.391741 0.000000 0.136259
O O16 0.157970 0.277126 0.032958
O O17 0.359024 0.500000 0.936329
#
# Coordination Sequence:
#
# PCOD8053976 Si02
#       8
#     2   4   2   4   2   4   4   4
#     4  10  22  42  57  82 115 148 203 260 283 355
#     4   9  19  42  62  84 123 159 191 260 302 348
#     4  10  22  42  60  92 114 150 216 250 298 367
#     4   9  18  33  52  83 115 146 191 226 277 367
#     4   8  22  42  59  88 117 152 207 254 293 360
#     4   8  16  34  56  75 118 153 177 231 295 339
#     4   9  18  33  53  83 116 149 185 229 284 354
#     4   9  20  39  55  78 117 154 184 239 300 336
#
# _framework density 18.503466
#
# number of rings (size 3 to 8) (size 9 to 14) (size 15 to 20)
#    0.923    2.154    0.000    1.846    2.154    1.846 
#    8.308    0.000    0.000    0.000    0.000    0.000 
#    0.000    0.000    0.000    0.000    0.000    0.000 
#
# Total GULP energy -161050.290977 kJ/mol
# GULP energy per Si atom -12388.483921 kJ/mol
# Density = 1.846135 g / cm^3
# Si number density = 18.503466 Si / 1000 Ang^3
#
#
#
# Elastic Constant Matrix: (Units=GPa)
#
#
# Indices 1 2 3 4 5 6 
#
# 1 122.5602 26.6132 46.7086 0.0081 -0.1202 -0.0031
# 2 26.6132 70.3820 43.0304 0.0165 -2.3756 -0.0015
# 3 46.7086 43.0304 133.1467 0.0235 11.4390 -0.0046
# 4 0.0081 0.0165 0.0235 19.6296 0.0019 -3.8178
# 5 -0.1202 -2.3756 11.4390 0.0019 24.5237 0.0028
# 6 -0.0031 -0.0015 -0.0046 -3.8178 0.0028 26.2968
#
#
#
# Elastic Compliance Matrix: (Units=1/GPa)
#
#
# Indices 1 2 3 4 5 6 
#
# 1 0.009666 -0.001840 -0.002901 0.000001 0.001222 0.000001
# 2 -0.001840 0.018562 -0.005737 -0.000009 0.004465 -0.000002
# 3 -0.002901 -0.005737 0.010867 -0.000006 -0.005639 0.000001
# 4 0.000001 -0.000009 -0.000006 0.052424 -0.000003 0.007611
# 5 0.001222 0.004465 -0.005639 -0.000003 0.043846 -0.000006
# 6 0.000001 -0.000002 0.000001 0.007611 -0.000006 0.039132
#
#
# Mechanical properties :
#
#
# Convention : Reuss Voigt Hill
#
# Bulk Modulus (GPa) = 55.13175 62.08815 58.60995
# Shear Modulus (GPa) = 24.81405 28.07247 26.44326
#
# Velocity S-wave (km/s) = 3.66601 3.89928 3.78444
# Velocity P-wave (km/s) = 6.91227 7.34168 7.13021
#
# Compressibility (1/GPa) = 0.01813837
#
# Stress axis : x y z
#
# Youngs Moduli (GPa) = 103.45949 53.87303 92.02313
#
# Poissons Ratio (x) = 0.09912 0.26698
# Poissons Ratio (y) = 0.19035 0.52795
# Poissons Ratio (z) = 0.30015 0.30908
#
# Static dielectric constant tensor:
#      x y z
#    x 3.194300 0.000000 0.044190 
#    y 0.000000 3.100650 0.000000 
#    z 0.044190 0.000000 3.427620 
# 
# 
# High freq. dielectric constant tensor:
#      x y z
#    x 1.708190 0.000000 0.001180 
#    y 0.000000 1.702880 0.000000 
#    z 0.001180 0.000000 1.712830 
# 
# From -- ./inp_files/32796.got.cif
#   From: 2010.03.12/outbox.cif.g09.slc.cpg/sg8_17_cif.got.tgz:32796.got - 2010.03.31 10:45:26.
