data_PCOD8053579
_publ_section_title
;
Structure prediction by ZEFSAII (Michael W. Deem and Ramdas Pophale) SiO2 
 PCOD8053579
Probable space group: C M
;
_chemical_formula_sum "Si O2"
_cell_formula_units_Z 32
_cell_length_a 14.706281
_cell_length_b 8.925748
_cell_length_c 12.114892
_cell_angle_alpha 90.000000
_cell_angle_beta 90.185717
_cell_angle_gamma 90.000000
_cell_volume 1590.247592
_symmetry_space_group_name_H-M "C M"
_symmetry_group_IT_number 8
_symmetry_cell_setting 'monoclinic'
loop_
_space_group_symop_operation_xyz
x,y,z
x,-y,z
1/2+x,1/2+y,z
1/2+x,1/2-y,z
loop_
_atom_site_type_symbol
_atom_site_label
_atom_site_fract_x
_atom_site_fract_y
_atom_site_fract_z
Si Si1 0.323590 0.327231 0.345970
Si Si2 0.689772 0.672161 0.182125
Si Si3 0.982156 0.171323 0.189554
Si Si4 0.153324 0.321854 0.723034
Si Si5 0.157060 0.826917 0.939793
Si Si6 0.946606 0.676201 0.738883
Si Si7 0.966614 0.324492 0.977773
Si Si8 0.293706 0.177797 0.575269
O O1 0.306962 0.500000 0.378245
O O2 0.252877 0.282084 0.251277
O O3 0.426159 0.303416 0.301658
O O4 0.312034 0.220405 0.449867
O O5 0.702282 0.500000 0.221151
O O6 0.585864 0.726570 0.204575
O O7 0.717096 0.685695 0.051965
O O8 0.984934 0.000000 0.152932
O O9 0.927280 0.254254 0.090082
O O10 0.161489 0.500000 0.728853
O O11 0.202295 0.248820 0.831639
O O12 0.048804 0.264869 0.716990
O O13 0.201723 0.258367 0.614339
O O14 0.067444 0.735108 0.964420
O O15 0.135901 0.000000 0.913692
O O16 0.948686 0.500000 0.723615
O O17 0.913440 0.717187 0.863931
O O18 0.876224 0.743388 0.650294
O O19 0.968896 0.500000 0.994126
O O20 0.282904 0.000000 0.585828
#
# Coordination Sequence:
#
# PCOD8053579 Si02
#       8
#     4   4   4   4   4   4   4   4
#     4  11  24  40  56  79 110 143 187 237 278 322
#     4   9  19  37  59  82 111 147 183 221 270 330
#     4   9  20  38  57  80 113 147 179 222 276 331
#     4  10  20  37  59  85 115 145 181 226 275 324
#     4   9  17  32  55  84 116 147 180 219 270 331
#     4   8  18  36  57  81 111 144 177 219 270 326
#     4   9  16  30  55  85 113 141 178 223 272 327
#     4  11  23  40  58  78 107 146 191 231 273 327
#
# _framework density 20.122651999999999
#
# number of rings (size 3 to 8) (size 9 to 14) (size 15 to 20)
#    0.000    2.500    0.000    3.375    0.000    5.500 
#    0.000   13.750    0.000    0.000    0.000    0.000 
#    0.000    0.000    0.000    0.000    0.000    0.000 
#
# Total GULP energy -198309.889308 kJ/mol
# GULP energy per Si atom -12394.368082 kJ/mol
# Density = 2.007685 g / cm^3
# Si number density = 20.122652 Si / 1000 Ang^3
#
#
#
# Elastic Constant Matrix: (Units=GPa)
#
#
# Indices 1 2 3 4 5 6 
#
# 1 43.8250 7.0844 10.6160 0.0000 1.2453 0.0000
# 2 7.0844 116.3608 28.8013 0.0000 1.5709 0.0000
# 3 10.6160 28.8013 88.4932 0.0000 -3.1606 0.0000
# 4 0.0000 0.0000 0.0000 38.6658 0.0000 -3.8633
# 5 1.2453 1.5709 -3.1606 0.0000 30.0148 0.0000
# 6 0.0000 0.0000 0.0000 -3.8633 0.0000 21.9132
#
#
#
# Elastic Compliance Matrix: (Units=1/GPa)
#
#
# Indices 1 2 3 4 5 6 
#
# 1 0.023613 -0.000771 -0.002625 0.000000 -0.001216 0.000000
# 2 -0.000771 0.009392 -0.002992 0.000000 -0.000775 0.000000
# 3 -0.002625 -0.002992 0.012646 0.000000 0.001597 0.000000
# 4 0.000000 0.000000 0.000000 0.026326 0.000000 0.004641
# 5 -0.001216 -0.000775 0.001597 0.000000 0.033576 0.000000
# 6 0.000000 0.000000 0.000000 0.004641 0.000000 0.046453
#
#
# Mechanical properties :
#
#
# Convention : Reuss Voigt Hill
#
# Bulk Modulus (GPa) = 30.41890 37.96471 34.19181
# Shear Modulus (GPa) = 28.45091 31.59725 30.02408
#
# Velocity S-wave (km/s) = 3.76423 3.96692 3.86690
# Velocity P-wave (km/s) = 5.83457 6.31581 6.07995
#
# Compressibility (1/GPa) = 0.03287430
#
# Stress axis : x y z
#
# Youngs Moduli (GPa) = 42.34930 106.47458 79.07650
#
# Poissons Ratio (x) = 0.08214 0.20758
# Poissons Ratio (y) = 0.03267 0.23658
# Poissons Ratio (z) = 0.11117 0.31855
#
# Static dielectric constant tensor:
#      x y z
#    x 3.616690 0.000000 0.050950 
#    y 0.000000 3.605860 0.000000 
#    z 0.050950 0.000000 3.861460 
# 
# 
# High freq. dielectric constant tensor:
#      x y z
#    x 1.771480 0.000000 -0.005390 
#    y 0.000000 1.779160 0.000000 
#    z -0.005390 0.000000 1.790220 
# 
# From -- ./inp_files/21539.got.cif
#   From: 2010.03.12/outbox.cif.g09.slc.cpg/sg8_11_cif.got.tgz:21539.got - 2010.03.31 10:45:26.
