data_PCOD8053067
_publ_section_title
;
Structure prediction by ZEFSAII (Michael W. Deem and Ramdas Pophale) SiO2 
 PCOD8053067
Probable space group: C M
;
_chemical_formula_sum "Si O2"
_cell_formula_units_Z 32
_cell_length_a 28.671129
_cell_length_b 8.742419
_cell_length_c 12.163929
_cell_angle_alpha 90.000000
_cell_angle_beta 148.692959
_cell_angle_gamma 90.000000
_cell_volume 1584.307883
_symmetry_space_group_name_H-M "C M"
_symmetry_group_IT_number 8
_symmetry_cell_setting 'monoclinic'
loop_
_space_group_symop_operation_xyz
x,y,z
x,-y,z
1/2+x,1/2+y,z
1/2+x,1/2-y,z
loop_
_atom_site_type_symbol
_atom_site_label
_atom_site_fract_x
_atom_site_fract_y
_atom_site_fract_z
Si Si1 0.375000 0.819132 0.079400
Si Si2 0.712294 0.677936 0.608123
Si Si3 0.908211 0.681379 0.392259
Si Si4 0.033255 0.669291 0.992291
Si Si5 0.021235 0.318247 0.206717
Si Si6 0.258659 0.681425 0.244428
Si Si7 0.564303 0.320514 0.837644
Si Si8 0.743524 0.831939 0.455517
O O1 0.386764 0.759116 0.226424
O O2 0.451605 0.748550 0.154187
O O3 0.384502 0.000000 0.094471
O O4 0.277364 0.770693 0.838183
O O5 0.691377 0.500000 0.567849
O O6 0.620215 0.766298 0.439872
O O7 0.762244 0.716150 0.593094
O O8 0.922018 0.500000 0.425185
O O9 0.825392 0.728161 0.300953
O O10 0.999530 0.765428 0.610161
O O11 0.994571 0.500000 0.886243
O O12 0.992706 0.735852 0.025360
O O13 0.138414 0.655479 0.223145
O O14 0.014326 0.782441 0.852600
O O15 0.021645 0.500000 0.207286
O O16 0.266568 0.500000 0.241827
O O17 0.286009 0.725124 0.425450
O O18 0.157708 0.732218 0.013244
O O19 0.581710 0.500000 0.864324
O O20 0.780924 0.000000 0.562084
#
# Coordination Sequence:
#
# PCOD8053067 Si02
#       8
#     4   4   4   4   4   4   4   4
#     4   9  21  39  56  77 107 144 186 228 270 323
#     4  10  19  33  55  84 113 139 175 225 274 321
#     4  11  23  40  59  80 110 149 194 237 278 327
#     4   8  15  30  54  82 111 143 179 220 271 332
#     4   9  18  36  58  79 108 146 181 216 268 330
#     4  10  21  39  60  84 115 148 185 230 280 333
#     4  11  22  37  58  85 116 148 185 230 281 334
#     4   8  16  32  54  81 112 143 175 216 270 332
#
# _framework density 20.198094000000001
#
# number of rings (size 3 to 8) (size 9 to 14) (size 15 to 20)
#    0.000    2.500    0.000    3.750    0.000    7.000 
#    0.000    8.750    0.000    0.000    0.000    0.000 
#    0.000    0.000    0.000    0.000    0.000    0.000 
#
# Total GULP energy -198343.811388 kJ/mol
# GULP energy per Si atom -12396.488212 kJ/mol
# Density = 2.015212 g / cm^3
# Si number density = 20.198094 Si / 1000 Ang^3
#
#
#
# Elastic Constant Matrix: (Units=GPa)
#
#
# Indices 1 2 3 4 5 6 
#
# 1 63.0268 -0.8608 -12.0394 0.0000 -6.3729 0.0000
# 2 -0.8608 42.0526 3.5170 0.0000 -8.9521 0.0000
# 3 -12.0394 3.5170 50.1339 0.0000 -15.7017 0.0000
# 4 0.0000 0.0000 0.0000 28.9166 0.0000 0.8504
# 5 -6.3729 -8.9521 -15.7017 0.0000 30.1735 0.0000
# 6 0.0000 0.0000 0.0000 0.8504 0.0000 25.0873
#
#
#
# Elastic Compliance Matrix: (Units=1/GPa)
#
#
# Indices 1 2 3 4 5 6 
#
# 1 0.017919 0.001443 0.006596 0.000000 0.007645 0.000000
# 2 0.001443 0.025519 0.001222 0.000000 0.008512 0.000000
# 3 0.006596 0.001222 0.026278 0.000000 0.015430 0.000000
# 4 0.000000 0.000000 0.000000 0.034617 0.000000 -0.001173
# 5 0.007645 0.008512 0.015430 0.000000 0.045311 0.000000
# 6 0.000000 0.000000 0.000000 -0.001173 0.000000 0.039901
#
#
# Mechanical properties :
#
#
# Convention : Reuss Voigt Hill
#
# Bulk Modulus (GPa) = 11.33297 15.16077 13.24687
# Shear Modulus (GPa) = 24.94576 27.80857 26.37717
#
# Velocity S-wave (km/s) = 3.51815 3.71454 3.61768
# Velocity P-wave (km/s) = 4.70385 5.09111 4.90131
#
# Compressibility (1/GPa) = 0.08823812
#
# Stress axis : x y z
#
# Youngs Moduli (GPa) = 55.80638 39.18641 38.05518
#
# Poissons Ratio (x) = -0.05653 -0.25103
# Poissons Ratio (y) = -0.08051 -0.04651
# Poissons Ratio (z) = -0.36813 -0.04789
#
# Static dielectric constant tensor:
#      x y z
#    x 4.085550 0.000000 -0.254480 
#    y 0.000000 3.481000 0.000000 
#    z -0.254480 0.000000 3.631550 
# 
# 
# High freq. dielectric constant tensor:
#      x y z
#    x 1.790340 0.000000 -0.005130 
#    y 0.000000 1.773690 0.000000 
#    z -0.005130 0.000000 1.783580 
# 
# From -- ./inp_files/24817.got.cif
#   From: 2010.03.12/outbox.cif.g09.slc.cpg/sg8_13_cif.got.tgz:24817.got - 2010.03.31 10:45:26.
