data_PCOD8053791
_publ_section_title
;
Structure prediction by ZEFSAII (Michael W. Deem and Ramdas Pophale) SiO2 
 PCOD8053791
Probable space group: C M
;
_chemical_formula_sum "Si O2"
_cell_formula_units_Z 32
_cell_length_a 13.997794
_cell_length_b 8.422620
_cell_length_c 15.757364
_cell_angle_alpha 90.000000
_cell_angle_beta 117.136725
_cell_angle_gamma 90.000000
_cell_volume 1653.261862
_symmetry_space_group_name_H-M "C M"
_symmetry_group_IT_number 8
_symmetry_cell_setting 'monoclinic'
loop_
_space_group_symop_operation_xyz
x,y,z
x,-y,z
1/2+x,1/2+y,z
1/2+x,1/2-y,z
loop_
_atom_site_type_symbol
_atom_site_label
_atom_site_fract_x
_atom_site_fract_y
_atom_site_fract_z
Si Si1 0.791170 0.683191 0.986710
Si Si2 0.007420 0.815099 0.130008
Si Si3 0.850901 0.681780 0.825513
Si Si4 0.818795 0.684668 0.479269
Si Si5 0.748531 0.816304 0.621861
Si Si6 0.027547 0.183266 0.483197
Si Si7 0.600646 0.184645 0.339260
Si Si8 0.584595 0.816295 0.986729
O O1 0.825644 0.500000 0.011101
O O2 0.786890 0.725953 0.885309
O O3 0.879928 0.789532 0.069634
O O4 0.675925 0.712655 0.980018
O O5 0.047056 0.727528 0.229392
O O6 0.071070 0.739456 0.077480
O O7 0.033922 0.000000 0.146558
O O8 0.830423 0.500000 0.790878
O O9 0.809380 0.795504 0.735036
O O10 0.976586 0.714088 0.890307
O O11 0.790542 0.500000 0.470414
O O12 0.823533 0.750361 0.577098
O O13 0.726623 0.773021 0.388134
O O14 0.932160 0.710680 0.480898
O O15 0.635688 0.724443 0.578035
O O16 0.724892 0.000000 0.595829
O O17 0.041885 0.218005 0.389604
O O18 0.998870 0.000000 0.485231
O O19 0.585766 0.000000 0.352130
O O20 0.617500 0.000000 0.999162
#
# Coordination Sequence:
#
# PCOD8053791 Si02
#       8
#     4   4   4   4   4   4   4   4
#     4  10  21  38  59  84 114 148 187 232 281 332
#     4  11  22  38  59  84 114 149 188 230 279 331
#     4   9  20  38  57  80 114 151 188 232 279 329
#     4  11  22  39  60  84 114 148 187 231 280 331
#     4  11  22  37  58  85 115 149 188 230 279 333
#     4  11  22  39  60  84 114 148 187 231 280 331
#     4  11  22  39  60  85 115 147 186 230 279 333
#     4  10  21  38  59  84 114 148 187 232 281 332
#
# _framework density 19.355675000000002
#
# number of rings (size 3 to 8) (size 9 to 14) (size 15 to 20)
#    0.000    1.500    0.000    8.625    0.000    5.000 
#    0.000    7.500    0.000    0.000    0.000    0.000 
#    0.000    0.000    0.000    0.000    0.000    0.000 
#
# Total GULP energy -198497.097758 kJ/mol
# GULP energy per Si atom -12406.068610 kJ/mol
# Density = 1.931162 g / cm^3
# Si number density = 19.355675 Si / 1000 Ang^3
#
#
#
# Elastic Constant Matrix: (Units=GPa)
#
#
# Indices 1 2 3 4 5 6 
#
# 1 113.2365 2.5779 44.2669 0.0000 -4.6093 0.0000
# 2 2.5779 90.3631 29.6783 0.0000 -0.6180 0.0000
# 3 44.2669 29.6783 115.2493 0.0000 -5.8617 0.0000
# 4 0.0000 0.0000 0.0000 31.6658 0.0000 0.2536
# 5 -4.6093 -0.6180 -5.8617 0.0000 11.4002 0.0000
# 6 0.0000 0.0000 0.0000 0.2536 0.0000 33.8293
#
#
#
# Elastic Compliance Matrix: (Units=1/GPa)
#
#
# Indices 1 2 3 4 5 6 
#
# 1 0.010545 0.001101 -0.004225 0.000000 0.002151 0.000000
# 2 0.001101 0.012214 -0.003606 0.000000 -0.000747 0.000000
# 3 -0.004225 -0.003606 0.011430 0.000000 0.003974 0.000000
# 4 0.000000 0.000000 0.000000 0.031582 0.000000 -0.000237
# 5 0.002151 -0.000747 0.003974 0.000000 0.090590 0.000000
# 6 0.000000 0.000000 0.000000 -0.000237 0.000000 0.029562
#
#
# Mechanical properties :
#
#
# Convention : Reuss Voigt Hill
#
# Bulk Modulus (GPa) = 48.23792 52.43278 50.33535
# Shear Modulus (GPa) = 24.23743 31.53412 27.88578
#
# Velocity S-wave (km/s) = 3.54250 4.04070 3.79978
# Velocity P-wave (km/s) = 6.45820 6.99411 6.73149
#
# Compressibility (1/GPa) = 0.02073058
#
# Stress axis : x y z
#
# Youngs Moduli (GPa) = 94.83136 81.87065 87.48702
#
# Poissons Ratio (x) = -0.09017 0.36959
# Poissons Ratio (y) = -0.10444 0.31551
# Poissons Ratio (z) = 0.40062 0.29526
#
# Static dielectric constant tensor:
#      x y z
#    x 3.481150 0.000000 -0.027760 
#    y 0.000000 3.603560 0.000000 
#    z -0.027760 0.000000 3.467900 
# 
# 
# High freq. dielectric constant tensor:
#      x y z
#    x 1.753620 0.000000 -0.002570 
#    y 0.000000 1.769870 0.000000 
#    z -0.002570 0.000000 1.754000 
# 
# From -- ./inp_files/26581.got.cif
#   From: 2010.03.12/outbox.cif.g09.slc.cpg/sg8_14_cif.got.tgz:26581.got - 2010.03.31 10:45:26.
