data_PCOD8053840
_publ_section_title
;
Structure prediction by ZEFSAII (Michael W. Deem and Ramdas Pophale) SiO2 
 PCOD8053840
Probable space group: C M
;
_chemical_formula_sum "Si O2"
_cell_formula_units_Z 20
_cell_length_a 8.752160
_cell_length_b 18.139679
_cell_length_c 7.187205
_cell_angle_alpha 90.000000
_cell_angle_beta 129.220228
_cell_angle_gamma 90.000000
_cell_volume 883.996159
_symmetry_space_group_name_H-M "C M"
_symmetry_group_IT_number 8
_symmetry_cell_setting 'monoclinic'
loop_
_space_group_symop_operation_xyz
x,y,z
x,-y,z
1/2+x,1/2+y,z
1/2+x,1/2-y,z
loop_
_atom_site_type_symbol
_atom_site_label
_atom_site_fract_x
_atom_site_fract_y
_atom_site_fract_z
Si Si1 0.758690 0.583188 0.145200
Si Si2 0.276247 0.701259 0.256785
Si Si3 0.941626 0.811290 0.996394
Si Si4 0.992514 0.321148 0.606413
Si Si5 0.995011 0.584174 0.972784
O O1 0.778636 0.500000 0.234115
O O2 0.914641 0.635115 0.367913
O O3 0.535837 0.610328 0.010503
O O4 0.805989 0.587881 0.961824
O O5 0.375936 0.741693 0.511962
O O6 0.438240 0.696509 0.218032
O O7 0.084476 0.746873 0.028229
O O8 0.187816 0.619611 0.225867
O O9 0.722251 0.806502 0.748175
O O10 0.944227 0.370018 0.748820
O O11 0.047165 0.500000 0.961218
#
# Coordination Sequence:
#
# PCOD8053840 Si02
#       5
#     4   4   4   4   4
#     4  10  22  41  64  96 134 170 217 271 321 384
#     4  10  21  39  63  95 126 165 218 267 314 382
#     4  10  22  38  63  93 127 168 216 266 318 380
#     4  10  22  42  67  92 129 177 214 261 330 386
#     4  10  22  42  68  98 132 170 215 267 324 388
#
# _framework density 22.624531999999999
#
# number of rings (size 3 to 8) (size 9 to 14) (size 15 to 20)
#    0.000    2.000    0.000    3.000    0.000   13.600 
#    0.000   14.000    0.000   13.200    0.000    4.200 
#    0.000    0.000    0.000    0.000    0.000    0.000 
#
# Total GULP energy -123950.355424 kJ/mol
# GULP energy per Si atom -12395.035542 kJ/mol
# Density = 2.257304 g / cm^3
# Si number density = 22.624532 Si / 1000 Ang^3
#
#
#
# Elastic Constant Matrix: (Units=GPa)
#
#
# Indices 1 2 3 4 5 6 
#
# 1 125.4060 55.9015 31.3606 0.0000 6.0632 0.0000
# 2 55.9015 132.4007 51.6926 0.0000 -2.6442 0.0000
# 3 31.3606 51.6926 115.2548 0.0000 21.2756 0.0000
# 4 0.0000 0.0000 0.0000 37.2639 0.0000 -1.9703
# 5 6.0632 -2.6442 21.2756 0.0000 33.9301 0.0000
# 6 0.0000 0.0000 0.0000 -1.9703 0.0000 39.1361
#
#
#
# Elastic Compliance Matrix: (Units=1/GPa)
#
#
# Indices 1 2 3 4 5 6 
#
# 1 0.010001 -0.004023 -0.000598 0.000000 -0.001726 0.000000
# 2 -0.004023 0.011209 -0.004780 0.000000 0.004590 0.000000
# 3 -0.000598 -0.004780 0.012476 0.000000 -0.008089 0.000000
# 4 0.000000 0.000000 0.000000 0.026907 0.000000 0.001355
# 5 -0.001726 0.004590 -0.008089 0.000000 0.035210 0.000000
# 6 0.000000 0.000000 0.000000 0.001355 0.000000 0.025620
#
#
# Mechanical properties :
#
#
# Convention : Reuss Voigt Hill
#
# Bulk Modulus (GPa) = 67.18955 72.33011 69.75983
# Shear Modulus (GPa) = 34.43811 37.67314 36.05562
#
# Velocity S-wave (km/s) = 3.90572 4.08505 3.99639
# Velocity P-wave (km/s) = 7.07825 7.36813 7.22464
#
# Compressibility (1/GPa) = 0.01488327
#
# Stress axis : x y z
#
# Youngs Moduli (GPa) = 99.99438 89.21039 80.15251
#
# Poissons Ratio (x) = 0.35892 0.04794
# Poissons Ratio (y) = 0.40231 0.38313
# Poissons Ratio (z) = 0.05981 0.42643
#
# Static dielectric constant tensor:
#      x y z
#    x 4.067670 0.000000 0.064730 
#    y 0.000000 4.353970 0.000000 
#    z 0.064730 0.000000 3.856820 
# 
# 
# High freq. dielectric constant tensor:
#      x y z
#    x 1.905130 0.000000 -0.002230 
#    y 0.000000 1.896150 0.000000 
#    z -0.002230 0.000000 1.871330 
# 
# From -- ./inp_files/8229.got.cif
#   From: 2010.03.12/outbox.cif.g09.slc.cpg/sg8_5_cif.got.tgz:8229.got - 2010.03.31 10:45:26.
