data_PCOD8053621
_publ_section_title
;
Structure prediction by ZEFSAII (Michael W. Deem and Ramdas Pophale) SiO2 
 PCOD8053621
Probable space group: C M
;
_chemical_formula_sum "Si O2"
_cell_formula_units_Z 28
_cell_length_a 14.642836
_cell_length_b 13.369897
_cell_length_c 8.568732
_cell_angle_alpha 90.000000
_cell_angle_beta 53.276413
_cell_angle_gamma 90.000000
_cell_volume 1344.588395
_symmetry_space_group_name_H-M "C M"
_symmetry_group_IT_number 8
_symmetry_cell_setting 'monoclinic'
loop_
_space_group_symop_operation_xyz
x,y,z
x,-y,z
1/2+x,1/2+y,z
1/2+x,1/2-y,z
loop_
_atom_site_type_symbol
_atom_site_label
_atom_site_fract_x
_atom_site_fract_y
_atom_site_fract_z
Si Si1 0.505840 0.613604 0.426210
Si Si2 0.689451 0.282781 0.038868
Si Si3 0.754517 0.391277 0.678326
Si Si4 0.385258 0.239554 0.080865
Si Si5 0.023112 0.889795 0.756113
Si Si6 0.296695 0.302355 0.496448
Si Si7 0.104607 0.619369 0.898932
O O1 0.553938 0.500000 0.377031
O O2 0.585989 0.690745 0.256150
O O3 0.495486 0.654201 0.613543
O O4 0.383921 0.613041 0.464780
O O5 0.806002 0.283940 0.015812
O O6 0.698334 0.371229 0.903522
O O7 0.665032 0.174684 0.984239
O O8 0.816556 0.500000 0.617113
O O9 0.658586 0.391815 0.641747
O O10 0.835937 0.299213 0.548979
O O11 0.306399 0.277245 0.303823
O O12 0.468981 0.328870 0.952087
O O13 0.469396 0.145880 0.031983
O O14 0.970076 0.000000 0.821774
O O15 0.169193 0.339693 0.675462
O O16 0.117976 0.500000 0.902856
#
# Coordination Sequence:
#
# PCOD8053621 Si02
#       7
#     4   4   4   4   4   4   4
#     4  11  22  39  66  97 128 172 224 273 333 404
#     4  11  23  41  68  94 133 175 224 278 334 405
#     4  10  20  38  62  91 127 164 210 269 330 390
#     4  12  24  42  69  95 134 175 228 278 338 402
#     4  10  20  37  64  94 124 162 215 272 328 390
#     4  11  22  42  65  96 130 178 217 277 335 401
#     4  11  25  47  68  99 140 180 224 285 348 402
#
# _framework density 20.824216
#
# number of rings (size 3 to 8) (size 9 to 14) (size 15 to 20)
#    0.000    1.143    4.286    3.429    0.000    5.714 
#    0.000    0.000    0.000    0.000    0.000    0.000 
#    0.000    0.000    0.000    0.000    0.000    0.000 
#
# Total GULP energy -173548.861370 kJ/mol
# GULP energy per Si atom -12396.347241 kJ/mol
# Density = 2.077682 g / cm^3
# Si number density = 20.824216 Si / 1000 Ang^3
#
#
#
# Elastic Constant Matrix: (Units=GPa)
#
#
# Indices 1 2 3 4 5 6 
#
# 1 107.6395 17.2785 12.0972 0.0000 2.5956 0.0000
# 2 17.2785 127.9107 42.7169 0.0000 13.3746 0.0000
# 3 12.0972 42.7169 97.0666 0.0000 6.5386 0.0000
# 4 0.0000 0.0000 0.0000 18.7260 0.0000 0.3226
# 5 2.5956 13.3746 6.5386 0.0000 28.6687 0.0000
# 6 0.0000 0.0000 0.0000 0.3226 0.0000 25.3403
#
#
#
# Elastic Compliance Matrix: (Units=1/GPa)
#
#
# Indices 1 2 3 4 5 6 
#
# 1 0.009541 -0.001024 -0.000724 0.000000 -0.000221 0.000000
# 2 -0.001024 0.009615 -0.003867 0.000000 -0.003511 0.000000
# 3 -0.000724 -0.003867 0.012155 0.000000 -0.000903 0.000000
# 4 0.000000 0.000000 0.000000 0.053413 0.000000 -0.000680
# 5 -0.000221 -0.003511 -0.000903 0.000000 0.036745 0.000000
# 6 0.000000 0.000000 0.000000 -0.000680 0.000000 0.039472
#
#
# Mechanical properties :
#
#
# Convention : Reuss Voigt Hill
#
# Bulk Modulus (GPa) = 49.79687 52.97800 51.38744
# Shear Modulus (GPa) = 27.95409 31.91527 29.93468
#
# Velocity S-wave (km/s) = 3.66783 3.91910 3.79554
# Velocity P-wave (km/s) = 6.47319 6.78048 6.62861
#
# Compressibility (1/GPa) = 0.02008158
#
# Stress axis : x y z
#
# Youngs Moduli (GPa) = 104.80739 104.00559 82.27037
#
# Poissons Ratio (x) = 0.10651 0.05953
# Poissons Ratio (y) = 0.10734 0.31815
# Poissons Ratio (z) = 0.07583 0.40221
#
# Static dielectric constant tensor:
#      x y z
#    x 3.780130 0.000000 0.059050 
#    y 0.000000 3.843750 0.000000 
#    z 0.059050 0.000000 3.779880 
# 
# 
# High freq. dielectric constant tensor:
#      x y z
#    x 1.804720 0.000000 0.010430 
#    y 0.000000 1.814710 0.000000 
#    z 0.010430 0.000000 1.816630 
# 
# From -- ./inp_files/12803.got.cif
#   From: 2010.03.12/outbox.cif.g09.slc.cpg/sg8_7_cif.got.tgz:12803.got - 2010.03.31 10:45:26.
