data_PCOD8053106
_publ_section_title
;
Structure prediction by ZEFSAII (Michael W. Deem and Ramdas Pophale) SiO2 
 PCOD8053106
Probable space group: C M
;
_chemical_formula_sum "Si O2"
_cell_formula_units_Z 32
_cell_length_a 5.173853
_cell_length_b 24.872641
_cell_length_c 13.556668
_cell_angle_alpha 90.000000
_cell_angle_beta 78.465028
_cell_angle_gamma 90.000000
_cell_volume 1709.336782
_symmetry_space_group_name_H-M "C M"
_symmetry_group_IT_number 8
_symmetry_cell_setting 'monoclinic'
loop_
_space_group_symop_operation_xyz
x,y,z
x,-y,z
1/2+x,1/2+y,z
1/2+x,1/2-y,z
loop_
_atom_site_type_symbol
_atom_site_label
_atom_site_fract_x
_atom_site_fract_y
_atom_site_fract_z
Si Si1 0.034950 0.563919 0.984880
Si Si2 0.978087 0.224546 0.528858
Si Si3 0.297420 0.395497 0.316965
Si Si4 0.176633 0.270907 0.307133
Si Si5 0.827283 0.898413 0.538955
Si Si6 0.770246 0.438153 0.644391
Si Si7 0.850503 0.437309 0.212168
Si Si8 0.593093 0.563996 0.871262
O O1 0.040612 0.500000 0.979645
O O2 0.313963 0.587884 0.928203
O O3 0.813533 0.586915 0.928375
O O4 0.978162 0.582912 0.100372
O O5 0.218165 0.241954 0.581259
O O6 0.047576 0.240161 0.411190
O O7 0.923986 0.162156 0.542277
O O8 0.220865 0.333206 0.323255
O O9 0.319024 0.417382 0.426403
O O10 0.580099 0.404370 0.245069
O O11 0.062831 0.427624 0.281859
O O12 0.438904 0.240013 0.247468
O O13 0.532688 0.904059 0.603305
O O14 0.043840 0.933977 0.578849
O O15 0.857772 0.500000 0.646364
O O16 0.651430 0.416358 0.756093
O O17 0.776614 0.500000 0.214405
O O18 0.585855 0.500000 0.875657
#
# Coordination Sequence:
#
# PCOD8053106 Si02
#       8
#     4   4   4   4   4   4   4   4
#     4   9  17  33  56  75  98 137 181 231 276 297
#     4  10  19  34  56  76  96 135 178 243 277 293
#     4  12  23  35  55  77 112 156 183 218 263 319
#     4  10  19  34  56  76  96 135 178 243 277 293
#     4  12  23  35  55  77 112 156 183 218 263 319
#     4  11  24  37  51  80 117 149 188 218 250 329
#     4  11  24  37  51  80 117 149 188 218 250 329
#     4   9  17  33  56  75  98 137 181 231 276 297
#
# _framework density 18.720708999999999
#
# number of rings (size 3 to 8) (size 9 to 14) (size 15 to 20)
#    0.000    1.500    2.500    4.500    3.500    7.000 
#    0.000    0.000    0.000    0.000    0.000    0.000 
#    0.000   70.000    0.000    0.000    0.000    0.000 
#
# Total GULP energy -198354.704109 kJ/mol
# GULP energy per Si atom -12397.169007 kJ/mol
# Density = 1.867810 g / cm^3
# Si number density = 18.720709 Si / 1000 Ang^3
#
#
#
# Elastic Constant Matrix: (Units=GPa)
#
#
# Indices 1 2 3 4 5 6 
#
# 1 168.4521 23.0771 42.6291 0.0000 -10.8161 0.0000
# 2 23.0771 50.0306 32.9381 0.0000 -5.9454 0.0000
# 3 42.6291 32.9381 87.7938 0.0000 -7.4408 0.0000
# 4 0.0000 0.0000 0.0000 1.6260 0.0000 -7.5259
# 5 -10.8161 -5.9454 -7.4408 0.0000 35.8800 0.0000
# 6 0.0000 0.0000 0.0000 -7.5259 0.0000 31.9667
#
#
#
# Elastic Compliance Matrix: (Units=1/GPa)
#
#
# Indices 1 2 3 4 5 6 
#
# 1 0.006888 -0.001186 -0.002789 0.000000 0.001302 0.000000
# 2 -0.001186 0.026949 -0.009351 0.000000 0.002169 0.000000
# 3 -0.002789 -0.009351 0.016337 0.000000 0.000998 0.000000
# 4 0.000000 0.000000 0.000000 -6.858860 0.000000 -1.614780
# 5 0.001302 0.002169 0.000998 0.000000 0.028829 0.000000
# 6 0.000000 0.000000 0.000000 -1.614780 0.000000 -0.348885
#
#
# Mechanical properties :
#
#
# Convention : Reuss Voigt Hill
#
# Bulk Modulus (GPa) = 42.51349 55.95167 49.23258
# Shear Modulus (GPa) = -0.70480 27.73668 13.51594
#
# Velocity S-wave (km/s) = -0.61424 3.85334 2.68988
# Velocity P-wave (km/s) = 4.71758 7.05337 6.00024
#
# Compressibility (1/GPa) = 0.02352194
#
# Stress axis : x y z
#
# Youngs Moduli (GPa) = 145.17224 37.10739 61.20905
#
# Poissons Ratio (x) = 0.04402 0.17073
# Poissons Ratio (y) = 0.17221 0.57235
# Poissons Ratio (z) = 0.40494 0.34698
#
# Static dielectric constant tensor:
#      x y z
#    x 4.327150 0.000000 -0.032760 
#    y 0.000000 3.118340 0.000000 
#    z -0.032760 0.000000 3.375400 
# 
# 
# High freq. dielectric constant tensor:
#      x y z
#    x 1.764160 0.000000 -0.005090 
#    y 0.000000 1.693170 0.000000 
#    z -0.005090 0.000000 1.698080 
# 
# From -- ./inp_files/18194.got.cif
#   From: 2010.03.12/outbox.cif.g09.slc.cpg/sg8_10_cif.got.tgz:18194.got - 2010.03.31 10:45:26.
