data_PCOD8053002
_publ_section_title
;
Structure prediction by ZEFSAII (Michael W. Deem and Ramdas Pophale) SiO2 
 PCOD8053002
Probable space group: C M
;
_chemical_formula_sum "Si O2"
_cell_formula_units_Z 32
_cell_length_a 20.764647
_cell_length_b 8.492852
_cell_length_c 12.292042
_cell_angle_alpha 90.000000
_cell_angle_beta 128.251956
_cell_angle_gamma 90.000000
_cell_volume 1702.297323
_symmetry_space_group_name_H-M "C M"
_symmetry_group_IT_number 8
_symmetry_cell_setting 'monoclinic'
loop_
_space_group_symop_operation_xyz
x,y,z
x,-y,z
1/2+x,1/2+y,z
1/2+x,1/2-y,z
loop_
_atom_site_type_symbol
_atom_site_label
_atom_site_fract_x
_atom_site_fract_y
_atom_site_fract_z
Si Si1 0.471430 0.813003 0.820380
Si Si2 0.210210 0.816750 0.816896
Si Si3 0.892839 0.686699 0.959593
Si Si4 0.806123 0.315536 0.263530
Si Si5 0.158410 0.316530 0.990771
Si Si6 0.422974 0.316706 0.549530
Si Si7 0.562348 0.815774 0.547288
Si Si8 0.443312 0.186379 0.241899
O O1 0.435773 0.746553 0.896700
O O2 0.565580 0.759068 0.910108
O O3 0.418559 0.730192 0.671098
O O4 0.461988 0.000000 0.800417
O O5 0.298131 0.760486 0.864671
O O6 0.186600 0.719336 0.898404
O O7 0.144609 0.783038 0.653414
O O8 0.211351 0.000000 0.849529
O O9 0.899170 0.500000 0.965642
O O10 0.940000 0.754830 0.115897
O O11 0.815378 0.500000 0.293914
O O12 0.835777 0.226230 0.403501
O O13 0.862919 0.256005 0.223032
O O14 0.712908 0.273170 0.137407
O O15 0.166896 0.500000 0.022481
O O16 0.442372 0.500000 0.555899
O O17 0.495595 0.216217 0.570819
O O18 0.525454 0.760520 0.391899
O O19 0.583418 0.000000 0.570867
O O20 0.440227 0.000000 0.234643
#
# Coordination Sequence:
#
# PCOD8053002 Si02
#       8
#     4   4   4   4   4   4   4   4
#     4  10  21  37  57  79 112 153 188 223 274 334
#     4  11  20  33  56  82 109 143 187 234 278 322
#     4   9  18  35  57  80 106 146 190 224 271 335
#     4  10  19  34  57  82 110 141 182 230 282 331
#     4  11  21  33  53  83 114 144 186 231 276 327
#     4  11  21  34  54  81 113 145 186 230 277 328
#     4  10  19  32  53  81 112 143 181 227 280 332
#     4   8  15  30  53  78 102 135 178 221 266 323
#
# _framework density 18.798127000000001
#
# number of rings (size 3 to 8) (size 9 to 14) (size 15 to 20)
#    0.000    2.000    2.500    3.375    0.000    0.500 
#    0.000    2.500    0.000    1.500    0.000    0.000 
#    0.000    0.000    0.000    0.000    0.000    0.000 
#
# Total GULP energy -198403.140784 kJ/mol
# GULP energy per Si atom -12400.196299 kJ/mol
# Density = 1.875534 g / cm^3
# Si number density = 18.798127 Si / 1000 Ang^3
#
#
#
# Elastic Constant Matrix: (Units=GPa)
#
#
# Indices 1 2 3 4 5 6 
#
# 1 101.8417 14.2276 65.2502 0.0000 -8.7509 0.0000
# 2 14.2276 37.5691 18.7509 0.0000 -1.6703 0.0000
# 3 65.2502 18.7509 169.6944 0.0000 -7.0299 0.0000
# 4 0.0000 0.0000 0.0000 31.1861 0.0000 4.1217
# 5 -8.7509 -1.6703 -7.0299 0.0000 29.5339 0.0000
# 6 0.0000 0.0000 0.0000 4.1217 0.0000 16.5987
#
#
#
# Elastic Compliance Matrix: (Units=1/GPa)
#
#
# Indices 1 2 3 4 5 6 
#
# 1 0.013480 -0.002597 -0.004784 0.000000 0.002708 0.000000
# 2 -0.002597 0.028693 -0.002158 0.000000 0.000340 0.000000
# 3 -0.004784 -0.002158 0.007986 0.000000 0.000361 0.000000
# 4 0.000000 0.000000 0.000000 0.033154 0.000000 -0.008233
# 5 0.002708 0.000340 0.000361 0.000000 0.034767 0.000000
# 6 0.000000 0.000000 0.000000 -0.008233 0.000000 0.062290
#
#
# Mechanical properties :
#
#
# Convention : Reuss Voigt Hill
#
# Bulk Modulus (GPa) = 32.17364 56.17363 44.17363
# Shear Modulus (GPa) = 23.83135 29.52217 26.67676
#
# Velocity S-wave (km/s) = 3.56441 3.96723 3.77121
# Velocity P-wave (km/s) = 5.83888 7.13671 6.52017
#
# Compressibility (1/GPa) = 0.03108135
#
# Stress axis : x y z
#
# Youngs Moduli (GPa) = 74.18497 34.85155 125.22040
#
# Poissons Ratio (x) = 0.09050 0.59906
# Poissons Ratio (y) = 0.19264 0.27023
# Poissons Ratio (z) = 0.35491 0.07521
#
# Static dielectric constant tensor:
#      x y z
#    x 3.345050 0.000000 -0.031340 
#    y 0.000000 3.194470 0.000000 
#    z -0.031340 0.000000 3.890080 
# 
# 
# High freq. dielectric constant tensor:
#      x y z
#    x 1.695030 0.000000 0.005250 
#    y 0.000000 1.713080 0.000000 
#    z 0.005250 0.000000 1.750970 
# 
# From -- ./inp_files/23745.got.cif
#   From: 2010.03.12/outbox.cif.g09.slc.cpg/sg8_12_cif.got.tgz:23745.got - 2010.03.31 10:45:26.
