data_PCOD8053381
_publ_section_title
;
Structure prediction by ZEFSAII (Michael W. Deem and Ramdas Pophale) SiO2 
 PCOD8053381
Probable space group: C M
;
_chemical_formula_sum "Si O2"
_cell_formula_units_Z 32
_cell_length_a 25.268382
_cell_length_b 9.131261
_cell_length_c 16.827867
_cell_angle_alpha 90.000000
_cell_angle_beta 154.493610
_cell_angle_gamma 90.000000
_cell_volume 1671.949454
_symmetry_space_group_name_H-M "C M"
_symmetry_group_IT_number 8
_symmetry_cell_setting 'monoclinic'
loop_
_space_group_symop_operation_xyz
x,y,z
x,-y,z
1/2+x,1/2+y,z
1/2+x,1/2-y,z
loop_
_atom_site_type_symbol
_atom_site_label
_atom_site_fract_x
_atom_site_fract_y
_atom_site_fract_z
Si Si1 0.908940 0.830148 0.756970
Si Si2 0.047666 0.326591 0.647720
Si Si3 0.520848 0.173052 0.363467
Si Si4 0.474213 0.327555 0.022486
Si Si5 0.725186 0.825663 0.756795
Si Si6 0.834318 0.326806 0.240235
Si Si7 0.125821 0.330545 0.345188
Si Si8 0.582195 0.174372 0.872729
O O1 0.764249 0.800597 0.559681
O O2 0.970398 0.727929 0.774845
O O3 0.938876 0.000000 0.780104
O O4 0.960000 0.781767 0.911848
O O5 0.044021 0.500000 0.644076
O O6 0.172019 0.274616 0.770422
O O7 0.054035 0.265192 0.745757
O O8 0.925424 0.274183 0.434740
O O9 0.633550 0.239304 0.566389
O O10 0.393417 0.215803 0.234352
O O11 0.534072 0.228773 0.290741
O O12 0.536381 0.000000 0.384820
O O13 0.485153 0.500000 0.044633
O O14 0.596905 0.255959 0.224928
O O15 0.360589 0.265106 0.921233
O O16 0.727338 0.000000 0.754104
O O17 0.809482 0.500000 0.212279
O O18 0.707624 0.240865 0.077295
O O19 0.103547 0.500000 0.297661
O O20 0.591364 0.000000 0.887075
#
# Coordination Sequence:
#
# PCOD8053381 Si02
#       8
#     4   4   4   4   4   4   4   4
#     4  10  22  41  58  75 107 151 192 223 261 326
#     4   8  17  33  54  80 109 142 179 220 267 322
#     4   8  14  29  55  82 110 143 180 219 262 323
#     4  10  20  34  57  84 107 141 185 226 269 325
#     4   8  13  28  54  80 107 140 178 217 261 322
#     4   9  18  35  58  82 109 146 185 219 263 327
#     4  10  20  35  56  83 112 143 180 225 276 323
#     4  11  23  37  56  82 111 144 183 231 277 316
#
# _framework density 19.139334999999999
#
# number of rings (size 3 to 8) (size 9 to 14) (size 15 to 20)
#    0.000    2.750    1.250    1.875    1.750    2.000 
#    0.000    5.000    0.000    3.000    0.000    0.000 
#    0.000    0.000    0.000    0.000    0.000    0.000 
#
# Total GULP energy -198302.662245 kJ/mol
# GULP energy per Si atom -12393.916390 kJ/mol
# Density = 1.909577 g / cm^3
# Si number density = 19.139335 Si / 1000 Ang^3
#
#
#
# Elastic Constant Matrix: (Units=GPa)
#
#
# Indices 1 2 3 4 5 6 
#
# 1 115.3496 31.8878 37.7376 0.0000 -15.1085 0.0000
# 2 31.8878 32.7381 24.1656 0.0000 -4.5535 0.0000
# 3 37.7376 24.1656 74.4529 0.0000 -22.2445 0.0000
# 4 0.0000 0.0000 0.0000 23.0859 0.0000 -1.4027
# 5 -15.1085 -4.5535 -22.2445 0.0000 28.5544 0.0000
# 6 0.0000 0.0000 0.0000 -1.4027 0.0000 24.8335
#
#
#
# Elastic Compliance Matrix: (Units=1/GPa)
#
#
# Indices 1 2 3 4 5 6 
#
# 1 0.012642 -0.010345 -0.002013 0.000000 0.003471 0.000000
# 2 -0.010345 0.049166 -0.013043 0.000000 -0.007794 0.000000
# 3 -0.002013 -0.013043 0.023129 0.000000 0.014873 0.000000
# 4 0.000000 0.000000 0.000000 0.043466 0.000000 0.002455
# 5 0.003471 -0.007794 0.014873 0.000000 0.047201 0.000000
# 6 0.000000 0.000000 0.000000 0.002455 0.000000 0.040407
#
#
# Mechanical properties :
#
#
# Convention : Reuss Voigt Hill
#
# Bulk Modulus (GPa) = 29.29632 45.56917 37.43274
# Shear Modulus (GPa) = 17.97325 23.87807 20.92566
#
# Velocity S-wave (km/s) = 3.06776 3.53596 3.31015
# Velocity P-wave (km/s) = 5.28093 6.36644 5.84892
#
# Compressibility (1/GPa) = 0.03413399
#
# Stress axis : x y z
#
# Youngs Moduli (GPa) = 79.09835 20.33933 43.23646
#
# Poissons Ratio (x) = 0.21042 0.08704
# Poissons Ratio (y) = 0.81831 0.56394
# Poissons Ratio (z) = 0.15923 0.26529
#
# Static dielectric constant tensor:
#      x y z
#    x 3.755280 0.000000 -0.116530 
#    y 0.000000 3.010650 0.000000 
#    z -0.116530 0.000000 3.522650 
# 
# 
# High freq. dielectric constant tensor:
#      x y z
#    x 1.751240 0.000000 -0.003570 
#    y 0.000000 1.696860 0.000000 
#    z -0.003570 0.000000 1.747390 
# 
# From -- ./inp_files/24789.got.cif
#   From: 2010.03.12/outbox.cif.g09.slc.cpg/sg8_13_cif.got.tgz:24789.got - 2010.03.31 10:45:26.
