data_PCOD8053094
_publ_section_title
;
Structure prediction by ZEFSAII (Michael W. Deem and Ramdas Pophale) SiO2 
 PCOD8053094
Probable space group: C M
;
_chemical_formula_sum "Si O2"
_cell_formula_units_Z 32
_cell_length_a 14.609414
_cell_length_b 8.802502
_cell_length_c 28.814658
_cell_angle_alpha 90.000000
_cell_angle_beta 151.756498
_cell_angle_gamma 90.000000
_cell_volume 1753.538356
_symmetry_space_group_name_H-M "C M"
_symmetry_group_IT_number 8
_symmetry_cell_setting 'monoclinic'
loop_
_space_group_symop_operation_xyz
x,y,z
x,-y,z
1/2+x,1/2+y,z
1/2+x,1/2-y,z
loop_
_atom_site_type_symbol
_atom_site_label
_atom_site_fract_x
_atom_site_fract_y
_atom_site_fract_z
Si Si1 0.958130 0.180681 0.314140
Si Si2 0.289718 0.180817 0.529323
Si Si3 0.448620 0.821187 0.020344
Si Si4 0.063137 0.669867 0.822151
Si Si5 0.546793 0.178460 0.165848
Si Si6 0.842646 0.318978 0.167775
Si Si7 0.192361 0.323180 0.675671
Si Si8 0.750548 0.328093 0.613630
O O1 0.770314 0.229991 0.260376
O O2 0.960288 0.257400 0.264645
O O3 0.144593 0.242668 0.425272
O O4 0.959864 0.000000 0.307891
O O5 0.508786 0.240009 0.621749
O O6 0.221872 0.236888 0.549397
O O7 0.291199 0.000000 0.527790
O O8 0.438648 0.770704 0.070058
O O9 0.622333 0.738791 0.070914
O O10 0.484533 0.000000 0.032330
O O11 0.249114 0.776545 0.906877
O O12 0.118044 0.500000 0.862945
O O13 0.889904 0.734714 0.778098
O O14 0.978093 0.670304 0.731454
O O15 0.444883 0.246894 0.166454
O O16 0.535647 0.000000 0.166245
O O17 0.843560 0.500000 0.169081
O O18 0.228333 0.500000 0.699396
O O19 0.137203 0.286001 0.597215
O O20 0.668151 0.500000 0.580781
#
# Coordination Sequence:
#
# PCOD8053094 Si02
#       8
#     4   4   4   4   4   4   4   4
#     4   9  18  34  54  75 102 135 173 210 247 298
#     4   9  17  32  54  75  99 139 177 205 247 303
#     4  10  19  35  56  76 100 133 171 206 249 304
#     4   9  18  34  53  74 104 136 167 209 255 294
#     4   8  17  33  52  74  99 131 167 202 246 308
#     4  10  19  34  53  77 104 130 165 210 257 302
#     4   9  17  31  50  73 100 132 171 212 249 291
#     4   8  17  33  50  70 100 136 171 206 248 294
#
# _framework density 18.248816999999999
#
# number of rings (size 3 to 8) (size 9 to 14) (size 15 to 20)
#    0.750    2.250    0.000    1.875    0.000    1.000 
#    2.250   10.625    0.000    0.000    0.000    0.000 
#    0.000    0.000    0.000    0.000    0.000    0.000 
#
# Total GULP energy -198214.123415 kJ/mol
# GULP energy per Si atom -12388.382713 kJ/mol
# Density = 1.820728 g / cm^3
# Si number density = 18.248817 Si / 1000 Ang^3
#
#
#
# Elastic Constant Matrix: (Units=GPa)
#
#
# Indices 1 2 3 4 5 6 
#
# 1 92.3659 17.4451 8.0866 -0.0001 -0.5581 0.0000
# 2 17.4451 45.7933 14.3434 -0.0001 0.4726 0.0000
# 3 8.0866 14.3434 58.0040 0.0000 3.3201 -0.0002
# 4 -0.0001 -0.0001 0.0000 25.0216 -0.0001 -1.6242
# 5 -0.5581 0.4726 3.3201 -0.0001 21.4682 0.0000
# 6 0.0000 0.0000 -0.0002 -1.6242 0.0000 22.6451
#
#
#
# Elastic Compliance Matrix: (Units=1/GPa)
#
#
# Indices 1 2 3 4 5 6 
#
# 1 0.011689 -0.004269 -0.000602 0.000000 0.000491 0.000000
# 2 -0.004269 0.025233 -0.005656 0.000000 0.000208 0.000000
# 3 -0.000602 -0.005656 0.018884 0.000000 -0.002811 0.000000
# 4 0.000000 0.000000 0.000000 0.040152 0.000000 0.002880
# 5 0.000491 0.000208 -0.002811 0.000000 0.047024 0.000000
# 6 0.000000 0.000000 0.000000 0.002880 0.000000 0.044366
#
#
# Mechanical properties :
#
#
# Convention : Reuss Voigt Hill
#
# Bulk Modulus (GPa) = 28.77688 30.65706 29.71697
# Shear Modulus (GPa) = 22.72866 24.24617 23.48741
#
# Velocity S-wave (km/s) = 3.53297 3.64901 3.59146
# Velocity P-wave (km/s) = 5.69613 5.88130 5.78946
#
# Compressibility (1/GPa) = 0.03475011
#
# Stress axis : x y z
#
# Youngs Moduli (GPa) = 85.55408 39.63023 52.95548
#
# Poissons Ratio (x) = 0.16919 0.03187
# Poissons Ratio (y) = 0.36526 0.29954
# Poissons Ratio (z) = 0.05150 0.22417
#
# Static dielectric constant tensor:
#      x y z
#    x 3.434300 0.000000 0.006090 
#    y 0.000000 3.127540 0.000000 
#    z 0.006090 0.000000 3.309000 
# 
# 
# High freq. dielectric constant tensor:
#      x y z
#    x 1.697280 0.000000 0.002950 
#    y 0.000000 1.688280 0.000000 
#    z 0.002950 0.000000 1.700730 
# 
# From -- ./inp_files/33295.got.cif
#   From: 2010.03.12/outbox.cif.g09.slc.cpg/sg8_17_cif.got.tgz:33295.got - 2010.03.31 10:45:26.
