data_PCOD8053148
_publ_section_title
;
Structure prediction by ZEFSAII (Michael W. Deem and Ramdas Pophale) SiO2 
 PCOD8053148
Probable space group: C M
;
_chemical_formula_sum "Si O2"
_cell_formula_units_Z 32
_cell_length_a 20.205601
_cell_length_b 8.610203
_cell_length_c 20.005265
_cell_angle_alpha 90.000000
_cell_angle_beta 28.791715
_cell_angle_gamma 90.000000
_cell_volume 1676.255658
_symmetry_space_group_name_H-M "C M"
_symmetry_group_IT_number 8
_symmetry_cell_setting 'monoclinic'
loop_
_space_group_symop_operation_xyz
x,y,z
x,-y,z
1/2+x,1/2+y,z
1/2+x,1/2-y,z
loop_
_atom_site_type_symbol
_atom_site_label
_atom_site_fract_x
_atom_site_fract_y
_atom_site_fract_z
Si Si1 0.625000 0.821284 0.901570
Si Si2 0.055494 0.181749 0.487122
Si Si3 0.670665 0.819384 0.187597
Si Si4 0.815748 0.679902 0.183165
Si Si5 0.636321 0.319644 0.750152
Si Si6 0.876660 0.319476 0.910102
Si Si7 0.414820 0.683004 0.476537
Si Si8 0.381841 0.318119 0.762330
O O1 0.659152 0.714841 0.808100
O O2 0.730306 0.783679 0.867634
O O3 0.640154 0.000000 0.865125
O O4 0.472431 0.786528 0.064909
O O5 0.216905 0.223097 0.333588
O O6 0.971581 0.244701 0.497568
O O7 0.995275 0.249172 0.609464
O O8 0.029312 0.000000 0.513470
O O9 0.776504 0.780141 0.153467
O O10 0.526660 0.728305 0.321574
O O11 0.637600 0.000000 0.216748
O O12 0.742490 0.772224 0.054610
O O13 0.791485 0.500000 0.185100
O O14 0.606467 0.500000 0.764861
O O15 0.508163 0.221847 0.837911
O O16 0.771539 0.269501 0.589125
O O17 0.846875 0.500000 0.944166
O O18 0.904694 0.277390 0.808908
O O19 0.389900 0.500000 0.497479
O O20 0.402750 0.500000 0.758840
#
# Coordination Sequence:
#
# PCOD8053148 Si02
#       8
#     4   4   4   4   4   4   4   4
#     4  10  19  34  58  85 116 152 192 236 290 350
#     4   8  15  30  54  82 112 147 186 227 279 342
#     4  11  21  35  56  87 118 150 191 244 295 342
#     4   9  17  31  55  85 114 150 190 230 282 348
#     4  12  23  36  58  89 119 149 195 251 292 338
#     4  12  25  41  58  80 115 162 203 243 296 351
#     4  10  19  36  60  87 117 153 190 234 290 352
#     4  10  20  37  57  81 115 155 195 239 290 349
#
# _framework density 19.090166
#
# number of rings (size 3 to 8) (size 9 to 14) (size 15 to 20)
#    0.000    1.750    2.500    4.500    0.000    0.500 
#    0.000    1.875    0.000    3.000    0.000    0.000 
#    0.000    0.000    0.000    0.000    0.000    0.000 
#
# Total GULP energy -198414.971202 kJ/mol
# GULP energy per Si atom -12400.935700 kJ/mol
# Density = 1.904672 g / cm^3
# Si number density = 19.090166 Si / 1000 Ang^3
#
#
#
# Elastic Constant Matrix: (Units=GPa)
#
#
# Indices 1 2 3 4 5 6 
#
# 1 42.4260 17.1804 22.8609 0.0000 7.1900 0.0000
# 2 17.1804 63.4179 18.1043 -0.0001 0.8201 0.0000
# 3 22.8609 18.1043 138.0312 -0.0001 2.7300 0.0000
# 4 0.0000 -0.0001 -0.0001 27.6590 0.0000 3.2319
# 5 7.1900 0.8201 2.7300 0.0000 28.3810 0.0000
# 6 0.0000 0.0000 0.0000 3.2319 0.0000 23.4303
#
#
#
# Elastic Compliance Matrix: (Units=1/GPa)
#
#
# Indices 1 2 3 4 5 6 
#
# 1 0.029592 -0.006823 -0.003869 0.000000 -0.006927 0.000000
# 2 -0.006823 0.017957 -0.001252 0.000000 0.001330 0.000000
# 3 -0.003869 -0.001252 0.008045 0.000000 0.000243 0.000000
# 4 0.000000 0.000000 0.000000 0.036747 0.000000 -0.005069
# 5 -0.006927 0.001330 0.000243 0.000000 0.036928 0.000000
# 6 0.000000 0.000000 0.000000 -0.005069 0.000000 0.043379
#
#
# Mechanical properties :
#
#
# Convention : Reuss Voigt Hill
#
# Bulk Modulus (GPa) = 31.53864 40.01848 35.77856
# Shear Modulus (GPa) = 24.14251 28.27603 26.20927
#
# Velocity S-wave (km/s) = 3.56006 3.85279 3.70931
# Velocity P-wave (km/s) = 5.78407 6.38752 6.09327
#
# Compressibility (1/GPa) = 0.03170714
#
# Stress axis : x y z
#
# Youngs Moduli (GPa) = 33.79269 55.68912 124.30194
#
# Poissons Ratio (x) = 0.37995 0.48095
# Poissons Ratio (y) = 0.23055 0.15557
# Poissons Ratio (z) = 0.13075 0.06970
#
# Static dielectric constant tensor:
#      x y z
#    x 3.160070 0.000000 -0.028200 
#    y 0.000000 3.316710 0.000000 
#    z -0.028200 0.000000 3.915080 
# 
# 
# High freq. dielectric constant tensor:
#      x y z
#    x 1.702800 0.000000 -0.005160 
#    y 0.000000 1.729750 0.000000 
#    z -0.005160 0.000000 1.766030 
# 
# From -- ./inp_files/31324.got.cif
#   From: 2010.03.12/outbox.cif.g09.slc.cpg/sg8_16_cif.got.tgz:31324.got - 2010.03.31 10:45:26.
