data_PCOD8053243
_publ_section_title
;
Structure prediction by ZEFSAII (Michael W. Deem and Ramdas Pophale) SiO2 
 PCOD8053243
Probable space group: C M
;
_chemical_formula_sum "Si O2"
_cell_formula_units_Z 32
_cell_length_a 20.021200
_cell_length_b 8.702888
_cell_length_c 12.120677
_cell_angle_alpha 90.000000
_cell_angle_beta 53.543379
_cell_angle_gamma 90.000000
_cell_volume 1698.643381
_symmetry_space_group_name_H-M "C M"
_symmetry_group_IT_number 8
_symmetry_cell_setting 'monoclinic'
loop_
_space_group_symop_operation_xyz
x,y,z
x,-y,z
1/2+x,1/2+y,z
1/2+x,1/2-y,z
loop_
_atom_site_type_symbol
_atom_site_label
_atom_site_fract_x
_atom_site_fract_y
_atom_site_fract_z
Si Si1 0.041020 0.182397 0.042790
Si Si2 0.187074 0.820454 0.743747
Si Si3 0.528262 0.680140 0.473327
Si Si4 0.854097 0.317374 0.681009
Si Si5 0.564656 0.320944 0.684496
Si Si6 0.931756 0.319271 0.972394
Si Si7 0.109315 0.319318 0.186644
Si Si8 0.298385 0.318852 0.963755
O O1 0.044590 0.251615 0.161690
O O2 0.037683 0.000000 0.052408
O O3 0.120935 0.245468 0.896843
O O4 0.959173 0.243308 0.061072
O O5 0.278815 0.753849 0.677239
O O6 0.154366 0.782344 0.652171
O O7 0.191754 0.000000 0.759108
O O8 0.517604 0.500000 0.468096
O O9 0.438764 0.757222 0.545062
O O10 0.568024 0.721208 0.552899
O O11 0.591659 0.746076 0.322273
O O12 0.856628 0.500000 0.684740
O O13 0.842834 0.251635 0.813847
O O14 0.542349 0.500000 0.725961
O O15 0.494409 0.220925 0.811869
O O16 0.926272 0.500000 0.993707
O O17 0.841540 0.252289 0.029798
O O18 0.097492 0.500000 0.206155
O O19 0.202082 0.272553 0.060219
O O20 0.311615 0.500000 0.949478
#
# Coordination Sequence:
#
# PCOD8053243 Si02
#       8
#     4   4   4   4   4   4   4   4
#     4  10  19  36  59  84 117 152 189 234 294 350
#     4   8  16  31  55  84 111 143 183 233 286 336
#     4  11  23  38  58  82 116 158 196 236 292 351
#     4  11  20  34  58  87 116 147 191 243 289 340
#     4   9  18  35  56  81 113 151 191 234 286 342
#     4  11  21  33  56  88 117 149 192 240 288 339
#     4  11  24  40  59  84 117 154 198 245 290 344
#     4  11  22  37  57  84 117 152 194 245 293 338
#
# _framework density 18.838564000000002
#
# number of rings (size 3 to 8) (size 9 to 14) (size 15 to 20)
#    0.000    1.750    2.500    3.750    0.000    2.000 
#    0.000    1.875    0.000    4.500    0.000    0.000 
#    0.000    0.000    0.000    0.000    0.000    0.000 
#
# Total GULP energy -198415.135669 kJ/mol
# GULP energy per Si atom -12400.945979 kJ/mol
# Density = 1.879569 g / cm^3
# Si number density = 18.838564 Si / 1000 Ang^3
#
#
#
# Elastic Constant Matrix: (Units=GPa)
#
#
# Indices 1 2 3 4 5 6 
#
# 1 134.0775 40.6241 22.9229 0.0000 15.7796 0.0000
# 2 40.6241 92.8694 27.4380 0.0000 2.4099 0.0000
# 3 22.9229 27.4380 59.1885 0.0000 12.2491 0.0000
# 4 0.0000 0.0000 0.0000 28.7537 0.0000 2.3533
# 5 15.7796 2.4099 12.2491 0.0000 28.0550 0.0000
# 6 0.0000 0.0000 0.0000 2.3533 0.0000 29.3773
#
#
#
# Elastic Compliance Matrix: (Units=1/GPa)
#
#
# Indices 1 2 3 4 5 6 
#
# 1 0.009255 -0.003646 -0.000969 0.000000 -0.004469 0.000000
# 2 -0.003646 0.013978 -0.005765 0.000000 0.003367 0.000000
# 3 -0.000969 -0.005765 0.021687 0.000000 -0.008429 0.000000
# 4 0.000000 0.000000 0.000000 0.035008 0.000000 -0.002804
# 5 -0.004469 0.003367 -0.008429 0.000000 0.041549 0.000000
# 6 0.000000 0.000000 0.000000 -0.002804 0.000000 0.034265
#
#
# Mechanical properties :
#
#
# Convention : Reuss Voigt Hill
#
# Bulk Modulus (GPa) = 41.38979 52.01169 46.70074
# Shear Modulus (GPa) = 27.09225 30.24723 28.66974
#
# Velocity S-wave (km/s) = 3.79638 4.01134 3.90534
# Velocity P-wave (km/s) = 6.42146 7.00882 6.72156
#
# Compressibility (1/GPa) = 0.02416055
#
# Stress axis : x y z
#
# Youngs Moduli (GPa) = 108.05277 71.53844 46.11016
#
# Poissons Ratio (x) = 0.26083 0.04469
# Poissons Ratio (y) = 0.39396 0.26581
# Poissons Ratio (z) = 0.10472 0.41240
#
# Static dielectric constant tensor:
#      x y z
#    x 3.907320 0.000000 0.034730 
#    y 0.000000 3.378770 0.000000 
#    z 0.034730 0.000000 3.140410 
# 
# 
# High freq. dielectric constant tensor:
#      x y z
#    x 1.752720 0.000000 0.008990 
#    y 0.000000 1.731990 0.000000 
#    z 0.008990 0.000000 1.696190 
# 
# From -- ./inp_files/23710.got.cif
#   From: 2010.03.12/outbox.cif.g09.slc.cpg/sg8_12_cif.got.tgz:23710.got - 2010.03.31 10:45:26.
