data_PCOD8053480
_publ_section_title
;
Structure prediction by ZEFSAII (Michael W. Deem and Ramdas Pophale) SiO2 
 PCOD8053480
Probable space group: C M
;
_chemical_formula_sum "Si O2"
_cell_formula_units_Z 32
_cell_length_a 15.371423
_cell_length_b 8.907572
_cell_length_c 22.679427
_cell_angle_alpha 90.000000
_cell_angle_beta 30.868990
_cell_angle_gamma 90.000000
_cell_volume 1593.264372
_symmetry_space_group_name_H-M "C M"
_symmetry_group_IT_number 8
_symmetry_cell_setting 'monoclinic'
loop_
_space_group_symop_operation_xyz
x,y,z
x,-y,z
1/2+x,1/2+y,z
1/2+x,1/2-y,z
loop_
_atom_site_type_symbol
_atom_site_label
_atom_site_fract_x
_atom_site_fract_y
_atom_site_fract_z
Si Si1 0.496180 0.677951 0.165920
Si Si2 0.312180 0.322360 0.042240
Si Si3 0.013851 0.673660 0.029320
Si Si4 0.316891 0.669387 0.769315
Si Si5 0.199751 0.827704 0.536171
Si Si6 0.191665 0.823584 0.406310
Si Si7 0.124679 0.173105 0.782180
Si Si8 0.326448 0.673992 0.569570
O O1 0.520657 0.500000 0.153716
O O2 0.630546 0.756564 0.131041
O O3 0.514403 0.734342 0.088928
O O4 0.311264 0.723851 0.295944
O O5 0.299356 0.500000 0.061181
O O6 0.377348 0.243303 0.063776
O O7 0.437976 0.285580 0.914717
O O8 0.966252 0.500000 0.068682
O O9 0.204223 0.687791 0.893318
O O10 0.297176 0.500000 0.754749
O O11 0.511455 0.701294 0.671177
O O12 0.260599 0.786850 0.753023
O O13 0.217571 0.773563 0.458674
O O14 0.330273 0.737143 0.500898
O O15 0.250576 0.000000 0.510987
O O16 0.000038 0.782903 0.500761
O O17 0.228507 0.000000 0.375338
O O18 0.165885 0.260870 0.698523
O O19 0.139575 0.000000 0.758129
O O20 0.298901 0.500000 0.581324
#
# Coordination Sequence:
#
# PCOD8053480 Si02
#       8
#     4   4   4   4   4   4   4   4
#     4  12  26  42  64  92 124 165 213 259 307 369
#     4  10  22  41  63  91 126 165 208 255 310 368
#     4  10  21  39  64  93 127 164 205 255 309 367
#     4   9  18  36  61  89 125 162 198 246 307 365
#     4  10  21  39  62  90 122 160 203 249 306 366
#     4  10  23  45  65  83 121 167 207 256 310 364
#     4  10  20  35  60  91 126 162 200 249 304 364
#     4  11  23  39  61  91 123 161 204 251 305 365
#
# _framework density 20.084551999999999
#
# number of rings (size 3 to 8) (size 9 to 14) (size 15 to 20)
#    0.000    1.750    1.250    2.625    1.750    5.000 
#    0.000    2.500    0.000    0.000    0.000    0.000 
#    0.000    0.000    0.000    0.000    0.000    0.000 
#
# Total GULP energy -198448.995236 kJ/mol
# GULP energy per Si atom -12403.062202 kJ/mol
# Density = 2.003884 g / cm^3
# Si number density = 20.084552 Si / 1000 Ang^3
#
#
#
# Elastic Constant Matrix: (Units=GPa)
#
#
# Indices 1 2 3 4 5 6 
#
# 1 93.0071 34.4208 17.4363 0.0022 13.3352 0.0000
# 2 34.4208 78.6592 34.4367 0.0012 -1.1883 0.0000
# 3 17.4363 34.4367 61.0113 0.0043 14.0193 0.0003
# 4 0.0022 0.0012 0.0043 28.4370 -0.0009 1.6217
# 5 13.3352 -1.1883 14.0193 -0.0009 20.6498 -0.0001
# 6 0.0000 0.0000 0.0003 1.6217 -0.0001 39.7656
#
#
#
# Elastic Compliance Matrix: (Units=1/GPa)
#
#
# Indices 1 2 3 4 5 6 
#
# 1 0.014902 -0.008057 0.003088 -0.000002 -0.012183 0.000000
# 2 -0.008057 0.022715 -0.014235 0.000002 0.016174 0.000000
# 3 0.003088 -0.014235 0.028660 -0.000005 -0.022271 0.000000
# 4 -0.000002 0.000002 -0.000005 0.035247 0.000006 -0.001437
# 5 -0.012183 0.016174 -0.022271 0.000006 0.072345 0.000000
# 6 0.000000 0.000000 0.000000 -0.001437 0.000000 0.025206
#
#
# Mechanical properties :
#
#
# Convention : Reuss Voigt Hill
#
# Bulk Modulus (GPa) = 35.88172 45.02946 40.45559
# Shear Modulus (GPa) = 20.26160 27.52941 23.89551
#
# Velocity S-wave (km/s) = 3.17963 3.70628 3.45301
# Velocity P-wave (km/s) = 5.60216 6.38623 6.00700
#
# Compressibility (1/GPa) = 0.02786934
#
# Stress axis : x y z
#
# Youngs Moduli (GPa) = 67.10729 44.02336 34.89185
#
# Poissons Ratio (x) = 0.35470 -0.10776
# Poissons Ratio (y) = 0.54068 0.49669
# Poissons Ratio (z) = -0.20726 0.62668
#
# Static dielectric constant tensor:
#      x y z
#    x 3.617730 0.000000 0.011500 
#    y 0.000000 3.663840 0.000000 
#    z 0.011500 0.000000 3.674490 
# 
# 
# High freq. dielectric constant tensor:
#      x y z
#    x 1.787480 0.000000 0.004050 
#    y 0.000000 1.786250 0.000000 
#    z 0.004050 0.000000 1.781840 
# 
# From -- ./inp_files/31985.got.cif
#   From: 2010.03.12/outbox.cif.g09.slc.cpg/sg8_16_cif.got.tgz:31985.got - 2010.03.31 10:45:26.
