data_PCOD8053455
_publ_section_title
;
Structure prediction by ZEFSAII (Michael W. Deem and Ramdas Pophale) SiO2 
 PCOD8053455
Probable space group: C M
;
_chemical_formula_sum "Si O2"
_cell_formula_units_Z 32
_cell_length_a 25.194740
_cell_length_b 8.905759
_cell_length_c 24.017868
_cell_angle_alpha 90.000000
_cell_angle_beta 17.587619
_cell_angle_gamma 90.000000
_cell_volume 1628.387890
_symmetry_space_group_name_H-M "C M"
_symmetry_group_IT_number 8
_symmetry_cell_setting 'monoclinic'
loop_
_space_group_symop_operation_xyz
x,y,z
x,-y,z
1/2+x,1/2+y,z
1/2+x,1/2-y,z
loop_
_atom_site_type_symbol
_atom_site_label
_atom_site_fract_x
_atom_site_fract_y
_atom_site_fract_z
Si Si1 0.784320 0.322408 0.517970
Si Si2 0.990404 0.671822 0.615119
Si Si3 0.484494 0.324053 0.735877
Si Si4 0.084024 0.675953 0.136340
Si Si5 0.784175 0.678365 0.643035
Si Si6 0.078101 0.171825 0.027411
Si Si7 0.481687 0.171639 0.014343
Si Si8 0.086673 0.171638 0.409382
O O1 0.784409 0.500000 0.521756
O O2 0.609277 0.267773 0.660995
O O3 0.784320 0.255852 0.580178
O O4 0.959267 0.267683 0.310987
O O5 0.052262 0.500000 0.550435
O O6 0.043449 0.737350 0.621746
O O7 0.088906 0.765780 0.469678
O O8 0.784252 0.687432 0.810511
O O9 0.508229 0.500000 0.700482
O O10 0.284262 0.285160 0.952680
O O11 0.060221 0.500000 0.148512
O O12 0.025049 0.762587 0.140123
O O13 0.784093 0.500000 0.644609
O O14 0.959576 0.732958 0.497608
O O15 0.608701 0.733047 0.848407
O O16 0.979591 0.265711 0.078959
O O17 0.016252 0.000000 0.086454
O O18 0.284156 0.184240 0.187988
O O19 0.546550 0.000000 0.950535
O O20 0.021800 0.000000 0.475290
#
# Coordination Sequence:
#
# PCOD8053455 Si02
#       8
#     4   4   4   4   4   4   4   4
#     4   9  20  37  59  85 113 151 200 241 288 355
#     4  10  20  35  57  87 122 154 189 242 302 352
#     4   9  18  34  56  82 114 153 192 234 285 348
#     4   9  18  34  56  82 114 153 192 234 285 348
#     4  11  23  41  63  89 121 157 200 255 304 349
#     4  10  20  35  57  87 122 154 189 242 302 352
#     4  11  24  40  60  86 117 159 204 245 297 361
#     4  11  24  40  60  86 117 159 204 245 297 361
#
# _framework density 19.651337999999999
#
# number of rings (size 3 to 8) (size 9 to 14) (size 15 to 20)
#    0.000    2.000    1.250    1.875    1.750    4.000 
#    0.000    5.000    0.000    3.000    0.000    0.000 
#    0.000    0.000    0.000    0.000    0.000    0.000 
#
# Total GULP energy -198447.364324 kJ/mol
# GULP energy per Si atom -12402.960270 kJ/mol
# Density = 1.960661 g / cm^3
# Si number density = 19.651338 Si / 1000 Ang^3
#
#
#
# Elastic Constant Matrix: (Units=GPa)
#
#
# Indices 1 2 3 4 5 6 
#
# 1 143.5467 49.2228 72.3710 0.0056 9.6702 0.0014
# 2 49.2228 92.8073 38.9730 0.0395 2.9961 -0.0055
# 3 72.3710 38.9730 110.6223 0.0463 -0.0329 -0.0096
# 4 0.0056 0.0395 0.0463 16.9437 -0.0160 2.9223
# 5 9.6702 2.9961 -0.0329 -0.0160 21.5446 0.0021
# 6 0.0014 -0.0055 -0.0096 2.9223 0.0021 27.1956
#
#
#
# Elastic Compliance Matrix: (Units=1/GPa)
#
#
# Indices 1 2 3 4 5 6 
#
# 1 0.011699 -0.003328 -0.006483 0.000018 -0.004798 -0.000005
# 2 -0.003328 0.013660 -0.002636 -0.000025 -0.000410 0.000005
# 3 -0.006483 -0.002636 0.014210 -0.000029 0.003298 0.000008
# 4 0.000018 -0.000025 -0.000029 0.060134 0.000041 -0.006462
# 5 -0.004798 -0.000410 0.003298 0.000041 0.048631 -0.000007
# 6 -0.000005 0.000005 0.000008 -0.006462 -0.000007 0.037465
#
#
# Mechanical properties :
#
#
# Convention : Reuss Voigt Hill
#
# Bulk Modulus (GPa) = 68.13214 74.23444 71.18329
# Shear Modulus (GPa) = 23.19284 25.56407 24.37845
#
# Velocity S-wave (km/s) = 3.43916 3.61069 3.52596
# Velocity P-wave (km/s) = 7.10747 7.43240 7.27175
#
# Compressibility (1/GPa) = 0.01467736
#
# Stress axis : x y z
#
# Youngs Moduli (GPa) = 85.47681 73.20669 70.37072
#
# Poissons Ratio (x) = 0.24361 0.45620
# Poissons Ratio (y) = 0.28444 0.18547
# Poissons Ratio (z) = 0.55413 0.19294
#
# Static dielectric constant tensor:
#      x y z
#    x 3.685720 -0.000010 -0.000370 
#    y -0.000010 3.522270 0.000020 
#    z -0.000370 0.000020 3.689420 
# 
# 
# High freq. dielectric constant tensor:
#      x y z
#    x 1.761680 0.000000 -0.003470 
#    y 0.000000 1.758680 0.000000 
#    z -0.003470 0.000000 1.774030 
# 
# From -- ./inp_files/32351.got.cif
#   From: 2010.03.12/outbox.cif.g09.slc.cpg/sg8_17_cif.got.tgz:32351.got - 2010.03.31 10:45:26.
