data_PCOD8053785
_publ_section_title
;
Structure prediction by ZEFSAII (Michael W. Deem and Ramdas Pophale) SiO2 
 PCOD8053785
Probable space group: C M
;
_chemical_formula_sum "Si O2"
_cell_formula_units_Z 26
_cell_length_a 26.441064
_cell_length_b 7.893082
_cell_length_c 7.706931
_cell_angle_alpha 90.000000
_cell_angle_beta 46.510442
_cell_angle_gamma 90.000000
_cell_volume 1166.928685
_symmetry_space_group_name_H-M "C M"
_symmetry_group_IT_number 8
_symmetry_cell_setting 'monoclinic'
loop_
_space_group_symop_operation_xyz
x,y,z
x,-y,z
1/2+x,1/2+y,z
1/2+x,1/2-y,z
loop_
_atom_site_type_symbol
_atom_site_label
_atom_site_fract_x
_atom_site_fract_y
_atom_site_fract_z
Si Si1 0.192478 0.500000 0.367138
Si Si2 0.596315 0.306214 0.549129
Si Si3 0.750039 0.690013 0.729097
Si Si4 0.868882 0.682418 0.203821
Si Si5 0.288939 0.500000 0.843260
Si Si6 0.593944 0.698476 0.154831
Si Si7 0.845374 0.000000 0.057794
Si Si8 0.491609 0.305998 0.104966
O O1 0.151226 0.673910 0.500740
O O2 0.213390 0.500000 0.114756
O O3 0.263843 0.500000 0.312026
O O4 0.626297 0.500000 0.481729
O O5 0.578415 0.252700 0.392075
O O6 0.529341 0.292884 0.828712
O O7 0.751802 0.500000 0.810079
O O8 0.787675 0.683274 0.453823
O O9 0.796571 0.826092 0.721566
O O10 0.670673 0.757996 0.909336
O O11 0.884163 0.500000 0.079369
O O12 0.884297 0.833305 0.034074
O O13 0.919567 0.703827 0.251701
O O14 0.351824 0.500000 0.834750
O O15 0.590170 0.500000 0.136116
O O16 0.537009 0.776763 0.155360
O O17 0.473479 0.500000 0.191261
#
# Coordination Sequence:
#
# PCOD8053785 Si02
#       8
#     2   4   4   4   2   4   2   4
#     4  10  22  36  62 100 116 157 210 247 319 376
#     4  10  21  40  62  90 133 158 197 263 308 371
#     4  10  21  40  64  89 128 157 207 263 307 374
#     4  11  24  43  61  88 127 169 210 260 308 373
#     4  10  21  37  64  98 119 163 196 257 326 365
#     4   9  18  37  64  91 115 163 202 248 316 364
#     4  10  23  41  62  90 129 160 208 256 321 369
#     4  10  22  41  63  89 126 167 209 253 310 373
#
# _framework density 22.280709000000002
#
# number of rings (size 3 to 8) (size 9 to 14) (size 15 to 20)
#    0.462    1.538    2.308    0.462    3.231    1.231 
#    5.538    0.000    0.000    0.000    0.000    0.000 
#    0.000    0.000    0.000    0.000    0.000    0.000 
#
# Total GULP energy -161057.010739 kJ/mol
# GULP energy per Si atom -12389.000826 kJ/mol
# Density = 2.223000 g / cm^3
# Si number density = 22.280709 Si / 1000 Ang^3
#
#
#
# Elastic Constant Matrix: (Units=GPa)
#
#
# Indices 1 2 3 4 5 6 
#
# 1 117.7904 44.1227 4.6267 0.0000 -2.8613 0.0000
# 2 44.1227 142.9633 2.0781 0.0000 0.0840 0.0000
# 3 4.6267 2.0781 38.3514 0.0000 -1.4107 0.0000
# 4 0.0000 0.0000 0.0000 19.9542 0.0000 -6.3133
# 5 -2.8613 0.0840 -1.4107 0.0000 21.8883 0.0000
# 6 0.0000 0.0000 0.0000 -6.3133 0.0000 17.6150
#
#
#
# Elastic Compliance Matrix: (Units=1/GPa)
#
#
# Indices 1 2 3 4 5 6 
#
# 1 0.009670 -0.002971 -0.000961 0.000000 0.001214 0.000000
# 2 -0.002971 0.007913 -0.000086 0.000000 -0.000424 0.000000
# 3 -0.000961 -0.000086 0.026253 0.000000 0.001567 0.000000
# 4 0.000000 0.000000 0.000000 0.056524 0.000000 0.020259
# 5 0.001214 -0.000424 0.001567 0.000000 0.045948 0.000000
# 6 0.000000 0.000000 0.000000 0.020259 0.000000 0.064031
#
#
# Mechanical properties :
#
#
# Convention : Reuss Voigt Hill
#
# Bulk Modulus (GPa) = 27.93302 44.52890 36.23096
# Shear Modulus (GPa) = 21.71006 28.44335 25.07670
#
# Velocity S-wave (km/s) = 3.12491 3.57682 3.35847
# Velocity P-wave (km/s) = 5.05808 6.08991 5.59782
#
# Compressibility (1/GPa) = 0.03579992
#
# Stress axis : x y z
#
# Youngs Moduli (GPa) = 103.41445 126.36984 38.09107
#
# Poissons Ratio (x) = 0.37546 0.03660
# Poissons Ratio (y) = 0.30726 0.00327
# Poissons Ratio (z) = 0.09937 0.01086
#
# Static dielectric constant tensor:
#      x y z
#    x 3.916940 0.000000 -0.064140 
#    y 0.000000 3.956640 0.000000 
#    z -0.064140 0.000000 3.762270 
# 
# 
# High freq. dielectric constant tensor:
#      x y z
#    x 1.860060 0.000000 -0.007700 
#    y 0.000000 1.875210 0.000000 
#    z -0.007700 0.000000 1.859920 
# 
# From -- ./inp_files/17318.got.cif
#   From: 2010.03.12/outbox.cif.g09.slc.cpg/sg8_9_cif.got.tgz:17318.got - 2010.03.31 10:45:26.
