data_PCOD8053382
_publ_section_title
;
Structure prediction by ZEFSAII (Michael W. Deem and Ramdas Pophale) SiO2 
 PCOD8053382
Probable space group: C M
;
_chemical_formula_sum "Si O2"
_cell_formula_units_Z 32
_cell_length_a 24.430615
_cell_length_b 8.523957
_cell_length_c 19.837928
_cell_angle_alpha 90.000000
_cell_angle_beta 22.980407
_cell_angle_gamma 90.000000
_cell_volume 1612.872108
_symmetry_space_group_name_H-M "C M"
_symmetry_group_IT_number 8
_symmetry_cell_setting 'monoclinic'
loop_
_space_group_symop_operation_xyz
x,y,z
x,-y,z
1/2+x,1/2+y,z
1/2+x,1/2-y,z
loop_
_atom_site_type_symbol
_atom_site_label
_atom_site_fract_x
_atom_site_fract_y
_atom_site_fract_z
Si Si1 0.603180 0.187017 0.605960
Si Si2 0.577590 0.685197 0.126808
Si Si3 0.542567 0.684627 0.017881
Si Si4 0.793241 0.687077 0.987461
Si Si5 0.803591 0.813612 0.646873
Si Si6 0.750422 0.314667 0.306763
Si Si7 0.293039 0.315443 0.509112
Si Si8 0.622579 0.313616 0.310209
O O1 0.657200 0.247980 0.473139
O O2 0.697085 0.259204 0.559669
O O3 0.608325 0.000000 0.596956
O O4 0.449790 0.249878 0.799472
O O5 0.588025 0.500000 0.106262
O O6 0.551159 0.757323 0.083246
O O7 0.714563 0.749400 0.009557
O O8 0.451899 0.735863 0.317660
O O9 0.514691 0.500000 0.049380
O O10 0.412916 0.763463 0.125964
O O11 0.694075 0.723016 0.816764
O O12 0.788917 0.500000 0.995680
O O13 0.720183 0.752799 0.138619
O O14 0.755560 0.761067 0.626550
O O15 0.961582 0.755935 0.484419
O O16 0.791147 0.000000 0.670907
O O17 0.743410 0.500000 0.317264
O O18 0.685046 0.252359 0.310406
O O19 0.276138 0.500000 0.522320
O O20 0.624452 0.500000 0.305136
#
# Coordination Sequence:
#
# PCOD8053382 Si02
#       8
#     4   4   4   4   4   4   4   4
#     4  10  20  34  57  85 111 142 184 231 276 324
#     4   9  16  31  54  79 105 137 182 232 273 315
#     4  11  23  38  57  83 114 146 186 232 279 332
#     4   9  17  31  55  84 108 138 185 232 272 319
#     4  10  20  36  60  86 112 144 185 232 279 327
#     4  11  23  38  56  80 115 153 186 224 276 334
#     4   9  16  31  56  81 105 139 185 231 269 317
#     4   9  19  35  55  82 114 147 185 228 272 328
#
# _framework density 19.840382999999999
#
# number of rings (size 3 to 8) (size 9 to 14) (size 15 to 20)
#    0.000    2.250    2.500    0.750    3.500    0.000 
#    0.000    1.250    0.000    0.750    0.000    0.000 
#    0.000    0.000    0.000    0.000    0.000    0.000 
#
# Total GULP energy -198305.364449 kJ/mol
# GULP energy per Si atom -12394.085278 kJ/mol
# Density = 1.979523 g / cm^3
# Si number density = 19.840383 Si / 1000 Ang^3
#
#
#
# Elastic Constant Matrix: (Units=GPa)
#
#
# Indices 1 2 3 4 5 6 
#
# 1 154.2492 15.2296 39.7024 -0.0013 -7.3967 0.0002
# 2 15.2296 21.4905 6.7370 0.0036 0.5689 -0.0004
# 3 39.7024 6.7370 -31.9642 -0.0046 28.2538 0.0011
# 4 -0.0013 0.0036 -0.0046 24.5890 0.0025 3.6709
# 5 -7.3967 0.5689 28.2538 0.0025 27.3025 -0.0007
# 6 0.0002 -0.0004 0.0011 3.6709 -0.0007 19.1345
#
#
#
# Elastic Compliance Matrix: (Units=1/GPa)
#
#
# Indices 1 2 3 4 5 6 
#
# 1 0.005864 -0.005345 0.004000 0.000002 -0.002440 -0.000001
# 2 -0.005345 0.050129 0.000900 -0.000007 -0.003424 0.000002
# 3 0.004000 0.000900 -0.013153 -0.000004 0.014677 0.000002
# 4 0.000002 -0.000007 -0.000004 0.041868 0.000001 -0.008032
# 5 -0.002440 -0.003424 0.014677 0.000001 0.020849 0.000000
# 6 -0.000001 0.000002 0.000002 -0.008032 0.000000 0.053803
#
#
# Mechanical properties :
#
#
# Convention : Reuss Voigt Hill
#
# Bulk Modulus (GPa) = 23.83806 29.67929 26.75868
# Shear Modulus (GPa) = 28.69741 19.67896 24.18818
#
# Velocity S-wave (km/s) = 3.80730 3.15280 3.49541
# Velocity P-wave (km/s) = 5.60075 5.31461 5.45955
#
# Compressibility (1/GPa) = 0.04194972
#
# Stress axis : x y z
#
# Youngs Moduli (GPa) = 170.52975 19.94867 -76.02622
#
# Poissons Ratio (x) = 0.10663 0.30414
# Poissons Ratio (y) = 0.91152 0.06841
# Poissons Ratio (z) = -0.68220 -0.01795
#
# Static dielectric constant tensor:
#      x y z
#    x 4.120650 0.000000 -0.046970 
#    y 0.000000 3.047910 0.000000 
#    z -0.046970 0.000000 3.719140 
# 
# 
# High freq. dielectric constant tensor:
#      x y z
#    x 1.794530 0.000000 -0.001390 
#    y 0.000000 1.716290 0.000000 
#    z -0.001390 0.000000 1.785140 
# 
# From -- ./inp_files/31643.got.cif
#   From: 2010.03.12/outbox.cif.g09.slc.cpg/sg8_16_cif.got.tgz:31643.got - 2010.03.31 10:45:26.
