data_PCOD8053738
_publ_section_title
;
Structure prediction by ZEFSAII (Michael W. Deem and Ramdas Pophale) SiO2 
 PCOD8053738
Probable space group: C M
;
_chemical_formula_sum "Si O2"
_cell_formula_units_Z 32
_cell_length_a 15.337738
_cell_length_b 8.863240
_cell_length_c 22.466531
_cell_angle_alpha 90.000000
_cell_angle_beta 31.855344
_cell_angle_gamma 90.000000
_cell_volume 1611.906641
_symmetry_space_group_name_H-M "C M"
_symmetry_group_IT_number 8
_symmetry_cell_setting 'monoclinic'
loop_
_space_group_symop_operation_xyz
x,y,z
x,-y,z
1/2+x,1/2+y,z
1/2+x,1/2-y,z
loop_
_atom_site_type_symbol
_atom_site_label
_atom_site_fract_x
_atom_site_fract_y
_atom_site_fract_z
Si Si1 0.698670 0.677696 0.177540
Si Si2 0.059488 0.324153 0.767359
Si Si3 0.878201 0.668260 0.548658
Si Si4 0.077931 0.670880 0.551560
Si Si5 0.527604 0.823584 0.917657
Si Si6 0.336840 0.823747 0.792263
Si Si7 0.868452 0.678739 0.319191
Si Si8 0.209875 0.680283 0.296836
O O1 0.661431 0.500000 0.204160
O O2 0.542930 0.765726 0.242260
O O3 0.754702 0.742448 0.208802
O O4 0.846822 0.713241 0.046627
O O5 0.081908 0.500000 0.761766
O O6 0.216436 0.269769 0.638332
O O7 0.044525 0.250761 0.841676
O O8 0.893478 0.287055 0.826719
O O9 0.825770 0.500000 0.561331
O O10 0.945483 0.674340 0.576109
O O11 0.020633 0.726151 0.421398
O O12 0.143822 0.500000 0.523008
O O13 0.232189 0.778128 0.447644
O O14 0.982093 0.735265 0.664439
O O15 0.663238 0.755793 0.882974
O O16 0.559397 0.000000 0.896768
O O17 0.311791 0.000000 0.795289
O O18 0.870680 0.500000 0.309085
O O19 0.831133 0.758257 0.277799
O O20 0.230756 0.500000 0.281868
#
# Coordination Sequence:
#
# PCOD8053738 Si02
#       8
#     4   4   4   4   4   4   4   4
#     4  11  24  42  63  87 122 167 212 257 304 361
#     4  10  21  36  57  87 118 153 195 240 296 357
#     4   9  18  34  57  85 119 152 188 241 302 357
#     4   9  18  35  57  85 123 160 196 246 304 358
#     4  10  23  42  60  85 121 157 200 253 301 353
#     4  10  21  37  59  87 117 157 202 244 297 359
#     4  11  23  39  61  92 124 162 206 249 307 370
#     4  10  22  41  62  90 124 158 203 258 311 365
#
# _framework density 19.852267000000001
#
# number of rings (size 3 to 8) (size 9 to 14) (size 15 to 20)
#    0.000    2.000    1.250    2.625    1.750    5.500 
#    0.000    1.250    0.000    0.000    0.000    0.000 
#    0.000    0.000    0.000    0.000    0.000    0.000 
#
# Total GULP energy -198409.472060 kJ/mol
# GULP energy per Si atom -12400.592004 kJ/mol
# Density = 1.980708 g / cm^3
# Si number density = 19.852267 Si / 1000 Ang^3
#
#
#
# Elastic Constant Matrix: (Units=GPa)
#
#
# Indices 1 2 3 4 5 6 
#
# 1 74.7778 30.6866 36.4643 0.0005 -8.3231 -0.0001
# 2 30.6866 67.3816 36.2638 0.0002 -5.3511 0.0000
# 3 36.4643 36.2638 69.9853 0.0003 -13.7366 0.0000
# 4 0.0005 0.0002 0.0003 31.0888 0.0001 -3.8112
# 5 -8.3231 -5.3511 -13.7366 0.0001 28.5298 0.0000
# 6 -0.0001 0.0000 0.0000 -3.8112 0.0000 31.1074
#
#
#
# Elastic Compliance Matrix: (Units=1/GPa)
#
#
# Indices 1 2 3 4 5 6 
#
# 1 0.018933 -0.004637 -0.007232 0.000000 0.001172 0.000000
# 2 -0.004637 0.021767 -0.009196 0.000000 -0.001698 0.000000
# 3 -0.007232 -0.009196 0.024372 0.000000 0.007900 0.000000
# 4 0.000000 0.000000 0.000000 0.032656 0.000000 0.004001
# 5 0.001172 -0.001698 0.007900 0.000000 0.038878 0.000000
# 6 0.000000 0.000000 0.000000 0.004001 0.000000 0.032637
#
#
# Mechanical properties :
#
#
# Convention : Reuss Voigt Hill
#
# Bulk Modulus (GPa) = 43.58771 46.55270 45.07020
# Shear Modulus (GPa) = 22.82885 25.39385 24.11135
#
# Velocity S-wave (km/s) = 3.39475 3.58039 3.48880
# Velocity P-wave (km/s) = 6.11306 6.37124 6.24348
#
# Compressibility (1/GPa) = 0.02294225
#
# Stress axis : x y z
#
# Youngs Moduli (GPa) = 52.81841 45.94106 41.03014
#
# Poissons Ratio (x) = 0.21304 0.29672
# Poissons Ratio (y) = 0.24493 0.37731
# Poissons Ratio (z) = 0.38197 0.42247
#
# Static dielectric constant tensor:
#      x y z
#    x 3.722200 0.000000 0.175710 
#    y 0.000000 3.530760 0.000000 
#    z 0.175710 0.000000 3.621470 
# 
# 
# High freq. dielectric constant tensor:
#      x y z
#    x 1.781950 0.000000 0.001920 
#    y 0.000000 1.766870 0.000000 
#    z 0.001920 0.000000 1.770250 
# 
# From -- ./inp_files/28187.got.cif
#   From: 2010.03.12/outbox.cif.g09.slc.cpg/sg8_15_cif.got.tgz:28187.got - 2010.03.31 10:45:26.
