data_PCOD8053995
_publ_section_title
;
Structure prediction by ZEFSAII (Michael W. Deem and Ramdas Pophale) SiO2 
 PCOD8053995
Probable space group: C M
;
_chemical_formula_sum "Si O2"
_cell_formula_units_Z 24
_cell_length_a 18.238265
_cell_length_b 11.877563
_cell_length_c 5.193336
_cell_angle_alpha 90.000000
_cell_angle_beta 69.209904
_cell_angle_gamma 90.000000
_cell_volume 1051.759462
_symmetry_space_group_name_H-M "C M"
_symmetry_group_IT_number 8
_symmetry_cell_setting 'monoclinic'
loop_
_space_group_symop_operation_xyz
x,y,z
x,-y,z
1/2+x,1/2+y,z
1/2+x,1/2-y,z
loop_
_atom_site_type_symbol
_atom_site_label
_atom_site_fract_x
_atom_site_fract_y
_atom_site_fract_z
Si Si1 0.454060 0.500000 0.704921
Si Si2 0.208879 0.120147 0.255220
Si Si3 0.253685 0.708580 0.585063
Si Si4 0.613016 0.761883 0.054087
Si Si5 0.348779 0.500000 0.337532
Si Si6 0.016543 0.753716 0.659472
Si Si7 0.359557 0.872800 0.756406
O O1 0.387817 0.500000 0.569029
O O2 0.505524 0.386828 0.611008
O O3 0.412697 0.500000 0.034524
O O4 0.194445 0.219899 0.476537
O O5 0.186714 0.000000 0.406445
O O6 0.152052 0.140654 0.079462
O O7 0.299785 0.120023 0.066876
O O8 0.192070 0.664550 0.882222
O O9 0.292944 0.607880 0.380053
O O10 0.323265 0.791450 0.585898
O O11 0.552250 0.757243 0.897945
O O12 0.567766 0.804159 0.367129
O O13 0.936603 0.684845 0.772513
O O14 0.375534 0.000000 0.629587
#
# Coordination Sequence:
#
# PCOD8053995 Si02
#       7
#     2   4   4   4   2   4   4
#     4  12  26  44  70 110 136 183 224 296 353 412
#     4  10  22  43  72 102 132 177 234 287 338 399
#     4  11  23  47  70 104 135 183 237 285 341 411
#     4  11  26  43  67  99 141 180 221 280 343 411
#     4  12  26  44  78  98 140 183 236 290 341 420
#     4  12  25  45  67 102 142 178 224 281 350 411
#     4  10  23  43  72  99 134 181 233 286 336 406
#
# _framework density 22.818905000000001
#
# number of rings (size 3 to 8) (size 9 to 14) (size 15 to 20)
#    0.000    1.000    3.333    2.500    7.000    0.667 
#    3.000    0.000    0.000    0.000    0.000    0.000 
#    0.000    0.000    0.000    0.000    0.000    0.000 
#
# Total GULP energy -148688.021147 kJ/mol
# GULP energy per Si atom -12390.668429 kJ/mol
# Density = 2.276697 g / cm^3
# Si number density = 22.818905 Si / 1000 Ang^3
#
#
#
# Elastic Constant Matrix: (Units=GPa)
#
#
# Indices 1 2 3 4 5 6 
#
# 1 134.5615 23.7413 37.7381 0.0000 16.9711 0.0000
# 2 23.7413 82.4104 12.8346 0.0000 10.0649 0.0000
# 3 37.7381 12.8346 106.9600 0.0000 3.9426 0.0000
# 4 0.0000 0.0000 0.0000 23.1008 0.0000 2.1066
# 5 16.9711 10.0649 3.9426 0.0000 40.7390 0.0000
# 6 0.0000 0.0000 0.0000 2.1066 0.0000 7.6320
#
#
#
# Elastic Compliance Matrix: (Units=1/GPa)
#
#
# Indices 1 2 3 4 5 6 
#
# 1 0.008913 -0.001761 -0.002823 0.000000 -0.003005 0.000000
# 2 -0.001761 0.013070 -0.000858 0.000000 -0.002412 0.000000
# 3 -0.002823 -0.000858 0.010434 0.000000 0.000378 0.000000
# 4 0.000000 0.000000 0.000000 0.044406 0.000000 -0.012257
# 5 -0.003005 -0.002412 0.000378 0.000000 0.026358 0.000000
# 6 0.000000 0.000000 0.000000 -0.012257 0.000000 0.134410
#
#
# Mechanical properties :
#
#
# Convention : Reuss Voigt Hill
#
# Bulk Modulus (GPa) = 46.43915 52.50664 49.47290
# Shear Modulus (GPa) = 19.55781 30.93555 25.24668
#
# Velocity S-wave (km/s) = 2.93078 3.68598 3.32986
# Velocity P-wave (km/s) = 5.64340 6.41680 6.04249
#
# Compressibility (1/GPa) = 0.02153356
#
# Stress axis : x y z
#
# Youngs Moduli (GPa) = 112.19801 76.51108 95.83871
#
# Poissons Ratio (x) = 0.13474 0.27051
# Poissons Ratio (y) = 0.19759 0.08223
# Poissons Ratio (z) = 0.31669 0.06565
#
# Static dielectric constant tensor:
#      x y z
#    x 4.238640 0.000000 -0.124390 
#    y 0.000000 4.027860 0.000000 
#    z -0.124390 0.000000 4.165920 
# 
# 
# High freq. dielectric constant tensor:
#      x y z
#    x 1.919280 0.000000 -0.008550 
#    y 0.000000 1.873360 0.000000 
#    z -0.008550 0.000000 1.907410 
# 
# From -- ./inp_files/4704.got.cif
#   From: 2010.03.12/outbox.cif.g09.slc.cpg/sg8_3_cif.got.tgz:4704.got - 2010.03.31 10:45:26.
