data_PCOD8053260
_publ_section_title
;
Structure prediction by ZEFSAII (Michael W. Deem and Ramdas Pophale) SiO2 
 PCOD8053260
Probable space group: C M
;
_chemical_formula_sum "Si O2"
_cell_formula_units_Z 32
_cell_length_a 15.372549
_cell_length_b 8.517723
_cell_length_c 11.819712
_cell_angle_alpha 90.000000
_cell_angle_beta 89.256466
_cell_angle_gamma 90.000000
_cell_volume 1547.532304
_symmetry_space_group_name_H-M "C M"
_symmetry_group_IT_number 8
_symmetry_cell_setting 'monoclinic'
loop_
_space_group_symop_operation_xyz
x,y,z
x,-y,z
1/2+x,1/2+y,z
1/2+x,1/2-y,z
loop_
_atom_site_type_symbol
_atom_site_label
_atom_site_fract_x
_atom_site_fract_y
_atom_site_fract_z
Si Si1 0.715960 0.316715 0.793920
Si Si2 0.558881 0.684872 0.949236
Si Si3 0.615397 0.314411 0.187807
Si Si4 0.552907 0.316084 0.428530
Si Si5 0.373084 0.818851 0.415188
Si Si6 0.213041 0.682011 0.549854
Si Si7 0.364789 0.681530 0.937972
Si Si8 0.313959 0.182442 0.169080
O O1 0.706262 0.500000 0.764812
O O2 0.632003 0.250150 0.862614
O O3 0.726180 0.217185 0.681064
O O4 0.801146 0.292685 0.868954
O O5 0.572651 0.500000 0.960137
O O6 0.463796 0.725926 0.902377
O O7 0.571789 0.757860 0.075029
O O8 0.605836 0.500000 0.188970
O O9 0.569824 0.248085 0.301810
O O10 0.715356 0.262949 0.189050
O O11 0.571558 0.500000 0.436340
O O12 0.453441 0.279935 0.464562
O O13 0.616286 0.231388 0.515643
O O14 0.283426 0.776809 0.476978
O O15 0.366383 0.782839 0.282282
O O16 0.392278 0.000000 0.437450
O O17 0.227973 0.500000 0.526833
O O18 0.344909 0.500000 0.911753
O O19 0.355903 0.711294 0.071561
O O20 0.317995 0.000000 0.133930
#
# Coordination Sequence:
#
# PCOD8053260 Si02
#       8
#     4   4   4   4   4   4   4   4
#     4  11  23  43  66  85 115 164 211 254 311 375
#     4   9  19  36  61  88 119 158 198 239 297 367
#     4   9  16  33  61  90 121 160 201 242 300 371
#     4  11  22  40  66  95 127 166 206 255 316 377
#     4  11  23  41  64  94 128 166 211 260 312 374
#     4  12  26  44  64  90 124 162 211 268 318 375
#     4  11  22  37  60  94 126 156 202 257 307 368
#     4  10  19  36  62  90 124 164 204 247 305 373
#
# _framework density 20.678080999999999
#
# number of rings (size 3 to 8) (size 9 to 14) (size 15 to 20)
#    0.000    1.500    2.500    3.375    0.000    3.000 
#    0.000    6.250    0.000    0.000    0.000    0.000 
#    0.000    0.000    0.000    0.000    0.000    0.000 
#
# Total GULP energy -198460.142363 kJ/mol
# GULP energy per Si atom -12403.758898 kJ/mol
# Density = 2.063102 g / cm^3
# Si number density = 20.678081 Si / 1000 Ang^3
#
#
#
# Elastic Constant Matrix: (Units=GPa)
#
#
# Indices 1 2 3 4 5 6 
#
# 1 120.6286 18.7310 27.4941 0.0000 10.8380 0.0000
# 2 18.7310 37.0358 27.4961 0.0000 -3.7547 0.0000
# 3 27.4941 27.4961 91.5345 0.0000 8.5468 0.0000
# 4 0.0000 0.0000 0.0000 28.8846 0.0000 1.6239
# 5 10.8380 -3.7547 8.5468 0.0000 14.3114 0.0000
# 6 0.0000 0.0000 0.0000 1.6239 0.0000 29.1064
#
#
#
# Elastic Compliance Matrix: (Units=1/GPa)
#
#
# Indices 1 2 3 4 5 6 
#
# 1 0.010066 -0.005592 -0.000524 0.000000 -0.008777 0.000000
# 2 -0.005592 0.041838 -0.013035 0.000000 0.022996 0.000000
# 3 -0.000524 -0.013035 0.016183 0.000000 -0.012687 0.000000
# 4 0.000000 0.000000 0.000000 0.034729 0.000000 -0.001938
# 5 -0.008777 0.022996 -0.012687 0.000000 0.090131 0.000000
# 6 0.000000 0.000000 0.000000 -0.001938 0.000000 0.034465
#
#
# Mechanical properties :
#
#
# Convention : Reuss Voigt Hill
#
# Bulk Modulus (GPa) = 33.57486 44.07128 38.82307
# Shear Modulus (GPa) = 18.13940 26.15899 22.14919
#
# Velocity S-wave (km/s) = 2.96502 3.56063 3.27638
# Velocity P-wave (km/s) = 5.29093 6.18574 5.75575
#
# Compressibility (1/GPa) = 0.02978419
#
# Stress axis : x y z
#
# Youngs Moduli (GPa) = 99.34185 23.90178 61.79434
#
# Poissons Ratio (x) = 0.13365 0.03241
# Poissons Ratio (y) = 0.55547 0.80551
# Poissons Ratio (z) = 0.05210 0.31157
#
# Static dielectric constant tensor:
#      x y z
#    x 3.799130 0.000000 -0.032670 
#    y 0.000000 3.414990 0.000000 
#    z -0.032670 0.000000 3.782240 
# 
# 
# High freq. dielectric constant tensor:
#      x y z
#    x 1.822360 0.000000 0.002490 
#    y 0.000000 1.786310 0.000000 
#    z 0.002490 0.000000 1.807180 
# 
# From -- ./inp_files/21568.got.cif
#   From: 2010.03.12/outbox.cif.g09.slc.cpg/sg8_11_cif.got.tgz:21568.got - 2010.03.31 10:45:26.
