data_PCOD8053337
_publ_section_title
;
Structure prediction by ZEFSAII (Michael W. Deem and Ramdas Pophale) SiO2 
 PCOD8053337
Probable space group: C M
;
_chemical_formula_sum "Si O2"
_cell_formula_units_Z 32
_cell_length_a 20.789743
_cell_length_b 8.343225
_cell_length_c 16.443915
_cell_angle_alpha 90.000000
_cell_angle_beta 36.769615
_cell_angle_gamma 90.000000
_cell_volume 1707.356427
_symmetry_space_group_name_H-M "C M"
_symmetry_group_IT_number 8
_symmetry_cell_setting 'monoclinic'
loop_
_space_group_symop_operation_xyz
x,y,z
x,-y,z
1/2+x,1/2+y,z
1/2+x,1/2-y,z
loop_
_atom_site_type_symbol
_atom_site_label
_atom_site_fract_x
_atom_site_fract_y
_atom_site_fract_z
Si Si1 0.266210 0.187421 0.981210
Si Si2 0.516830 0.811456 0.970001
Si Si3 0.175392 0.309904 0.405641
Si Si4 0.644895 0.189528 0.688479
Si Si5 0.794605 0.186944 0.129978
Si Si6 0.491915 0.809234 0.702027
Si Si7 0.054554 0.191200 0.110047
Si Si8 0.327182 0.690392 0.393912
O O1 0.370615 0.260699 0.828719
O O2 0.261930 0.000000 0.970618
O O3 0.274927 0.216566 0.068050
O O4 0.157876 0.261806 0.052893
O O5 0.613431 0.756892 0.811285
O O6 0.494252 0.000000 0.985751
O O7 0.410174 0.717993 0.052462
O O8 0.555059 0.764873 0.020219
O O9 0.182002 0.500000 0.401693
O O10 0.203851 0.251345 0.286031
O O11 0.264111 0.242439 0.378852
O O12 0.055912 0.253365 0.555521
O O13 0.555450 0.256541 0.716468
O O14 0.763722 0.251089 0.539594
O O15 0.644540 0.000000 0.681901
O O16 0.782453 0.000000 0.123530
O O17 0.486684 0.000000 0.710998
O O18 0.949775 0.252631 0.266175
O O19 0.055615 0.000000 0.101856
O O20 0.327783 0.500000 0.391002
#
# Coordination Sequence:
#
# PCOD8053337 Si02
#       8
#     4   4   4   4   4   4   4   4
#     4  10  20  34  52  74 102 134 166 202 247 297
#     4  11  20  32  52  77 102 128 166 210 249 291
#     4   8  14  25  47  73  94 123 164 206 238 284
#     4   8  14  25  47  73  94 123 164 206 238 284
#     4  11  20  32  52  77 102 128 166 210 249 291
#     4   8  13  26  47  71  96 125 165 200 236 289
#     4  10  20  34  52  74 102 134 166 202 247 297
#     4   8  13  26  47  71  96 125 165 200 236 289
#
# _framework density 18.742425000000001
#
# number of rings (size 3 to 8) (size 9 to 14) (size 15 to 20)
#    0.000    2.750    2.500    2.250    0.000    0.500 
#    0.000    1.250    0.000    4.500    0.000    0.000 
#    0.000    0.000    0.000    0.000    0.000    0.000 
#
# Total GULP energy -198235.059319 kJ/mol
# GULP energy per Si atom -12389.691207 kJ/mol
# Density = 1.869977 g / cm^3
# Si number density = 18.742425 Si / 1000 Ang^3
#
#
#
# Elastic Constant Matrix: (Units=GPa)
#
#
# Indices 1 2 3 4 5 6 
#
# 1 99.9478 -2.5694 75.0034 0.0006 -14.1075 -0.0005
# 2 -2.5694 9.9903 5.5385 0.0014 -3.0795 -0.0019
# 3 75.0034 5.5385 206.3380 0.0005 -15.1670 -0.0009
# 4 0.0006 0.0014 0.0005 17.5835 -0.0004 5.9436
# 5 -14.1075 -3.0795 -15.1670 -0.0004 29.2706 0.0008
# 6 -0.0005 -0.0019 -0.0009 5.9436 0.0008 16.8348
#
#
#
# Elastic Compliance Matrix: (Units=1/GPa)
#
#
# Indices 1 2 3 4 5 6 
#
# 1 0.014921 0.008401 -0.005256 -0.000001 0.005352 0.000001
# 2 0.008401 0.109027 -0.005031 -0.000014 0.012912 0.000017
# 3 -0.005256 -0.005031 0.006931 0.000001 0.000529 -0.000001
# 4 -0.000001 -0.000014 0.000001 0.064578 0.000000 -0.022799
# 5 0.005352 0.012912 0.000529 0.000000 0.038376 0.000000
# 6 0.000001 0.000017 -0.000001 -0.022799 0.000000 0.067450
#
#
# Mechanical properties :
#
#
# Convention : Reuss Voigt Hill
#
# Bulk Modulus (GPa) = 7.86741 52.46902 30.16822
# Shear Modulus (GPa) = 14.39167 28.62470 21.50819
#
# Velocity S-wave (km/s) = 2.77405 3.91227 3.39125
# Velocity P-wave (km/s) = 3.80358 6.96156 5.60939
#
# Compressibility (1/GPa) = 0.12710658
#
# Stress axis : x y z
#
# Youngs Moduli (GPa) = 67.02141 9.17203 144.28402
#
# Poissons Ratio (x) = -0.07705 0.75832
# Poissons Ratio (y) = -0.56303 0.72589
# Poissons Ratio (z) = 0.35225 0.04614
#
# Static dielectric constant tensor:
#      x y z
#    x 3.328040 0.000000 -0.155380 
#    y 0.000000 2.934630 0.000000 
#    z -0.155380 0.000000 4.264310 
# 
# 
# High freq. dielectric constant tensor:
#      x y z
#    x 1.692010 0.000000 -0.002010 
#    y 0.000000 1.680140 0.000000 
#    z -0.002010 0.000000 1.756270 
# 
# From -- ./inp_files/23681.got.cif
#   From: 2010.03.12/outbox.cif.g09.slc.cpg/sg8_12_cif.got.tgz:23681.got - 2010.03.31 10:45:26.
