data_PCOD8053032
_publ_section_title
;
Structure prediction by ZEFSAII (Michael W. Deem and Ramdas Pophale) SiO2 
 PCOD8053032
Probable space group: C M
;
_chemical_formula_sum "Si O2"
_cell_formula_units_Z 32
_cell_length_a 22.804261
_cell_length_b 8.990910
_cell_length_c 17.178992
_cell_angle_alpha 90.000000
_cell_angle_beta 147.744502
_cell_angle_gamma 90.000000
_cell_volume 1879.797243
_symmetry_space_group_name_H-M "C M"
_symmetry_group_IT_number 8
_symmetry_cell_setting 'monoclinic'
loop_
_space_group_symop_operation_xyz
x,y,z
x,-y,z
1/2+x,1/2+y,z
1/2+x,1/2-y,z
loop_
_atom_site_type_symbol
_atom_site_label
_atom_site_fract_x
_atom_site_fract_y
_atom_site_fract_z
Si Si1 0.998460 0.831976 0.350350
Si Si2 0.855988 0.673131 0.928532
Si Si3 0.440349 0.831325 0.595132
Si Si4 0.482561 0.167950 0.475160
Si Si5 0.268163 0.675803 0.508651
Si Si6 0.755840 0.328949 0.652199
Si Si7 0.132035 0.827365 0.747177
Si Si8 0.038447 0.175546 0.224730
O O1 0.930309 0.729988 0.335626
O O2 0.126083 0.808074 0.512196
O O3 0.978144 0.782286 0.238464
O O4 0.959525 0.000000 0.319098
O O5 0.887239 0.500000 0.962808
O O6 0.814976 0.724362 0.797557
O O7 0.762432 0.702560 0.889371
O O8 0.962820 0.768769 0.069466
O O9 0.401396 0.827122 0.459736
O O10 0.364769 0.723525 0.559438
O O11 0.567425 0.769621 0.740527
O O12 0.437341 0.000000 0.624070
O O13 0.585583 0.276160 0.610543
O O14 0.523774 0.000000 0.507631
O O15 0.255594 0.500000 0.493756
O O16 0.300657 0.729852 0.631384
O O17 0.156316 0.747672 0.351573
O O18 0.784426 0.500000 0.666329
O O19 0.106288 0.000000 0.731858
O O20 0.058201 0.000000 0.241451
#
# Coordination Sequence:
#
# PCOD8053032 Si02
#       8
#     4   4   4   4   4   4   4   4
#     4   9  16  30  48  69  98 131 163 199 249 296
#     4  10  19  33  52  76 104 135 166 200 250 305
#     4   9  18  31  48  74 101 127 164 209 251 291
#     4   9  17  26  45  74  98 123 156 201 244 286
#     4  11  21  33  51  75  99 132 173 210 248 295
#     4   9  17  31  50  71  99 131 163 206 253 294
#     4   9  16  29  49  74 100 127 159 201 244 292
#     4  10  22  35  49  71 105 140 166 204 253 299
#
# _framework density 17.023112999999999
#
# number of rings (size 3 to 8) (size 9 to 14) (size 15 to 20)
#    0.750    1.750    1.250    3.000    0.000    4.000 
#    0.000    0.000    0.000    1.500    0.000    7.000 
#    0.000    0.000    0.000    0.000    0.000    0.000 
#
# Total GULP energy -198211.515530 kJ/mol
# GULP energy per Si atom -12388.219721 kJ/mol
# Density = 1.698437 g / cm^3
# Si number density = 17.023113 Si / 1000 Ang^3
#
#
#
# Elastic Constant Matrix: (Units=GPa)
#
#
# Indices 1 2 3 4 5 6 
#
# 1 80.0906 38.2355 31.5693 0.0000 0.8437 0.0000
# 2 38.2355 85.0908 35.0487 0.0000 0.4763 0.0000
# 3 31.5693 35.0487 77.2069 0.0000 -8.9092 0.0000
# 4 0.0000 0.0000 0.0000 21.0147 0.0000 -2.4298
# 5 0.8437 0.4763 -8.9092 0.0000 17.4387 0.0000
# 6 0.0000 0.0000 0.0000 -2.4298 0.0000 30.4771
#
#
#
# Elastic Compliance Matrix: (Units=1/GPa)
#
#
# Indices 1 2 3 4 5 6 
#
# 1 0.017126 -0.005715 -0.004767 0.000000 -0.003108 0.000000
# 2 -0.005715 0.016627 -0.005559 0.000000 -0.003018 0.000000
# 3 -0.004767 -0.005559 0.018564 0.000000 0.009866 0.000000
# 4 0.000000 0.000000 0.000000 0.048029 0.000000 0.003829
# 5 -0.003108 -0.003018 0.009866 0.000000 0.062617 0.000000
# 6 0.000000 0.000000 0.000000 0.003829 0.000000 0.033117
#
#
# Mechanical properties :
#
#
# Convention : Reuss Voigt Hill
#
# Bulk Modulus (GPa) = 49.42147 50.23280 49.82713
# Shear Modulus (GPa) = 21.28516 22.95509 22.12012
#
# Velocity S-wave (km/s) = 3.53989 3.67613 3.60865
# Velocity P-wave (km/s) = 6.76777 6.89864 6.83352
#
# Compressibility (1/GPa) = 0.02023412
#
# Stress axis : x y z
#
# Youngs Moduli (GPa) = 58.39153 60.14387 53.86853
#
# Poissons Ratio (x) = 0.34369 0.25680
# Poissons Ratio (y) = 0.33368 0.29948
# Poissons Ratio (z) = 0.27836 0.33437
#
# Static dielectric constant tensor:
#      x y z
#    x 3.165050 0.000000 -0.188780 
#    y 0.000000 3.180940 0.000000 
#    z -0.188780 0.000000 2.857640 
# 
# 
# High freq. dielectric constant tensor:
#      x y z
#    x 1.650880 0.000000 -0.012730 
#    y 0.000000 1.667180 0.000000 
#    z -0.012730 0.000000 1.610800 
# 
# From -- ./inp_files/24315.got.cif
#   From: 2010.03.12/outbox.cif.g09.slc.cpg/sg8_13_cif.got.tgz:24315.got - 2010.03.31 10:45:26.
