data_PCOD8053145
_publ_section_title
;
Structure prediction by ZEFSAII (Michael W. Deem and Ramdas Pophale) SiO2 
 PCOD8053145
Probable space group: C M
;
_chemical_formula_sum "Si O2"
_cell_formula_units_Z 32
_cell_length_a 25.895280
_cell_length_b 8.898381
_cell_length_c 19.892927
_cell_angle_alpha 90.000000
_cell_angle_beta 20.870354
_cell_angle_gamma 90.000000
_cell_volume 1633.017157
_symmetry_space_group_name_H-M "C M"
_symmetry_group_IT_number 8
_symmetry_cell_setting 'monoclinic'
loop_
_space_group_symop_operation_xyz
x,y,z
x,-y,z
1/2+x,1/2+y,z
1/2+x,1/2-y,z
loop_
_atom_site_type_symbol
_atom_site_label
_atom_site_fract_x
_atom_site_fract_y
_atom_site_fract_z
Si Si1 0.286280 0.323085 0.960230
Si Si2 0.187385 0.669711 0.312504
Si Si3 0.663543 0.175048 0.967134
Si Si4 0.858931 0.671165 0.293038
Si Si5 0.278400 0.827869 0.694633
Si Si6 0.586431 0.172867 0.586937
Si Si7 0.970640 0.170180 0.031778
Si Si8 0.071978 0.176006 0.325574
O O1 0.276227 0.500000 0.980167
O O2 0.235662 0.270108 0.948285
O O3 0.449106 0.270352 0.774734
O O4 0.185008 0.252009 0.139122
O O5 0.147743 0.500000 0.338987
O O6 0.129007 0.704589 0.458038
O O7 0.111543 0.784009 0.354236
O O8 0.363827 0.691649 0.097528
O O9 0.732408 0.274343 0.824637
O O10 0.695859 0.000000 0.912490
O O11 0.489540 0.201461 0.186928
O O12 0.805300 0.500000 0.361185
O O13 0.719416 0.777210 0.473717
O O14 0.930019 0.703040 0.134434
O O15 0.142441 0.811553 0.807767
O O16 0.410310 0.731485 0.505042
O O17 0.328539 0.000000 0.639254
O O18 0.550999 0.000000 0.643316
O O19 0.942335 0.000000 0.095130
O O20 0.078930 0.000000 0.307090
#
# Coordination Sequence:
#
# PCOD8053145 Si02
#       8
#     4   4   4   4   4   4   4   4
#     4  11  23  39  56  75 104 142 182 222 266 313
#     4   9  18  35  58  82 108 139 175 215 260 312
#     4   9  19  35  57  84 109 136 175 220 263 312
#     4   9  16  29  52  82 111 137 169 213 263 311
#     4  10  19  34  58  84 109 139 174 214 263 316
#     4  10  20  35  56  83 111 139 175 216 260 314
#     4   8  16  31  53  81 108 135 171 216 263 311
#     4  12  25  38  52  75 108 143 181 222 264 313
#
# _framework density 19.595631000000001
#
# number of rings (size 3 to 8) (size 9 to 14) (size 15 to 20)
#    0.000    2.250    0.000    4.125    0.000    6.500 
#    0.000    1.250    0.000    3.000    0.000    0.000 
#    0.000    0.000    0.000    0.000    0.000    0.000 
#
# Total GULP energy -198346.828109 kJ/mol
# GULP energy per Si atom -12396.676757 kJ/mol
# Density = 1.955103 g / cm^3
# Si number density = 19.595631 Si / 1000 Ang^3
#
#
#
# Elastic Constant Matrix: (Units=GPa)
#
#
# Indices 1 2 3 4 5 6 
#
# 1 17.6404 17.1803 31.6038 0.0000 -11.3142 0.0000
# 2 17.1803 85.1101 40.7718 0.0002 -4.1366 0.0001
# 3 31.6038 40.7718 126.4006 0.0001 -21.0187 0.0001
# 4 0.0000 0.0002 0.0001 36.2197 0.0000 -2.1735
# 5 -11.3142 -4.1366 -21.0187 0.0000 28.3255 0.0000
# 6 0.0000 0.0001 0.0001 -2.1735 0.0000 23.2656
#
#
#
# Elastic Compliance Matrix: (Units=1/GPa)
#
#
# Indices 1 2 3 4 5 6 
#
# 1 0.134270 -0.014295 -0.023259 0.000000 0.034285 0.000000
# 2 -0.014295 0.015473 -0.002271 0.000000 -0.005135 0.000000
# 3 -0.023259 -0.002271 0.014669 0.000000 0.001263 0.000000
# 4 0.000000 0.000000 0.000000 0.027765 0.000000 0.002594
# 5 0.034285 -0.005135 0.001263 0.000000 0.049186 0.000000
# 6 0.000000 0.000000 0.000000 0.002594 0.000000 0.043224
#
#
# Mechanical properties :
#
#
# Convention : Reuss Voigt Hill
#
# Bulk Modulus (GPa) = 11.79767 45.36257 28.58012
# Shear Modulus (GPa) = 12.73908 26.86849 19.80379
#
# Velocity S-wave (km/s) = 2.55247 3.70692 3.18248
# Velocity P-wave (km/s) = 3.83672 6.44370 5.30291
#
# Compressibility (1/GPa) = 0.08476253
#
# Stress axis : x y z
#
# Youngs Moduli (GPa) = 7.44766 64.62729 68.16920
#
# Poissons Ratio (x) = 0.92386 1.58557
# Poissons Ratio (y) = 0.10647 0.15480
# Poissons Ratio (z) = 0.17323 0.14676
#
# Static dielectric constant tensor:
#      x y z
#    x 3.481300 0.000000 -0.477780 
#    y 0.000000 3.571710 0.000000 
#    z -0.477780 0.000000 3.737960 
# 
# 
# High freq. dielectric constant tensor:
#      x y z
#    x 1.735860 0.000000 -0.038120 
#    y 0.000000 1.769160 0.000000 
#    z -0.038120 0.000000 1.765000 
# 
# From -- ./inp_files/22749.got.cif
#   From: 2010.03.12/outbox.cif.g09.slc.cpg/sg8_12_cif.got.tgz:22749.got - 2010.03.31 10:45:26.
