data_PCOD8053476
_publ_section_title
;
Structure prediction by ZEFSAII (Michael W. Deem and Ramdas Pophale) SiO2 
 PCOD8053476
Probable space group: C M
;
_chemical_formula_sum "Si O2"
_cell_formula_units_Z 32
_cell_length_a 15.395825
_cell_length_b 8.675926
_cell_length_c 22.522590
_cell_angle_alpha 90.000000
_cell_angle_beta 31.792541
_cell_angle_gamma 90.000000
_cell_volume 1584.966624
_symmetry_space_group_name_H-M "C M"
_symmetry_group_IT_number 8
_symmetry_cell_setting 'monoclinic'
loop_
_space_group_symop_operation_xyz
x,y,z
x,-y,z
1/2+x,1/2+y,z
1/2+x,1/2-y,z
loop_
_atom_site_type_symbol
_atom_site_label
_atom_site_fract_x
_atom_site_fract_y
_atom_site_fract_z
Si Si1 0.449520 0.323020 0.123190
Si Si2 0.621778 0.321380 0.329064
Si Si3 0.434821 0.318935 0.875283
Si Si4 0.259588 0.178212 0.866510
Si Si5 0.904965 0.824757 0.349072
Si Si6 0.121587 0.678012 0.130170
Si Si7 0.585843 0.680992 0.482734
Si Si8 0.763408 0.181848 0.737010
O O1 0.460231 0.500000 0.137953
O O2 0.264206 0.276878 0.213053
O O3 0.494543 0.210511 0.150947
O O4 0.571821 0.295483 0.997044
O O5 0.674713 0.500000 0.299912
O O6 0.452749 0.301192 0.390277
O O7 0.593034 0.252514 0.411659
O O8 0.429315 0.500000 0.865180
O O9 0.389169 0.230500 0.841376
O O10 0.612205 0.269786 0.795022
O O11 0.304800 0.275348 0.002635
O O12 0.284398 0.279325 0.793804
O O13 0.292596 0.000000 0.832385
O O14 0.748932 0.720942 0.424677
O O15 0.067726 0.779786 0.217269
O O16 0.857123 0.000000 0.362976
O O17 0.110715 0.500000 0.154462
O O18 0.570726 0.500000 0.487820
O O19 0.425647 0.745395 0.609426
O O20 0.738114 0.000000 0.744145
#
# Coordination Sequence:
#
# PCOD8053476 Si02
#       8
#     4   4   4   4   4   4   4   4
#     4  10  20  35  59  90 122 155 200 249 301 362
#     4  10  22  39  59  86 121 159 196 244 307 363
#     4  10  22  40  62  91 124 163 207 253 308 365
#     4  10  22  40  61  90 126 162 203 256 309 365
#     4  11  23  37  59  92 121 157 203 248 301 363
#     4  10  20  36  59  86 124 163 195 245 307 360
#     4  10  23  44  63  84 120 164 206 253 305 357
#     4  11  24  41  64  91 122 165 212 256 304 367
#
# _framework density 20.189699000000001
#
# number of rings (size 3 to 8) (size 9 to 14) (size 15 to 20)
#    0.000    1.750    1.250    2.250    1.750    6.000 
#    0.000    1.250    0.000    0.000    0.000    0.000 
#    0.000    0.000    0.000    0.000    0.000    0.000 
#
# Total GULP energy -198444.083728 kJ/mol
# GULP energy per Si atom -12402.755233 kJ/mol
# Density = 2.014375 g / cm^3
# Si number density = 20.189699 Si / 1000 Ang^3
#
#
#
# Elastic Constant Matrix: (Units=GPa)
#
#
# Indices 1 2 3 4 5 6 
#
# 1 98.4931 13.0447 56.5186 -0.0001 -5.9454 0.0000
# 2 13.0447 34.8269 21.6591 0.0002 3.2288 0.0000
# 3 56.5186 21.6591 123.5189 0.0000 -4.1798 0.0000
# 4 -0.0001 0.0002 0.0000 27.0093 0.0002 -4.3158
# 5 -5.9454 3.2288 -4.1798 0.0002 24.9016 0.0000
# 6 0.0000 0.0000 0.0000 -4.3158 0.0000 33.6124
#
#
#
# Elastic Compliance Matrix: (Units=1/GPa)
#
#
# Indices 1 2 3 4 5 6 
#
# 1 0.013985 -0.001739 -0.006008 0.000000 0.002556 0.000000
# 2 -0.001739 0.033116 -0.005200 0.000000 -0.005582 0.000000
# 3 -0.006008 -0.005200 0.011798 0.000000 0.001220 0.000000
# 4 0.000000 0.000000 0.000000 0.037800 0.000000 0.004853
# 5 0.002556 -0.005582 0.001220 0.000000 0.041697 0.000000
# 6 0.000000 0.000000 0.000000 0.004853 0.000000 0.030374
#
#
# Mechanical properties :
#
#
# Convention : Reuss Voigt Hill
#
# Bulk Modulus (GPa) = 30.29783 48.80933 39.55358
# Shear Modulus (GPa) = 24.31130 28.14576 26.22853
#
# Velocity S-wave (km/s) = 3.47384 3.73777 3.60822
# Velocity P-wave (km/s) = 5.57936 6.54643 6.08215
#
# Compressibility (1/GPa) = 0.03300566
#
# Stress axis : x y z
#
# Youngs Moduli (GPa) = 71.50504 30.19665 84.75993
#
# Poissons Ratio (x) = 0.05251 0.50921
# Poissons Ratio (y) = 0.12434 0.44077
# Poissons Ratio (z) = 0.42958 0.15703
#
# Static dielectric constant tensor:
#      x y z
#    x 3.587760 0.000000 0.112640 
#    y 0.000000 3.603010 0.000000 
#    z 0.112640 0.000000 3.822820 
# 
# 
# High freq. dielectric constant tensor:
#      x y z
#    x 1.789880 0.000000 -0.000970 
#    y 0.000000 1.789970 0.000000 
#    z -0.000970 0.000000 1.785730 
# 
# From -- ./inp_files/24828.got.cif
#   From: 2010.03.12/outbox.cif.g09.slc.cpg/sg8_13_cif.got.tgz:24828.got - 2010.03.31 10:45:26.
