data_PCOD8053801
_publ_section_title
;
Structure prediction by ZEFSAII (Michael W. Deem and Ramdas Pophale) SiO2 
 PCOD8053801
Probable space group: C M
;
_chemical_formula_sum "Si O2"
_cell_formula_units_Z 32
_cell_length_a 33.156105
_cell_length_b 8.737275
_cell_length_c 12.527532
_cell_angle_alpha 90.000000
_cell_angle_beta 153.931238
_cell_angle_gamma 90.000000
_cell_volume 1594.828549
_symmetry_space_group_name_H-M "C M"
_symmetry_group_IT_number 8
_symmetry_cell_setting 'monoclinic'
loop_
_space_group_symop_operation_xyz
x,y,z
x,-y,z
1/2+x,1/2+y,z
1/2+x,1/2-y,z
loop_
_atom_site_type_symbol
_atom_site_label
_atom_site_fract_x
_atom_site_fract_y
_atom_site_fract_z
Si Si1 0.441950 0.681364 0.983370
Si Si2 0.741256 0.174879 0.818207
Si Si3 0.945355 0.826559 0.230673
Si Si4 0.296508 0.180379 0.159604
Si Si5 0.994875 0.320553 0.557838
Si Si6 0.748603 0.680807 0.462137
Si Si7 0.620108 0.181214 0.333209
Si Si8 0.190618 0.681379 0.103304
O O1 0.434416 0.500000 0.952726
O O2 0.346372 0.754316 0.725817
O O3 0.469840 0.728561 0.170101
O O4 0.518023 0.750693 0.085743
O O5 0.665401 0.230158 0.553325
O O6 0.724943 0.000000 0.815690
O O7 0.836907 0.193256 0.984959
O O8 0.737407 0.282744 0.912962
O O9 0.000868 0.727677 0.448386
O O10 0.975883 0.000000 0.322203
O O11 0.401461 0.240742 0.391599
O O12 0.255684 0.275063 0.159846
O O13 0.292124 0.000000 0.172628
O O14 0.991472 0.500000 0.552174
O O15 0.086020 0.262152 0.834199
O O16 0.749686 0.500000 0.475194
O O17 0.672244 0.748692 0.357598
O O18 0.726579 0.728460 0.289996
O O19 0.618872 0.000000 0.316904
O O20 0.195413 0.500000 0.133552
#
# Coordination Sequence:
#
# PCOD8053801 Si02
#       8
#     4   4   4   4   4   4   4   4
#     4  11  23  41  63  94 128 166 211 260 318 379
#     4   9  18  36  60  88 125 166 203 248 312 374
#     4   9  18  35  60  89 125 162 200 251 308 366
#     4  10  21  38  60  91 125 159 205 258 307 369
#     4   9  21  39  60  88 122 161 202 248 307 369
#     4  12  26  45  66  91 124 167 216 268 320 376
#     4  11  23  41  64  93 128 168 211 262 316 376
#     4  11  24  43  65  88 121 167 210 257 314 379
#
# _framework density 20.064852999999999
#
# number of rings (size 3 to 8) (size 9 to 14) (size 15 to 20)
#    0.000    1.750    1.250    2.625    1.750    4.500 
#    0.000    3.750    0.000    0.000    0.000    0.000 
#    0.000    0.000    0.000    0.000    0.000    0.000 
#
# Total GULP energy -198443.122465 kJ/mol
# GULP energy per Si atom -12402.695154 kJ/mol
# Density = 2.001918 g / cm^3
# Si number density = 20.064853 Si / 1000 Ang^3
#
#
#
# Elastic Constant Matrix: (Units=GPa)
#
#
# Indices 1 2 3 4 5 6 
#
# 1 137.0287 61.8035 178.7022 0.0000 -6.9217 0.0000
# 2 61.8035 108.1412 241.8235 0.0000 -20.3650 0.0000
# 3 178.7022 241.8235 1166.2769 0.0000 -96.9097 0.0000
# 4 0.0000 0.0000 0.0000 32.5880 0.0000 -2.4250
# 5 -6.9217 -20.3650 -96.9097 0.0000 36.3363 0.0000
# 6 0.0000 0.0000 0.0000 -2.4250 0.0000 35.0173
#
#
#
# Elastic Compliance Matrix: (Units=1/GPa)
#
#
# Indices 1 2 3 4 5 6 
#
# 1 0.010331 -0.004422 -0.000910 0.000000 -0.002938 0.000000
# 2 -0.004422 0.019135 -0.003172 0.000000 0.001423 0.000000
# 3 -0.000910 -0.003172 0.001917 0.000000 0.003163 0.000000
# 4 0.000000 0.000000 0.000000 0.030845 0.000000 0.002136
# 5 -0.002938 0.001423 0.003163 0.000000 0.036193 0.000000
# 6 0.000000 0.000000 0.000000 0.002136 0.000000 0.028705
#
#
# Mechanical properties :
#
#
# Convention : Reuss Voigt Hill
#
# Bulk Modulus (GPa) = 69.56493 264.01169 166.78831
# Shear Modulus (GPa) = 33.57363 82.72949 58.15156
#
# Velocity S-wave (km/s) = 4.09498 6.42811 5.38932
# Velocity P-wave (km/s) = 7.55671 13.67329 11.04678
#
# Compressibility (1/GPa) = 0.01437506
#
# Stress axis : x y z
#
# Youngs Moduli (GPa) = 96.79830 52.25999 521.55954
#
# Poissons Ratio (x) = 0.23110 0.47468
# Poissons Ratio (y) = 0.42806 1.65428
# Poissons Ratio (z) = 0.08810 0.16576
#
# Static dielectric constant tensor:
#      x y z
#    x 3.695120 0.000000 0.109370 
#    y 0.000000 3.625330 0.000000 
#    z 0.109370 0.000000 3.560990 
# 
# 
# High freq. dielectric constant tensor:
#      x y z
#    x 1.787350 0.000000 0.005610 
#    y 0.000000 1.784190 0.000000 
#    z 0.005610 0.000000 1.787530 
# 
# From -- ./inp_files/24779.got.cif
#   From: 2010.03.12/outbox.cif.g09.slc.cpg/sg8_13_cif.got.tgz:24779.got - 2010.03.31 10:45:26.
