data_PCOD8053843
_publ_section_title
;
Structure prediction by ZEFSAII (Michael W. Deem and Ramdas Pophale) SiO2 
 PCOD8053843
Probable space group: C M
;
_chemical_formula_sum "Si O2"
_cell_formula_units_Z 24
_cell_length_a 20.444438
_cell_length_b 8.832662
_cell_length_c 18.967135
_cell_angle_alpha 90.000000
_cell_angle_beta 158.628582
_cell_angle_gamma 90.000000
_cell_volume 1248.134906
_symmetry_space_group_name_H-M "C M"
_symmetry_group_IT_number 8
_symmetry_cell_setting 'monoclinic'
loop_
_space_group_symop_operation_xyz
x,y,z
x,-y,z
1/2+x,1/2+y,z
1/2+x,1/2-y,z
loop_
_atom_site_type_symbol
_atom_site_label
_atom_site_fract_x
_atom_site_fract_y
_atom_site_fract_z
Si Si1 0.370470 0.823144 0.842100
Si Si2 0.561584 0.175622 0.281123
Si Si3 0.203637 0.676395 0.272196
Si Si4 0.895092 0.823758 0.716056
Si Si5 0.079212 0.678270 0.648562
Si Si6 0.689217 0.178638 0.914383
O O1 0.375423 0.766663 0.767932
O O2 0.210332 0.743630 0.722013
O O3 0.331901 0.000000 0.805173
O O4 0.559416 0.784087 0.067858
O O5 0.627374 0.230278 0.270701
O O6 0.717865 0.207537 0.493192
O O7 0.504599 0.000000 0.222018
O O8 0.393703 0.276944 0.135569
O O9 0.253180 0.500000 0.324365
O O10 0.379710 0.769616 0.429741
O O11 0.067641 0.764299 0.848340
O O12 0.921145 0.000000 0.758271
O O13 0.090369 0.500000 0.655910
O O14 0.135647 0.736236 0.782676
O O15 0.662746 0.000000 0.896433
#
# Coordination Sequence:
#
# PCOD8053843 Si02
#       6
#     4   4   4   4   4   4
#     4  11  24  42  64  90 125 162 201 252 306 361
#     4  10  21  39  64  91 119 159 207 251 300 358
#     4  10  21  39  64  91 119 159 207 251 300 358
#     4  11  24  42  64  90 125 162 201 252 306 361
#     4  11  23  38  62  94 125 159 202 251 303 361
#     4  11  23  38  62  94 125 159 202 251 303 361
#
# _framework density 19.22869
#
# number of rings (size 3 to 8) (size 9 to 14) (size 15 to 20)
#    0.000    1.333    3.333    2.000    0.000    6.000 
#    0.000    0.000    0.000    0.000    0.000    0.000 
#    0.000    0.000    0.000    0.000    0.000    0.000 
#
# Total GULP energy -148884.906187 kJ/mol
# GULP energy per Si atom -12407.075516 kJ/mol
# Density = 1.918492 g / cm^3
# Si number density = 19.228690 Si / 1000 Ang^3
#
#
#
# Elastic Constant Matrix: (Units=GPa)
#
#
# Indices 1 2 3 4 5 6 
#
# 1 97.6957 7.6811 42.0258 -0.0067 7.3841 -0.0032
# 2 7.6811 37.9783 32.0275 -0.0077 4.6550 -0.0038
# 3 42.0258 32.0275 122.0917 -0.0191 13.6376 -0.0100
# 4 -0.0067 -0.0077 -0.0191 24.0198 -0.0027 -5.1617
# 5 7.3841 4.6550 13.6376 -0.0027 34.8360 -0.0011
# 6 -0.0032 -0.0038 -0.0100 -5.1617 -0.0011 30.4547
#
#
#
# Elastic Compliance Matrix: (Units=1/GPa)
#
#
# Indices 1 2 3 4 5 6 
#
# 1 0.012104 0.001405 -0.004421 0.000000 -0.001023 0.000000
# 2 0.001405 0.034013 -0.009271 0.000004 -0.001214 0.000002
# 3 -0.004421 -0.009271 0.012445 0.000006 -0.002696 0.000003
# 4 0.000000 0.000004 0.000006 0.043206 0.000001 0.007323
# 5 -0.001023 -0.001214 -0.002696 0.000001 0.030140 0.000000
# 6 0.000000 0.000002 0.000003 0.007323 0.000000 0.034077
#
#
# Mechanical properties :
#
#
# Convention : Reuss Voigt Hill
#
# Bulk Modulus (GPa) = 29.41968 46.80385 38.11176
# Shear Modulus (GPa) = 24.76607 29.59754 27.18180
#
# Velocity S-wave (km/s) = 3.59273 3.92757 3.76387
# Velocity P-wave (km/s) = 5.70468 6.70531 6.22513
#
# Compressibility (1/GPa) = 0.03399085
#
# Stress axis : x y z
#
# Youngs Moduli (GPa) = 82.61432 29.40015 80.35079
#
# Poissons Ratio (x) = -0.04132 0.35523
# Poissons Ratio (y) = -0.11611 0.74491
# Poissons Ratio (z) = 0.36524 0.27256
#
# Static dielectric constant tensor:
#      x y z
#    x 3.495850 0.000000 -0.055510 
#    y 0.000000 3.532480 0.000000 
#    z -0.055510 0.000000 3.584350 
# 
# 
# High freq. dielectric constant tensor:
#      x y z
#    x 1.752870 0.000000 0.003410 
#    y 0.000000 1.754310 0.000000 
#    z 0.003410 0.000000 1.760720 
# 
# From -- ./inp_files/15568.got.cif
#   From: 2010.03.12/outbox.cif.g09.slc.cpg/sg8_8_cif.got.tgz:15568.got - 2010.03.31 10:45:26.
