data_PCOD8053162
_publ_section_title
;
Structure prediction by ZEFSAII (Michael W. Deem and Ramdas Pophale) SiO2 
 PCOD8053162
Probable space group: C M
;
_chemical_formula_sum "Si O2"
_cell_formula_units_Z 24
_cell_length_a 23.544885
_cell_length_b 7.545420
_cell_length_c 19.493025
_cell_angle_alpha 90.000000
_cell_angle_beta 159.991409
_cell_angle_gamma 90.000000
_cell_volume 1184.922066
_symmetry_space_group_name_H-M "C M"
_symmetry_group_IT_number 8
_symmetry_cell_setting 'monoclinic'
loop_
_space_group_symop_operation_xyz
x,y,z
x,-y,z
1/2+x,1/2+y,z
1/2+x,1/2-y,z
loop_
_atom_site_type_symbol
_atom_site_label
_atom_site_fract_x
_atom_site_fract_y
_atom_site_fract_z
Si Si1 0.302610 0.200920 0.555360
Si Si2 0.431506 0.796735 0.374960
Si Si3 0.475278 0.700636 0.271447
Si Si4 0.962780 0.500000 0.955093
Si Si5 0.545818 0.296550 0.945298
Si Si6 0.633349 0.500000 0.671308
Si Si7 0.169530 0.500000 0.318835
Si Si8 0.839830 0.500000 0.033640
O O1 0.153657 0.226806 0.439734
O O2 0.275630 0.325222 0.458451
O O3 0.314023 0.000000 0.541442
O O4 0.469606 0.256581 0.784126
O O5 0.501465 0.754855 0.379405
O O6 0.238322 0.749345 0.158069
O O7 0.526812 0.675978 0.537609
O O8 0.465452 0.000000 0.432933
O O9 0.410905 0.500000 0.191451
O O10 0.339008 0.825945 0.080729
O O11 0.961518 0.675028 0.907161
O O12 0.126133 0.500000 0.189036
O O13 0.795619 0.500000 0.808558
O O14 0.515802 0.500000 0.932252
O O15 0.677378 0.500000 0.801885
O O16 0.999747 0.500000 0.167524
#
# Coordination Sequence:
#
# PCOD8053162 Si02
#       8
#     4   4   4   2   4   2   2   2
#     4  10  19  34  60  89 114 147 192 241 294 349
#     4  11  23  38  58  86 120 157 198 242 290 349
#     4  10  19  34  60  89 114 147 192 241 294 349
#     4  11  23  39  61  89 120 157 196 243 295 344
#     4  11  23  38  58  86 120 157 198 242 290 349
#     4  11  23  39  61  89 120 157 196 243 295 344
#     4   9  20  37  57  87 122 149 190 245 295 346
#     4   9  20  37  57  87 122 149 190 245 295 346
#
# _framework density 20.254494999999999
#
# number of rings (size 3 to 8) (size 9 to 14) (size 15 to 20)
#    0.000    1.667    3.333    1.500    0.000    3.333 
#    0.000    6.667    0.000    0.000    0.000    0.000 
#    0.000    0.000    0.000    0.000    0.000    0.000 
#
# Total GULP energy -148845.083101 kJ/mol
# GULP energy per Si atom -12403.756925 kJ/mol
# Density = 2.020840 g / cm^3
# Si number density = 20.254495 Si / 1000 Ang^3
#
#
#
# Elastic Constant Matrix: (Units=GPa)
#
#
# Indices 1 2 3 4 5 6 
#
# 1 13.1102 15.4985 12.0985 -0.0012 -5.5684 -0.0008
# 2 15.4985 159.4526 72.2421 -0.0002 -8.0085 -0.0001
# 3 12.0985 72.2421 140.0962 -0.0017 -24.7358 -0.0014
# 4 -0.0012 -0.0002 -0.0017 36.3334 -0.0012 -4.5657
# 5 -5.5684 -8.0085 -24.7358 -0.0012 32.6125 -0.0009
# 6 -0.0008 -0.0001 -0.0014 -4.5657 -0.0009 19.1160
#
#
#
# Elastic Compliance Matrix: (Units=1/GPa)
#
#
# Indices 1 2 3 4 5 6 
#
# 1 0.092155 -0.007467 -0.001909 0.000004 0.012453 0.000005
# 2 -0.007467 0.008842 -0.004337 -0.000001 -0.002393 -0.000001
# 3 -0.001909 -0.004337 0.010731 0.000001 0.006748 0.000001
# 4 0.000004 -0.000001 0.000001 0.028374 0.000002 0.006777
# 5 0.012453 -0.002393 0.006748 0.000002 0.037320 0.000003
# 6 0.000005 -0.000001 0.000001 0.006777 0.000003 0.053931
#
#
# Mechanical properties :
#
#
# Convention : Reuss Voigt Hill
#
# Bulk Modulus (GPa) = 11.86222 56.92635 34.39429
# Shear Modulus (GPa) = 17.42888 31.80037 24.61462
#
# Velocity S-wave (km/s) = 2.93660 3.96667 3.48985
# Velocity P-wave (km/s) = 4.16743 7.01041 5.76686
#
# Compressibility (1/GPa) = 0.08430125
#
# Stress axis : x y z
#
# Youngs Moduli (GPa) = 10.85128 113.09570 93.18939
#
# Poissons Ratio (x) = 0.84447 0.17792
# Poissons Ratio (y) = 0.08102 0.40419
# Poissons Ratio (z) = 0.02072 0.49052
#
# Static dielectric constant tensor:
#      x y z
#    x 3.412210 0.000000 -0.138850 
#    y 0.000000 3.956670 0.000000 
#    z -0.138850 0.000000 3.838390 
# 
# 
# High freq. dielectric constant tensor:
#      x y z
#    x 1.766110 0.000000 -0.002980 
#    y 0.000000 1.807560 0.000000 
#    z -0.002980 0.000000 1.794240 
# 
# From -- ./inp_files/30089.got.cif
#   From: 2010.03.12/outbox.cif.g09.slc.cpg/sg8_16_cif.got.tgz:30089.got - 2010.03.31 10:45:26.
