data_PCOD8053707
_publ_section_title
;
Structure prediction by ZEFSAII (Michael W. Deem and Ramdas Pophale) SiO2 
 PCOD8053707
Probable space group: C M
;
_chemical_formula_sum "Si O2"
_cell_formula_units_Z 24
_cell_length_a 13.935034
_cell_length_b 15.643629
_cell_length_c 8.673662
_cell_angle_alpha 90.000000
_cell_angle_beta 38.130928
_cell_angle_gamma 90.000000
_cell_volume 1167.501007
_symmetry_space_group_name_H-M "C M"
_symmetry_group_IT_number 8
_symmetry_cell_setting 'monoclinic'
loop_
_space_group_symop_operation_xyz
x,y,z
x,-y,z
1/2+x,1/2+y,z
1/2+x,1/2-y,z
loop_
_atom_site_type_symbol
_atom_site_label
_atom_site_fract_x
_atom_site_fract_y
_atom_site_fract_z
Si Si1 0.072710 0.595462 0.022220
Si Si2 0.584424 0.404622 0.014067
Si Si3 0.855195 0.836903 0.521424
Si Si4 0.427747 0.857303 0.521580
Si Si5 0.441522 0.252475 0.001533
Si Si6 0.641015 0.193943 0.501444
O O1 0.045701 0.500000 0.990355
O O2 0.006840 0.596428 0.277723
O O3 0.258741 0.617233 0.780631
O O4 0.983958 0.664582 0.032221
O O5 0.532434 0.500000 0.030582
O O6 0.770236 0.401736 0.776344
O O7 0.516515 0.335256 0.983983
O O8 0.515885 0.384412 0.272644
O O9 0.893596 0.740761 0.520725
O O10 0.744323 0.844739 0.509009
O O11 0.547832 0.871648 0.511026
O O12 0.506918 0.254041 0.744971
O O13 0.254720 0.254916 0.241446
#
# Coordination Sequence:
#
# PCOD8053707 Si02
#       6
#     4   4   4   4   4   4
#     4  11  21  39  66  91 122 162 209 255 304 367
#     4  11  21  39  66  91 122 162 209 255 304 367
#     4  10  21  43  61  88 122 167 202 247 315 368
#     4  12  21  38  63  93 122 166 204 259 307 360
#     4  10  20  42  60  94 118 168 202 250 318 364
#     4  10  22  35  66  87 124 161 204 248 312 366
#
# _framework density 20.556728
#
# number of rings (size 3 to 8) (size 9 to 14) (size 15 to 20)
#    0.000    1.333    6.667    1.000    4.667    0.000 
#    0.000   13.333    0.000    0.000    0.000    0.000 
#    0.000    0.000    0.000    0.000    0.000    0.000 
#
# Total GULP energy -148659.289427 kJ/mol
# GULP energy per Si atom -12388.274119 kJ/mol
# Density = 2.050994 g / cm^3
# Si number density = 20.556728 Si / 1000 Ang^3
#
#
#
# Elastic Constant Matrix: (Units=GPa)
#
#
# Indices 1 2 3 4 5 6 
#
# 1 55.5454 10.4048 12.2059 0.0000 -2.4760 0.0001
# 2 10.4048 131.8967 15.8118 0.0000 -3.7682 0.0000
# 3 12.2059 15.8118 211.9350 0.0000 -22.7269 0.0001
# 4 0.0000 0.0000 0.0000 22.3370 -0.0001 -1.8531
# 5 -2.4760 -3.7682 -22.7269 -0.0001 3.2872 -0.0001
# 6 0.0001 0.0000 0.0001 -1.8531 -0.0001 -5.5629
#
#
#
# Elastic Compliance Matrix: (Units=1/GPa)
#
#
# Indices 1 2 3 4 5 6 
#
# 1 0.018908 -0.001000 0.001508 0.000000 0.023520 0.000000
# 2 -0.001000 0.008011 0.001407 0.000000 0.018157 0.000000
# 3 0.001508 0.001407 0.018643 0.000000 0.131642 -0.000001
# 4 0.000000 0.000000 0.000000 0.043565 0.000004 -0.014512
# 5 0.023520 0.018157 0.131642 0.000004 1.252869 -0.000014
# 6 0.000000 0.000000 -0.000001 -0.014512 -0.000014 -0.174927
#
#
# Mechanical properties :
#
#
# Convention : Reuss Voigt Hill
#
# Bulk Modulus (GPa) = 20.24673 52.91356 36.58014
# Shear Modulus (GPa) = 4.23836 28.07590 16.15713
#
# Velocity S-wave (km/s) = 1.43745 3.69965 2.80657
# Velocity P-wave (km/s) = 3.55325 6.63672 5.32314
#
# Compressibility (1/GPa) = 0.04939069
#
# Stress axis : x y z
#
# Youngs Moduli (GPa) = 52.88824 124.83364 53.63862
#
# Poissons Ratio (x) = 0.12488 -0.08088
# Poissons Ratio (y) = 0.05291 -0.07547
# Poissons Ratio (z) = -0.07975 -0.17564
#
# Static dielectric constant tensor:
#      x y z
#    x 3.343340 0.000000 -0.146680 
#    y 0.000000 3.493910 0.000000 
#    z -0.146680 0.000000 5.056040 
# 
# 
# High freq. dielectric constant tensor:
#      x y z
#    x 1.758960 0.000000 -0.008990 
#    y 0.000000 1.784790 0.000000 
#    z -0.008990 0.000000 1.852150 
# 
# From -- ./inp_files/13190.got.cif
#   From: 2010.03.12/outbox.cif.g09.slc.cpg/sg8_7_cif.got.tgz:13190.got - 2010.03.31 10:45:26.
