data_PCOD8053332
_publ_section_title
;
Structure prediction by ZEFSAII (Michael W. Deem and Ramdas Pophale) SiO2 
 PCOD8053332
Probable space group: C M
;
_chemical_formula_sum "Si O2"
_cell_formula_units_Z 28
_cell_length_a 13.944660
_cell_length_b 9.793631
_cell_length_c 19.462018
_cell_angle_alpha 90.000000
_cell_angle_beta 28.797462
_cell_angle_gamma 90.000000
_cell_volume 1280.352568
_symmetry_space_group_name_H-M "C M"
_symmetry_group_IT_number 8
_symmetry_cell_setting 'monoclinic'
loop_
_space_group_symop_operation_xyz
x,y,z
x,-y,z
1/2+x,1/2+y,z
1/2+x,1/2-y,z
loop_
_atom_site_type_symbol
_atom_site_label
_atom_site_fract_x
_atom_site_fract_y
_atom_site_fract_z
Si Si1 0.691570 0.651947 0.267190
Si Si2 0.807595 0.343523 0.886043
Si Si3 0.455037 0.650347 0.019769
Si Si4 0.351962 0.753533 0.397173
Si Si5 0.081285 0.345461 0.454014
Si Si6 0.175841 0.149327 0.642229
Si Si7 0.167471 0.651434 0.087183
O O1 0.759743 0.500000 0.243489
O O2 0.854626 0.721051 0.117796
O O3 0.481094 0.643904 0.359349
O O4 0.692343 0.737576 0.336444
O O5 0.844299 0.500000 0.886429
O O6 0.016628 0.268939 0.747820
O O7 0.692403 0.338557 0.884819
O O8 0.662616 0.268020 0.032076
O O9 0.383671 0.500000 0.092736
O O10 0.390665 0.658763 0.980365
O O11 0.162284 0.682059 0.480018
O O12 0.271100 0.857039 0.505936
O O13 0.497851 0.826861 0.251315
O O14 0.136354 0.500000 0.397733
O O15 0.843943 0.323753 0.595053
O O16 0.078106 0.000000 0.716239
O O17 0.135841 0.500000 0.075296
#
# Coordination Sequence:
#
# PCOD8053332 Si02
#       7
#     4   4   4   4   4   4   4
#     4  10  20  33  55  89 121 147 188 244 291 336
#     4  11  24  41  60  85 119 158 197 240 291 346
#     4   9  20  38  58  80 114 157 194 232 289 354
#     4  10  21  38  63  91 117 151 194 242 291 346
#     4  10  21  37  58  82 115 158 195 231 288 354
#     4  10  23  42  61  85 118 156 198 242 289 346
#     4  10  21  39  63  90 118 151 194 241 289 348
#
# _framework density 21.868976
#
# number of rings (size 3 to 8) (size 9 to 14) (size 15 to 20)
#    0.000    2.000    0.000    2.571    0.000   14.857 
#    0.000    4.286    0.000    0.000    0.000    0.000 
#    0.000    0.000    0.000    0.000    0.000    0.000 
#
# Total GULP energy -173465.567818 kJ/mol
# GULP energy per Si atom -12390.397701 kJ/mol
# Density = 2.181920 g / cm^3
# Si number density = 21.868976 Si / 1000 Ang^3
#
#
#
# Elastic Constant Matrix: (Units=GPa)
#
#
# Indices 1 2 3 4 5 6 
#
# 1 140.5338 33.2769 21.6449 0.0098 -29.5787 -0.0038
# 2 33.2769 158.2687 23.6298 -0.0001 -10.8346 -0.0008
# 3 21.6449 23.6298 55.7656 0.0001 -8.5362 -0.0069
# 4 0.0098 -0.0001 0.0001 27.0484 -0.0016 2.2603
# 5 -29.5787 -10.8346 -8.5362 -0.0016 26.9471 0.0035
# 6 -0.0038 -0.0008 -0.0069 2.2603 0.0035 17.7466
#
#
#
# Elastic Compliance Matrix: (Units=1/GPa)
#
#
# Indices 1 2 3 4 5 6 
#
# 1 0.009679 -0.001106 -0.001818 -0.000003 0.009604 0.000000
# 2 -0.001106 0.006965 -0.002395 0.000001 0.000827 -0.000001
# 3 -0.001818 -0.002395 0.020178 0.000000 0.003433 0.000007
# 4 -0.000003 0.000001 0.000000 0.037369 0.000000 -0.004759
# 5 0.009604 0.000827 0.003433 0.000000 0.049072 -0.000006
# 6 0.000000 -0.000001 0.000007 -0.004759 -0.000006 0.056955
#
#
# Mechanical properties :
#
#
# Convention : Reuss Voigt Hill
#
# Bulk Modulus (GPa) = 38.19214 56.85236 47.52225
# Shear Modulus (GPa) = 25.05203 32.74951 28.90077
#
# Velocity S-wave (km/s) = 3.38827 3.87400 3.63925
# Velocity P-wave (km/s) = 5.72793 6.78702 6.27984
#
# Compressibility (1/GPa) = 0.02618340
#
# Stress axis : x y z
#
# Youngs Moduli (GPa) = 103.31680 143.57016 49.55795
#
# Poissons Ratio (x) = 0.15882 0.09010
# Poissons Ratio (y) = 0.11429 0.11871
# Poissons Ratio (z) = 0.18783 0.34391
#
# Static dielectric constant tensor:
#      x y z
#    x 4.366990 0.000000 -0.248950 
#    y 0.000000 3.879950 0.000010 
#    z -0.248950 0.000010 3.529980 
# 
# 
# High freq. dielectric constant tensor:
#      x y z
#    x 1.877060 0.000000 -0.021860 
#    y 0.000000 1.862660 0.000000 
#    z -0.021860 0.000000 1.826370 
# 
# From -- ./inp_files/30751.got.cif
#   From: 2010.03.12/outbox.cif.g09.slc.cpg/sg8_16_cif.got.tgz:30751.got - 2010.03.31 10:45:26.
