data_PCOD8053769
_publ_section_title
;
Structure prediction by ZEFSAII (Michael W. Deem and Ramdas Pophale) SiO2 
 PCOD8053769
Probable space group: C M
;
_chemical_formula_sum "Si O2"
_cell_formula_units_Z 32
_cell_length_a 24.269049
_cell_length_b 8.843745
_cell_length_c 19.702178
_cell_angle_alpha 90.000000
_cell_angle_beta 23.045623
_cell_angle_gamma 90.000000
_cell_volume 1655.369739
_symmetry_space_group_name_H-M "C M"
_symmetry_group_IT_number 8
_symmetry_cell_setting 'monoclinic'
loop_
_space_group_symop_operation_xyz
x,y,z
x,-y,z
1/2+x,1/2+y,z
1/2+x,1/2-y,z
loop_
_atom_site_type_symbol
_atom_site_label
_atom_site_fract_x
_atom_site_fract_y
_atom_site_fract_z
Si Si1 0.841900 0.328232 0.790010
Si Si2 0.377678 0.322400 0.890069
Si Si3 0.579883 0.321448 0.774199
Si Si4 0.897690 0.679306 0.386570
Si Si5 0.028284 0.820443 0.106783
Si Si6 0.104690 0.673707 0.394851
Si Si7 0.104778 0.176576 0.255935
Si Si8 0.412200 0.678583 0.093992
O O1 0.824909 0.500000 0.832978
O O2 0.886492 0.233791 0.804080
O O3 0.968679 0.306943 0.594978
O O4 0.693113 0.274618 0.926711
O O5 0.381704 0.500000 0.882608
O O6 0.504720 0.257839 0.791767
O O7 0.238607 0.272035 0.084725
O O8 0.561587 0.500000 0.798307
O O9 0.740260 0.274222 0.584557
O O10 0.507242 0.253257 0.924768
O O11 0.924192 0.500000 0.362212
O O12 0.937728 0.734479 0.266171
O O13 0.981719 0.772182 0.346577
O O14 0.971281 0.760118 0.098835
O O15 0.007151 0.000000 0.138677
O O16 0.120741 0.500000 0.352081
O O17 0.069617 0.784269 0.372948
O O18 0.248310 0.725389 0.270032
O O19 0.132578 0.000000 0.215091
O O20 0.427392 0.500000 0.077568
#
# Coordination Sequence:
#
# PCOD8053769 Si02
#       8
#     4   4   4   4   4   4   4   4
#     4  10  22  37  58  90 122 155 198 243 293 354
#     4  11  21  39  65  88 117 157 201 249 302 359
#     4   9  20  37  61  90 115 149 200 248 291 351
#     4  11  23  39  62  88 118 159 201 244 298 361
#     4  10  21  37  58  85 122 158 194 244 292 345
#     4  10  21  39  63  88 117 159 203 240 295 364
#     4  12  24  40  61  88 121 155 201 258 303 347
#     4   9  18  36  60  85 116 154 196 240 290 351
#
# _framework density 19.331029999999998
#
# number of rings (size 3 to 8) (size 9 to 14) (size 15 to 20)
#    0.000    1.750    2.500    1.875    3.500    0.500 
#    0.000    2.500    0.000    0.000    0.000    0.000 
#    0.000    0.000    0.000    0.000    0.000    0.000 
#
# Total GULP energy -198377.134249 kJ/mol
# GULP energy per Si atom -12398.570891 kJ/mol
# Density = 1.928703 g / cm^3
# Si number density = 19.331030 Si / 1000 Ang^3
#
#
#
# Elastic Constant Matrix: (Units=GPa)
#
#
# Indices 1 2 3 4 5 6 
#
# 1 657.2805 809.9190 776.7060 -0.0024 -408.0619 0.0007
# 2 809.9190 1236.0001 1157.8842 -0.0046 -624.7618 0.0013
# 3 776.7060 1157.8842 1187.2974 -0.0039 -600.8217 0.0011
# 4 -0.0024 -0.0046 -0.0039 31.1526 0.0021 5.2027
# 5 -408.0619 -624.7618 -600.8217 0.0021 361.5823 -0.0006
# 6 0.0007 0.0013 0.0011 5.2027 -0.0006 30.9873
#
#
#
# Elastic Compliance Matrix: (Units=1/GPa)
#
#
# Indices 1 2 3 4 5 6 
#
# 1 0.008128 -0.004268 -0.001539 0.000000 -0.000758 0.000000
# 2 -0.004268 0.014647 -0.007055 0.000000 0.008769 0.000000
# 3 -0.001539 -0.007055 0.010567 0.000000 0.003633 0.000000
# 4 0.000000 0.000000 0.000000 0.033026 0.000000 -0.005545
# 5 -0.000758 0.008769 0.003633 0.000000 0.023097 0.000000
# 6 0.000000 0.000000 0.000000 -0.005545 0.000000 0.033202
#
#
# Mechanical properties :
#
#
# Convention : Reuss Voigt Hill
#
# Bulk Modulus (GPa) = 131.24594 952.17739 541.71167
# Shear Modulus (GPa) = 33.12783 107.14904 70.13843
#
# Velocity S-wave (km/s) = 4.14419 7.45311 6.03006
# Velocity P-wave (km/s) = 9.53627 23.82643 18.14716
#
# Compressibility (1/GPa) = 0.00761928
#
# Stress axis : x y z
#
# Youngs Moduli (GPa) = 123.03427 68.27359 94.63070
#
# Poissons Ratio (x) = 0.29137 0.14563
# Poissons Ratio (y) = 0.52506 0.66761
# Poissons Ratio (z) = 0.18934 0.48166
#
# Static dielectric constant tensor:
#      x y z
#    x 3.493360 0.000000 0.128680 
#    y 0.000000 3.308810 0.000000 
#    z 0.128680 0.000000 3.616120 
# 
# 
# High freq. dielectric constant tensor:
#      x y z
#    x 1.769740 0.000000 -0.002190 
#    y 0.000000 1.725030 0.000000 
#    z -0.002190 0.000000 1.764520 
# 
# From -- ./inp_files/31627.got.cif
#   From: 2010.03.12/outbox.cif.g09.slc.cpg/sg8_16_cif.got.tgz:31627.got - 2010.03.31 10:45:26.
