data_PCOD8053680
_publ_section_title
;
Structure prediction by ZEFSAII (Michael W. Deem and Ramdas Pophale) SiO2 
 PCOD8053680
Probable space group: C M
;
_chemical_formula_sum "Si O2"
_cell_formula_units_Z 32
_cell_length_a 24.188262
_cell_length_b 8.692228
_cell_length_c 19.702749
_cell_angle_alpha 90.000000
_cell_angle_beta 157.170436
_cell_angle_gamma 90.000000
_cell_volume 1607.253872
_symmetry_space_group_name_H-M "C M"
_symmetry_group_IT_number 8
_symmetry_cell_setting 'monoclinic'
loop_
_space_group_symop_operation_xyz
x,y,z
x,-y,z
1/2+x,1/2+y,z
1/2+x,1/2-y,z
loop_
_atom_site_type_symbol
_atom_site_label
_atom_site_fract_x
_atom_site_fract_y
_atom_site_fract_z
Si Si1 0.653480 0.317584 0.355810
Si Si2 0.525431 0.317992 0.353146
Si Si3 0.463451 0.318805 0.674097
Si Si4 0.507173 0.820001 0.583633
Si Si5 0.679721 0.322352 0.664203
Si Si6 0.711315 0.182540 0.037118
Si Si7 0.503382 0.177508 0.061364
Si Si8 0.226700 0.681315 0.207522
O O1 0.669449 0.500000 0.375011
O O2 0.598274 0.254986 0.366563
O O3 0.806738 0.246733 0.511897
O O4 0.535298 0.271245 0.166225
O O5 0.534248 0.500000 0.363505
O O6 0.611917 0.257574 0.517254
O O7 0.359263 0.267198 0.168033
O O8 0.448678 0.500000 0.648888
O O9 0.537917 0.245756 0.692563
O O10 0.574265 0.275267 0.857526
O O11 0.633483 0.779492 0.675605
O O12 0.368413 0.739001 0.400702
O O13 0.485614 0.000000 0.564289
O O14 0.633468 0.500000 0.622372
O O15 0.847891 0.302049 0.854380
O O16 0.719644 0.240949 0.123400
O O17 0.685860 0.000000 0.001139
O O18 0.599131 0.245015 0.109086
O O19 0.537385 0.000000 0.116162
O O20 0.226046 0.500000 0.206591
#
# Coordination Sequence:
#
# PCOD8053680 Si02
#       8
#     4   4   4   4   4   4   4   4
#     4  11  23  40  63  91 125 164 206 256 307 363
#     4   9  20  39  64  91 123 162 204 246 300 367
#     4  12  26  43  62  89 124 165 210 258 314 370
#     4  12  24  40  64  92 121 159 209 263 312 364
#     4  10  21  41  65  91 123 166 208 248 304 369
#     4  10  21  40  66  94 122 160 206 253 308 371
#     4  10  22  38  63  94 123 161 206 250 304 370
#     4  10  20  39  67  92 121 159 203 256 311 370
#
# _framework density 19.909737
#
# number of rings (size 3 to 8) (size 9 to 14) (size 15 to 20)
#    0.000    1.500    2.500    2.625    3.500    1.000 
#    0.000    1.875    0.000    0.000    0.000    0.000 
#    0.000    0.000    0.000    0.000    0.000    0.000 
#
# Total GULP energy -198388.510641 kJ/mol
# GULP energy per Si atom -12399.281915 kJ/mol
# Density = 1.986442 g / cm^3
# Si number density = 19.909737 Si / 1000 Ang^3
#
#
#
# Elastic Constant Matrix: (Units=GPa)
#
#
# Indices 1 2 3 4 5 6 
#
# 1 128.0677 30.1863 18.9958 -0.0001 -2.8243 -0.0001
# 2 30.1863 103.4124 29.5147 0.0001 -2.7051 0.0000
# 3 18.9958 29.5147 89.6219 -0.0001 -1.6676 -0.0001
# 4 -0.0001 0.0001 -0.0001 39.1937 0.0000 -3.2236
# 5 -2.8243 -2.7051 -1.6676 0.0000 37.7595 -0.0001
# 6 -0.0001 0.0000 -0.0001 -3.2236 -0.0001 27.6380
#
#
#
# Elastic Compliance Matrix: (Units=1/GPa)
#
#
# Indices 1 2 3 4 5 6 
#
# 1 0.008487 -0.002158 -0.001080 0.000000 0.000433 0.000000
# 2 -0.002158 0.011236 -0.003234 0.000000 0.000501 0.000000
# 3 -0.001080 -0.003234 0.012456 0.000000 0.000238 0.000000
# 4 0.000000 0.000000 0.000000 0.025761 0.000000 0.003005
# 5 0.000433 0.000501 0.000238 0.000000 0.026562 0.000000
# 6 0.000000 0.000000 0.000000 0.003005 0.000000 0.036533
#
#
# Mechanical properties :
#
#
# Convention : Reuss Voigt Hill
#
# Bulk Modulus (GPa) = 51.98610 53.16618 52.57614
# Shear Modulus (GPa) = 35.61515 37.07860 36.34688
#
# Velocity S-wave (km/s) = 4.23405 4.32016 4.27732
# Velocity P-wave (km/s) = 7.07605 7.18656 7.13152
#
# Compressibility (1/GPa) = 0.01923591
#
# Stress axis : x y z
#
# Youngs Moduli (GPa) = 117.83142 89.00088 80.28092
#
# Poissons Ratio (x) = 0.19204 0.08672
# Poissons Ratio (y) = 0.25424 0.25960
# Poissons Ratio (z) = 0.12728 0.28779
#
# Static dielectric constant tensor:
#      x y z
#    x 3.963980 0.000000 -0.058140 
#    y 0.000000 3.357440 0.000000 
#    z -0.058140 0.000000 3.640780 
# 
# 
# High freq. dielectric constant tensor:
#      x y z
#    x 1.793710 0.000000 -0.001050 
#    y 0.000000 1.755420 0.000000 
#    z -0.001050 0.000000 1.787830 
# 
# From -- ./inp_files/31669.got.cif
#   From: 2010.03.12/outbox.cif.g09.slc.cpg/sg8_16_cif.got.tgz:31669.got - 2010.03.31 10:45:26.
