data_PCOD8053858
_publ_section_title
;
Structure prediction by ZEFSAII (Michael W. Deem and Ramdas Pophale) SiO2 
 PCOD8053858
Probable space group: C M
;
_chemical_formula_sum "Si O2"
_cell_formula_units_Z 16
_cell_length_a 7.541450
_cell_length_b 17.393307
_cell_length_c 7.832400
_cell_angle_alpha 90.000000
_cell_angle_beta 119.063944
_cell_angle_gamma 90.000000
_cell_volume 898.011950
_symmetry_space_group_name_H-M "C M"
_symmetry_group_IT_number 8
_symmetry_cell_setting 'monoclinic'
loop_
_space_group_symop_operation_xyz
x,y,z
x,-y,z
1/2+x,1/2+y,z
1/2+x,1/2-y,z
loop_
_atom_site_type_symbol
_atom_site_label
_atom_site_fract_x
_atom_site_fract_y
_atom_site_fract_z
Si Si1 0.190980 0.410177 0.569200
Si Si2 0.140309 0.346950 0.892438
Si Si3 0.442868 0.088916 0.124573
Si Si4 0.524361 0.324830 0.889489
O O1 0.236515 0.500000 0.581096
O O2 0.064560 0.388814 0.682349
O O3 0.408808 0.366166 0.676351
O O4 0.065339 0.382293 0.346954
O O5 0.385983 0.337171 0.995283
O O6 0.032025 0.265077 0.854317
O O7 0.085360 0.399627 0.027156
O O8 0.381295 0.000000 0.112240
O O9 0.243099 0.139659 0.019120
#
# Coordination Sequence:
#
# PCOD8053858 Si02
#       4
#     4   4   4   4
#     4   9  21  38  57  85 113 143 192 229 272 342
#     4  10  21  40  57  83 116 147 187 231 277 330
#     4  11  21  38  61  83 113 151 182 231 286 324
#     4  10  21  40  57  83 116 147 187 231 277 330
#
# _framework density 17.817133999999999
#
# number of rings (size 3 to 8) (size 9 to 14) (size 15 to 20)
#    1.500    0.500    2.500    1.500    0.000    2.000 
#    4.500    0.000    0.000    0.000    0.000    0.000 
#    0.000    0.000    0.000    0.000    0.000    0.000 
#
# Total GULP energy -99139.642768 kJ/mol
# GULP energy per Si atom -12392.455346 kJ/mol
# Density = 1.777658 g / cm^3
# Si number density = 17.817134 Si / 1000 Ang^3
#
#
#
# Elastic Constant Matrix: (Units=GPa)
#
#
# Indices 1 2 3 4 5 6 
#
# 1 82.3358 0.8425 35.4776 0.0000 -4.2486 0.0000
# 2 0.8425 59.9379 25.9493 0.0000 10.7080 0.0000
# 3 35.4776 25.9493 134.0967 0.0000 0.6314 0.0000
# 4 0.0000 0.0000 0.0000 9.6640 0.0000 -4.8007
# 5 -4.2486 10.7080 0.6314 0.0000 32.8321 0.0000
# 6 0.0000 0.0000 0.0000 -4.8007 0.0000 18.1927
#
#
#
# Elastic Compliance Matrix: (Units=1/GPa)
#
#
# Indices 1 2 3 4 5 6 
#
# 1 0.013899 0.001241 -0.003924 0.000000 0.001469 0.000000
# 2 0.001241 0.019527 -0.004078 0.000000 -0.006130 0.000000
# 3 -0.003924 -0.004078 0.009282 0.000000 0.000644 0.000000
# 4 0.000000 0.000000 0.000000 0.119087 0.000000 0.031425
# 5 0.001469 -0.006130 0.000644 0.000000 0.032635 0.000000
# 6 0.000000 0.000000 0.000000 0.031425 0.000000 0.063259
#
#
# Mechanical properties :
#
#
# Convention : Reuss Voigt Hill
#
# Bulk Modulus (GPa) = 34.26375 44.54546 39.40461
# Shear Modulus (GPa) = 17.79733 26.41118 22.10425
#
# Velocity S-wave (km/s) = 3.16395 3.85430 3.52606
# Velocity P-wave (km/s) = 5.71139 6.69801 6.22428
#
# Compressibility (1/GPa) = 0.02918536
#
# Stress axis : x y z
#
# Youngs Moduli (GPa) = 71.94504 51.21067 107.73845
#
# Poissons Ratio (x) = -0.06356 0.42281
# Poissons Ratio (y) = -0.08930 0.43938
# Poissons Ratio (z) = 0.28234 0.20885
#
# Static dielectric constant tensor:
#      x y z
#    x 3.213180 0.000000 -0.107140 
#    y 0.000000 3.323000 0.000000 
#    z -0.107140 0.000000 3.258370 
# 
# 
# High freq. dielectric constant tensor:
#      x y z
#    x 1.683220 0.000000 -0.003520 
#    y 0.000000 1.704450 0.000000 
#    z -0.003520 0.000000 1.674040 
# 
# From -- ./inp_files/1047.got.cif
#   From: 2010.03.12/outbox.cif.g09.slc.cpg/sg8_1_cif.got.tgz:1047.got - 2010.03.31 10:45:26.
