data_PCOD8053146
_publ_section_title
;
Structure prediction by ZEFSAII (Michael W. Deem and Ramdas Pophale) SiO2 
 PCOD8053146
Probable space group: C M
;
_chemical_formula_sum "Si O2"
_cell_formula_units_Z 32
_cell_length_a 32.775039
_cell_length_b 9.068233
_cell_length_c 12.379232
_cell_angle_alpha 90.000000
_cell_angle_beta 153.219018
_cell_angle_gamma 90.000000
_cell_volume 1657.802149
_symmetry_space_group_name_H-M "C M"
_symmetry_group_IT_number 8
_symmetry_cell_setting 'monoclinic'
loop_
_space_group_symop_operation_xyz
x,y,z
x,-y,z
1/2+x,1/2+y,z
1/2+x,1/2-y,z
loop_
_atom_site_type_symbol
_atom_site_label
_atom_site_fract_x
_atom_site_fract_y
_atom_site_fract_z
Si Si1 0.684070 0.168815 0.018950
Si Si2 0.487007 0.674728 0.840136
Si Si3 0.302260 0.830652 0.008128
Si Si4 0.161067 0.668344 0.210444
Si Si5 0.860929 0.824825 0.735424
Si Si6 0.110279 0.173416 0.647640
Si Si7 0.917244 0.174240 0.102209
Si Si8 0.364219 0.172073 0.390681
O O1 0.641531 0.177925 0.036755
O O2 0.776630 0.259156 0.239838
O O3 0.704698 0.000000 0.035305
O O4 0.613400 0.239068 0.767801
O O5 0.484230 0.500000 0.822279
O O6 0.427097 0.733680 0.798263
O O7 0.451779 0.747344 0.645780
O O8 0.589015 0.729539 0.101858
O O9 0.342824 0.733804 0.008841
O O10 0.360767 0.801566 0.254135
O O11 0.308173 0.000000 0.986843
O O12 0.197506 0.785187 0.780837
O O13 0.151203 0.500000 0.227144
O O14 0.259701 0.731987 0.473320
O O15 0.862540 0.000000 0.737187
O O16 0.895094 0.763193 0.931092
O O17 0.019168 0.224049 0.372029
O O18 0.111545 0.000000 0.677056
O O19 0.909455 0.000000 0.086035
O O20 0.367813 0.000000 0.426955
#
# Coordination Sequence:
#
# PCOD8053146 Si02
#       8
#     4   4   4   4   4   4   4   4
#     4  10  19  34  58  84 116 155 190 232 287 341
#     4  11  22  37  59  87 114 150 195 237 284 345
#     4   9  20  37  55  80 117 151 181 230 289 338
#     4  10  21  38  57  82 116 154 189 235 293 338
#     4   9  20  41  60  79 115 153 189 237 290 337
#     4   9  20  37  55  82 116 151 187 233 288 339
#     4  10  21  38  62  84 108 151 198 235 278 339
#     4  10  20  36  58  84 120 155 185 233 293 341
#
# _framework density 19.302665000000001
#
# number of rings (size 3 to 8) (size 9 to 14) (size 15 to 20)
#    0.000    2.250    1.250    1.875    1.750    5.000 
#    0.000    3.125    0.000    0.000    0.000    0.000 
#    0.000    0.000    0.000    0.000    0.000    0.000 
#
# Total GULP energy -198426.730847 kJ/mol
# GULP energy per Si atom -12401.670678 kJ/mol
# Density = 1.925873 g / cm^3
# Si number density = 19.302665 Si / 1000 Ang^3
#
#
#
# Elastic Constant Matrix: (Units=GPa)
#
#
# Indices 1 2 3 4 5 6 
#
# 1 99.3254 37.3611 74.1844 0.0000 2.7965 0.0000
# 2 37.3611 65.7142 42.9389 0.0000 0.9398 0.0000
# 3 74.1844 42.9389 149.0590 0.0000 1.4319 0.0000
# 4 0.0000 0.0000 0.0000 26.7830 0.0000 7.0368
# 5 2.7965 0.9398 1.4319 0.0000 29.3041 0.0000
# 6 0.0000 0.0000 0.0000 7.0368 0.0000 29.0826
#
#
#
# Elastic Compliance Matrix: (Units=1/GPa)
#
#
# Indices 1 2 3 4 5 6 
#
# 1 0.017396 -0.005203 -0.007148 0.000000 -0.001144 0.000000
# 2 -0.005203 0.020306 -0.003260 0.000000 0.000005 0.000000
# 3 -0.007148 -0.003260 0.011203 0.000000 0.000239 0.000000
# 4 0.000000 0.000000 0.000000 0.039872 0.000000 -0.009647
# 5 -0.001144 0.000005 0.000239 0.000000 0.034222 0.000000
# 6 0.000000 0.000000 0.000000 -0.009647 0.000000 0.036719
#
#
# Mechanical properties :
#
#
# Convention : Reuss Voigt Hill
#
# Bulk Modulus (GPa) = 56.55302 69.22971 62.89137
# Shear Modulus (GPa) = 25.40215 27.67488 26.53851
#
# Velocity S-wave (km/s) = 3.63160 3.79058 3.71194
# Velocity P-wave (km/s) = 6.85174 7.42302 7.14309
#
# Compressibility (1/GPa) = 0.01768252
#
# Stress axis : x y z
#
# Youngs Moduli (GPa) = 57.48468 49.24724 89.26327
#
# Poissons Ratio (x) = 0.25625 0.63803
# Poissons Ratio (y) = 0.29912 0.29098
# Poissons Ratio (z) = 0.41089 0.16053
#
# Static dielectric constant tensor:
#      x y z
#    x 3.459280 0.000000 -0.074440 
#    y 0.000000 3.384710 0.000000 
#    z -0.074440 0.000000 3.713280 
# 
# 
# High freq. dielectric constant tensor:
#      x y z
#    x 1.744970 0.000000 0.004260 
#    y 0.000000 1.737640 0.000000 
#    z 0.004260 0.000000 1.757650 
# 
# From -- ./inp_files/24781.got.cif
#   From: 2010.03.12/outbox.cif.g09.slc.cpg/sg8_13_cif.got.tgz:24781.got - 2010.03.31 10:45:26.
