data_PCOD8053952
_publ_section_title
;
Structure prediction by ZEFSAII (Michael W. Deem and Ramdas Pophale) SiO2 
 PCOD8053952
Probable space group: C M
;
_chemical_formula_sum "Si O2"
_cell_formula_units_Z 24
_cell_length_a 20.229074
_cell_length_b 8.809140
_cell_length_c 18.884954
_cell_angle_alpha 90.000000
_cell_angle_beta 158.439647
_cell_angle_gamma 90.000000
_cell_volume 1236.688830
_symmetry_space_group_name_H-M "C M"
_symmetry_group_IT_number 8
_symmetry_cell_setting 'monoclinic'
loop_
_space_group_symop_operation_xyz
x,y,z
x,-y,z
1/2+x,1/2+y,z
1/2+x,1/2-y,z
loop_
_atom_site_type_symbol
_atom_site_label
_atom_site_fract_x
_atom_site_fract_y
_atom_site_fract_z
Si Si1 0.270010 0.321228 0.585730
Si Si2 0.976153 0.174872 0.201351
Si Si3 0.955780 0.174746 0.525729
Si Si4 0.062468 0.676207 0.777152
Si Si5 0.785605 0.325384 0.753686
Si Si6 0.080027 0.820612 0.146802
O O1 0.285478 0.500000 0.604552
O O2 0.435705 0.258198 0.706245
O O3 0.278713 0.256104 0.672330
O O4 0.081377 0.276031 0.362504
O O5 0.031020 0.228240 0.177649
O O6 0.029938 0.000000 0.266294
O O7 0.765873 0.200843 0.005108
O O8 0.773401 0.254547 0.319319
O O9 0.040181 0.256088 0.677372
O O10 0.091612 0.191660 0.596125
O O11 0.918414 0.000000 0.507652
O O12 0.010248 0.500000 0.721369
O O13 0.838250 0.500000 0.795213
O O14 0.935323 0.248109 0.950409
O O15 0.080313 0.000000 0.138100
#
# Coordination Sequence:
#
# PCOD8053952 Si02
#       6
#     4   4   4   4   4   4
#     4  12  26  42  64  94 130 166 210 262 316 375
#     4  10  22  40  65  94 125 166 210 256 312 373
#     4  11  23  39  64  96 126 164 212 259 310 372
#     4  11  22  40  66  93 126 166 210 259 312 372
#     4  11  25  44  65  91 130 169 209 261 316 372
#     4  11  22  39  66  96 127 165 211 257 310 374
#
# _framework density 19.406659999999999
#
# number of rings (size 3 to 8) (size 9 to 14) (size 15 to 20)
#    0.000    1.000    3.333    3.500    0.000    5.333 
#    0.000    1.667    0.000    0.000    0.000    0.000 
#    0.000    0.000    0.000    0.000    0.000    0.000 
#
# Total GULP energy -148880.398915 kJ/mol
# GULP energy per Si atom -12406.699910 kJ/mol
# Density = 1.936249 g / cm^3
# Si number density = 19.406660 Si / 1000 Ang^3
#
#
#
# Elastic Constant Matrix: (Units=GPa)
#
#
# Indices 1 2 3 4 5 6 
#
# 1 233.5621 137.6477 128.9865 -0.0014 -21.2198 -0.0004
# 2 137.6477 184.6208 106.9685 0.0057 -16.7361 0.0004
# 3 128.9865 106.9685 173.0116 0.0023 -15.3740 0.0000
# 4 -0.0014 0.0057 0.0023 37.2684 0.0024 -3.4316
# 5 -21.2198 -16.7361 -15.3740 0.0024 31.8246 0.0001
# 6 -0.0004 0.0004 0.0000 -3.4316 0.0001 34.7558
#
#
#
# Elastic Compliance Matrix: (Units=1/GPa)
#
#
# Indices 1 2 3 4 5 6 
#
# 1 0.009275 -0.004415 -0.004014 0.000001 0.001923 0.000000
# 2 -0.004415 0.010666 -0.003203 -0.000002 0.001118 0.000000
# 3 -0.004014 -0.003203 0.010831 0.000000 0.000871 0.000000
# 4 0.000001 -0.000002 0.000000 0.027079 -0.000002 0.002674
# 5 0.001923 0.001118 0.000871 -0.000002 0.033713 0.000000
# 6 0.000000 0.000000 0.000000 0.002674 0.000000 0.029036
#
#
# Mechanical properties :
#
#
# Convention : Reuss Voigt Hill
#
# Bulk Modulus (GPa) = 133.22735 148.71110 140.96923
# Shear Modulus (GPa) = 34.16075 35.27589 34.71832
#
# Velocity S-wave (km/s) = 4.20010 4.26810 4.23423
# Velocity P-wave (km/s) = 9.60835 10.05406 9.83373
#
# Compressibility (1/GPa) = 0.00750597
#
# Stress axis : x y z
#
# Youngs Moduli (GPa) = 107.81448 93.75988 92.32960
#
# Poissons Ratio (x) = 0.41395 0.37065
# Poissons Ratio (y) = 0.47600 0.29576
# Poissons Ratio (z) = 0.43281 0.30035
#
# Static dielectric constant tensor:
#      x y z
#    x 3.582280 0.000000 0.122470 
#    y 0.000000 3.759910 0.000000 
#    z 0.122470 0.000000 3.616490 
# 
# 
# High freq. dielectric constant tensor:
#      x y z
#    x 1.757350 0.000000 0.003650 
#    y 0.000000 1.771230 0.000000 
#    z 0.003650 0.000000 1.772590 
# 
# From -- ./inp_files/15567.got.cif
#   From: 2010.03.12/outbox.cif.g09.slc.cpg/sg8_8_cif.got.tgz:15567.got - 2010.03.31 10:45:26.
