data_PCOD8053751
_publ_section_title
;
Structure prediction by ZEFSAII (Michael W. Deem and Ramdas Pophale) SiO2 
 PCOD8053751
Probable space group: C M
;
_chemical_formula_sum "Si O2"
_cell_formula_units_Z 20
_cell_length_a 25.216117
_cell_length_b 7.428355
_cell_length_c 5.195052
_cell_angle_alpha 90.000000
_cell_angle_beta 78.084786
_cell_angle_gamma 90.000000
_cell_volume 952.140986
_symmetry_space_group_name_H-M "C M"
_symmetry_group_IT_number 8
_symmetry_cell_setting 'monoclinic'
loop_
_space_group_symop_operation_xyz
x,y,z
x,-y,z
1/2+x,1/2+y,z
1/2+x,1/2-y,z
loop_
_atom_site_type_symbol
_atom_site_label
_atom_site_fract_x
_atom_site_fract_y
_atom_site_fract_z
Si Si1 0.672140 0.500000 0.067160
Si Si2 0.399823 0.289958 0.813018
Si Si3 0.081086 0.716231 0.126523
Si Si4 0.332999 0.711787 0.381708
Si Si5 0.522350 0.201252 0.685177
Si Si6 0.742591 0.500000 0.496610
O O1 0.696101 0.500000 0.329593
O O2 0.638500 0.315982 0.066369
O O3 0.718735 0.500000 0.806814
O O4 0.410676 0.500000 0.792882
O O5 0.365287 0.226752 0.602751
O O6 0.457706 0.196674 0.749338
O O7 0.368691 0.232054 0.100980
O O8 0.089763 0.500000 0.117666
O O9 0.046668 0.789971 0.917737
O O10 0.046913 0.790813 0.404531
O O11 0.319437 0.500000 0.396646
O O12 0.277198 0.818943 0.425637
O O13 0.544173 0.000000 0.661952
#
# Coordination Sequence:
#
# PCOD8053751 Si02
#       6
#     2   4   4   4   4   2
#     4  12  26  42  66  90 114 164 212 254 308 342
#     4  10  21  36  60  90 122 163 194 236 304 361
#     4  10  23  41  59  88 125 154 200 252 297 360
#     4  10  23  41  59  88 125 154 200 252 297 360
#     4  10  21  36  60  90 122 163 194 236 304 361
#     4  12  26  42  66  90 114 164 212 254 308 342
#
# _framework density 21.005295
#
# number of rings (size 3 to 8) (size 9 to 14) (size 15 to 20)
#    0.000    1.600    0.000    3.600    5.600    1.600 
#    0.000    0.000    0.000    0.000    0.000    0.000 
#    0.000    0.000    0.000    0.000    0.000    0.000 
#
# Total GULP energy -124014.694716 kJ/mol
# GULP energy per Si atom -12401.469472 kJ/mol
# Density = 2.095749 g / cm^3
# Si number density = 21.005295 Si / 1000 Ang^3
#
#
#
# Elastic Constant Matrix: (Units=GPa)
#
#
# Indices 1 2 3 4 5 6 
#
# 1 121.5734 38.8493 44.7196 0.0000 9.9779 0.0000
# 2 38.8493 73.4237 29.4075 0.0000 -4.2617 0.0000
# 3 44.7196 29.4075 161.0636 0.0000 6.4081 0.0000
# 4 0.0000 0.0000 0.0000 1.2528 0.0000 -6.5507
# 5 9.9779 -4.2617 6.4081 0.0000 49.7578 0.0000
# 6 0.0000 0.0000 0.0000 -6.5507 0.0000 34.0284
#
#
#
# Elastic Compliance Matrix: (Units=1/GPa)
#
#
# Indices 1 2 3 4 5 6 
#
# 1 0.010751 -0.005034 -0.001973 0.000000 -0.002333 0.000000
# 2 -0.005034 0.017181 -0.001847 0.000000 0.002719 0.000000
# 3 -0.001973 -0.001847 0.007121 0.000000 -0.000680 0.000000
# 4 0.000000 0.000000 0.000000********** 0.000000-23.186963
# 5 -0.002333 0.002719 -0.000680 0.000000 0.020886 0.000000
# 6 0.000000 0.000000 0.000000-23.186963 0.000000 -4.434292
#
#
# Mechanical properties :
#
#
# Convention : Reuss Voigt Hill
#
# Bulk Modulus (GPa) = 57.65630 64.66817 61.16224
# Shear Modulus (GPa) = -0.04006 33.21341 16.58667
#
# Velocity S-wave (km/s) = -0.13826 3.98073 2.81311
# Velocity P-wave (km/s) = 5.24238 7.20984 6.30335
#
# Compressibility (1/GPa) = 0.01734416
#
# Stress axis : x y z
#
# Youngs Moduli (GPa) = 93.01151 58.20468 140.43060
#
# Poissons Ratio (x) = 0.29299 0.27710
# Poissons Ratio (y) = 0.46820 0.25944
# Poissons Ratio (z) = 0.18353 0.10753
#
# Static dielectric constant tensor:
#      x y z
#    x 3.653870 0.000000 0.231640 
#    y 0.000000 3.822450 0.000000 
#    z 0.231640 0.000000 4.327530 
# 
# 
# High freq. dielectric constant tensor:
#      x y z
#    x 1.820140 0.000000 0.009370 
#    y 0.000000 1.825280 0.000000 
#    z 0.009370 0.000000 1.845100 
# 
# From -- ./inp_files/4532.got.cif
#   From: 2010.03.12/outbox.cif.g09.slc.cpg/sg8_3_cif.got.tgz:4532.got - 2010.03.31 10:45:26.
