data_PCOD8053818
_publ_section_title
;
Structure prediction by ZEFSAII (Michael W. Deem and Ramdas Pophale) SiO2 
 PCOD8053818
Probable space group: C M
;
_chemical_formula_sum "Si O2"
_cell_formula_units_Z 24
_cell_length_a 18.703000
_cell_length_b 8.921451
_cell_length_c 20.190752
_cell_angle_alpha 90.000000
_cell_angle_beta 21.785712
_cell_angle_gamma 90.000000
_cell_volume 1250.353111
_symmetry_space_group_name_H-M "C M"
_symmetry_group_IT_number 8
_symmetry_cell_setting 'monoclinic'
loop_
_space_group_symop_operation_xyz
x,y,z
x,-y,z
1/2+x,1/2+y,z
1/2+x,1/2-y,z
loop_
_atom_site_type_symbol
_atom_site_label
_atom_site_fract_x
_atom_site_fract_y
_atom_site_fract_z
Si Si1 0.508240 0.674182 0.705670
Si Si2 0.437849 0.826955 0.368493
Si Si3 0.494886 0.675424 0.956362
Si Si4 0.609152 0.171164 0.361046
Si Si5 0.805234 0.323271 0.997540
Si Si6 0.381924 0.326601 0.666175
O O1 0.484292 0.500000 0.744302
O O2 0.725877 0.727831 0.531698
O O3 0.362817 0.769959 0.874991
O O4 0.459947 0.707959 0.671582
O O5 0.465938 0.802852 0.422632
O O6 0.473217 0.000000 0.319117
O O7 0.588201 0.729148 0.197807
O O8 0.503563 0.500000 0.933559
O O9 0.455931 0.755910 0.920374
O O10 0.693435 0.728484 0.816578
O O11 0.326097 0.713023 0.153513
O O12 0.549521 0.281149 0.471134
O O13 0.596269 0.000000 0.396820
O O14 0.815146 0.500000 0.993493
O O15 0.330322 0.500000 0.700895
#
# Coordination Sequence:
#
# PCOD8053818 Si02
#       6
#     4   4   4   4   4   4
#     4  10  22  39  57  80 115 156 189 221 273 337
#     4   9  19  38  61  81 106 147 191 228 275 334
#     4  10  21  39  61  82 110 150 189 227 277 335
#     4   9  19  36  59  82 105 143 191 233 276 330
#     4  11  22  36  59  88 113 141 184 238 283 323
#     4  11  23  36  55  85 117 149 186 231 278 325
#
# _framework density 19.194576999999999
#
# number of rings (size 3 to 8) (size 9 to 14) (size 15 to 20)
#    0.000    2.000    0.000    4.500    0.000    8.000 
#    0.000    5.000    0.000    0.000    0.000    0.000 
#    0.000    0.000    0.000    0.000    0.000    0.000 
#
# Total GULP energy -148867.382544 kJ/mol
# GULP energy per Si atom -12405.615212 kJ/mol
# Density = 1.915089 g / cm^3
# Si number density = 19.194577 Si / 1000 Ang^3
#
#
#
# Elastic Constant Matrix: (Units=GPa)
#
#
# Indices 1 2 3 4 5 6 
#
# 1 72.7483 37.7909 48.2348 -0.0003 20.3308 -0.0006
# 2 37.7909 93.8358 49.0247 -0.0242 17.8605 0.0035
# 3 48.2348 49.0247 96.4889 -0.0133 18.2240 0.0023
# 4 -0.0003 -0.0242 -0.0133 29.0174 0.0002 0.5932
# 5 20.3308 17.8605 18.2240 0.0002 21.2533 -0.0001
# 6 -0.0006 0.0035 0.0023 0.5932 -0.0001 29.3377
#
#
#
# Elastic Compliance Matrix: (Units=1/GPa)
#
#
# Indices 1 2 3 4 5 6 
#
# 1 0.024623 -0.002990 -0.008133 -0.000006 -0.014068 0.000002
# 2 -0.002990 0.015801 -0.005448 0.000011 -0.005747 -0.000002
# 3 -0.008133 -0.005448 0.017736 0.000004 -0.002849 -0.000001
# 4 -0.000006 0.000011 0.000004 0.034476 -0.000007 -0.000697
# 5 -0.014068 -0.005747 -0.002849 -0.000007 0.067782 0.000001
# 6 0.000002 -0.000002 -0.000001 -0.000697 0.000001 0.034100
#
#
# Mechanical properties :
#
#
# Convention : Reuss Voigt Hill
#
# Bulk Modulus (GPa) = 39.97086 59.24154 49.60620
# Shear Modulus (GPa) = 21.18634 24.45649 22.82141
#
# Velocity S-wave (km/s) = 3.32590 3.57338 3.45186
# Velocity P-wave (km/s) = 5.96809 6.92503 6.46429
#
# Compressibility (1/GPa) = 0.02501823
#
# Stress axis : x y z
#
# Youngs Moduli (GPa) = 40.61204 63.28535 56.38235
#
# Poissons Ratio (x) = 0.18921 0.45856
# Poissons Ratio (y) = 0.12142 0.30720
# Poissons Ratio (z) = 0.33030 0.34481
#
# Static dielectric constant tensor:
#      x y z
#    x 3.441140 -0.000010 -0.033650 
#    y -0.000010 3.476260 0.000020 
#    z -0.033650 0.000020 3.557270 
# 
# 
# High freq. dielectric constant tensor:
#      x y z
#    x 1.741630 0.000000 -0.000450 
#    y 0.000000 1.746260 0.000000 
#    z -0.000450 0.000000 1.757700 
# 
# From -- ./inp_files/14240.got.cif
#   From: 2010.03.12/outbox.cif.g09.slc.cpg/sg8_8_cif.got.tgz:14240.got - 2010.03.31 10:45:26.
