data_PCOD8053005
_publ_section_title
;
Structure prediction by ZEFSAII (Michael W. Deem and Ramdas Pophale) SiO2 
 PCOD8053005
Probable space group: C M
;
_chemical_formula_sum "Si O2"
_cell_formula_units_Z 32
_cell_length_a 20.048944
_cell_length_b 8.610865
_cell_length_c 24.956367
_cell_angle_alpha 90.000000
_cell_angle_beta 156.624697
_cell_angle_gamma 90.000000
_cell_volume 1709.381728
_symmetry_space_group_name_H-M "C M"
_symmetry_group_IT_number 8
_symmetry_cell_setting 'monoclinic'
loop_
_space_group_symop_operation_xyz
x,y,z
x,-y,z
1/2+x,1/2+y,z
1/2+x,1/2-y,z
loop_
_atom_site_type_symbol
_atom_site_label
_atom_site_fract_x
_atom_site_fract_y
_atom_site_fract_z
Si Si1 0.090720 0.683305 0.650690
Si Si2 0.899460 0.179834 0.330166
Si Si3 0.064787 0.182839 0.284633
Si Si4 0.907959 0.682903 0.835888
Si Si5 0.263769 0.819284 0.122830
Si Si6 0.289214 0.679552 0.364584
Si Si7 0.370323 0.183313 0.582810
Si Si8 0.278697 0.815868 0.628257
O O1 0.073937 0.500000 0.631071
O O2 0.281107 0.738628 0.784479
O O3 0.970448 0.761980 0.518272
O O4 0.032037 0.734488 0.667344
O O5 0.834017 0.283235 0.233391
O O6 0.780156 0.204057 0.293836
O O7 0.085581 0.236984 0.482983
O O8 0.902405 0.000000 0.314020
O O9 0.134055 0.228029 0.276865
O O10 0.201213 0.240691 0.428611
O O11 0.892134 0.269960 0.170660
O O12 0.032384 0.000000 0.262820
O O13 0.880015 0.500000 0.817540
O O14 0.866866 0.751440 0.746430
O O15 0.095123 0.722854 0.990327
O O16 0.224073 0.000000 0.088468
O O17 0.272438 0.500000 0.367433
O O18 0.376128 0.251010 0.647501
O O19 0.359540 0.000000 0.578184
O O20 0.290157 0.000000 0.638504
#
# Coordination Sequence:
#
# PCOD8053005 Si02
#       8
#     4   4   4   4   4   4   4   4
#     4  10  19  32  53  83 116 150 186 233 286 339
#     4  10  19  36  60  85 114 149 192 238 283 340
#     4  10  19  35  58  83 114 152 189 233 287 343
#     4  11  22  38  59  81 110 154 193 233 288 347
#     4  12  25  39  56  83 117 153 192 241 291 346
#     4  10  19  33  56  87 118 148 188 240 287 335
#     4   8  15  29  54  83 109 137 178 229 277 327
#     4   9  16  32  58  85 108 139 188 235 279 333
#
# _framework density 18.720217999999999
#
# number of rings (size 3 to 8) (size 9 to 14) (size 15 to 20)
#    0.000    2.000    2.500    3.375    0.000    1.000 
#    0.000    1.250    0.000    4.500    0.000    0.000 
#    0.000    0.000    0.000    0.000    0.000    0.000 
#
# Total GULP energy -198383.957486 kJ/mol
# GULP energy per Si atom -12398.997343 kJ/mol
# Density = 1.867761 g / cm^3
# Si number density = 18.720218 Si / 1000 Ang^3
#
#
#
# Elastic Constant Matrix: (Units=GPa)
#
#
# Indices 1 2 3 4 5 6 
#
# 1 124.9264 21.3813 38.9524 -0.0276 15.0261 0.0005
# 2 21.3813 42.0035 2.1853 -0.0465 -3.0700 0.0005
# 3 38.9524 2.1853 70.6045 -0.0624 10.3417 -0.0025
# 4 -0.0276 -0.0465 -0.0624 23.9045 -0.0048 4.0031
# 5 15.0261 -3.0700 10.3417 -0.0048 27.1583 0.0029
# 6 0.0005 0.0005 -0.0025 4.0031 0.0029 28.0436
#
#
#
# Elastic Compliance Matrix: (Units=1/GPa)
#
#
# Indices 1 2 3 4 5 6 
#
# 1 0.011236 -0.005798 -0.005309 -0.000013 -0.004850 0.000002
# 2 -0.005798 0.027095 0.001527 0.000053 0.005689 -0.000008
# 3 -0.005309 0.001527 0.017570 0.000043 -0.003580 -0.000004
# 4 -0.000013 0.000053 0.000043 0.042858 0.000005 -0.006118
# 5 -0.004850 0.005689 -0.003580 0.000005 0.041511 -0.000005
# 6 0.000002 -0.000008 -0.000004 -0.006118 -0.000005 0.036532
#
#
# Mechanical properties :
#
#
# Convention : Reuss Voigt Hill
#
# Bulk Modulus (GPa) = 27.21776 40.28582 33.75179
# Shear Modulus (GPa) = 24.01442 27.48896 25.75169
#
# Velocity S-wave (km/s) = 3.58551 3.83614 3.71294
# Velocity P-wave (km/s) = 5.63134 6.41779 6.03738
#
# Compressibility (1/GPa) = 0.03674072
#
# Stress axis : x y z
#
# Youngs Moduli (GPa) = 89.00212 36.90685 56.91673
#
# Poissons Ratio (x) = 0.21397 0.30216
# Poissons Ratio (y) = 0.51601 -0.08689
# Poissons Ratio (z) = 0.47250 -0.05634
#
# Static dielectric constant tensor:
#      x y z
#    x 3.875270 0.000000 0.054680 
#    y 0.000000 3.232540 -0.000010 
#    z 0.054680 -0.000010 3.186660 
# 
# 
# High freq. dielectric constant tensor:
#      x y z
#    x 1.745360 0.000000 0.013050 
#    y 0.000000 1.711910 0.000000 
#    z 0.013050 0.000000 1.696680 
# 
# From -- ./inp_files/24321.got.cif
#   From: 2010.03.12/outbox.cif.g09.slc.cpg/sg8_13_cif.got.tgz:24321.got - 2010.03.31 10:45:26.
