data_PCOD8053503
_publ_section_title
;
Structure prediction by ZEFSAII (Michael W. Deem and Ramdas Pophale) SiO2 
 PCOD8053503
Probable space group: C M
;
_chemical_formula_sum "Si O2"
_cell_formula_units_Z 32
_cell_length_a 15.385701
_cell_length_b 8.824934
_cell_length_c 26.252950
_cell_angle_alpha 90.000000
_cell_angle_beta 27.224875
_cell_angle_gamma 90.000000
_cell_volume 1630.732771
_symmetry_space_group_name_H-M "C M"
_symmetry_group_IT_number 8
_symmetry_cell_setting 'monoclinic'
loop_
_space_group_symop_operation_xyz
x,y,z
x,-y,z
1/2+x,1/2+y,z
1/2+x,1/2-y,z
loop_
_atom_site_type_symbol
_atom_site_label
_atom_site_fract_x
_atom_site_fract_y
_atom_site_fract_z
Si Si1 0.476240 0.821385 0.554710
Si Si2 0.774926 0.822081 0.320105
Si Si3 0.191985 0.175596 0.084028
Si Si4 0.840187 0.324047 0.113994
Si Si5 0.153344 0.677356 0.566096
Si Si6 0.049308 0.322646 0.336746
Si Si7 0.235302 0.679454 0.955210
Si Si8 0.591583 0.680101 0.705793
O O1 0.651270 0.750805 0.430748
O O2 0.501213 0.783105 0.601137
O O3 0.277333 0.754182 0.637872
O O4 0.475083 0.000000 0.545901
O O5 0.674168 0.778982 0.320230
O O6 0.987978 0.755427 0.207664
O O7 0.789629 0.000000 0.320687
O O8 0.341226 0.198377 0.052303
O O9 0.169771 0.000000 0.080764
O O10 0.267902 0.262584 0.995264
O O11 0.809135 0.500000 0.144137
O O12 0.665354 0.227786 0.226739
O O13 0.037513 0.261522 0.034213
O O14 0.160736 0.500000 0.573810
O O15 0.356398 0.729769 0.440062
O O16 0.085995 0.764335 0.650981
O O17 0.002429 0.500000 0.359036
O O18 0.238152 0.500000 0.954402
O O19 0.406385 0.742514 0.831354
O O20 0.594484 0.500000 0.703641
#
# Coordination Sequence:
#
# PCOD8053503 Si02
#       8
#     4   4   4   4   4   4   4   4
#     4   9  18  35  58  80 108 147 184 219 272 340
#     4   9  16  30  55  81 103 140 184 217 259 330
#     4  10  20  36  58  81 110 150 188 224 278 342
#     4  10  21  37  57  84 117 149 182 229 284 329
#     4  11  22  36  58  87 113 142 185 235 281 328
#     4  11  20  34  59  86 112 148 187 224 275 339
#     4  10  22  38  57  83 113 146 189 239 280 316
#     4  10  21  40  60  78 110 154 191 227 277 334
#
# _framework density 19.623080999999999
#
# number of rings (size 3 to 8) (size 9 to 14) (size 15 to 20)
#    0.000    2.000    2.500    1.500    0.000    4.000 
#    0.000    1.250    0.000    0.000    0.000    0.000 
#    0.000    0.000    0.000    0.000    0.000    0.000 
#
# Total GULP energy -198410.343453 kJ/mol
# GULP energy per Si atom -12400.646466 kJ/mol
# Density = 1.957842 g / cm^3
# Si number density = 19.623081 Si / 1000 Ang^3
#
#
#
# Elastic Constant Matrix: (Units=GPa)
#
#
# Indices 1 2 3 4 5 6 
#
# 1 99.4234 15.2621 50.1065 0.0040 17.1545 -0.0009
# 2 15.2621 11.0948 12.6481 -0.0006 -0.7640 0.0002
# 3 50.1065 12.6481 141.6244 0.0007 14.0126 -0.0010
# 4 0.0040 -0.0006 0.0007 23.6507 -0.0036 7.7324
# 5 17.1545 -0.7640 14.0126 -0.0036 19.2879 0.0011
# 6 -0.0009 0.0002 -0.0010 7.7324 0.0011 26.7781
#
#
#
# Elastic Compliance Matrix: (Units=1/GPa)
#
#
# Indices 1 2 3 4 5 6 
#
# 1 0.017182 -0.021455 -0.002766 -0.000007 -0.014122 0.000003
# 2 -0.021455 0.129479 -0.006861 0.000014 0.029196 -0.000007
# 3 -0.002766 -0.006861 0.009089 -0.000001 -0.004415 0.000001
# 4 -0.000007 0.000014 -0.000001 0.046690 0.000016 -0.013482
# 5 -0.014122 0.029196 -0.004415 0.000016 0.068770 -0.000009
# 6 0.000003 -0.000007 0.000001 -0.013482 -0.000009 0.041237
#
#
# Mechanical properties :
#
#
# Convention : Reuss Voigt Hill
#
# Bulk Modulus (GPa) = 10.68542 45.35291 28.01916
# Shear Modulus (GPa) = 12.32114 25.55171 18.93642
#
# Velocity S-wave (km/s) = 2.50849 3.61241 3.10983
# Velocity P-wave (km/s) = 3.72118 6.36880 5.21578
#
# Compressibility (1/GPa) = 0.09358548
#
# Stress axis : x y z
#
# Youngs Moduli (GPa) = 58.20071 7.72326 110.02324
#
# Poissons Ratio (x) = 0.16571 0.30427
# Poissons Ratio (y) = 1.24872 0.75490
# Poissons Ratio (z) = 0.16096 0.05299
#
# Static dielectric constant tensor:
#      x y z
#    x 3.741950 0.000000 -0.099990 
#    y 0.000000 3.228120 0.000000 
#    z -0.099990 0.000000 3.723830 
# 
# 
# High freq. dielectric constant tensor:
#      x y z
#    x 1.778170 0.000000 0.002340 
#    y 0.000000 1.730560 0.000000 
#    z 0.002340 0.000000 1.765100 
# 
# From -- ./inp_files/26527.got.cif
#   From: 2010.03.12/outbox.cif.g09.slc.cpg/sg8_14_cif.got.tgz:26527.got - 2010.03.31 10:45:26.
