data_PCOD8053292
_publ_section_title
;
Structure prediction by ZEFSAII (Michael W. Deem and Ramdas Pophale) SiO2 
 PCOD8053292
Probable space group: C M
;
_chemical_formula_sum "Si O2"
_cell_formula_units_Z 32
_cell_length_a 15.365599
_cell_length_b 8.897796
_cell_length_c 25.837709
_cell_angle_alpha 90.000000
_cell_angle_beta 152.560898
_cell_angle_gamma 90.000000
_cell_volume 1627.809830
_symmetry_space_group_name_H-M "C M"
_symmetry_group_IT_number 8
_symmetry_cell_setting 'monoclinic'
loop_
_space_group_symop_operation_xyz
x,y,z
x,-y,z
1/2+x,1/2+y,z
1/2+x,1/2-y,z
loop_
_atom_site_type_symbol
_atom_site_label
_atom_site_fract_x
_atom_site_fract_y
_atom_site_fract_z
Si Si1 0.427690 0.675327 0.564410
Si Si2 0.033703 0.323922 0.407395
Si Si3 0.863554 0.822163 0.957881
Si Si4 0.260465 0.676985 0.182385
Si Si5 0.662424 0.325271 0.941191
Si Si6 0.373693 0.674006 0.417702
Si Si7 0.440060 0.827979 0.180168
Si Si8 0.791936 0.177715 0.804440
O O1 0.470762 0.500000 0.591047
O O2 0.242578 0.719043 0.499021
O O3 0.398509 0.725608 0.489874
O O4 0.600512 0.764060 0.679261
O O5 0.995695 0.500000 0.380381
O O6 0.883275 0.232066 0.295100
O O7 0.012282 0.274667 0.455821
O O8 0.695280 0.769846 0.906672
O O9 0.815546 0.762075 0.875252
O O10 0.884261 0.000000 0.969738
O O11 0.056423 0.750475 0.079396
O O12 0.236348 0.500000 0.173561
O O13 0.360025 0.719023 0.181440
O O14 0.647838 0.500000 0.918977
O O15 0.469051 0.264960 0.864315
O O16 0.834494 0.295538 0.071107
O O17 0.427475 0.500000 0.439136
O O18 0.159518 0.704660 0.287073
O O19 0.407241 0.000000 0.181395
O O20 0.788135 0.000000 0.802926
#
# Coordination Sequence:
#
# PCOD8053292 Si02
#       8
#     4   4   4   4   4   4   4   4
#     4  10  23  42  63  86 120 162 204 252 303 352
#     4  11  23  41  63  90 123 161 202 247 301 360
#     4  11  23  41  63  90 123 161 202 247 301 360
#     4  12  23  36  61  94 124 158 199 245 302 363
#     4  10  21  39  63  91 122 159 198 245 305 360
#     4  10  21  39  63  91 122 159 198 245 305 360
#     4  10  19  38  63  86 124 160 191 241 306 365
#     4  10  23  42  63  86 120 162 204 252 303 352
#
# _framework density 19.658317
#
# number of rings (size 3 to 8) (size 9 to 14) (size 15 to 20)
#    0.000    1.500    2.500    2.625    0.000    6.000 
#    0.000    5.000    0.000    0.000    0.000    0.000 
#    0.000    0.000    0.000    0.000    0.000    0.000 
#
# Total GULP energy -198489.915415 kJ/mol
# GULP energy per Si atom -12405.619713 kJ/mol
# Density = 1.961357 g / cm^3
# Si number density = 19.658317 Si / 1000 Ang^3
#
#
#
# Elastic Constant Matrix: (Units=GPa)
#
#
# Indices 1 2 3 4 5 6 
#
# 1 162.4404 47.6132 50.1518 -0.0001 9.3324 -0.0001
# 2 47.6132 61.1460 23.4725 -0.0004 3.7652 0.0000
# 3 50.1518 23.4725 93.6698 0.0026 17.2383 0.0001
# 4 -0.0001 -0.0004 0.0026 34.1504 0.0003 0.5692
# 5 9.3324 3.7652 17.2383 0.0003 13.6042 0.0001
# 6 -0.0001 0.0000 0.0001 0.5692 0.0001 38.4315
#
#
#
# Elastic Compliance Matrix: (Units=1/GPa)
#
#
# Indices 1 2 3 4 5 6 
#
# 1 0.008823 -0.005599 -0.003250 0.000000 -0.000385 0.000000
# 2 -0.005599 0.021658 -0.002651 0.000000 0.001206 0.000000
# 3 -0.003250 -0.002651 0.016347 -0.000001 -0.017750 0.000000
# 4 0.000000 0.000000 -0.000001 0.029289 0.000000 -0.000434
# 5 -0.000385 0.001206 -0.017750 0.000000 0.095928 0.000000
# 6 0.000000 0.000000 0.000000 -0.000434 0.000000 0.026027
#
#
# Mechanical properties :
#
#
# Convention : Reuss Voigt Hill
#
# Bulk Modulus (GPa) = 41.96979 62.19237 52.08108
# Shear Modulus (GPa) = 21.83269 30.30515 26.06892
#
# Velocity S-wave (km/s) = 3.33619 3.93057 3.64552
# Velocity P-wave (km/s) = 6.01965 7.23219 6.65360
#
# Compressibility (1/GPa) = 0.02382666
#
# Stress axis : x y z
#
# Youngs Moduli (GPa) = 113.34447 46.17337 61.17343
#
# Poissons Ratio (x) = 0.25851 0.19881
# Poissons Ratio (y) = 0.63459 0.16220
# Poissons Ratio (z) = 0.36837 0.12243
#
# Static dielectric constant tensor:
#      x y z
#    x 3.825300 0.000000 -0.006330 
#    y 0.000000 3.480190 0.000000 
#    z -0.006330 0.000000 3.561360 
# 
# 
# High freq. dielectric constant tensor:
#      x y z
#    x 1.782920 0.000000 -0.000040 
#    y 0.000000 1.758870 0.000000 
#    z -0.000040 0.000000 1.764950 
# 
# From -- ./inp_files/26552.got.cif
#   From: 2010.03.12/outbox.cif.g09.slc.cpg/sg8_14_cif.got.tgz:26552.got - 2010.03.31 10:45:26.
