data_PCOD8053329
_publ_section_title
;
Structure prediction by ZEFSAII (Michael W. Deem and Ramdas Pophale) SiO2 
 PCOD8053329
Probable space group: C M
;
_chemical_formula_sum "Si O2"
_cell_formula_units_Z 32
_cell_length_a 14.092592
_cell_length_b 8.799723
_cell_length_c 13.940188
_cell_angle_alpha 90.000000
_cell_angle_beta 88.055533
_cell_angle_gamma 90.000000
_cell_volume 1727.739908
_symmetry_space_group_name_H-M "C M"
_symmetry_group_IT_number 8
_symmetry_cell_setting 'monoclinic'
loop_
_space_group_symop_operation_xyz
x,y,z
x,-y,z
1/2+x,1/2+y,z
1/2+x,1/2-y,z
loop_
_atom_site_type_symbol
_atom_site_label
_atom_site_fract_x
_atom_site_fract_y
_atom_site_fract_z
Si Si1 0.021250 0.676151 0.662270
Si Si2 0.506465 0.321782 0.961569
Si Si3 0.158143 0.177217 0.796224
Si Si4 0.163672 0.823642 0.302962
Si Si5 0.366596 0.321991 0.299671
Si Si6 0.869478 0.320576 0.823995
Si Si7 0.018440 0.320793 0.165834
Si Si8 0.006295 0.826925 0.462325
O O1 0.040191 0.500000 0.667655
O O2 0.115806 0.753671 0.700314
O O3 0.002840 0.719802 0.553757
O O4 0.929753 0.723116 0.727827
O O5 0.501492 0.500000 0.985991
O O6 0.594152 0.280523 0.889617
O O7 0.409284 0.269222 0.914423
O O8 0.521750 0.223511 0.055234
O O9 0.263445 0.240672 0.810439
O O10 0.162515 0.000000 0.778319
O O11 0.258338 0.726881 0.310756
O O12 0.104993 0.764440 0.214267
O O13 0.103637 0.799528 0.401588
O O14 0.187864 0.000000 0.285449
O O15 0.375298 0.500000 0.276104
O O16 0.417639 0.230874 0.212634
O O17 0.417395 0.283526 0.398372
O O18 0.872498 0.500000 0.845591
O O19 0.030824 0.500000 0.178021
O O20 0.999000 0.000000 0.497476
#
# Coordination Sequence:
#
# PCOD8053329 Si02
#       8
#     4   4   4   4   4   4   4   4
#     4  10  20  33  53  79 107 137 176 223 266 314
#     4  10  20  35  55  79 106 138 177 223 270 321
#     4   9  19  36  56  75 103 141 177 216 267 321
#     4  10  21  38  58  81 109 143 182 226 273 324
#     4  10  21  38  58  82 110 141 180 227 273 324
#     4   9  19  36  54  76 105 139 178 219 266 322
#     4  11  22  37  57  80 110 147 182 223 270 322
#     4   9  20  37  55  76 108 144 178 217 265 322
#
# _framework density 18.521305999999999
#
# number of rings (size 3 to 8) (size 9 to 14) (size 15 to 20)
#    0.000    2.250    0.000    3.375    0.000    6.500 
#    0.000    7.500    0.000    0.000    0.000    0.000 
#    0.000    0.000    0.000    0.000    0.000    0.000 
#
# Total GULP energy -198459.633923 kJ/mol
# GULP energy per Si atom -12403.727120 kJ/mol
# Density = 1.847915 g / cm^3
# Si number density = 18.521306 Si / 1000 Ang^3
#
#
#
# Elastic Constant Matrix: (Units=GPa)
#
#
# Indices 1 2 3 4 5 6 
#
# 1 122.8559 18.4480 37.8411 0.0000 11.0152 0.0000
# 2 18.4480 48.5286 32.4389 0.0000 2.3333 0.0000
# 3 37.8411 32.4389 105.7181 0.0000 9.2110 0.0000
# 4 0.0000 0.0000 0.0000 35.0594 0.0000 2.6231
# 5 11.0152 2.3333 9.2110 0.0000 14.3763 0.0000
# 6 0.0000 0.0000 0.0000 2.6231 0.0000 32.4621
#
#
#
# Elastic Compliance Matrix: (Units=1/GPa)
#
#
# Indices 1 2 3 4 5 6 
#
# 1 0.009652 -0.001782 -0.002424 0.000000 -0.005553 0.000000
# 2 -0.001782 0.026264 -0.007593 0.000000 0.001967 0.000000
# 3 -0.002424 -0.007593 0.013120 0.000000 -0.005316 0.000000
# 4 0.000000 0.000000 0.000000 0.028697 0.000000 -0.002319
# 5 -0.005553 0.001967 -0.005316 0.000000 0.076900 0.000000
# 6 0.000000 0.000000 0.000000 -0.002319 0.000000 0.030992
#
#
# Mechanical properties :
#
#
# Convention : Reuss Voigt Hill
#
# Bulk Modulus (GPa) = 39.31008 50.50650 44.90829
# Shear Modulus (GPa) = 22.96718 28.93787 25.95253
#
# Velocity S-wave (km/s) = 3.52524 3.95702 3.74736
# Velocity P-wave (km/s) = 6.15143 6.94305 6.55919
#
# Compressibility (1/GPa) = 0.02543877
#
# Stress axis : x y z
#
# Youngs Moduli (GPa) = 103.60859 38.07430 76.22039
#
# Poissons Ratio (x) = 0.06783 0.18478
# Poissons Ratio (y) = 0.18458 0.57872
# Poissons Ratio (z) = 0.25118 0.28909
#
# Static dielectric constant tensor:
#      x y z
#    x 3.541580 0.000000 0.020060 
#    y 0.000000 3.410590 0.000000 
#    z 0.020060 0.000000 3.351480 
# 
# 
# High freq. dielectric constant tensor:
#      x y z
#    x 1.721920 0.000000 0.004830 
#    y 0.000000 1.725620 0.000000 
#    z 0.004830 0.000000 1.718430 
# 
# From -- ./inp_files/21527.got.cif
#   From: 2010.03.12/outbox.cif.g09.slc.cpg/sg8_11_cif.got.tgz:21527.got - 2010.03.31 10:45:26.
