data_PCOD8053446
_publ_section_title
;
Structure prediction by ZEFSAII (Michael W. Deem and Ramdas Pophale) SiO2 
 PCOD8053446
Probable space group: C M
;
_chemical_formula_sum "Si O2"
_cell_formula_units_Z 28
_cell_length_a 15.378958
_cell_length_b 13.199835
_cell_length_c 8.854990
_cell_angle_alpha 90.000000
_cell_angle_beta 59.175233
_cell_angle_gamma 90.000000
_cell_volume 1543.634269
_symmetry_space_group_name_H-M "C M"
_symmetry_group_IT_number 8
_symmetry_cell_setting 'monoclinic'
loop_
_space_group_symop_operation_xyz
x,y,z
x,-y,z
1/2+x,1/2+y,z
1/2+x,1/2-y,z
loop_
_atom_site_type_symbol
_atom_site_label
_atom_site_fract_x
_atom_site_fract_y
_atom_site_fract_z
Si Si1 0.028550 0.117195 0.264440
Si Si2 0.824796 0.885692 0.960258
Si Si3 0.666585 0.765399 0.281004
Si Si4 0.158701 0.260627 0.620151
Si Si5 0.034323 0.113403 0.920981
Si Si6 0.857631 0.790518 0.621647
Si Si7 0.506575 0.119307 0.576499
O O1 0.133012 0.177083 0.197761
O O2 0.948186 0.149520 0.461642
O O3 0.051113 0.000000 0.265441
O O4 0.995337 0.144105 0.122923
O O5 0.809468 0.851657 0.802960
O O6 0.943172 0.877236 0.886040
O O7 0.785013 0.000000 0.016704
O O8 0.768515 0.814062 0.128675
O O9 0.681489 0.714259 0.433492
O O10 0.580256 0.854003 0.369275
O O11 0.123690 0.181970 0.777849
O O12 0.268022 0.294667 0.580057
O O13 0.070145 0.346729 0.672415
O O14 0.078024 0.000000 0.887664
O O15 0.901287 0.682149 0.644340
O O16 0.481139 0.000000 0.606767
#
# Coordination Sequence:
#
# PCOD8053446 Si02
#       7
#     4   4   4   4   4   4   4
#     4  10  20  36  57  84 116 149 190 239 288 345
#     4  11  20  34  56  84 115 147 191 240 285 338
#     4   9  20  36  56  82 114 149 191 241 286 346
#     4  10  21  37  57  83 113 150 194 243 284 349
#     4  10  20  35  57  84 113 149 191 237 291 340
#     4  11  21  36  58  88 114 151 196 242 288 343
#     4   9  20  38  57  81 115 153 189 236 292 347
#
# _framework density 18.139011
#
# number of rings (size 3 to 8) (size 9 to 14) (size 15 to 20)
#    0.857    1.143    1.429    2.571    0.000    3.429 
#    0.000    0.714    0.000    0.857    0.000    0.000 
#    0.000    0.000    0.000    0.000    0.000    0.000 
#
# Total GULP energy -173452.586705 kJ/mol
# GULP energy per Si atom -12389.470479 kJ/mol
# Density = 1.809773 g / cm^3
# Si number density = 18.139011 Si / 1000 Ang^3
#
#
#
# Elastic Constant Matrix: (Units=GPa)
#
#
# Indices 1 2 3 4 5 6 
#
# 1 85.3605 36.3993 3.4285 0.0000 11.8806 0.0000
# 2 36.3993 102.7160 35.4868 0.0000 2.0043 0.0000
# 3 3.4285 35.4868 90.9240 0.0000 3.6025 0.0000
# 4 0.0000 0.0000 0.0000 27.4029 0.0000 2.9588
# 5 11.8806 2.0043 3.6025 0.0000 26.0235 0.0000
# 6 0.0000 0.0000 0.0000 2.9588 0.0000 18.6135
#
#
#
# Elastic Compliance Matrix: (Units=1/GPa)
#
#
# Indices 1 2 3 4 5 6 
#
# 1 0.015088 -0.005907 0.002003 0.000000 -0.006710 0.000000
# 2 -0.005907 0.013568 -0.005166 0.000000 0.002367 0.000000
# 3 0.002003 -0.005166 0.013031 0.000000 -0.002320 0.000000
# 4 0.000000 0.000000 0.000000 0.037130 0.000000 -0.005902
# 5 -0.006710 0.002367 -0.002320 0.000000 0.041629 0.000000
# 6 0.000000 0.000000 0.000000 -0.005902 0.000000 0.054663
#
#
# Mechanical properties :
#
#
# Convention : Reuss Voigt Hill
#
# Bulk Modulus (GPa) = 42.47414 47.73663 45.10539
# Shear Modulus (GPa) = 24.86344 27.98704 26.42524
#
# Velocity S-wave (km/s) = 3.70634 3.93226 3.82097
# Velocity P-wave (km/s) = 6.46395 6.85501 6.66235
#
# Compressibility (1/GPa) = 0.02354374
#
# Stress axis : x y z
#
# Youngs Moduli (GPa) = 66.27969 73.70432 76.74005
#
# Poissons Ratio (x) = 0.43541 -0.15368
# Poissons Ratio (y) = 0.39155 0.39647
# Poissons Ratio (z) = -0.13273 0.38079
#
# Static dielectric constant tensor:
#      x y z
#    x 3.289730 0.000000 0.120010 
#    y 0.000000 3.225750 0.000000 
#    z 0.120010 0.000000 3.235410 
# 
# 
# High freq. dielectric constant tensor:
#      x y z
#    x 1.700600 0.000000 0.008120 
#    y 0.000000 1.687160 0.000000 
#    z 0.008120 0.000000 1.703140 
# 
# From -- ./inp_files/12611.got.cif
#   From: 2010.03.12/outbox.cif.g09.slc.cpg/sg8_7_cif.got.tgz:12611.got - 2010.03.31 10:45:26.
