data_PCOD8053795
_publ_section_title
;
Structure prediction by ZEFSAII (Michael W. Deem and Ramdas Pophale) SiO2 
 PCOD8053795
Probable space group: C M
;
_chemical_formula_sum "Si O2"
_cell_formula_units_Z 20
_cell_length_a 24.576366
_cell_length_b 8.168234
_cell_length_c 5.056363
_cell_angle_alpha 90.000000
_cell_angle_beta 77.747088
_cell_angle_gamma 90.000000
_cell_volume 991.919827
_symmetry_space_group_name_H-M "C M"
_symmetry_group_IT_number 8
_symmetry_cell_setting 'monoclinic'
loop_
_space_group_symop_operation_xyz
x,y,z
x,-y,z
1/2+x,1/2+y,z
1/2+x,1/2-y,z
loop_
_atom_site_type_symbol
_atom_site_label
_atom_site_fract_x
_atom_site_fract_y
_atom_site_fract_z
Si Si1 0.592401 0.000000 0.659341
Si Si2 0.665989 0.000000 0.084042
Si Si3 0.744268 0.310340 0.994295
Si Si4 0.317159 0.184938 0.422579
Si Si5 0.935352 0.819542 0.395963
Si Si6 0.486439 0.175859 0.850482
O O1 0.553561 0.162219 0.739766
O O2 0.614868 0.000000 0.338961
O O3 0.643343 0.000000 0.809560
O O4 0.698866 0.829858 0.098464
O O5 0.720820 0.500000 0.031936
O O6 0.769126 0.270762 0.681282
O O7 0.793335 0.288646 0.155080
O O8 0.370368 0.298531 0.402165
O O9 0.337036 0.000000 0.447083
O O10 0.957546 0.701906 0.598887
O O11 0.944820 0.000000 0.496525
O O12 0.970633 0.805775 0.088940
O O13 0.463177 0.000000 0.975608
#
# Coordination Sequence:
#
# PCOD8053795 Si02
#       6
#     2   2   4   4   4   4
#     4  10  24  42  68  88 112 170 228 248 324 376
#     4  12  22  42  70  90 120 170 210 282 312 362
#     4  10  23  39  60  92 128 159 210 258 314 384
#     4  10  21  38  59  87 125 171 199 243 312 391
#     4  12  23  36  62  97 130 164 209 262 320 374
#     4  10  22  42  63  82 125 166 215 256 306 396
#
# _framework density 20.162918999999999
#
# number of rings (size 3 to 8) (size 9 to 14) (size 15 to 20)
#    0.600    0.800    0.000    6.000    2.800    1.600 
#    0.000    6.000    0.000    0.000    0.000    0.000 
#    0.000    0.000    0.000    0.000    0.000    0.000 
#
# Total GULP energy -123968.672585 kJ/mol
# GULP energy per Si atom -12396.867259 kJ/mol
# Density = 2.011703 g / cm^3
# Si number density = 20.162919 Si / 1000 Ang^3
#
#
#
# Elastic Constant Matrix: (Units=GPa)
#
#
# Indices 1 2 3 4 5 6 
#
# 1 73.8816 34.2468 6.1048 0.0000 0.0652 0.0000
# 2 34.2468 96.8644 9.1790 0.0000 -9.3891 0.0000
# 3 6.1048 9.1790 79.4660 0.0000 -1.0978 0.0000
# 4 0.0000 0.0000 0.0000 23.1257 0.0000 -7.1781
# 5 0.0652 -9.3891 -1.0978 0.0000 40.2330 0.0000
# 6 0.0000 0.0000 0.0000 -7.1781 0.0000 9.1888
#
#
#
# Elastic Compliance Matrix: (Units=1/GPa)
#
#
# Indices 1 2 3 4 5 6 
#
# 1 0.016293 -0.005840 -0.000597 0.000000 -0.001406 0.000000
# 2 -0.005840 0.012769 -0.000985 0.000000 0.002962 0.000000
# 3 -0.000597 -0.000985 0.012745 0.000000 0.000119 0.000000
# 4 0.000000 0.000000 0.000000 0.057083 0.000000 0.044592
# 5 -0.001406 0.002962 0.000119 0.000000 0.025552 0.000000
# 6 0.000000 0.000000 0.000000 0.044592 0.000000 0.143663
#
#
# Mechanical properties :
#
#
# Convention : Reuss Voigt Hill
#
# Bulk Modulus (GPa) = 37.08759 38.80814 37.94787
# Shear Modulus (GPa) = 17.12701 27.88825 22.50763
#
# Velocity S-wave (km/s) = 2.91766 3.72310 3.34471
# Velocity P-wave (km/s) = 5.45749 6.14582 5.81185
#
# Compressibility (1/GPa) = 0.02696320
#
# Stress axis : x y z
#
# Youngs Moduli (GPa) = 61.37682 78.31451 78.46042
#
# Poissons Ratio (x) = 0.45736 0.04680
# Poissons Ratio (y) = 0.35845 0.07731
# Poissons Ratio (z) = 0.03661 0.07717
#
# Static dielectric constant tensor:
#      x y z
#    x 3.416330 0.000000 0.020300 
#    y 0.000000 3.678890 0.000000 
#    z 0.020300 0.000000 3.662450 
# 
# 
# High freq. dielectric constant tensor:
#      x y z
#    x 1.776000 0.000000 0.007800 
#    y 0.000000 1.781920 0.000000 
#    z 0.007800 0.000000 1.803760 
# 
# From -- ./inp_files/5239.got.cif
#   From: 2010.03.12/outbox.cif.g09.slc.cpg/sg8_3_cif.got.tgz:5239.got - 2010.03.31 10:45:26.
