data_PCOD8053862
_publ_section_title
;
Structure prediction by ZEFSAII (Michael W. Deem and Ramdas Pophale) SiO2 
 PCOD8053862
Probable space group: C M
;
_chemical_formula_sum "Si O2"
_cell_formula_units_Z 28
_cell_length_a 13.525356
_cell_length_b 20.066768
_cell_length_c 5.197382
_cell_angle_alpha 90.000000
_cell_angle_beta 107.987193
_cell_angle_gamma 90.000000
_cell_volume 1341.679017
_symmetry_space_group_name_H-M "C M"
_symmetry_group_IT_number 8
_symmetry_cell_setting 'monoclinic'
loop_
_space_group_symop_operation_xyz
x,y,z
x,-y,z
1/2+x,1/2+y,z
1/2+x,1/2-y,z
loop_
_atom_site_type_symbol
_atom_site_label
_atom_site_fract_x
_atom_site_fract_y
_atom_site_fract_z
Si Si1 0.117580 0.078291 0.753860
Si Si2 0.731780 0.210869 0.270239
Si Si3 0.439709 0.925032 0.525150
Si Si4 0.221115 0.861300 0.339927
Si Si5 0.523205 0.870239 0.099945
Si Si6 0.437310 0.329724 0.626687
Si Si7 0.416351 0.259482 0.113776
O O1 0.173226 0.096438 0.533132
O O2 0.996071 0.100036 0.638423
O O3 0.123227 0.000000 0.805715
O O4 0.172342 0.116183 0.031322
O O5 0.703973 0.282297 0.375309
O O6 0.630937 0.167531 0.142832
O O7 0.811276 0.166373 0.509458
O O8 0.792353 0.226350 0.048735
O O9 0.344520 0.873884 0.430170
O O10 0.521378 0.913882 0.357860
O O11 0.395906 0.000000 0.476387
O O12 0.502731 0.916469 0.839586
O O13 0.430214 0.817217 0.053651
O O14 0.475113 0.278959 0.429184
O O15 0.468777 0.302717 0.931186
#
# Coordination Sequence:
#
# PCOD8053862 Si02
#       7
#     4   4   4   4   4   4   4
#     4  12  25  42  64  95 131 174 209 253 316 385
#     4  10  25  39  71  97 129 157 212 272 325 366
#     4  12  26  45  63  92 133 173 216 254 305 388
#     4  12  25  41  68  96 128 164 213 269 324 366
#     4  12  23  41  68  96 127 168 210 262 323 372
#     4  10  22  40  62  93 132 164 207 254 318 378
#     4  10  21  40  62  99 127 158 209 264 327 361
#
# _framework density 20.869374000000001
#
# number of rings (size 3 to 8) (size 9 to 14) (size 15 to 20)
#    0.857    0.000    1.429    6.857    4.000    0.000 
#    0.000    1.429    0.000    0.000    0.000    0.000 
#    0.000    0.000    0.000    0.000    0.000    0.000 
#
# Total GULP energy -173533.655664 kJ/mol
# GULP energy per Si atom -12395.261119 kJ/mol
# Density = 2.082187 g / cm^3
# Si number density = 20.869374 Si / 1000 Ang^3
#
#
#
# Elastic Constant Matrix: (Units=GPa)
#
#
# Indices 1 2 3 4 5 6 
#
# 1 93.3071 43.2346 40.3864 0.0000 -2.8242 0.0000
# 2 43.2346 70.4664 17.0078 0.0000 6.4563 0.0000
# 3 40.3864 17.0078 107.3615 0.0000 -24.2354 0.0000
# 4 0.0000 0.0000 0.0000 26.9533 0.0000 2.2127
# 5 -2.8242 6.4563 -24.2354 0.0000 35.3710 0.0000
# 6 0.0000 0.0000 0.0000 2.2127 0.0000 26.2822
#
#
#
# Elastic Compliance Matrix: (Units=1/GPa)
#
#
# Indices 1 2 3 4 5 6 
#
# 1 0.017219 -0.009295 -0.005100 0.000000 -0.000423 0.000000
# 2 -0.009295 0.020587 -0.000924 0.000000 -0.005133 0.000000
# 3 -0.005100 -0.000924 0.013398 0.000000 0.008941 0.000000
# 4 0.000000 0.000000 0.000000 0.037359 0.000000 -0.003145
# 5 -0.000423 -0.005133 0.008941 0.000000 0.035301 0.000000
# 6 0.000000 0.000000 0.000000 -0.003145 0.000000 0.038313
#
#
# Mechanical properties :
#
#
# Convention : Reuss Voigt Hill
#
# Bulk Modulus (GPa) = 48.62347 52.48808 50.55578
# Shear Modulus (GPa) = 25.04126 29.08837 27.06482
#
# Velocity S-wave (km/s) = 3.46772 3.73745 3.60511
# Velocity P-wave (km/s) = 6.27559 6.62043 6.45031
#
# Compressibility (1/GPa) = 0.02056620
#
# Stress axis : x y z
#
# Youngs Moduli (GPa) = 58.07552 48.57385 74.64051
#
# Poissons Ratio (x) = 0.45149 0.38069
# Poissons Ratio (y) = 0.53981 0.06893
# Poissons Ratio (z) = 0.29621 0.04486
#
# Static dielectric constant tensor:
#      x y z
#    x 3.762780 0.000000 -0.159140 
#    y 0.000000 3.543610 0.000000 
#    z -0.159140 0.000000 3.859200 
# 
# 
# High freq. dielectric constant tensor:
#      x y z
#    x 1.817180 0.000000 -0.015090 
#    y 0.000000 1.798330 0.000000 
#    z -0.015090 0.000000 1.824260 
# 
# From -- ./inp_files/4068.got.cif
#   From: 2010.03.12/outbox.cif.g09.slc.cpg/sg8_3_cif.got.tgz:4068.got - 2010.03.31 10:45:26.
