data_PCOD8053747
_publ_section_title
;
Structure prediction by ZEFSAII (Michael W. Deem and Ramdas Pophale) SiO2 
 PCOD8053747
Probable space group: C M
;
_chemical_formula_sum "Si O2"
_cell_formula_units_Z 32
_cell_length_a 19.504845
_cell_length_b 8.728338
_cell_length_c 9.688527
_cell_angle_alpha 90.000000
_cell_angle_beta 76.876014
_cell_angle_gamma 90.000000
_cell_volume 1606.340855
_symmetry_space_group_name_H-M "C M"
_symmetry_group_IT_number 8
_symmetry_cell_setting 'monoclinic'
loop_
_space_group_symop_operation_xyz
x,y,z
x,-y,z
1/2+x,1/2+y,z
1/2+x,1/2-y,z
loop_
_atom_site_type_symbol
_atom_site_label
_atom_site_fract_x
_atom_site_fract_y
_atom_site_fract_z
Si Si1 0.510650 0.172322 0.483240
Si Si2 0.644735 0.680603 0.292049
Si Si3 0.416768 0.172382 0.270954
Si Si4 0.155145 0.820384 0.971329
Si Si5 0.271060 0.182416 0.424557
Si Si6 0.287475 0.181811 0.729741
Si Si7 0.934468 0.179718 0.758319
Si Si8 0.507758 0.181338 0.983784
O O1 0.575187 0.231002 0.364619
O O2 0.443640 0.173707 0.414746
O O3 0.494097 0.283588 0.617562
O O4 0.525001 0.000000 0.530853
O O5 0.632594 0.500000 0.311891
O O6 0.664624 0.726685 0.126872
O O7 0.704324 0.740749 0.369373
O O8 0.339944 0.251669 0.315211
O O9 0.470787 0.251338 0.139250
O O10 0.407530 0.000000 0.219942
O O11 0.086161 0.746783 0.934698
O O12 0.145983 0.000000 0.958497
O O13 0.224143 0.764267 0.858075
O O14 0.267141 0.237566 0.584896
O O15 0.275837 0.000000 0.419868
O O16 0.358196 0.263536 0.746604
O O17 0.299657 0.000000 0.731001
O O18 0.932932 0.000000 0.786892
O O19 0.957099 0.267938 0.884501
O O20 0.514874 0.000000 0.984443
#
# Coordination Sequence:
#
# PCOD8053747 Si02
#       8
#     4   4   4   4   4   4   4   4
#     4  11  21  40  65  89 118 158 205 256 308 365
#     4  10  21  36  59  91 125 161 200 249 301 357
#     4   9  18  35  63  90 114 150 203 254 296 352
#     4  10  22  38  59  90 128 165 204 249 301 361
#     4   9  18  35  60  88 117 155 201 245 294 354
#     4  10  21  40  63  87 121 165 207 248 299 364
#     4  12  26  42  61  90 124 160 205 260 315 365
#     4  11  23  40  64  91 121 162 209 255 306 366
#
# _framework density 19.921052
#
# number of rings (size 3 to 8) (size 9 to 14) (size 15 to 20)
#    0.000    1.750    2.500    1.875    3.500    0.500 
#    0.000    0.625    0.000    0.000    0.000    0.000 
#    0.000    0.000    0.000    0.000    0.000    0.000 
#
# Total GULP energy -198393.884478 kJ/mol
# GULP energy per Si atom -12399.617780 kJ/mol
# Density = 1.987571 g / cm^3
# Si number density = 19.921052 Si / 1000 Ang^3
#
#
#
# Elastic Constant Matrix: (Units=GPa)
#
#
# Indices 1 2 3 4 5 6 
#
# 1 112.6966 27.4324 48.8152 0.0000 -2.6875 0.0000
# 2 27.4324 29.6761 19.8789 0.0000 -7.1445 0.0000
# 3 48.8152 19.8789 114.4199 0.0000 -8.2507 0.0000
# 4 0.0000 0.0000 0.0000 20.9538 0.0000 -0.0100
# 5 -2.6875 -7.1445 -8.2507 0.0000 41.4402 0.0000
# 6 0.0000 0.0000 0.0000 -0.0100 0.0000 28.9783
#
#
#
# Elastic Compliance Matrix: (Units=1/GPa)
#
#
# Indices 1 2 3 4 5 6 
#
# 1 0.012894 -0.009671 -0.003937 0.000000 -0.001615 0.000000
# 2 -0.009671 0.046586 -0.003484 0.000000 0.006711 0.000000
# 3 -0.003937 -0.003484 0.011123 0.000000 0.001359 0.000000
# 4 0.000000 0.000000 0.000000 0.047724 0.000000 0.000016
# 5 -0.001615 0.006711 0.001359 0.000000 0.025454 0.000000
# 6 0.000000 0.000000 0.000000 0.000016 0.000000 0.034509
#
#
# Mechanical properties :
#
#
# Convention : Reuss Voigt Hill
#
# Bulk Modulus (GPa) = 27.45813 49.89394 38.67603
# Shear Modulus (GPa) = 22.26040 28.98553 25.62297
#
# Velocity S-wave (km/s) = 3.34643 3.81861 3.59029
# Velocity P-wave (km/s) = 5.36142 6.67402 6.05340
#
# Compressibility (1/GPa) = 0.03641909
#
# Stress axis : x y z
#
# Youngs Moduli (GPa) = 77.55274 21.46558 89.90510
#
# Poissons Ratio (x) = 0.20759 0.35400
# Poissons Ratio (y) = 0.75000 0.31322
# Poissons Ratio (z) = 0.30536 0.07479
#
# Static dielectric constant tensor:
#      x y z
#    x 3.722080 0.000000 -0.081810 
#    y 0.000000 3.319980 0.000000 
#    z -0.081810 0.000000 3.856400 
# 
# 
# High freq. dielectric constant tensor:
#      x y z
#    x 1.789300 0.000000 -0.005320 
#    y 0.000000 1.745270 0.000000 
#    z -0.005320 0.000000 1.790890 
# 
# From -- ./inp_files/15811.got.cif
#   From: 2010.03.12/outbox.cif.g09.slc.cpg/sg8_8_cif.got.tgz:15811.got - 2010.03.31 10:45:26.
