data_PCOD8053322
_publ_section_title
;
Structure prediction by ZEFSAII (Michael W. Deem and Ramdas Pophale) SiO2 
 PCOD8053322
Probable space group: C M
;
_chemical_formula_sum "Si O2"
_cell_formula_units_Z 32
_cell_length_a 22.416120
_cell_length_b 9.071645
_cell_length_c 11.178894
_cell_angle_alpha 90.000000
_cell_angle_beta 49.179318
_cell_angle_gamma 90.000000
_cell_volume 1720.295303
_symmetry_space_group_name_H-M "C M"
_symmetry_group_IT_number 8
_symmetry_cell_setting 'monoclinic'
loop_
_space_group_symop_operation_xyz
x,y,z
x,-y,z
1/2+x,1/2+y,z
1/2+x,1/2-y,z
loop_
_atom_site_type_symbol
_atom_site_label
_atom_site_fract_x
_atom_site_fract_y
_atom_site_fract_z
Si Si1 0.184960 0.825267 0.565200
Si Si2 0.492910 0.330898 0.189383
Si Si3 0.543056 0.825372 0.614871
Si Si4 0.154881 0.824757 0.870751
Si Si5 0.229825 0.824942 0.010147
Si Si6 0.381652 0.824692 0.945755
Si Si7 0.069465 0.169203 0.340704
Si Si8 0.854214 0.674135 0.248706
O O1 0.117405 0.748456 0.578823
O O2 0.182074 0.767818 0.705808
O O3 0.267441 0.774927 0.401158
O O4 0.172842 0.000000 0.574242
O O5 0.476168 0.500000 0.178950
O O6 0.511487 0.312605 0.304710
O O7 0.415925 0.237413 0.262057
O O8 0.566187 0.269654 0.014790
O O9 0.464634 0.769968 0.785274
O O10 0.536747 0.774439 0.486525
O O11 0.551371 0.000000 0.610051
O O12 0.214391 0.764068 0.895564
O O13 0.154857 0.000000 0.877591
O O14 0.310979 0.759164 0.956412
O O15 0.233797 0.000000 0.000242
O O16 0.157575 0.778863 0.190617
O O17 0.376265 0.000000 0.952852
O O18 0.371997 0.763896 0.092950
O O19 0.070900 0.000000 0.383307
O O20 0.861327 0.500000 0.243164
#
# Coordination Sequence:
#
# PCOD8053322 Si02
#       8
#     4   4   4   4   4   4   4   4
#     4  10  20  34  53  75  99 130 169 208 245 292
#     4   9  18  33  53  76 102 132 163 200 249 297
#     4  11  22  33  49  74 102 132 166 207 253 294
#     4   8  15  29  51  77  99 125 164 203 241 290
#     4   8  14  29  53  75  97 127 164 204 242 288
#     4   9  18  31  47  71 102 132 162 201 250 295
#     4   9  18  34  55  75  98 132 169 202 242 295
#     4  10  20  33  51  75 101 132 169 205 244 293
#
# _framework density 18.601457
#
# number of rings (size 3 to 8) (size 9 to 14) (size 15 to 20)
#    0.000    2.750    0.000    3.375    0.000    4.000 
#    0.000    3.125    0.000    2.250    0.000    0.000 
#    0.000    0.000    0.000    0.000    0.000    0.000 
#
# Total GULP energy -198382.385035 kJ/mol
# GULP energy per Si atom -12398.899065 kJ/mol
# Density = 1.855912 g / cm^3
# Si number density = 18.601457 Si / 1000 Ang^3
#
#
#
# Elastic Constant Matrix: (Units=GPa)
#
#
# Indices 1 2 3 4 5 6 
#
# 1 139.6730 28.8559 79.2607 0.0000 -14.3481 0.0000
# 2 28.8559 19.0359 32.0428 0.0000 -2.9951 0.0000
# 3 79.2607 32.0428 154.5640 0.0000 0.4822 0.0000
# 4 0.0000 0.0000 0.0000 17.8946 0.0000 3.0225
# 5 -14.3481 -2.9951 0.4822 0.0000 33.6516 0.0000
# 6 0.0000 0.0000 0.0000 3.0225 0.0000 25.6604
#
#
#
# Elastic Compliance Matrix: (Units=1/GPa)
#
#
# Indices 1 2 3 4 5 6 
#
# 1 0.012113 -0.011086 -0.003927 0.000000 0.004234 0.000000
# 2 -0.011086 0.092733 -0.013551 0.000000 0.003721 0.000000
# 3 -0.003927 -0.013551 0.011302 0.000000 -0.003042 0.000000
# 4 0.000000 0.000000 0.000000 0.057017 0.000000 -0.006716
# 5 0.004234 0.003721 -0.003042 0.000000 0.031896 0.000000
# 6 0.000000 0.000000 0.000000 -0.006716 0.000000 0.039762
#
#
# Mechanical properties :
#
#
# Convention : Reuss Voigt Hill
#
# Bulk Modulus (GPa) = 16.94322 65.95463 41.44893
# Shear Modulus (GPa) = 15.54604 26.98221 21.26412
#
# Velocity S-wave (km/s) = 2.89406 3.81273 3.38471
# Velocity P-wave (km/s) = 4.50508 7.41055 6.13237
#
# Compressibility (1/GPa) = 0.05902066
#
# Stress axis : x y z
#
# Youngs Moduli (GPa) = 82.55496 10.78361 88.47857
#
# Poissons Ratio (x) = 0.11955 0.34742
# Poissons Ratio (y) = 0.91522 1.19899
# Poissons Ratio (z) = 0.32416 0.14613
#
# Static dielectric constant tensor:
#      x y z
#    x 3.642880 0.000000 0.101560 
#    y 0.000000 2.958480 0.000000 
#    z 0.101560 0.000000 3.629900 
# 
# 
# High freq. dielectric constant tensor:
#      x y z
#    x 1.736220 0.000000 0.004080 
#    y 0.000000 1.675000 0.000000 
#    z 0.004080 0.000000 1.728440 
# 
# From -- ./inp_files/23854.got.cif
#   From: 2010.03.12/outbox.cif.g09.slc.cpg/sg8_12_cif.got.tgz:23854.got - 2010.03.31 10:45:26.
