data_PCOD8053989
_publ_section_title
;
Structure prediction by ZEFSAII (Michael W. Deem and Ramdas Pophale) SiO2 
 PCOD8053989
Probable space group: C M
;
_chemical_formula_sum "Si O2"
_cell_formula_units_Z 28
_cell_length_a 9.018143
_cell_length_b 29.958036
_cell_length_c 5.188761
_cell_angle_alpha 90.000000
_cell_angle_beta 57.854012
_cell_angle_gamma 90.000000
_cell_volume 1186.919275
_symmetry_space_group_name_H-M "C M"
_symmetry_group_IT_number 8
_symmetry_cell_setting 'monoclinic'
loop_
_space_group_symop_operation_xyz
x,y,z
x,-y,z
1/2+x,1/2+y,z
1/2+x,1/2-y,z
loop_
_atom_site_type_symbol
_atom_site_label
_atom_site_fract_x
_atom_site_fract_y
_atom_site_fract_z
Si Si1 0.731950 0.450971 0.284290
Si Si2 0.063973 0.452116 0.652776
Si Si3 0.908298 0.907966 0.355100
Si Si4 0.294986 0.639588 0.945250
Si Si5 0.229283 0.737197 0.141511
Si Si6 0.343455 0.783963 0.545032
Si Si7 0.417283 0.118201 0.416663
O O1 0.669847 0.500000 0.445993
O O2 0.596227 0.432756 0.195476
O O3 0.756222 0.412763 0.473832
O O4 0.930058 0.456974 0.008410
O O5 0.058749 0.500000 0.503126
O O6 0.261429 0.444552 0.570423
O O7 0.009298 0.407392 0.561600
O O8 0.877179 0.891417 0.093125
O O9 0.896076 0.868807 0.582127
O O10 0.085955 0.630993 0.081254
O O11 0.329433 0.690506 0.999474
O O12 0.217954 0.762471 0.876870
O O13 0.319856 0.767276 0.274675
O O14 0.041002 0.727735 0.437440
O O15 0.316446 0.837080 0.592396
#
# Coordination Sequence:
#
# PCOD8053989 Si02
#       7
#     4   4   4   4   4   4   4
#     4  11  24  41  65  98 130 170 223 275 326 391
#     4  10  22  43  65  92 133 175 216 273 331 387
#     4  11  23  42  68  99 130 178 216 271 322 400
#     4  10  23  44  68  91 136 174 221 262 333 390
#     4  11  24  44  65 102 130 180 214 282 323 405
#     4  11  25  42  70  94 139 169 228 266 341 388
#     4  10  23  42  67  92 130 178 218 271 328 397
#
# _framework density 23.590485000000001
#
# number of rings (size 3 to 8) (size 9 to 14) (size 15 to 20)
#    0.000    1.429    1.429    2.571    4.000    5.714 
#    0.000    1.429    0.000    0.000    0.000    0.000 
#    0.000    0.000    0.000    0.000    0.000    0.000 
#
# Total GULP energy -173473.811631 kJ/mol
# GULP energy per Si atom -12390.986545 kJ/mol
# Density = 2.353679 g / cm^3
# Si number density = 23.590485 Si / 1000 Ang^3
#
#
#
# Elastic Constant Matrix: (Units=GPa)
#
#
# Indices 1 2 3 4 5 6 
#
# 1 102.1179 42.1205 4.5378 0.0000 5.9816 0.0000
# 2 42.1205 175.8913 13.7580 0.0000 5.2841 0.0000
# 3 4.5378 13.7580 54.6500 0.0000 13.5084 0.0000
# 4 0.0000 0.0000 0.0000 27.8774 0.0000 2.4219
# 5 5.9816 5.2841 13.5084 0.0000 27.3374 0.0000
# 6 0.0000 0.0000 0.0000 2.4219 0.0000 36.1887
#
#
#
# Elastic Compliance Matrix: (Units=1/GPa)
#
#
# Indices 1 2 3 4 5 6 
#
# 1 0.010966 -0.002584 0.000239 0.000000 -0.002018 0.000000
# 2 -0.002584 0.006413 -0.001405 0.000000 0.000020 0.000000
# 3 0.000239 -0.001405 0.021163 0.000000 -0.010238 0.000000
# 4 0.000000 0.000000 0.000000 0.036081 0.000000 -0.002415
# 5 -0.002018 0.000020 -0.010238 0.000000 0.042076 0.000000
# 6 0.000000 0.000000 0.000000 -0.002415 0.000000 0.027795
#
#
# Mechanical properties :
#
#
# Convention : Reuss Voigt Hill
#
# Bulk Modulus (GPa) = 32.21470 50.38798 41.30134
# Shear Modulus (GPa) = 30.79916 36.43024 33.61470
#
# Velocity S-wave (km/s) = 3.61719 3.93399 3.77891
# Velocity P-wave (km/s) = 5.57951 6.48389 6.04863
#
# Compressibility (1/GPa) = 0.03104173
#
# Stress axis : x y z
#
# Youngs Moduli (GPa) = 91.19059 155.92279 47.25287
#
# Poissons Ratio (x) = 0.40292 -0.01128
# Poissons Ratio (y) = 0.23564 0.06639
# Poissons Ratio (z) = -0.02177 0.21906
#
# Static dielectric constant tensor:
#      x y z
#    x 4.242720 0.000000 -0.328170 
#    y 0.000000 4.631980 0.000000 
#    z -0.328170 0.000000 3.952010 
# 
# 
# High freq. dielectric constant tensor:
#      x y z
#    x 1.933060 0.000000 -0.013060 
#    y 0.000000 1.951020 0.000000 
#    z -0.013060 0.000000 1.911220 
# 
# From -- ./inp_files/1936.got.cif
#   From: 2010.03.12/outbox.cif.g09.slc.cpg/sg8_1_cif.got.tgz:1936.got - 2010.03.31 10:45:26.
