data_PCOD8053050
_publ_section_title
;
Structure prediction by ZEFSAII (Michael W. Deem and Ramdas Pophale) SiO2 
 PCOD8053050
Probable space group: C M
;
_chemical_formula_sum "Si O2"
_cell_formula_units_Z 32
_cell_length_a 14.689729
_cell_length_b 9.015392
_cell_length_c 25.210048
_cell_angle_alpha 90.000000
_cell_angle_beta 29.020119
_cell_angle_gamma 90.000000
_cell_volume 1619.639288
_symmetry_space_group_name_H-M "C M"
_symmetry_group_IT_number 8
_symmetry_cell_setting 'monoclinic'
loop_
_space_group_symop_operation_xyz
x,y,z
x,-y,z
1/2+x,1/2+y,z
1/2+x,1/2-y,z
loop_
_atom_site_type_symbol
_atom_site_label
_atom_site_fract_x
_atom_site_fract_y
_atom_site_fract_z
Si Si1 0.058380 0.163174 0.125000
Si Si2 0.603536 0.676193 0.891721
Si Si3 0.740721 0.174579 0.360109
Si Si4 0.862703 0.826273 0.914068
Si Si5 0.298886 0.167401 0.108730
Si Si6 0.462625 0.323045 0.746330
Si Si7 0.861593 0.675016 0.502976
Si Si8 0.476894 0.823497 0.328996
O O1 0.175777 0.165809 0.118994
O O2 0.848706 0.210818 0.249425
O O3 0.057612 0.000000 0.099933
O O4 0.151605 0.269796 0.033952
O O5 0.610586 0.500000 0.893687
O O6 0.508118 0.726926 0.885098
O O7 0.810830 0.745066 0.785890
O O8 0.490737 0.744133 0.999234
O O9 0.524651 0.219883 0.461336
O O10 0.819605 0.272541 0.367499
O O11 0.766791 0.000000 0.360303
O O12 0.933524 0.767243 0.821447
O O13 0.849388 0.000000 0.920287
O O14 0.180774 0.251647 0.214194
O O15 0.347578 0.000000 0.102313
O O16 0.444657 0.500000 0.750534
O O17 0.664589 0.262503 0.624637
O O18 0.849957 0.500000 0.505312
O O19 0.906748 0.736122 0.421530
O O20 0.499011 0.000000 0.315187
#
# Coordination Sequence:
#
# PCOD8053050 Si02
#       8
#     4   4   4   4   4   4   4   4
#     4   8  15  28  50  78 105 130 164 208 259 315
#     4  10  20  35  55  82 110 136 170 220 269 309
#     4   9  18  35  56  77 102 139 178 213 260 322
#     4   9  19  34  53  76 104 136 172 212 258 308
#     4   9  17  32  54  81 109 140 173 208 258 324
#     4  10  21  38  55  74 103 143 184 219 258 315
#     4   9  20  37  55  74 103 143 185 219 258 314
#     4  10  19  33  54  82 110 137 172 221 268 307
#
# _framework density 19.757487000000001
#
# number of rings (size 3 to 8) (size 9 to 14) (size 15 to 20)
#    0.000    2.750    0.000    1.875    0.000    6.000 
#    0.000    5.625    0.000    0.000    0.000    0.000 
#    0.000    0.000    0.000    0.000    0.000    0.000 
#
# Total GULP energy -198369.114348 kJ/mol
# GULP energy per Si atom -12398.069647 kJ/mol
# Density = 1.971252 g / cm^3
# Si number density = 19.757487 Si / 1000 Ang^3
#
#
#
# Elastic Constant Matrix: (Units=GPa)
#
#
# Indices 1 2 3 4 5 6 
#
# 1 29.2934 10.2747 11.5003 0.0000 1.1737 0.0002
# 2 10.2747 45.2671 15.4356 -0.0007 1.7957 0.0001
# 3 11.5003 15.4356 105.6713 -0.0052 -5.4319 0.0002
# 4 0.0000 -0.0007 -0.0052 28.0227 0.0003 -4.0061
# 5 1.1737 1.7957 -5.4319 0.0003 36.5867 0.0001
# 6 0.0002 0.0001 0.0002 -4.0061 0.0001 19.8852
#
#
#
# Elastic Compliance Matrix: (Units=1/GPa)
#
#
# Indices 1 2 3 4 5 6 
#
# 1 0.038050 -0.007524 -0.003109 -0.000001 -0.001313 -0.000001
# 2 -0.007524 0.024837 -0.002881 0.000000 -0.001405 0.000000
# 3 -0.003109 -0.002881 0.010314 0.000002 0.001772 0.000000
# 4 -0.000001 0.000000 0.000002 0.036744 0.000000 0.007402
# 5 -0.001313 -0.001405 0.001772 0.000000 0.027707 0.000000
# 6 -0.000001 0.000000 0.000000 0.007402 0.000000 0.051780
#
#
# Mechanical properties :
#
#
# Convention : Reuss Voigt Hill
#
# Bulk Modulus (GPa) = 21.65875 28.29478 24.97676
# Shear Modulus (GPa) = 21.56556 26.43366 23.99961
#
# Velocity S-wave (km/s) = 3.30739 3.66171 3.48905
# Velocity P-wave (km/s) = 5.05680 5.67711 5.37591
#
# Compressibility (1/GPa) = 0.04617072
#
# Stress axis : x y z
#
# Youngs Moduli (GPa) = 26.28134 40.26220 96.95832
#
# Poissons Ratio (x) = 0.30294 0.30148
# Poissons Ratio (y) = 0.19775 0.27937
# Poissons Ratio (z) = 0.08172 0.11601
#
# Static dielectric constant tensor:
#      x y z
#    x 3.522450 0.000000 -0.015940 
#    y 0.000000 3.427980 0.000000 
#    z -0.015940 0.000000 3.938640 
# 
# 
# High freq. dielectric constant tensor:
#      x y z
#    x 1.764490 0.000000 -0.005400 
#    y 0.000000 1.751880 0.000000 
#    z -0.005400 0.000000 1.772870 
# 
# From -- ./inp_files/26523.got.cif
#   From: 2010.03.12/outbox.cif.g09.slc.cpg/sg8_14_cif.got.tgz:26523.got - 2010.03.31 10:45:26.
