data_PCOD8053506
_publ_section_title
;
Structure prediction by ZEFSAII (Michael W. Deem and Ramdas Pophale) SiO2 
 PCOD8053506
Probable space group: C M
;
_chemical_formula_sum "Si O2"
_cell_formula_units_Z 32
_cell_length_a 28.565886
_cell_length_b 9.109445
_cell_length_c 12.190595
_cell_angle_alpha 90.000000
_cell_angle_beta 31.335986
_cell_angle_gamma 90.000000
_cell_volume 1649.735645
_symmetry_space_group_name_H-M "C M"
_symmetry_group_IT_number 8
_symmetry_cell_setting 'monoclinic'
loop_
_space_group_symop_operation_xyz
x,y,z
x,-y,z
1/2+x,1/2+y,z
1/2+x,1/2-y,z
loop_
_atom_site_type_symbol
_atom_site_label
_atom_site_fract_x
_atom_site_fract_y
_atom_site_fract_z
Si Si1 0.547290 0.327082 0.610910
Si Si2 0.547263 0.825465 0.843752
Si Si3 0.203967 0.830834 0.135544
Si Si4 0.908368 0.837997 0.517698
Si Si5 0.202903 0.674010 0.692272
Si Si6 0.194607 0.662030 0.944937
Si Si7 0.410139 0.172876 0.726950
Si Si8 0.405830 0.673210 0.277092
O O1 0.531029 0.500000 0.657061
O O2 0.550844 0.249948 0.719906
O O3 0.642564 0.292637 0.362540
O O4 0.465410 0.259681 0.706989
O O5 0.636762 0.774184 0.728863
O O6 0.542049 0.000000 0.840906
O O7 0.461152 0.769256 0.081260
O O8 0.203242 0.000000 0.108160
O O9 0.159835 0.755777 0.116995
O O10 0.306139 0.780549 0.954828
O O11 0.801650 0.845733 0.730895
O O12 0.942311 0.722280 0.540816
O O13 0.939760 0.790528 0.332890
O O14 0.946808 0.000000 0.469849
O O15 0.205519 0.500000 0.699914
O O16 0.167169 0.734127 0.882295
O O17 0.303418 0.728259 0.464545
O O18 0.152877 0.500000 0.042363
O O19 0.425839 0.000000 0.708527
O O20 0.416145 0.500000 0.231739
#
# Coordination Sequence:
#
# PCOD8053506 Si02
#       8
#     4   4   4   4   4   4   4   4
#     4  11  24  41  56  74 105 145 187 224 266 324
#     4  11  23  38  55  79 108 138 182 233 273 311
#     4   9  20  37  56  80 111 141 172 219 271 316
#     4   8  15  30  54  83 113 144 177 212 258 322
#     4   8  17  35  57  80 109 143 176 214 262 319
#     4   8  14  29  55  83 109 139 175 212 257 319
#     4  10  20  36  58  84 112 140 175 223 273 315
#     4   9  18  36  59  81 109 146 182 215 260 320
#
# _framework density 19.397048000000002
#
# number of rings (size 3 to 8) (size 9 to 14) (size 15 to 20)
#    0.000    2.750    0.000    2.625    0.000    4.000 
#    0.000    9.375    0.000    0.000    0.000    0.000 
#    0.000    0.000    0.000    0.000    0.000    0.000 
#
# Total GULP energy -198345.535208 kJ/mol
# GULP energy per Si atom -12396.595951 kJ/mol
# Density = 1.935290 g / cm^3
# Si number density = 19.397048 Si / 1000 Ang^3
#
#
#
# Elastic Constant Matrix: (Units=GPa)
#
#
# Indices 1 2 3 4 5 6 
#
# 1 169.7556 73.1837 89.0526 0.0000 23.7850 0.0000
# 2 73.1837 87.1285 67.7055 0.0000 15.2082 0.0000
# 3 89.0526 67.7055 140.4218 0.0000 24.5323 0.0000
# 4 0.0000 0.0000 0.0000 28.4442 0.0000 7.9053
# 5 23.7850 15.2082 24.5323 0.0000 33.4769 0.0000
# 6 0.0000 0.0000 0.0000 7.9053 0.0000 30.5387
#
#
#
# Elastic Compliance Matrix: (Units=1/GPa)
#
#
# Indices 1 2 3 4 5 6 
#
# 1 0.010516 -0.005695 -0.003520 0.000000 -0.002304 0.000000
# 2 -0.005695 0.021571 -0.006633 0.000000 -0.000893 0.000000
# 3 -0.003520 -0.006633 0.013290 0.000000 -0.004225 0.000000
# 4 0.000000 0.000000 0.000000 0.037882 0.000000 -0.009806
# 5 -0.002304 -0.000893 -0.004225 0.000000 0.035010 0.000000
# 6 0.000000 0.000000 0.000000 -0.009806 0.000000 0.035284
#
#
# Mechanical properties :
#
#
# Convention : Reuss Voigt Hill
#
# Bulk Modulus (GPa) = 73.09886 95.24326 84.17106
# Shear Modulus (GPa) = 26.34232 29.64958 27.99595
#
# Velocity S-wave (km/s) = 3.68918 3.91392 3.80321
# Velocity P-wave (km/s) = 7.47757 8.34467 7.92300
#
# Compressibility (1/GPa) = 0.01368010
#
# Stress axis : x y z
#
# Youngs Moduli (GPa) = 95.09755 46.35890 75.24298
#
# Poissons Ratio (x) = 0.26400 0.26489
# Poissons Ratio (y) = 0.54155 0.49910
# Poissons Ratio (z) = 0.33478 0.30751
#
# Static dielectric constant tensor:
#      x y z
#    x 3.562160 0.000000 -0.042630 
#    y 0.000000 3.502120 0.000000 
#    z -0.042630 0.000000 3.526180 
# 
# 
# High freq. dielectric constant tensor:
#      x y z
#    x 1.757090 0.000000 0.004860 
#    y 0.000000 1.742900 0.000000 
#    z 0.004860 0.000000 1.752220 
# 
# From -- ./inp_files/21546.got.cif
#   From: 2010.03.12/outbox.cif.g09.slc.cpg/sg8_11_cif.got.tgz:21546.got - 2010.03.31 10:45:26.
