data_PCOD8053110
_publ_section_title
;
Structure prediction by ZEFSAII (Michael W. Deem and Ramdas Pophale) SiO2 
 PCOD8053110
Probable space group: C M
;
_chemical_formula_sum "Si O2"
_cell_formula_units_Z 32
_cell_length_a 14.248427
_cell_length_b 8.978701
_cell_length_c 22.203461
_cell_angle_alpha 90.000000
_cell_angle_beta 142.294649
_cell_angle_gamma 90.000000
_cell_volume 1737.277702
_symmetry_space_group_name_H-M "C M"
_symmetry_group_IT_number 8
_symmetry_cell_setting 'monoclinic'
loop_
_space_group_symop_operation_xyz
x,y,z
x,-y,z
1/2+x,1/2+y,z
1/2+x,1/2-y,z
loop_
_atom_site_type_symbol
_atom_site_label
_atom_site_fract_x
_atom_site_fract_y
_atom_site_fract_z
Si Si1 0.835210 0.671876 0.114580
Si Si2 0.586109 0.672755 0.086166
Si Si3 0.732662 0.833529 0.562564
Si Si4 0.021542 0.675863 0.740344
Si Si5 0.274643 0.172173 0.946149
Si Si6 0.446035 0.676292 0.452744
Si Si7 0.645741 0.672680 0.253654
Si Si8 0.991576 0.166091 0.609754
O O1 0.880565 0.500000 0.147422
O O2 0.710100 0.724071 0.099828
O O3 0.985786 0.771256 0.200051
O O4 0.766610 0.697450 0.013534
O O5 0.541838 0.500000 0.055561
O O6 0.655485 0.703021 0.187301
O O7 0.434170 0.770007 0.999464
O O8 0.573222 0.746097 0.473307
O O9 0.810664 0.840769 0.536099
O O10 0.852360 0.745965 0.667424
O O11 0.703328 0.000000 0.572967
O O12 0.011078 0.500000 0.737995
O O13 0.135989 0.733843 0.848899
O O14 0.079221 0.727993 0.702597
O O15 0.255672 0.000000 0.919091
O O16 0.442404 0.500000 0.444682
O O17 0.280013 0.737648 0.353606
O O18 0.499389 0.728856 0.546364
O O19 0.664110 0.500000 0.278228
O O20 0.063380 0.000000 0.650042
#
# Coordination Sequence:
#
# PCOD8053110 Si02
#       8
#     4   4   4   4   4   4   4   4
#     4   9  19  37  58  79 105 140 181 222 266 320
#     4   9  19  37  57  79 107 141 179 221 267 321
#     4   9  19  37  55  76 107 142 181 223 267 313
#     4  10  19  35  57  80 109 145 180 221 271 321
#     4  10  19  34  56  81 109 140 177 223 270 318
#     4  11  21  36  57  81 108 144 184 223 271 322
#     4  10  21  35  54  80 111 142 176 222 272 320
#     4   8  19  37  54  74 106 142 178 223 268 313
#
# _framework density 18.419623000000001
#
# number of rings (size 3 to 8) (size 9 to 14) (size 15 to 20)
#    0.750    1.750    0.000    2.250    0.000    3.500 
#    2.250    5.000    0.000    0.000    0.000    0.000 
#    0.000    0.000    0.000    0.000    0.000    0.000 
#
# Total GULP energy -198339.691149 kJ/mol
# GULP energy per Si atom -12396.230697 kJ/mol
# Density = 1.837770 g / cm^3
# Si number density = 18.419623 Si / 1000 Ang^3
#
#
#
# Elastic Constant Matrix: (Units=GPa)
#
#
# Indices 1 2 3 4 5 6 
#
# 1 85.0847 30.0760 15.2167 0.0000 4.2398 0.0000
# 2 30.0760 116.5848 46.0210 0.0000 8.1292 0.0000
# 3 15.2167 46.0210 67.6333 0.0000 9.8200 0.0000
# 4 0.0000 0.0000 0.0000 36.1818 0.0000 6.7507
# 5 4.2398 8.1292 9.8200 0.0000 19.1581 0.0000
# 6 0.0000 0.0000 0.0000 6.7507 0.0000 27.2631
#
#
#
# Elastic Compliance Matrix: (Units=1/GPa)
#
#
# Indices 1 2 3 4 5 6 
#
# 1 0.012998 -0.002985 -0.000712 0.000000 -0.001245 0.000000
# 2 -0.002985 0.012429 -0.007688 0.000000 -0.000673 0.000000
# 3 -0.000712 -0.007688 0.021263 0.000000 -0.007479 0.000000
# 4 0.000000 0.000000 0.000000 0.028977 0.000000 -0.007175
# 5 -0.001245 -0.000673 -0.007479 0.000000 0.056592 0.000000
# 6 0.000000 0.000000 0.000000 -0.007175 0.000000 0.038456
#
#
# Mechanical properties :
#
#
# Convention : Reuss Voigt Hill
#
# Bulk Modulus (GPa) = 41.80818 50.21448 46.01133
# Shear Modulus (GPa) = 24.81889 28.38653 26.60271
#
# Velocity S-wave (km/s) = 3.67470 3.92995 3.80446
# Velocity P-wave (km/s) = 6.38369 6.92194 6.65825
#
# Compressibility (1/GPa) = 0.02391876
#
# Stress axis : x y z
#
# Youngs Moduli (GPa) = 76.93727 80.45504 47.02938
#
# Poissons Ratio (x) = 0.24016 0.03350
# Poissons Ratio (y) = 0.22966 0.36157
# Poissons Ratio (z) = 0.05481 0.61856
#
# Static dielectric constant tensor:
#      x y z
#    x 3.306490 0.000000 -0.023690 
#    y 0.000000 3.414110 0.000000 
#    z -0.023690 0.000000 3.205930 
# 
# 
# High freq. dielectric constant tensor:
#      x y z
#    x 1.704030 0.000000 0.002670 
#    y 0.000000 1.723770 0.000000 
#    z 0.002670 0.000000 1.702770 
# 
# From -- ./inp_files/26448.got.cif
#   From: 2010.03.12/outbox.cif.g09.slc.cpg/sg8_14_cif.got.tgz:26448.got - 2010.03.31 10:45:26.
