data_PCOD8053008
_publ_section_title
;
Structure prediction by ZEFSAII (Michael W. Deem and Ramdas Pophale) SiO2 
 PCOD8053008
Probable space group: C M
;
_chemical_formula_sum "Si O2"
_cell_formula_units_Z 32
_cell_length_a 20.824982
_cell_length_b 8.450200
_cell_length_c 13.483964
_cell_angle_alpha 90.000000
_cell_angle_beta 136.596615
_cell_angle_gamma 90.000000
_cell_volume 1630.453406
_symmetry_space_group_name_H-M "C M"
_symmetry_group_IT_number 8
_symmetry_cell_setting 'monoclinic'
loop_
_space_group_symop_operation_xyz
x,y,z
x,-y,z
1/2+x,1/2+y,z
1/2+x,1/2-y,z
loop_
_atom_site_type_symbol
_atom_site_label
_atom_site_fract_x
_atom_site_fract_y
_atom_site_fract_z
Si Si1 0.844670 0.818023 0.798860
Si Si2 0.619658 0.187449 0.107806
Si Si3 0.313607 0.812386 0.277187
Si Si4 0.000638 0.316434 0.595844
Si Si5 0.830522 0.311144 0.074406
Si Si6 0.484699 0.318274 0.791955
Si Si7 0.193261 0.815130 0.748020
Si Si8 0.479408 0.819784 0.102148
O O1 0.882661 0.792268 0.729134
O O2 0.735759 0.774058 0.697557
O O3 0.864076 0.000000 0.851122
O O4 0.900683 0.694736 0.929281
O O5 0.727664 0.230542 0.236106
O O6 0.574059 0.252980 0.160823
O O7 0.604124 0.000000 0.079874
O O8 0.569792 0.273330 0.959998
O O9 0.406641 0.757098 0.437136
O O10 0.314737 0.744675 0.166373
O O11 0.301010 0.000000 0.265586
O O12 0.017569 0.500000 0.595503
O O13 0.084941 0.223717 0.639116
O O14 0.991188 0.287628 0.702002
O O15 0.834092 0.500000 0.080239
O O16 0.931684 0.244147 0.147289
O O17 0.746957 0.255467 0.907999
O O18 0.498658 0.500000 0.776258
O O19 0.205664 0.000000 0.745350
O O20 0.500459 0.000000 0.150255
#
# Coordination Sequence:
#
# PCOD8053008 Si02
#       8
#     4   4   4   4   4   4   4   4
#     4   9  17  30  51  79 106 131 166 214 263 313
#     4  10  19  32  54  81 106 133 170 216 261 313
#     4  10  21  36  52  72 104 142 175 213 261 311
#     4  11  23  36  51  74 106 143 183 225 263 306
#     4   8  15  31  54  75  95 127 168 204 248 307
#     4  10  20  35  56  79 105 139 177 219 267 315
#     4  10  19  33  56  80 104 136 172 214 265 321
#     4   8  15  29  50  76 102 129 165 209 256 306
#
# _framework density 19.626442999999998
#
# number of rings (size 3 to 8) (size 9 to 14) (size 15 to 20)
#    0.000    2.500    0.000    3.375    0.000    4.000 
#    0.000    3.750    0.000    3.000    0.000    0.000 
#    0.000    0.000    0.000    0.000    0.000    0.000 
#
# Total GULP energy -198249.480805 kJ/mol
# GULP energy per Si atom -12390.592550 kJ/mol
# Density = 1.958177 g / cm^3
# Si number density = 19.626443 Si / 1000 Ang^3
#
#
#
# Elastic Constant Matrix: (Units=GPa)
#
#
# Indices 1 2 3 4 5 6 
#
# 1 138.6978 17.7238 43.5530 0.0000 40.0600 0.0000
# 2 17.7238 35.7154 13.2679 0.0000 6.6553 0.0000
# 3 43.5530 13.2679 71.4512 0.0000 24.8158 0.0000
# 4 0.0000 0.0000 0.0000 20.3418 0.0000 6.4857
# 5 40.0600 6.6553 24.8158 0.0000 20.3958 0.0000
# 6 0.0000 0.0000 0.0000 6.4857 0.0000 28.7923
#
#
#
# Elastic Compliance Matrix: (Units=1/GPa)
#
#
# Indices 1 2 3 4 5 6 
#
# 1 0.017092 -0.002755 0.002495 0.000000 -0.035707 0.000000
# 2 -0.002755 0.030843 -0.004212 0.000000 0.000471 0.000000
# 3 0.002495 -0.004212 0.025080 0.000000 -0.034041 0.000000
# 4 0.000000 0.000000 0.000000 0.052964 0.000000 -0.011930
# 5 -0.035707 0.000471 -0.034041 0.000000 0.160427 0.000000
# 6 0.000000 0.000000 0.000000 -0.011930 0.000000 0.037419
#
#
# Mechanical properties :
#
#
# Convention : Reuss Voigt Hill
#
# Bulk Modulus (GPa) = 15.60767 43.88373 29.74570
# Shear Modulus (GPa) = 14.11931 25.32729 19.72330
#
# Velocity S-wave (km/s) = 2.68508 3.59620 3.17351
# Velocity P-wave (km/s) = 4.19315 6.29695 5.34949
#
# Compressibility (1/GPa) = 0.06407104
#
# Stress axis : x y z
#
# Youngs Moduli (GPa) = 58.50750 32.42223 39.87298
#
# Poissons Ratio (x) = 0.08932 -0.09947
# Poissons Ratio (y) = 0.16118 0.16793
# Poissons Ratio (z) = -0.14596 0.13655
#
# Static dielectric constant tensor:
#      x y z
#    x 4.150360 0.000000 0.124250 
#    y 0.000000 3.373250 0.000000 
#    z 0.124250 0.000000 3.244230 
# 
# 
# High freq. dielectric constant tensor:
#      x y z
#    x 1.793930 0.000000 0.016790 
#    y 0.000000 1.751080 0.000000 
#    z 0.016790 0.000000 1.715660 
# 
# From -- ./inp_files/23906.got.cif
#   From: 2010.03.12/outbox.cif.g09.slc.cpg/sg8_12_cif.got.tgz:23906.got - 2010.03.31 10:45:26.
