data_PCOD8053175
_publ_section_title
;
Structure prediction by ZEFSAII (Michael W. Deem and Ramdas Pophale) SiO2 
 PCOD8053175
Probable space group: C M
;
_chemical_formula_sum "Si O2"
_cell_formula_units_Z 32
_cell_length_a 28.019719
_cell_length_b 8.803762
_cell_length_c 15.832637
_cell_angle_alpha 90.000000
_cell_angle_beta 26.601880
_cell_angle_gamma 90.000000
_cell_volume 1748.872660
_symmetry_space_group_name_H-M "C M"
_symmetry_group_IT_number 8
_symmetry_cell_setting 'monoclinic'
loop_
_space_group_symop_operation_xyz
x,y,z
x,-y,z
1/2+x,1/2+y,z
1/2+x,1/2-y,z
loop_
_atom_site_type_symbol
_atom_site_label
_atom_site_fract_x
_atom_site_fract_y
_atom_site_fract_z
Si Si1 0.604420 0.319394 0.427980
Si Si2 0.294474 0.675221 0.699648
Si Si3 0.063314 0.324012 0.997164
Si Si4 0.045165 0.678716 0.693967
Si Si5 0.863479 0.324095 0.424436
Si Si6 0.891762 0.679041 0.707428
Si Si7 0.132227 0.175212 0.722048
Si Si8 0.815237 0.678719 0.007600
O O1 0.602172 0.500000 0.431671
O O2 0.604875 0.261516 0.523062
O O3 0.506332 0.259003 0.527853
O O4 0.710933 0.250688 0.216105
O O5 0.318612 0.500000 0.680012
O O6 0.362817 0.725464 0.510412
O O7 0.327125 0.775015 0.727405
O O8 0.169776 0.705784 0.882195
O O9 0.053195 0.500000 0.987436
O O10 0.963359 0.270056 0.210815
O O11 0.064056 0.225277 0.911111
O O12 0.055784 0.500000 0.662469
O O13 0.098822 0.723917 0.696206
O O14 0.921179 0.729248 0.890764
O O15 0.873726 0.500000 0.433938
O O16 0.756991 0.294595 0.539439
O O17 0.911034 0.500000 0.678457
O O18 0.824460 0.732765 0.895752
O O19 0.108338 0.000000 0.740790
O O20 0.803607 0.500000 0.029036
#
# Coordination Sequence:
#
# PCOD8053175 Si02
#       8
#     4   4   4   4   4   4   4   4
#     4  10  19  35  56  78 102 130 171 217 255 296
#     4  10  20  34  53  78 104 132 171 216 256 296
#     4   9  19  36  55  75 102 136 173 213 256 302
#     4  10  20  36  54  75 105 139 171 206 255 308
#     4   9  19  36  55  75 103 138 172 209 257 308
#     4  10  20  36  54  75 105 139 170 203 254 312
#     4  10  20  34  53  78 105 135 172 212 255 302
#     4   8  18  35  54  74 100 135 170 206 252 304
#
# _framework density 18.297499999999999
#
# number of rings (size 3 to 8) (size 9 to 14) (size 15 to 20)
#    0.000    2.500    0.000    2.625    0.000    3.500 
#    0.000   15.000    0.000    0.000    0.000    0.000 
#    0.000    0.000    0.000    0.000    0.000    0.000 
#
# Total GULP energy -198428.897054 kJ/mol
# GULP energy per Si atom -12401.806066 kJ/mol
# Density = 1.825585 g / cm^3
# Si number density = 18.297500 Si / 1000 Ang^3
#
#
#
# Elastic Constant Matrix: (Units=GPa)
#
#
# Indices 1 2 3 4 5 6 
#
# 1 108.8619 35.3771 54.3791 0.0000 5.8147 0.0000
# 2 35.3771 66.7318 40.4403 -0.0001 1.5868 0.0000
# 3 54.3791 40.4403 165.1546 0.0000 3.3202 0.0000
# 4 0.0000 -0.0001 0.0000 26.3353 0.0000 2.9737
# 5 5.8147 1.5868 3.3202 0.0000 11.7459 0.0000
# 6 0.0000 0.0000 0.0000 2.9737 0.0000 35.5852
#
#
#
# Elastic Compliance Matrix: (Units=1/GPa)
#
#
# Indices 1 2 3 4 5 6 
#
# 1 0.012389 -0.004746 -0.002823 0.000000 -0.004694 0.000000
# 2 -0.004746 0.019430 -0.003208 0.000000 0.000631 0.000000
# 3 -0.002823 -0.003208 0.007777 0.000000 -0.000368 0.000000
# 4 0.000000 0.000000 0.000000 0.038334 0.000000 -0.003203
# 5 -0.004694 0.000631 -0.000368 0.000000 0.087478 0.000000
# 6 0.000000 0.000000 0.000000 -0.003203 0.000000 0.028369
#
#
# Mechanical properties :
#
#
# Convention : Reuss Voigt Hill
#
# Bulk Modulus (GPa) = 55.42063 66.79346 61.10705
# Shear Modulus (GPa) = 22.58920 28.77006 25.67963
#
# Velocity S-wave (km/s) = 3.51743 3.96959 3.75033
# Velocity P-wave (km/s) = 6.84476 7.58904 7.22649
#
# Compressibility (1/GPa) = 0.01804382
#
# Stress axis : x y z
#
# Youngs Moduli (GPa) = 80.71734 51.46632 128.57986
#
# Poissons Ratio (x) = 0.24424 0.36296
# Poissons Ratio (y) = 0.38305 0.41247
# Poissons Ratio (z) = 0.22785 0.16510
#
# Static dielectric constant tensor:
#      x y z
#    x 3.297960 0.000000 0.000920 
#    y 0.000000 3.314330 0.000000 
#    z 0.000920 0.000000 3.601590 
# 
# 
# High freq. dielectric constant tensor:
#      x y z
#    x 1.709990 0.000000 0.001870 
#    y 0.000000 1.707800 0.000000 
#    z 0.001870 0.000000 1.713460 
# 
# From -- ./inp_files/26398.got.cif
#   From: 2010.03.12/outbox.cif.g09.slc.cpg/sg8_14_cif.got.tgz:26398.got - 2010.03.31 10:45:26.
