data_PCOD8053735
_publ_section_title
;
Structure prediction by ZEFSAII (Michael W. Deem and Ramdas Pophale) SiO2 
 PCOD8053735
Probable space group: C M
;
_chemical_formula_sum "Si O2"
_cell_formula_units_Z 32
_cell_length_a 20.434178
_cell_length_b 8.779448
_cell_length_c 12.180618
_cell_angle_alpha 90.000000
_cell_angle_beta 52.360778
_cell_angle_gamma 90.000000
_cell_volume 1730.408235
_symmetry_space_group_name_H-M "C M"
_symmetry_group_IT_number 8
_symmetry_cell_setting 'monoclinic'
loop_
_space_group_symop_operation_xyz
x,y,z
x,-y,z
1/2+x,1/2+y,z
1/2+x,1/2-y,z
loop_
_atom_site_type_symbol
_atom_site_label
_atom_site_fract_x
_atom_site_fract_y
_atom_site_fract_z
Si Si1 0.299460 0.822067 0.506890
Si Si2 0.042163 0.321074 0.792228
Si Si3 0.633422 0.677886 0.095247
Si Si4 0.176565 0.822395 0.808957
Si Si5 0.231769 0.176890 0.207061
Si Si6 0.650749 0.677003 0.511408
Si Si7 0.906507 0.179408 0.063248
Si Si8 0.962219 0.680612 0.232168
O O1 0.266450 0.782921 0.663513
O O2 0.233252 0.759928 0.486598
O O3 0.390041 0.754731 0.387379
O O4 0.307287 0.000000 0.481214
O O5 0.029633 0.500000 0.804743
O O6 0.106826 0.274825 0.820268
O O7 0.072472 0.267597 0.640545
O O8 0.954217 0.242919 0.907595
O O9 0.612946 0.500000 0.124378
O O10 0.694815 0.729113 0.128778
O O11 0.548552 0.768552 0.195329
O O12 0.678971 0.719310 0.934552
O O13 0.155335 0.000000 0.811860
O O14 0.161075 0.206358 0.371205
O O15 0.311102 0.276486 0.153332
O O16 0.258118 0.000000 0.180226
O O17 0.637291 0.500000 0.552542
O O18 0.950335 0.248969 0.124785
O O19 0.915464 0.000000 0.059892
O O20 0.960603 0.500000 0.222127
#
# Coordination Sequence:
#
# PCOD8053735 Si02
#       8
#     4   4   4   4   4   4   4   4
#     4   8  15  29  52  78 104 140 181 222 271 324
#     4  11  21  33  54  84 112 141 186 237 284 333
#     4  10  21  36  57  83 114 151 188 228 277 338
#     4   9  17  33  54  79 111 148 184 221 277 333
#     4  10  21  39  59  81 114 155 192 228 280 339
#     4   9  17  34  56  78 110 148 186 228 283 335
#     4  12  23  36  56  83 113 146 190 238 285 331
#     4  11  20  34  56  82 112 147 189 234 279 329
#
# _framework density 18.492746
#
# number of rings (size 3 to 8) (size 9 to 14) (size 15 to 20)
#    0.000    2.000    2.500    3.375    0.000    1.000 
#    0.000    1.875    0.000    1.500    0.000    0.000 
#    0.000    0.000    0.000    0.000    0.000    0.000 
#
# Total GULP energy -198375.745299 kJ/mol
# GULP energy per Si atom -12398.484081 kJ/mol
# Density = 1.845066 g / cm^3
# Si number density = 18.492746 Si / 1000 Ang^3
#
#
#
# Elastic Constant Matrix: (Units=GPa)
#
#
# Indices 1 2 3 4 5 6 
#
# 1 54.2468 26.0520 27.7919 0.0000 5.2018 0.0000
# 2 26.0520 79.4110 30.1897 0.0000 -6.2206 0.0000
# 3 27.7919 30.1897 122.9331 0.0000 -3.4181 0.0000
# 4 0.0000 0.0000 0.0000 26.5972 0.0000 -4.9407
# 5 5.2018 -6.2206 -3.4181 0.0000 29.8850 0.0000
# 6 0.0000 0.0000 0.0000 -4.9407 0.0000 23.6114
#
#
#
# Elastic Compliance Matrix: (Units=1/GPa)
#
#
# Indices 1 2 3 4 5 6 
#
# 1 0.024414 -0.006980 -0.003976 0.000000 -0.006157 0.000000
# 2 -0.006980 0.016075 -0.002250 0.000000 0.004304 0.000000
# 3 -0.003976 -0.002250 0.009623 0.000000 0.001324 0.000000
# 4 0.000000 0.000000 0.000000 0.039118 0.000000 0.008185
# 5 -0.006157 0.004304 0.001324 0.000000 0.035581 0.000000
# 6 0.000000 0.000000 0.000000 0.008185 0.000000 0.044065
#
#
# Mechanical properties :
#
#
# Convention : Reuss Voigt Hill
#
# Bulk Modulus (GPa) = 42.19575 47.18425 44.69000
# Shear Modulus (GPa) = 24.60760 27.52252 26.06506
#
# Velocity S-wave (km/s) = 3.65178 3.86202 3.75837
# Velocity P-wave (km/s) = 6.37555 6.74220 6.56144
#
# Compressibility (1/GPa) = 0.02369907
#
# Stress axis : x y z
#
# Youngs Moduli (GPa) = 40.95996 62.20783 103.91922
#
# Poissons Ratio (x) = 0.43421 0.41323
# Poissons Ratio (y) = 0.28590 0.23382
# Poissons Ratio (z) = 0.16287 0.13997
#
# Static dielectric constant tensor:
#      x y z
#    x 3.137500 0.000000 -0.072480 
#    y 0.000000 3.230390 0.000000 
#    z -0.072480 0.000000 3.882750 
# 
# 
# High freq. dielectric constant tensor:
#      x y z
#    x 1.679540 0.000000 -0.006410 
#    y 0.000000 1.703530 0.000000 
#    z -0.006410 0.000000 1.740560 
# 
# From -- ./inp_files/23755.got.cif
#   From: 2010.03.12/outbox.cif.g09.slc.cpg/sg8_12_cif.got.tgz:23755.got - 2010.03.31 10:45:26.
