data_PCOD8053090
_publ_section_title
;
Structure prediction by ZEFSAII (Michael W. Deem and Ramdas Pophale) SiO2 
 PCOD8053090
Probable space group: C M
;
_chemical_formula_sum "Si O2"
_cell_formula_units_Z 32
_cell_length_a 15.521147
_cell_length_b 8.768079
_cell_length_c 22.521471
_cell_angle_alpha 90.000000
_cell_angle_beta 148.481453
_cell_angle_gamma 90.000000
_cell_volume 1602.283830
_symmetry_space_group_name_H-M "C M"
_symmetry_group_IT_number 8
_symmetry_cell_setting 'monoclinic'
loop_
_space_group_symop_operation_xyz
x,y,z
x,-y,z
1/2+x,1/2+y,z
1/2+x,1/2-y,z
loop_
_atom_site_type_symbol
_atom_site_label
_atom_site_fract_x
_atom_site_fract_y
_atom_site_fract_z
Si Si1 0.864840 0.819193 0.757360
Si Si2 0.527389 0.177905 0.612095
Si Si3 0.353510 0.320244 0.618123
Si Si4 0.522727 0.177203 0.361120
Si Si5 0.693288 0.326363 0.356695
Si Si6 0.193220 0.320873 0.148271
Si Si7 0.987936 0.824239 0.124080
Si Si8 0.190053 0.180115 0.017213
O O1 0.697913 0.751052 0.688084
O O2 0.887212 0.755525 0.703677
O O3 0.018575 0.768094 0.887126
O O4 0.849611 0.000000 0.744313
O O5 0.485870 0.249461 0.651247
O O6 0.385559 0.212705 0.479918
O O7 0.548408 0.000000 0.635092
O O8 0.374710 0.500000 0.626584
O O9 0.167319 0.273623 0.490976
O O10 0.580399 0.211846 0.327957
O O11 0.360553 0.274348 0.280802
O O12 0.477465 0.000000 0.340057
O O13 0.656439 0.500000 0.356020
O O14 0.645843 0.305348 0.260214
O O15 0.167420 0.500000 0.135545
O O16 0.038668 0.241087 0.089778
O O17 0.206049 0.266617 0.088380
O O18 0.935372 0.000000 0.086875
O O19 0.834684 0.728578 0.058027
O O20 0.197320 0.000000 0.032573
#
# Coordination Sequence:
#
# PCOD8053090 Si02
#       8
#     4   4   4   4   4   4   4   4
#     4   9  20  38  62  86 114 155 197 237 288 351
#     4   9  18  35  58  85 117 153 191 235 288 346
#     4   9  19  36  58  86 119 153 190 237 292 350
#     4  10  19  33  59  88 121 156 192 240 297 356
#     4   9  18  33  58  86 120 155 190 238 295 353
#     4  12  25  40  59  86 120 160 202 249 299 351
#     4  11  23  39  61  90 119 157 200 245 299 357
#     4  11  23  42  63  87 120 159 202 249 296 350
#
# _framework density 19.971492000000001
#
# number of rings (size 3 to 8) (size 9 to 14) (size 15 to 20)
#    0.000    2.000    1.250    2.250    1.750    2.000 
#    0.000    5.625    0.000    0.000    0.000    0.000 
#    0.000    0.000    0.000    0.000    0.000    0.000 
#
# Total GULP energy -198427.893375 kJ/mol
# GULP energy per Si atom -12401.743336 kJ/mol
# Density = 1.992604 g / cm^3
# Si number density = 19.971492 Si / 1000 Ang^3
#
#
#
# Elastic Constant Matrix: (Units=GPa)
#
#
# Indices 1 2 3 4 5 6 
#
# 1 99.8831 13.7740 43.6949 0.0000 15.9003 0.0000
# 2 13.7740 49.5710 22.6887 0.0000 -0.1555 0.0000
# 3 43.6949 22.6887 100.9162 -0.0009 13.8511 0.0000
# 4 0.0000 0.0000 -0.0009 20.1124 0.0001 3.7777
# 5 15.9003 -0.1555 13.8511 0.0001 27.2200 0.0000
# 6 0.0000 0.0000 0.0000 3.7777 0.0000 32.9557
#
#
#
# Elastic Compliance Matrix: (Units=1/GPa)
#
#
# Indices 1 2 3 4 5 6 
#
# 1 0.013077 -0.001552 -0.004584 0.000000 -0.005315 0.000000
# 2 -0.001552 0.022887 -0.004962 0.000000 0.003563 0.000000
# 3 -0.004584 -0.004962 0.013595 0.000001 -0.004269 0.000000
# 4 0.000000 0.000000 0.000001 0.050815 0.000000 -0.005825
# 5 -0.005315 0.003563 -0.004269 0.000000 0.042035 0.000000
# 6 0.000000 0.000000 0.000000 -0.005825 0.000000 0.031011
#
#
# Mechanical properties :
#
#
# Convention : Reuss Voigt Hill
#
# Bulk Modulus (GPa) = 36.54622 45.63173 41.08897
# Shear Modulus (GPa) = 24.42140 27.40513 25.91326
#
# Velocity S-wave (km/s) = 3.50067 3.70836 3.60601
# Velocity P-wave (km/s) = 5.88884 6.42136 6.16086
#
# Compressibility (1/GPa) = 0.02736261
#
# Stress axis : x y z
#
# Youngs Moduli (GPa) = 76.46982 43.69307 73.55403
#
# Poissons Ratio (x) = 0.06783 0.33714
# Poissons Ratio (y) = 0.11871 0.36501
# Poissons Ratio (z) = 0.35050 0.21682
#
# Static dielectric constant tensor:
#      x y z
#    x 3.630360 0.000000 0.033650 
#    y 0.000000 3.486580 0.000000 
#    z 0.033650 0.000000 3.789040 
# 
# 
# High freq. dielectric constant tensor:
#      x y z
#    x 1.780870 0.000000 0.003760 
#    y 0.000000 1.765090 0.000000 
#    z 0.003760 0.000000 1.778930 
# 
# From -- ./inp_files/31986.got.cif
#   From: 2010.03.12/outbox.cif.g09.slc.cpg/sg8_16_cif.got.tgz:31986.got - 2010.03.31 10:45:26.
