data_PCOD8053763
_publ_section_title
;
Structure prediction by ZEFSAII (Michael W. Deem and Ramdas Pophale) SiO2 
 PCOD8053763
Probable space group: C M
;
_chemical_formula_sum "Si O2"
_cell_formula_units_Z 28
_cell_length_a 14.945835
_cell_length_b 9.097405
_cell_length_c 11.188573
_cell_angle_alpha 90.000000
_cell_angle_beta 64.043774
_cell_angle_gamma 90.000000
_cell_volume 1367.836765
_symmetry_space_group_name_H-M "C M"
_symmetry_group_IT_number 8
_symmetry_cell_setting 'monoclinic'
loop_
_space_group_symop_operation_xyz
x,y,z
x,-y,z
1/2+x,1/2+y,z
1/2+x,1/2-y,z
loop_
_atom_site_type_symbol
_atom_site_label
_atom_site_fract_x
_atom_site_fract_y
_atom_site_fract_z
Si Si1 0.480220 0.164299 0.206660
Si Si2 0.821928 0.665375 0.775161
Si Si3 0.105932 0.176070 0.958589
Si Si4 0.608467 0.665770 0.524849
Si Si5 0.513960 0.176383 0.793181
Si Si6 0.798213 0.836840 0.348307
Si Si7 0.423731 0.256892 0.483032
O O1 0.379038 0.247054 0.221556
O O2 0.479432 0.153501 0.352511
O O3 0.484831 0.000000 0.150445
O O4 0.574271 0.261231 0.106822
O O5 0.806121 0.500000 0.824659
O O6 0.714977 0.740333 0.860621
O O7 0.857453 0.667942 0.616965
O O8 0.905911 0.733136 0.812171
O O9 0.028798 0.250442 0.912451
O O10 0.097957 0.000000 0.959307
O O11 0.640475 0.500000 0.540591
O O12 0.594360 0.760200 0.653116
O O13 0.696735 0.744789 0.401735
O O14 0.509186 0.653935 0.502364
O O15 0.523130 0.000000 0.790665
O O16 0.844733 0.856194 0.455476
O O17 0.779595 0.000000 0.306827
#
# Coordination Sequence:
#
# PCOD8053763 Si02
#       7
#     4   4   4   4   4   4   4
#     4  10  22  40  62  86 119 160 200 245 300 357
#     4   9  19  37  61  88 114 152 197 241 294 348
#     4  11  22  39  62  86 119 158 198 247 300 356
#     4  11  21  36  60  91 122 156 197 245 303 355
#     4  10  21  38  59  86 119 155 200 249 294 350
#     4  10  21  37  57  86 118 153 196 243 294 348
#     4   9  21  37  63  87 121 152 198 246 295 348
#
# _framework density 20.470279000000001
#
# number of rings (size 3 to 8) (size 9 to 14) (size 15 to 20)
#    0.857    1.143    0.000    3.857    0.000    2.857 
#    2.571    7.857    0.000    0.000    0.000    0.000 
#    0.000    0.000    0.000    0.000    0.000    0.000 
#
# Total GULP energy -173457.926150 kJ/mol
# GULP energy per Si atom -12389.851868 kJ/mol
# Density = 2.042369 g / cm^3
# Si number density = 20.470279 Si / 1000 Ang^3
#
#
#
# Elastic Constant Matrix: (Units=GPa)
#
#
# Indices 1 2 3 4 5 6 
#
# 1 76.4987 30.0699 42.1956 0.0000 -17.2790 0.0000
# 2 30.0699 136.8061 37.3466 0.0000 -14.4758 0.0000
# 3 42.1956 37.3466 122.9980 0.0000 -25.1471 0.0000
# 4 0.0000 0.0000 0.0000 31.4637 0.0000 -2.3833
# 5 -17.2790 -14.4758 -25.1471 0.0000 27.3989 0.0000
# 6 0.0000 0.0000 0.0000 -2.3833 0.0000 23.2614
#
#
#
# Elastic Compliance Matrix: (Units=1/GPa)
#
#
# Indices 1 2 3 4 5 6 
#
# 1 0.017565 -0.002079 -0.004129 0.000000 0.006189 0.000000
# 2 -0.002079 0.008352 -0.001463 0.000000 0.001759 0.000000
# 3 -0.004129 -0.001463 0.011449 0.000000 0.007131 0.000000
# 4 0.000000 0.000000 0.000000 0.032031 0.000000 0.003282
# 5 0.006189 0.001759 0.007131 0.000000 0.047875 0.000000
# 6 0.000000 0.000000 0.000000 0.003282 0.000000 0.043326
#
#
# Mechanical properties :
#
#
# Convention : Reuss Voigt Hill
#
# Bulk Modulus (GPa) = 45.40604 61.72522 53.56563
# Shear Modulus (GPa) = 27.28044 31.53751 29.40897
#
# Velocity S-wave (km/s) = 3.65456 3.92937 3.79445
# Velocity P-wave (km/s) = 6.32750 7.12781 6.73954
#
# Compressibility (1/GPa) = 0.02202350
#
# Stress axis : x y z
#
# Youngs Moduli (GPa) = 56.93219 119.73087 87.34367
#
# Poissons Ratio (x) = 0.24887 0.36066
# Poissons Ratio (y) = 0.11834 0.12781
# Poissons Ratio (z) = 0.23509 0.17520
#
# Static dielectric constant tensor:
#      x y z
#    x 3.668010 0.000000 -0.220780 
#    y 0.000000 3.456010 0.000000 
#    z -0.220780 0.000000 3.637560 
# 
# 
# High freq. dielectric constant tensor:
#      x y z
#    x 1.790840 0.000000 -0.016720 
#    y 0.000000 1.792090 0.000000 
#    z -0.016720 0.000000 1.791240 
# 
# From -- ./inp_files/21469.got.cif
#   From: 2010.03.12/outbox.cif.g09.slc.cpg/sg8_11_cif.got.tgz:21469.got - 2010.03.31 10:45:26.
