data_PCOD8053194
_publ_section_title
;
Structure prediction by ZEFSAII (Michael W. Deem and Ramdas Pophale) SiO2 
 PCOD8053194
Probable space group: C M
;
_chemical_formula_sum "Si O2"
_cell_formula_units_Z 32
_cell_length_a 22.943985
_cell_length_b 14.268613
_cell_length_c 9.047734
_cell_angle_alpha 90.000000
_cell_angle_beta 143.022898
_cell_angle_gamma 90.000000
_cell_volume 1781.652638
_symmetry_space_group_name_H-M "C M"
_symmetry_group_IT_number 8
_symmetry_cell_setting 'monoclinic'
loop_
_space_group_symop_operation_xyz
x,y,z
x,-y,z
1/2+x,1/2+y,z
1/2+x,1/2-y,z
loop_
_atom_site_type_symbol
_atom_site_label
_atom_site_fract_x
_atom_site_fract_y
_atom_site_fract_z
Si Si1 0.201550 0.271138 0.796370
Si Si2 0.724101 0.760745 0.495205
Si Si3 0.578132 0.107664 0.043901
Si Si4 0.555172 0.106647 0.656488
Si Si5 0.179884 0.894852 0.945479
Si Si6 0.864080 0.288855 0.317927
Si Si7 0.424700 0.261637 0.754189
Si Si8 0.098616 0.107832 0.097999
O O1 0.207739 0.266086 0.635169
O O2 0.139111 0.361275 0.715135
O O3 0.147552 0.177754 0.751610
O O4 0.309387 0.277510 0.087404
O O5 0.671496 0.848362 0.311429
O O6 0.837902 0.766818 0.694324
O O7 0.684045 0.662034 0.355194
O O8 0.565787 0.000000 0.067837
O O9 0.594930 0.117664 0.903048
O O10 0.481068 0.163432 0.892431
O O11 0.459805 0.168854 0.437603
O O12 0.528876 0.000000 0.566121
O O13 0.170700 0.000000 0.865338
O O14 0.291765 0.874082 0.217934
O O15 0.111849 0.879998 0.949264
O O16 0.886630 0.228985 0.509602
O O17 0.495248 0.348552 0.931553
O O18 0.102448 0.000000 0.154982
#
# Coordination Sequence:
#
# PCOD8053194 Si02
#       8
#     4   4   4   4   4   4   4   4
#     4  10  22  34  53  82 116 146 175 219 274 326
#     4  11  21  37  54  79 115 151 175 217 270 330
#     4   9  20  36  59  84 106 136 185 232 272 313
#     4  10  19  36  60  84 105 139 184 231 270 315
#     4   9  17  34  56  79 106 135 178 226 268 308
#     4   9  18  33  57  80 110 134 179 226 270 311
#     4  10  19  35  58  81 110 140 184 225 271 317
#     4  10  21  37  58  83 106 141 185 230 268 316
#
# _framework density 17.960851999999999
#
# number of rings (size 3 to 8) (size 9 to 14) (size 15 to 20)
#    0.750    1.500    1.250    3.375    0.000    4.500 
#    0.000    0.625    0.000    0.750    0.000    0.000 
#    0.000    0.000    0.000    0.000    0.000    0.000 
#
# Total GULP energy -198367.993388 kJ/mol
# GULP energy per Si atom -12397.999587 kJ/mol
# Density = 1.791997 g / cm^3
# Si number density = 17.960852 Si / 1000 Ang^3
#
#
#
# Elastic Constant Matrix: (Units=GPa)
#
#
# Indices 1 2 3 4 5 6 
#
# 1 112.5940 41.6334 47.6595 0.0000 9.3734 0.0000
# 2 41.6334 87.7544 35.3729 0.0000 9.3714 0.0000
# 3 47.6595 35.3729 57.2476 0.0000 15.7085 0.0000
# 4 0.0000 0.0000 0.0000 15.1521 0.0000 2.4432
# 5 9.3734 9.3714 15.7085 0.0000 24.5042 0.0000
# 6 0.0000 0.0000 0.0000 2.4432 0.0000 17.3635
#
#
#
# Elastic Compliance Matrix: (Units=1/GPa)
#
#
# Indices 1 2 3 4 5 6 
#
# 1 0.014284 -0.002628 -0.010975 0.000000 0.002577 0.000000
# 2 -0.002628 0.015660 -0.007427 0.000000 -0.000222 0.000000
# 3 -0.010975 -0.007427 0.035509 0.000000 -0.015724 0.000000
# 4 0.000000 0.000000 0.000000 0.067529 0.000000 -0.009502
# 5 0.002577 -0.000222 -0.015724 0.000000 0.049989 0.000000
# 6 0.000000 0.000000 0.000000 -0.009502 0.000000 0.058929
#
#
# Mechanical properties :
#
#
# Convention : Reuss Voigt Hill
#
# Bulk Modulus (GPa) = 42.74907 56.32529 49.53718
# Shear Modulus (GPa) = 17.13747 20.26599 18.70173
#
# Velocity S-wave (km/s) = 3.09229 3.36272 3.23034
# Velocity P-wave (km/s) = 6.05001 6.81948 6.44624
#
# Compressibility (1/GPa) = 0.02339232
#
# Stress axis : x y z
#
# Youngs Moduli (GPa) = 70.00668 63.85758 28.16217
#
# Poissons Ratio (x) = 0.16783 0.30908
# Poissons Ratio (y) = 0.18399 0.20916
# Poissons Ratio (z) = 0.76832 0.47427
#
# Static dielectric constant tensor:
#      x y z
#    x 3.142100 0.000000 0.121310 
#    y 0.000000 3.281950 0.000000 
#    z 0.121310 0.000000 3.218520 
# 
# 
# High freq. dielectric constant tensor:
#      x y z
#    x 1.685620 0.000000 0.010520 
#    y 0.000000 1.688880 0.000000 
#    z 0.010520 0.000000 1.685920 
# 
# From -- ./inp_files/13113.got.cif
#   From: 2010.03.12/outbox.cif.g09.slc.cpg/sg8_7_cif.got.tgz:13113.got - 2010.03.31 10:45:26.
