data_PCOD8053055
_publ_section_title
;
Structure prediction by ZEFSAII (Michael W. Deem and Ramdas Pophale) SiO2 
 PCOD8053055
Probable space group: C M
;
_chemical_formula_sum "Si O2"
_cell_formula_units_Z 32
_cell_length_a 27.409380
_cell_length_b 8.853170
_cell_length_c 20.718971
_cell_angle_alpha 90.000000
_cell_angle_beta 160.929267
_cell_angle_gamma 90.000000
_cell_volume 1642.714477
_symmetry_space_group_name_H-M "C M"
_symmetry_group_IT_number 8
_symmetry_cell_setting 'monoclinic'
loop_
_space_group_symop_operation_xyz
x,y,z
x,-y,z
1/2+x,1/2+y,z
1/2+x,1/2-y,z
loop_
_atom_site_type_symbol
_atom_site_label
_atom_site_fract_x
_atom_site_fract_y
_atom_site_fract_z
Si Si1 0.196700 0.178945 0.423870
Si Si2 0.349108 0.179799 0.745216
Si Si3 0.184621 0.679808 0.165828
Si Si4 0.847038 0.820662 0.242150
Si Si5 0.860720 0.823855 0.511274
Si Si6 0.207748 0.824765 0.944148
Si Si7 0.682207 0.679845 0.662331
Si Si8 0.874232 0.678878 0.022952
O O1 0.264972 0.238641 0.576460
O O2 0.307811 0.230989 0.506831
O O3 0.184451 0.000000 0.407773
O O4 0.033957 0.247549 0.211563
O O5 0.264184 0.244052 0.701494
O O6 0.352655 0.000000 0.750567
O O7 0.516906 0.244179 0.956740
O O8 0.186029 0.500000 0.165921
O O9 0.264815 0.744555 0.202444
O O10 0.270636 0.737048 0.336731
O O11 0.014645 0.755426 0.452240
O O12 0.849162 0.000000 0.246019
O O13 0.759609 0.770113 0.069809
O O14 0.034098 0.793224 0.714191
O O15 0.828603 0.000000 0.483500
O O16 0.301564 0.769566 0.999500
O O17 0.237108 0.000000 0.994590
O O18 0.679946 0.500000 0.658448
O O19 0.766861 0.737815 0.831756
O O20 0.892799 0.500000 0.042821
#
# Coordination Sequence:
#
# PCOD8053055 Si02
#       8
#     4   4   4   4   4   4   4   4
#     4  11  22  35  53  81 112 139 174 222 274 323
#     4   9  17  29  47  73 102 129 164 214 262 303
#     4   9  17  31  53  77  98 129 177 222 256 299
#     4  10  19  33  55  79 103 136 178 222 264 308
#     4  10  20  36  57  79 106 142 182 222 263 313
#     4  10  21  35  53  81 113 142 174 216 270 326
#     4   9  17  31  53  77  98 129 177 222 256 299
#     4  10  20  36  57  79 106 142 182 222 263 313
#
# _framework density 19.479952999999998
#
# number of rings (size 3 to 8) (size 9 to 14) (size 15 to 20)
#    0.000    2.250    0.000    3.375    0.000    8.000 
#    0.000    1.250    0.000   10.500    0.000    0.000 
#    0.000    0.000    0.000    0.000    0.000    0.000 
#
# Total GULP energy -198438.035332 kJ/mol
# GULP energy per Si atom -12402.377208 kJ/mol
# Density = 1.943562 g / cm^3
# Si number density = 19.479953 Si / 1000 Ang^3
#
#
#
# Elastic Constant Matrix: (Units=GPa)
#
#
# Indices 1 2 3 4 5 6 
#
# 1 139.8702 15.0552 37.7102 0.0000 -1.8909 0.0000
# 2 15.0552 17.7461 13.8248 0.0000 -1.8187 0.0000
# 3 37.7102 13.8248 122.5582 0.0000 -2.7079 0.0000
# 4 0.0000 0.0000 0.0000 17.3059 0.0000 -3.4008
# 5 -1.8909 -1.8187 -2.7079 0.0000 46.3802 0.0000
# 6 0.0000 0.0000 0.0000 -3.4008 0.0000 23.2454
#
#
#
# Elastic Compliance Matrix: (Units=1/GPa)
#
#
# Indices 1 2 3 4 5 6 
#
# 1 0.008260 -0.005511 -0.001920 0.000000 0.000009 0.000000
# 2 -0.005511 0.065646 -0.005665 0.000000 0.002019 0.000000
# 3 -0.001920 -0.005665 0.009395 0.000000 0.000248 0.000000
# 4 0.000000 0.000000 0.000000 0.059494 0.000000 0.008704
# 5 0.000009 0.002019 0.000248 0.000000 0.021655 0.000000
# 6 0.000000 0.000000 0.000000 0.008704 0.000000 0.044293
#
#
# Mechanical properties :
#
#
# Convention : Reuss Voigt Hill
#
# Bulk Modulus (GPa) = 17.51028 45.92833 31.71930
# Shear Modulus (GPa) = 19.68732 31.62524 25.65628
#
# Velocity S-wave (km/s) = 3.18251 4.03361 3.63307
# Velocity P-wave (km/s) = 4.74478 6.73214 5.82386
#
# Compressibility (1/GPa) = 0.05710931
#
# Stress axis : x y z
#
# Youngs Moduli (GPa) = 121.05914 15.23325 106.44469
#
# Poissons Ratio (x) = 0.08396 0.20435
# Poissons Ratio (y) = 0.66721 0.60296
# Poissons Ratio (z) = 0.23241 0.08629
#
# Static dielectric constant tensor:
#      x y z
#    x 3.792940 0.000000 0.034010 
#    y 0.000000 3.083110 0.000000 
#    z 0.034010 0.000000 3.766540 
# 
# 
# High freq. dielectric constant tensor:
#      x y z
#    x 1.778720 0.000000 0.001270 
#    y 0.000000 1.707420 0.000000 
#    z 0.001270 0.000000 1.778650 
# 
# From -- ./inp_files/30138.got.cif
#   From: 2010.03.12/outbox.cif.g09.slc.cpg/sg8_16_cif.got.tgz:30138.got - 2010.03.31 10:45:26.
