data_PCOD8053635
_publ_section_title
;
Structure prediction by ZEFSAII (Michael W. Deem and Ramdas Pophale) SiO2 
 PCOD8053635
Probable space group: C M
;
_chemical_formula_sum "Si O2"
_cell_formula_units_Z 24
_cell_length_a 16.584901
_cell_length_b 15.731717
_cell_length_c 8.744936
_cell_angle_alpha 90.000000
_cell_angle_beta 29.466073
_cell_angle_gamma 90.000000
_cell_volume 1122.353385
_symmetry_space_group_name_H-M "C M"
_symmetry_group_IT_number 8
_symmetry_cell_setting 'monoclinic'
loop_
_space_group_symop_operation_xyz
x,y,z
x,-y,z
1/2+x,1/2+y,z
1/2+x,1/2-y,z
loop_
_atom_site_type_symbol
_atom_site_label
_atom_site_fract_x
_atom_site_fract_y
_atom_site_fract_z
Si Si1 0.111430 0.166023 0.261340
Si Si2 0.737682 0.823785 0.884029
Si Si3 0.248089 0.000000 0.873763
Si Si4 0.511551 0.819595 0.966650
Si Si5 0.635582 0.668416 0.580769
Si Si6 0.597272 0.000000 0.178076
Si Si7 0.985932 0.500000 0.015547
Si Si8 0.138263 0.000000 0.707924
O O1 0.122833 0.155305 0.422849
O O2 0.923783 0.175587 0.517454
O O3 0.214079 0.249114 0.045679
O O4 0.188887 0.083520 0.057131
O O5 0.621085 0.801687 0.934008
O O6 0.702558 0.913944 0.025749
O O7 0.175301 0.000000 0.824785
O O8 0.445577 0.000000 0.546019
O O9 0.536166 0.751947 0.792871
O O10 0.555496 0.913632 0.824098
O O11 0.322119 0.820611 0.331965
O O12 0.547994 0.588254 0.812183
O O13 0.532765 0.000000 0.114366
O O14 0.789947 0.500000 0.337372
#
# Coordination Sequence:
#
# PCOD8053635 Si02
#       8
#     4   4   2   4   4   2   2   2
#     4  12  24  38  60  92 125 157 196 249 304 351
#     4  11  22  40  62  90 121 159 202 245 292 360
#     4  11  22  40  64  89 116 162 206 243 296 360
#     4  10  20  38  61  83 115 159 198 237 289 354
#     4  11  22  39  59  87 120 153 192 247 300 348
#     4   9  19  37  62  88 115 148 200 252 289 340
#     4   7  16  34  58  83 108 142 190 239 282 336
#     4   9  19  37  60  82 111 152 196 236 287 354
#
# _framework density 21.383641000000001
#
# number of rings (size 3 to 8) (size 9 to 14) (size 15 to 20)
#    0.000    1.667    0.000    6.000    0.000    0.000 
#    0.000    1.667    0.000    2.000    0.000    0.000 
#    0.000    0.000    0.000    0.000    0.000    0.000 
#
# Total GULP energy -148771.710871 kJ/mol
# GULP energy per Si atom -12397.642573 kJ/mol
# Density = 2.133497 g / cm^3
# Si number density = 21.383641 Si / 1000 Ang^3
#
#
#
# Elastic Constant Matrix: (Units=GPa)
#
#
# Indices 1 2 3 4 5 6 
#
# 1 67.2466 23.4393 6.8933 0.0008 14.3538 -0.0010
# 2 23.4393 215.5445 61.1926 0.0011 24.8565 -0.0012
# 3 6.8933 61.1926 88.4632 0.0009 0.5616 -0.0009
# 4 0.0008 0.0011 0.0009 44.1263 -0.0004 9.8163
# 5 14.3538 24.8565 0.5616 -0.0004 37.6730 0.0005
# 6 -0.0010 -0.0012 -0.0009 9.8163 0.0005 14.6894
#
#
#
# Elastic Compliance Matrix: (Units=1/GPa)
#
#
# Indices 1 2 3 4 5 6 
#
# 1 0.016471 -0.000982 -0.000569 -0.000001 -0.005619 0.000002
# 2 -0.000982 0.006415 -0.004337 0.000000 -0.003794 0.000000
# 3 -0.000569 -0.004337 0.014330 0.000000 0.002864 0.000001
# 4 -0.000001 0.000000 0.000000 0.026620 0.000001 -0.017789
# 5 -0.005619 -0.003794 0.002864 0.000001 0.031146 -0.000002
# 6 0.000002 0.000000 0.000001 -0.017789 -0.000002 0.079964
#
#
# Mechanical properties :
#
#
# Convention : Reuss Voigt Hill
#
# Bulk Modulus (GPa) = 39.30623 61.58943 50.44783
# Shear Modulus (GPa) = 25.61483 37.94633 31.78058
#
# Velocity S-wave (km/s) = 3.46478 4.21711 3.85932
# Velocity P-wave (km/s) = 5.86751 7.25098 6.59562
#
# Compressibility (1/GPa) = 0.02544126
#
# Stress axis : x y z
#
# Youngs Moduli (GPa) = 60.71453 155.88788 69.78293
#
# Poissons Ratio (x) = 0.15302 0.03969
# Poissons Ratio (y) = 0.05960 0.30263
# Poissons Ratio (z) = 0.03453 0.67605
#
# Static dielectric constant tensor:
#      x y z
#    x 3.598580 0.000000 -0.161730 
#    y 0.000000 4.520600 0.000000 
#    z -0.161730 0.000000 3.766050 
# 
# 
# High freq. dielectric constant tensor:
#      x y z
#    x 1.826340 0.000000 -0.004280 
#    y 0.000000 1.871460 0.000000 
#    z -0.004280 0.000000 1.816310 
# 
# From -- ./inp_files/7852.got.cif
#   From: 2010.03.12/outbox.cif.g09.slc.cpg/sg8_4_cif.got.tgz:7852.got - 2010.03.31 10:45:26.
