data_PCOD8053290
_publ_section_title
;
Structure prediction by ZEFSAII (Michael W. Deem and Ramdas Pophale) SiO2 
 PCOD8053290
Probable space group: C M
;
_chemical_formula_sum "Si O2"
_cell_formula_units_Z 32
_cell_length_a 9.841192
_cell_length_b 30.693806
_cell_length_c 4.897216
_cell_angle_alpha 90.000000
_cell_angle_beta 90.835185
_cell_angle_gamma 90.000000
_cell_volume 1479.113726
_symmetry_space_group_name_H-M "C M"
_symmetry_group_IT_number 8
_symmetry_cell_setting 'monoclinic'
loop_
_space_group_symop_operation_xyz
x,y,z
x,-y,z
1/2+x,1/2+y,z
1/2+x,1/2-y,z
loop_
_atom_site_type_symbol
_atom_site_label
_atom_site_fract_x
_atom_site_fract_y
_atom_site_fract_z
Si Si1 0.799880 0.615763 0.792600
Si Si2 0.474816 0.807309 0.752499
Si Si3 0.829807 0.273555 0.258239
Si Si4 0.647956 0.351783 0.304807
Si Si5 0.257968 0.681819 0.017165
Si Si6 0.694415 0.950312 0.415923
Si Si7 0.348469 0.633643 0.492792
Si Si8 0.010894 0.451382 0.923651
O O1 0.934958 0.642658 0.700156
O O2 0.712472 0.612646 0.513608
O O3 0.863939 0.571901 0.916348
O O4 0.692239 0.635321 0.003231
O O5 0.447997 0.776299 0.491632
O O6 0.372149 0.797326 0.988834
O O7 0.627682 0.801759 0.850928
O O8 0.698724 0.301452 0.364754
O O9 0.817755 0.223689 0.173132
O O10 0.486339 0.354801 0.335175
O O11 0.231103 0.650542 0.277096
O O12 0.349498 0.657809 0.787464
O O13 0.817734 0.918201 0.514978
O O14 0.573533 0.949203 0.627329
O O15 0.752536 0.000000 0.388199
O O16 0.624663 0.932776 0.135219
O O17 0.976951 0.500000 0.018435
#
# Coordination Sequence:
#
# PCOD8053290 Si02
#       8
#     4   4   4   4   4   4   4   4
#     4  10  19  38  61  87 117 162 201 249 303 374
#     4  10  21  39  62  85 114 154 206 251 312 361
#     4  10  23  42  59  87 118 159 201 263 316 359
#     4  10  23  40  62  83 126 165 203 250 311 375
#     4  12  25  40  65  91 120 161 214 269 305 378
#     4  10  21  38  62  94 131 163 203 263 319 367
#     4  12  24  41  62  94 123 172 213 255 312 387
#     4  10  20  36  64  97 127 156 202 266 316 365
#
# _framework density 21.634578000000001
#
# number of rings (size 3 to 8) (size 9 to 14) (size 15 to 20)
#    0.000    1.500    0.000    5.250    1.750    2.000 
#    6.750    1.250    0.000    0.000    0.000    0.000 
#    0.000    0.000    0.000    0.000    0.000    0.000 
#
# Total GULP energy -198226.503675 kJ/mol
# GULP energy per Si atom -12389.156480 kJ/mol
# Density = 2.158534 g / cm^3
# Si number density = 21.634578 Si / 1000 Ang^3
#
#
#
# Elastic Constant Matrix: (Units=GPa)
#
#
# Indices 1 2 3 4 5 6 
#
# 1 76.1898 38.7673 23.6175 0.0000 7.1996 0.0000
# 2 38.7673 112.4146 26.9023 0.0000 6.4583 0.0000
# 3 23.6175 26.9023 115.7803 0.0000 12.3860 0.0000
# 4 0.0000 0.0000 0.0000 33.9535 0.0000 6.4087
# 5 7.1996 6.4583 12.3860 0.0000 32.7626 0.0000
# 6 0.0000 0.0000 0.0000 6.4087 0.0000 26.9804
#
#
#
# Elastic Compliance Matrix: (Units=1/GPa)
#
#
# Indices 1 2 3 4 5 6 
#
# 1 0.016519 -0.005115 -0.001981 0.000000 -0.001873 0.000000
# 2 -0.005115 0.011040 -0.001469 0.000000 -0.000497 0.000000
# 3 -0.001981 -0.001469 0.009697 0.000000 -0.002941 0.000000
# 4 0.000000 0.000000 0.000000 0.030835 0.000000 -0.007324
# 5 -0.001873 -0.000497 -0.002941 0.000000 0.032144 0.000000
# 6 0.000000 0.000000 0.000000 -0.007324 0.000000 0.038804
#
#
# Mechanical properties :
#
#
# Convention : Reuss Voigt Hill
#
# Bulk Modulus (GPa) = 49.68532 53.66209 51.67371
# Shear Modulus (GPa) = 30.69837 33.07914 31.88875
#
# Velocity S-wave (km/s) = 3.77098 3.91448 3.84340
# Velocity P-wave (km/s) = 6.47888 6.72968 6.60547
#
# Compressibility (1/GPa) = 0.02012667
#
# Stress axis : x y z
#
# Youngs Moduli (GPa) = 60.53733 90.58286 103.12513
#
# Poissons Ratio (x) = 0.46334 0.20426
# Poissons Ratio (y) = 0.30965 0.15145
# Poissons Ratio (z) = 0.11991 0.13303
#
# Static dielectric constant tensor:
#      x y z
#    x 3.571160 0.000000 0.067870 
#    y 0.000000 4.002120 0.000000 
#    z 0.067870 0.000000 4.115810 
# 
# 
# High freq. dielectric constant tensor:
#      x y z
#    x 1.823430 0.000000 0.006180 
#    y 0.000000 1.840620 0.000000 
#    z 0.006180 0.000000 1.875850 
# 
# From -- ./inp_files/1992.got.cif
#   From: 2010.03.12/outbox.cif.g09.slc.cpg/sg8_1_cif.got.tgz:1992.got - 2010.03.31 10:45:26.
