data_PCOD8053853
_publ_section_title
;
Structure prediction by ZEFSAII (Michael W. Deem and Ramdas Pophale) SiO2 
 PCOD8053853
Probable space group: C M
;
_chemical_formula_sum "Si O2"
_cell_formula_units_Z 28
_cell_length_a 8.531318
_cell_length_b 26.727189
_cell_length_c 8.483869
_cell_angle_alpha 90.000000
_cell_angle_beta 136.031815
_cell_angle_gamma 90.000000
_cell_volume 1343.027117
_symmetry_space_group_name_H-M "C M"
_symmetry_group_IT_number 8
_symmetry_cell_setting 'monoclinic'
loop_
_space_group_symop_operation_xyz
x,y,z
x,-y,z
1/2+x,1/2+y,z
1/2+x,1/2-y,z
loop_
_atom_site_type_symbol
_atom_site_label
_atom_site_fract_x
_atom_site_fract_y
_atom_site_fract_z
Si Si1 0.841030 0.106121 0.093690
Si Si2 0.387207 0.943496 0.765200
Si Si3 0.005256 0.130705 0.537852
Si Si4 0.208296 0.204649 0.910321
Si Si5 0.784413 0.556363 0.332535
Si Si6 0.278047 0.691519 0.806719
Si Si7 0.541683 0.145186 0.357436
O O1 0.952855 0.138252 0.315552
O O2 0.016345 0.064902 0.156675
O O3 0.619231 0.078916 0.001830
O O4 0.771356 0.141768 0.903074
O O5 0.169769 0.916444 0.682041
O O6 0.402090 0.938615 0.587267
O O7 0.364685 0.000000 0.805903
O O8 0.135452 0.179713 0.692649
O O9 0.779143 0.121822 0.474513
O O10 0.232590 0.262806 0.890796
O O11 0.023186 0.198684 0.910914
O O12 0.434513 0.178370 0.139713
O O13 0.821627 0.500000 0.292329
O O14 0.884249 0.598217 0.287846
O O15 0.084896 0.683492 0.534320
#
# Coordination Sequence:
#
# PCOD8053853 Si02
#       7
#     4   4   4   4   4   4   4
#     4  11  21  42  66  95 129 170 214 271 317 390
#     4  10  21  40  67  97 129 171 218 265 320 383
#     4  10  25  41  64  93 137 164 215 262 325 385
#     4  11  26  43  63  98 129 174 215 268 328 388
#     4  10  21  39  67  96 128 170 216 266 327 389
#     4  11  26  40  68  92 128 171 219 264 329 381
#     4  11  23  45  63  97 136 168 216 270 324 392
#
# _framework density 20.848424999999999
#
# number of rings (size 3 to 8) (size 9 to 14) (size 15 to 20)
#    0.000    1.429    2.857    1.286    6.000    2.286 
#    0.000    2.143    0.000    0.000    0.000    0.000 
#    0.000    0.000    0.000    0.000    0.000    0.000 
#
# Total GULP energy -173635.763306 kJ/mol
# GULP energy per Si atom -12402.554522 kJ/mol
# Density = 2.080097 g / cm^3
# Si number density = 20.848425 Si / 1000 Ang^3
#
#
#
# Elastic Constant Matrix: (Units=GPa)
#
#
# Indices 1 2 3 4 5 6 
#
# 1 73.7845 33.3961 26.6664 0.0000 18.7054 0.0000
# 2 33.3961 114.0074 36.9750 0.0000 8.3702 0.0000
# 3 26.6664 36.9750 106.6911 0.0000 14.2413 0.0000
# 4 0.0000 0.0000 0.0000 23.8738 0.0000 6.8168
# 5 18.7054 8.3702 14.2413 0.0000 31.8684 0.0000
# 6 0.0000 0.0000 0.0000 6.8168 0.0000 21.6075
#
#
#
# Elastic Compliance Matrix: (Units=1/GPa)
#
#
# Indices 1 2 3 4 5 6 
#
# 1 0.018356 -0.004082 -0.001997 0.000000 -0.008809 0.000000
# 2 -0.004082 0.010829 -0.002842 0.000000 0.000822 0.000000
# 3 -0.001997 -0.002842 0.011273 0.000000 -0.003119 0.000000
# 4 0.000000 0.000000 0.000000 0.046034 0.000000 -0.014523
# 5 -0.008809 0.000822 -0.003119 0.000000 0.037728 0.000000
# 6 0.000000 0.000000 0.000000 -0.014523 0.000000 0.050862
#
#
# Mechanical properties :
#
#
# Convention : Reuss Voigt Hill
#
# Bulk Modulus (GPa) = 44.21988 54.28423 49.25205
# Shear Modulus (GPa) = 24.94230 28.63297 26.78763
#
# Velocity S-wave (km/s) = 3.46260 3.70995 3.58841
# Velocity P-wave (km/s) = 6.10265 6.66676 6.39093
#
# Compressibility (1/GPa) = 0.02261426
#
# Stress axis : x y z
#
# Youngs Moduli (GPa) = 54.47850 92.34762 88.70479
#
# Poissons Ratio (x) = 0.37701 0.17716
# Poissons Ratio (y) = 0.22241 0.25211
# Poissons Ratio (z) = 0.10880 0.26247
#
# Static dielectric constant tensor:
#      x y z
#    x 3.641880 0.000000 0.101640 
#    y 0.000000 3.820290 0.000000 
#    z 0.101640 0.000000 3.945360 
# 
# 
# High freq. dielectric constant tensor:
#      x y z
#    x 1.811100 0.000000 0.008110 
#    y 0.000000 1.812680 0.000000 
#    z 0.008110 0.000000 1.827530 
# 
# From -- ./inp_files/1860.got.cif
#   From: 2010.03.12/outbox.cif.g09.slc.cpg/sg8_1_cif.got.tgz:1860.got - 2010.03.31 10:45:26.
