data_PCOD8053716
_publ_section_title
;
Structure prediction by ZEFSAII (Michael W. Deem and Ramdas Pophale) SiO2 
 PCOD8053716
Probable space group: C M
;
_chemical_formula_sum "Si O2"
_cell_formula_units_Z 32
_cell_length_a 14.403199
_cell_length_b 8.996303
_cell_length_c 29.000580
_cell_angle_alpha 90.000000
_cell_angle_beta 28.217206
_cell_angle_gamma 90.000000
_cell_volume 1776.729580
_symmetry_space_group_name_H-M "C M"
_symmetry_group_IT_number 8
_symmetry_cell_setting 'monoclinic'
loop_
_space_group_symop_operation_xyz
x,y,z
x,-y,z
1/2+x,1/2+y,z
1/2+x,1/2-y,z
loop_
_atom_site_type_symbol
_atom_site_label
_atom_site_fract_x
_atom_site_fract_y
_atom_site_fract_z
Si Si1 0.163380 0.832395 0.986840
Si Si2 0.776459 0.673612 0.132323
Si Si3 0.861319 0.824772 0.469464
Si Si4 0.317489 0.165318 0.013244
Si Si5 0.963293 0.325184 0.333124
Si Si6 0.933731 0.326582 0.625796
Si Si7 0.032775 0.825171 0.491388
Si Si8 0.032428 0.174431 0.847416
O O1 0.142504 0.836386 0.051921
O O2 0.378582 0.762073 0.881325
O O3 0.146231 0.000000 0.973930
O O4 0.001308 0.722567 0.038235
O O5 0.752056 0.500000 0.154556
O O6 0.641887 0.769131 0.224376
O O7 0.721579 0.714161 0.103551
O O8 0.979640 0.747892 0.376282
O O9 0.631898 0.780240 0.566062
O O10 0.947332 0.765103 0.480301
O O11 0.893047 0.000000 0.451106
O O12 0.491760 0.274440 0.918427
O O13 0.409117 0.000000 0.978712
O O14 0.980873 0.500000 0.331570
O O15 0.761248 0.279600 0.396049
O O16 0.933374 0.500000 0.615228
O O17 0.912384 0.245771 0.586101
O O18 0.752220 0.279625 0.737373
O O19 0.003758 0.000000 0.507373
O O20 0.996813 0.000000 0.858158
#
# Coordination Sequence:
#
# PCOD8053716 Si02
#       8
#     4   4   4   4   4   4   4   4
#     4   9  19  36  53  75 104 137 176 220 261 308
#     4  11  21  36  56  78 104 141 178 217 268 317
#     4   9  18  36  56  77 105 138 174 216 260 312
#     4   8  19  36  52  73 105 139 175 217 261 306
#     4  10  21  35  52  78 107 136 173 219 263 313
#     4   9  18  33  54  78 108 139 173 214 261 311
#     4   9  19  35  55  78 105 136 176 217 259 311
#     4   9  17  33  54  77 108 144 177 216 263 310
#
# _framework density 18.010618999999998
#
# number of rings (size 3 to 8) (size 9 to 14) (size 15 to 20)
#    0.750    2.000    0.000    1.125    0.000    4.000 
#    2.250    2.500    0.000    0.000    0.000    0.000 
#    0.000    0.000    0.000    0.000    0.000    0.000 
#
# Total GULP energy -198294.021243 kJ/mol
# GULP energy per Si atom -12393.376328 kJ/mol
# Density = 1.796963 g / cm^3
# Si number density = 18.010619 Si / 1000 Ang^3
#
#
#
# Elastic Constant Matrix: (Units=GPa)
#
#
# Indices 1 2 3 4 5 6 
#
# 1 81.9050 22.3008 9.8776 0.0016 10.8380 -0.0001
# 2 22.3008 45.1667 22.0664 0.0005 5.6778 0.0007
# 3 9.8776 22.0664 63.7843 0.0020 4.3764 -0.0001
# 4 0.0016 0.0005 0.0020 30.8931 0.0003 1.0051
# 5 10.8380 5.6778 4.3764 0.0003 23.2850 -0.0001
# 6 -0.0001 0.0007 -0.0001 1.0051 -0.0001 24.4221
#
#
#
# Elastic Compliance Matrix: (Units=1/GPa)
#
#
# Indices 1 2 3 4 5 6 
#
# 1 0.014709 -0.006816 0.000442 -0.000001 -0.005267 0.000000
# 2 -0.006816 0.030348 -0.009273 0.000000 -0.002485 -0.000001
# 3 0.000442 -0.009273 0.018920 -0.000001 -0.001500 0.000000
# 4 -0.000001 0.000000 -0.000001 0.032413 0.000000 -0.001334
# 5 -0.005267 -0.002485 -0.001500 0.000000 0.046286 0.000000
# 6 0.000000 -0.000001 0.000000 -0.001334 0.000000 0.041001
#
#
# Mechanical properties :
#
#
# Convention : Reuss Voigt Hill
#
# Bulk Modulus (GPa) = 30.59731 33.26063 31.92897
# Shear Modulus (GPa) = 22.13692 24.82746 23.48219
#
# Velocity S-wave (km/s) = 3.50966 3.71683 3.61473
# Velocity P-wave (km/s) = 5.78351 6.07677 5.93195
#
# Compressibility (1/GPa) = 0.03268262
#
# Stress axis : x y z
#
# Youngs Moduli (GPa) = 67.98637 32.95073 52.85286
#
# Poissons Ratio (x) = 0.22459 -0.02334
# Poissons Ratio (y) = 0.46340 0.49011
# Poissons Ratio (z) = -0.03002 0.30556
#
# Static dielectric constant tensor:
#      x y z
#    x 3.356500 0.000000 0.046480 
#    y 0.000000 3.296750 0.000000 
#    z 0.046480 0.000000 3.225420 
# 
# 
# High freq. dielectric constant tensor:
#      x y z
#    x 1.688150 0.000000 0.002590 
#    y 0.000000 1.701950 0.000000 
#    z 0.002590 0.000000 1.685990 
# 
# From -- ./inp_files/26458.got.cif
#   From: 2010.03.12/outbox.cif.g09.slc.cpg/sg8_14_cif.got.tgz:26458.got - 2010.03.31 10:45:26.
