data_PCOD8053363
_publ_section_title
;
Structure prediction by ZEFSAII (Michael W. Deem and Ramdas Pophale) SiO2 
 PCOD8053363
Probable space group: C M
;
_chemical_formula_sum "Si O2"
_cell_formula_units_Z 32
_cell_length_a 12.818909
_cell_length_b 20.671484
_cell_length_c 9.162077
_cell_angle_alpha 90.000000
_cell_angle_beta 44.831846
_cell_angle_gamma 90.000000
_cell_volume 1711.682957
_symmetry_space_group_name_H-M "C M"
_symmetry_group_IT_number 8
_symmetry_cell_setting 'monoclinic'
loop_
_space_group_symop_operation_xyz
x,y,z
x,-y,z
1/2+x,1/2+y,z
1/2+x,1/2-y,z
loop_
_atom_site_type_symbol
_atom_site_label
_atom_site_fract_x
_atom_site_fract_y
_atom_site_fract_z
Si Si1 0.757430 0.689148 0.181300
Si Si2 0.742999 0.192622 0.393595
Si Si3 0.589400 0.679886 0.047756
Si Si4 0.782018 0.571750 0.351256
Si Si5 0.249334 0.925423 0.722275
Si Si6 0.079495 0.431159 0.894337
Si Si7 0.044958 0.427727 0.594616
Si Si8 0.608487 0.203568 0.828154
O O1 0.705144 0.757131 0.302421
O O2 0.706384 0.628515 0.332469
O O3 0.676928 0.677473 0.110274
O O4 0.933252 0.691819 0.986534
O O5 0.674800 0.122466 0.425197
O O6 0.674388 0.223544 0.607637
O O7 0.916364 0.184740 0.247965
O O8 0.617771 0.616600 0.921901
O O9 0.650504 0.742481 0.902277
O O10 0.712800 0.500000 0.388058
O O11 0.764141 0.590150 0.537435
O O12 0.955363 0.569076 0.141702
O O13 0.400556 0.905202 0.651253
O O14 0.210872 0.000000 0.789465
O O15 0.168710 0.500000 0.819003
O O16 0.006677 0.427243 0.804604
O O17 0.178829 0.366105 0.812163
O O18 0.094204 0.500000 0.496171
#
# Coordination Sequence:
#
# PCOD8053363 Si02
#       8
#     4   4   4   4   4   4   4   4
#     4  10  21  35  53  76 105 140 177 220 266 314
#     4  10  21  35  53  78 108 142 176 219 269 311
#     4  11  22  34  52  79 107 139 179 223 266 310
#     4   9  17  31  53  78 101 130 173 220 260 305
#     4  10  20  34  55  80 105 137 176 218 264 317
#     4   8  14  28  51  75  99 129 169 213 252 298
#     4   9  18  34  56  80 107 141 177 214 260 315
#     4   9  19  35  51  74 106 138 175 217 265 316
#
# _framework density 18.695052
#
# number of rings (size 3 to 8) (size 9 to 14) (size 15 to 20)
#    0.000    2.500    0.000    3.000    0.000    7.000 
#    0.000    0.000    0.000    0.000    0.000    8.750 
#    0.000    0.000    0.000    0.000    0.000    0.000 
#
# Total GULP energy -198293.489314 kJ/mol
# GULP energy per Si atom -12393.343082 kJ/mol
# Density = 1.865250 g / cm^3
# Si number density = 18.695052 Si / 1000 Ang^3
#
#
#
# Elastic Constant Matrix: (Units=GPa)
#
#
# Indices 1 2 3 4 5 6 
#
# 1 65.3315 40.2932 33.4969 0.0000 16.5222 0.0000
# 2 40.2932 132.2296 51.4293 0.0000 12.0889 0.0000
# 3 33.4969 51.4293 97.2203 0.0000 20.0268 0.0000
# 4 0.0000 0.0000 0.0000 31.4113 0.0000 2.2046
# 5 16.5222 12.0889 20.0268 0.0000 21.3241 0.0000
# 6 0.0000 0.0000 0.0000 2.2046 0.0000 24.7228
#
#
#
# Elastic Compliance Matrix: (Units=1/GPa)
#
#
# Indices 1 2 3 4 5 6 
#
# 1 0.022778 -0.004720 -0.002810 0.000000 -0.012333 0.000000
# 2 -0.004720 0.010512 -0.004290 0.000000 0.001727 0.000000
# 3 -0.002810 -0.004290 0.015590 0.000000 -0.010032 0.000000
# 4 0.000000 0.000000 0.000000 0.032036 0.000000 -0.002857
# 5 -0.012333 0.001727 -0.010032 0.000000 0.064894 0.000000
# 6 0.000000 0.000000 0.000000 -0.002857 0.000000 0.040703
#
#
# Mechanical properties :
#
#
# Convention : Reuss Voigt Hill
#
# Bulk Modulus (GPa) = 39.62265 60.58001 50.10133
# Shear Modulus (GPa) = 22.87629 26.79579 24.83604
#
# Velocity S-wave (km/s) = 3.50187 3.79001 3.64879
# Velocity P-wave (km/s) = 6.13115 7.18519 6.67899
#
# Compressibility (1/GPa) = 0.02523809
#
# Stress axis : x y z
#
# Youngs Moduli (GPa) = 43.90240 95.13267 64.14278
#
# Poissons Ratio (x) = 0.44905 0.18027
# Poissons Ratio (y) = 0.20723 0.27518
# Poissons Ratio (z) = 0.12339 0.40813
#
# Static dielectric constant tensor:
#      x y z
#    x 3.044860 0.000000 0.208380 
#    y 0.000000 4.037410 0.000000 
#    z 0.208380 0.000000 3.387380 
# 
# 
# High freq. dielectric constant tensor:
#      x y z
#    x 1.684690 0.000000 0.025580 
#    y 0.000000 1.755660 0.000000 
#    z 0.025580 0.000000 1.721820 
# 
# From -- ./inp_files/11430.got.cif
#   From: 2010.03.12/outbox.cif.g09.slc.cpg/sg8_6_cif.got.tgz:11430.got - 2010.03.31 10:45:26.
