data_PCOD8053910
_publ_section_title
;
Structure prediction by ZEFSAII (Michael W. Deem and Ramdas Pophale) SiO2 
 PCOD8053910
Probable space group: C M
;
_chemical_formula_sum "Si O2"
_cell_formula_units_Z 32
_cell_length_a 25.233511
_cell_length_b 8.801299
_cell_length_c 23.968439
_cell_angle_alpha 90.000000
_cell_angle_beta 17.812317
_cell_angle_gamma 90.000000
_cell_volume 1628.334618
_symmetry_space_group_name_H-M "C M"
_symmetry_group_IT_number 8
_symmetry_cell_setting 'monoclinic'
loop_
_space_group_symop_operation_xyz
x,y,z
x,-y,z
1/2+x,1/2+y,z
1/2+x,1/2-y,z
loop_
_atom_site_type_symbol
_atom_site_label
_atom_site_fract_x
_atom_site_fract_y
_atom_site_fract_z
Si Si1 0.027990 0.821330 0.092130
Si Si2 0.529765 0.680863 0.963805
Si Si3 0.226372 0.322039 0.191728
Si Si4 0.832654 0.821934 0.467984
Si Si5 0.838874 0.319585 0.578317
Si Si6 0.840944 0.172630 0.836758
Si Si7 0.723935 0.676901 0.468082
Si Si8 0.692024 0.825972 0.102708
O O1 0.878117 0.737337 0.275556
O O2 0.995295 0.000000 0.128756
O O3 0.217026 0.785009 0.927232
O O4 0.021529 0.760999 0.035260
O O5 0.525536 0.500000 0.965962
O O6 0.708606 0.738658 0.756726
O O7 0.366889 0.751473 0.092786
O O8 0.226441 0.500000 0.202564
O O9 0.280109 0.284356 0.073830
O O10 0.032647 0.258397 0.397972
O O11 0.774419 0.744276 0.583828
O O12 0.712916 0.762558 0.538023
O O13 0.029401 0.781956 0.254512
O O14 0.810369 0.000000 0.496538
O O15 0.838771 0.500000 0.573594
O O16 0.040579 0.205304 0.620616
O O17 0.788463 0.000000 0.874388
O O18 0.826376 0.198810 0.918062
O O19 0.755150 0.500000 0.448337
O O20 0.624396 0.000000 0.173034
#
# Coordination Sequence:
#
# PCOD8053910 Si02
#       8
#     4   4   4   4   4   4   4   4
#     4  11  23  39  59  88 123 155 190 245 301 344
#     4   9  19  34  57  84 110 147 194 234 281 341
#     4   8  15  29  52  82 109 137 182 234 276 325
#     4  11  21  34  55  86 122 153 182 235 302 352
#     4   9  18  34  57  81 109 149 191 235 279 337
#     4  10  22  38  60  86 112 154 204 243 284 345
#     4  11  23  39  60  85 113 156 205 242 284 347
#     4   9  17  33  58  84 112 149 192 238 285 341
#
# _framework density 19.651980999999999
#
# number of rings (size 3 to 8) (size 9 to 14) (size 15 to 20)
#    0.000    2.250    1.250    2.625    1.750    2.000 
#    0.000    3.750    0.000    7.500    0.000    0.000 
#    0.000    0.000    0.000    0.000    0.000    0.000 
#
# Total GULP energy -198376.544511 kJ/mol
# GULP energy per Si atom -12398.534032 kJ/mol
# Density = 1.960725 g / cm^3
# Si number density = 19.651981 Si / 1000 Ang^3
#
#
#
# Elastic Constant Matrix: (Units=GPa)
#
#
# Indices 1 2 3 4 5 6 
#
# 1 130.8864 18.6684 58.8493 0.0002 -6.2870 -0.0029
# 2 18.6684 46.4406 22.2607 -0.0276 -1.3182 0.0141
# 3 58.8493 22.2607 101.9477 -0.0209 -8.0205 0.0148
# 4 0.0002 -0.0276 -0.0209 13.5981 0.0104 0.8775
# 5 -6.2870 -1.3182 -8.0205 0.0104 26.1243 -0.0031
# 6 -0.0029 0.0141 0.0148 0.8775 -0.0031 23.4096
#
#
#
# Elastic Compliance Matrix: (Units=1/GPa)
#
#
# Indices 1 2 3 4 5 6 
#
# 1 0.010418 -0.001465 -0.005639 -0.000013 0.000702 0.000006
# 2 -0.001465 0.024260 -0.004492 0.000044 -0.000507 -0.000014
# 3 -0.005639 -0.004492 0.014265 0.000011 0.002796 -0.000007
# 4 -0.000013 0.000044 0.000011 0.073718 -0.000027 -0.002763
# 5 0.000702 -0.000507 0.002796 -0.000027 0.039280 0.000005
# 6 0.000006 -0.000014 -0.000007 -0.002763 0.000005 0.042821
#
#
# Mechanical properties :
#
#
# Convention : Reuss Voigt Hill
#
# Bulk Modulus (GPa) = 38.83132 53.20349 46.01741
# Shear Modulus (GPa) = 21.13825 24.59280 22.86553
#
# Velocity S-wave (km/s) = 3.28324 3.54137 3.41475
# Velocity P-wave (km/s) = 5.84596 6.62219 6.24614
#
# Compressibility (1/GPa) = 0.02575241
#
# Stress axis : x y z
#
# Youngs Moduli (GPa) = 95.98565 41.21937 70.10350
#
# Poissons Ratio (x) = 0.06039 0.39530
# Poissons Ratio (y) = 0.14063 0.31487
# Poissons Ratio (z) = 0.54124 0.18514
#
# Static dielectric constant tensor:
#      x y z
#    x 3.753880 -0.000010 -0.029020 
#    y -0.000010 3.241640 0.000020 
#    z -0.029020 0.000020 3.670010 
# 
# 
# High freq. dielectric constant tensor:
#      x y z
#    x 1.765890 0.000000 -0.001140 
#    y 0.000000 1.733310 0.000000 
#    z -0.001140 0.000000 1.768480 
# 
# From -- ./inp_files/32389.got.cif
#   From: 2010.03.12/outbox.cif.g09.slc.cpg/sg8_17_cif.got.tgz:32389.got - 2010.03.31 10:45:26.
