data_PCOD8053359
_publ_section_title
;
Structure prediction by ZEFSAII (Michael W. Deem and Ramdas Pophale) SiO2 
 PCOD8053359
Probable space group: C M
;
_chemical_formula_sum "Si O2"
_cell_formula_units_Z 32
_cell_length_a 28.650607
_cell_length_b 9.012762
_cell_length_c 12.124346
_cell_angle_alpha 90.000000
_cell_angle_beta 148.933111
_cell_angle_gamma 90.000000
_cell_volume 1615.593435
_symmetry_space_group_name_H-M "C M"
_symmetry_group_IT_number 8
_symmetry_cell_setting 'monoclinic'
loop_
_space_group_symop_operation_xyz
x,y,z
x,-y,z
1/2+x,1/2+y,z
1/2+x,1/2-y,z
loop_
_atom_site_type_symbol
_atom_site_label
_atom_site_fract_x
_atom_site_fract_y
_atom_site_fract_z
Si Si1 0.660100 0.323635 0.543740
Si Si2 0.605236 0.169732 0.882563
Si Si3 0.770685 0.170247 0.370127
Si Si4 0.418591 0.322808 0.493890
Si Si5 0.957860 0.822060 0.102454
Si Si6 0.807623 0.675853 0.669937
Si Si7 0.641534 0.336411 0.745398
Si Si8 0.928993 0.837867 0.279237
O O1 0.658574 0.500000 0.541972
O O2 0.561566 0.267258 0.304290
O O3 0.734411 0.262534 0.609325
O O4 0.684224 0.270090 0.717856
O O5 0.670385 0.186332 0.119071
O O6 0.579120 0.000000 0.807774
O O7 0.515036 0.260415 0.728007
O O8 0.659125 0.228142 0.883821
O O9 0.776923 0.275354 0.487420
O O10 0.842861 0.227616 0.426276
O O11 0.791389 0.000000 0.444469
O O12 0.427222 0.500000 0.503696
O O13 0.392393 0.258482 0.317476
O O14 0.913602 0.760190 0.128912
O O15 0.951627 0.000000 0.084263
O O16 0.904254 0.748686 0.893115
O O17 0.816146 0.500000 0.690964
O O18 0.681743 0.500000 0.853558
O O19 0.535860 0.353056 0.510110
O O20 0.884125 0.000000 0.181812
#
# Coordination Sequence:
#
# PCOD8053359 Si02
#       8
#     4   4   4   4   4   4   4   4
#     4   8  17  35  57  78 104 141 177 209 253 316
#     4  10  20  34  54  83 113 134 164 219 272 304
#     4  10  23  40  54  72 103 143 183 217 255 312
#     4   9  18  36  59  78 102 141 180 208 249 317
#     4   9  17  34  58  79 103 137 173 208 255 317
#     4  11  23  37  53  77 106 135 177 228 267 300
#     4   8  14  30  55  79 105 139 175 204 246 318
#     4   7  12  26  52  80 100 126 167 207 243 300
#
# _framework density 19.806963
#
# number of rings (size 3 to 8) (size 9 to 14) (size 15 to 20)
#    0.000    3.000    0.000    3.000    0.000    3.500 
#    0.000   13.125    0.000    0.000    0.000    0.000 
#    0.000    0.000    0.000    0.000    0.000    0.000 
#
# Total GULP energy -198266.554834 kJ/mol
# GULP energy per Si atom -12391.659677 kJ/mol
# Density = 1.976188 g / cm^3
# Si number density = 19.806963 Si / 1000 Ang^3
#
#
#
# Elastic Constant Matrix: (Units=GPa)
#
#
# Indices 1 2 3 4 5 6 
#
# 1 75.7523 15.5777 4.4838 0.0000 -4.3360 0.0000
# 2 15.5777 44.6774 18.3476 0.0000 -5.6691 0.0000
# 3 4.4838 18.3476 55.8567 0.0000 -11.0457 0.0000
# 4 0.0000 0.0000 0.0000 25.8401 0.0000 -3.8087
# 5 -4.3360 -5.6691 -11.0457 0.0000 28.0135 0.0000
# 6 0.0000 0.0000 0.0000 -3.8087 0.0000 25.3978
#
#
#
# Elastic Compliance Matrix: (Units=1/GPa)
#
#
# Indices 1 2 3 4 5 6 
#
# 1 0.014294 -0.005137 0.000837 0.000000 0.001503 0.000000
# 2 -0.005137 0.027827 -0.008429 0.000000 0.001513 0.000000
# 3 0.000837 -0.008429 0.022009 0.000000 0.007102 0.000000
# 4 0.000000 0.000000 0.000000 0.039574 0.000000 0.005935
# 5 0.001503 0.001513 0.007102 0.000000 0.039036 0.000000
# 6 0.000000 0.000000 0.000000 0.005935 0.000000 0.040264
#
#
# Mechanical properties :
#
#
# Convention : Reuss Voigt Hill
#
# Bulk Modulus (GPa) = 25.85834 28.12272 26.99053
# Shear Modulus (GPa) = 22.58843 25.04210 23.81526
#
# Velocity S-wave (km/s) = 3.38069 3.55957 3.47128
# Velocity P-wave (km/s) = 5.32186 5.57882 5.45186
#
# Compressibility (1/GPa) = 0.03867225
#
# Stress axis : x y z
#
# Youngs Moduli (GPa) = 69.96065 35.93594 45.43621
#
# Poissons Ratio (x) = 0.18460 -0.03804
# Poissons Ratio (y) = 0.35938 0.38299
# Poissons Ratio (z) = -0.05857 0.30291
#
# Static dielectric constant tensor:
#      x y z
#    x 3.956900 0.000000 -0.137840 
#    y 0.000000 3.259840 0.000000 
#    z -0.137840 0.000000 3.441040 
# 
# 
# High freq. dielectric constant tensor:
#      x y z
#    x 1.776840 0.000000 -0.007160 
#    y 0.000000 1.738360 0.000000 
#    z -0.007160 0.000000 1.764310 
# 
# From -- ./inp_files/24835.got.cif
#   From: 2010.03.12/outbox.cif.g09.slc.cpg/sg8_13_cif.got.tgz:24835.got - 2010.03.31 10:45:26.
