data_PCOD8053079
_publ_section_title
;
Structure prediction by ZEFSAII (Michael W. Deem and Ramdas Pophale) SiO2 
 PCOD8053079
Probable space group: C M
;
_chemical_formula_sum "Si O2"
_cell_formula_units_Z 32
_cell_length_a 20.024056
_cell_length_b 8.837193
_cell_length_c 12.179763
_cell_angle_alpha 90.000000
_cell_angle_beta 53.173394
_cell_angle_gamma 90.000000
_cell_volume 1725.206679
_symmetry_space_group_name_H-M "C M"
_symmetry_group_IT_number 8
_symmetry_cell_setting 'monoclinic'
loop_
_space_group_symop_operation_xyz
x,y,z
x,-y,z
1/2+x,1/2+y,z
1/2+x,1/2-y,z
loop_
_atom_site_type_symbol
_atom_site_label
_atom_site_fract_x
_atom_site_fract_y
_atom_site_fract_z
Si Si1 0.714760 0.323214 0.873520
Si Si2 0.095878 0.823189 0.799136
Si Si3 0.530731 0.178251 0.658512
Si Si4 0.282090 0.323472 0.168166
Si Si5 0.951568 0.179624 0.101654
Si Si6 0.354415 0.324534 0.859707
Si Si7 0.066308 0.179473 0.173460
Si Si8 0.607598 0.679206 0.371516
O O1 0.732747 0.500000 0.873476
O O2 0.680863 0.292523 0.783739
O O3 0.800039 0.231410 0.809356
O O4 0.646794 0.262111 0.027619
O O5 0.098270 0.733009 0.682282
O O6 0.086227 0.000000 0.782468
O O7 0.016923 0.761811 0.946292
O O8 0.439551 0.232620 0.783434
O O9 0.553152 0.246562 0.519235
O O10 0.533334 0.000000 0.647267
O O11 0.264493 0.500000 0.206893
O O12 0.358957 0.262015 0.166654
O O13 0.203597 0.227276 0.284388
O O14 0.302137 0.293076 0.021341
O O15 0.982392 0.234434 0.192235
O O16 0.952887 0.000000 0.093296
O O17 0.376561 0.500000 0.823942
O O18 0.068357 0.240423 0.295544
O O19 0.069572 0.000000 0.169640
O O20 0.601611 0.500000 0.387084
#
# Coordination Sequence:
#
# PCOD8053079 Si02
#       8
#     4   4   4   4   4   4   4   4
#     4   9  17  32  57  87 115 143 182 231 281 332
#     4   9  17  34  58  83 113 147 183 228 285 337
#     4  12  25  39  56  79 113 152 195 237 282 335
#     4  10  19  33  56  84 113 143 181 229 277 330
#     4   8  14  29  54  82 110 138 175 223 275 327
#     4  11  21  35  57  85 116 149 190 232 277 331
#     4   8  15  29  53  82 108 140 179 222 272 328
#     4  11  22  37  57  80 112 148 187 228 281 342
#
# _framework density 18.548501999999999
#
# number of rings (size 3 to 8) (size 9 to 14) (size 15 to 20)
#    0.000    2.250    2.500    3.375    0.000    1.000 
#    0.000    1.250    0.000    6.000    0.000    0.000 
#    0.000    0.000    0.000    0.000    0.000    0.000 
#
# Total GULP energy -198362.279848 kJ/mol
# GULP energy per Si atom -12397.642490 kJ/mol
# Density = 1.850628 g / cm^3
# Si number density = 18.548502 Si / 1000 Ang^3
#
#
#
# Elastic Constant Matrix: (Units=GPa)
#
#
# Indices 1 2 3 4 5 6 
#
# 1 131.6530 31.3304 22.3930 0.0000 17.1400 0.0000
# 2 31.3304 64.4844 22.5704 0.0000 5.8522 0.0000
# 3 22.3930 22.5704 50.3909 0.0000 14.2209 0.0000
# 4 0.0000 0.0000 0.0000 24.1448 0.0000 -3.4578
# 5 17.1400 5.8522 14.2209 0.0000 26.5207 0.0000
# 6 0.0000 0.0000 0.0000 -3.4578 0.0000 28.1297
#
#
#
# Elastic Compliance Matrix: (Units=1/GPa)
#
#
# Indices 1 2 3 4 5 6 
#
# 1 0.009263 -0.003672 -0.001191 0.000000 -0.004538 0.000000
# 2 -0.003672 0.019850 -0.007886 0.000000 0.002222 0.000000
# 3 -0.001191 -0.007886 0.027335 0.000000 -0.012147 0.000000
# 4 0.000000 0.000000 0.000000 0.042159 0.000000 0.005182
# 5 -0.004538 0.002222 -0.012147 0.000000 0.046662 0.000000
# 6 0.000000 0.000000 0.000000 0.005182 0.000000 0.036187
#
#
# Mechanical properties :
#
#
# Convention : Reuss Voigt Hill
#
# Bulk Modulus (GPa) = 32.31086 44.34620 38.32853
# Shear Modulus (GPa) = 23.01280 27.10802 25.06041
#
# Velocity S-wave (km/s) = 3.52615 3.82706 3.67968
# Velocity P-wave (km/s) = 5.83402 6.59459 6.22593
#
# Compressibility (1/GPa) = 0.03094935
#
# Stress axis : x y z
#
# Youngs Moduli (GPa) = 107.95802 50.37717 36.58369
#
# Poissons Ratio (x) = 0.18497 0.04358
# Poissons Ratio (y) = 0.39639 0.28851
# Poissons Ratio (z) = 0.12859 0.39729
#
# Static dielectric constant tensor:
#      x y z
#    x 3.860620 0.000000 0.207210 
#    y 0.000000 3.124170 0.000000 
#    z 0.207210 0.000000 3.196260 
# 
# 
# High freq. dielectric constant tensor:
#      x y z
#    x 1.739160 0.000000 0.010910 
#    y 0.000000 1.695380 0.000000 
#    z 0.010910 0.000000 1.689700 
# 
# From -- ./inp_files/23831.got.cif
#   From: 2010.03.12/outbox.cif.g09.slc.cpg/sg8_12_cif.got.tgz:23831.got - 2010.03.31 10:45:26.
