data_PCOD8053213
_publ_section_title
;
Structure prediction by ZEFSAII (Michael W. Deem and Ramdas Pophale) SiO2 
 PCOD8053213
Probable space group: C M
;
_chemical_formula_sum "Si O2"
_cell_formula_units_Z 32
_cell_length_a 20.334545
_cell_length_b 8.677795
_cell_length_c 25.035751
_cell_angle_alpha 90.000000
_cell_angle_beta 22.403915
_cell_angle_gamma 90.000000
_cell_volume 1683.765662
_symmetry_space_group_name_H-M "C M"
_symmetry_group_IT_number 8
_symmetry_cell_setting 'monoclinic'
loop_
_space_group_symop_operation_xyz
x,y,z
x,-y,z
1/2+x,1/2+y,z
1/2+x,1/2-y,z
loop_
_atom_site_type_symbol
_atom_site_label
_atom_site_fract_x
_atom_site_fract_y
_atom_site_fract_z
Si Si1 0.851470 0.821044 0.928630
Si Si2 0.945606 0.321115 0.671685
Si Si3 0.769501 0.320942 0.381999
Si Si4 0.089500 0.321275 0.952121
Si Si5 0.115203 0.677996 0.657495
Si Si6 0.826912 0.821428 0.070382
Si Si7 0.431999 0.177475 0.371736
Si Si8 0.032996 0.179621 0.108023
O O1 0.036439 0.779917 0.764251
O O2 0.806240 0.000000 0.954314
O O3 0.858305 0.778472 0.985423
O O4 0.707130 0.720798 0.008065
O O5 0.903756 0.500000 0.695748
O O6 0.090427 0.271464 0.520399
O O7 0.011164 0.282897 0.681837
O O8 0.774327 0.223878 0.788821
O O9 0.725138 0.500000 0.412220
O O10 0.892075 0.281236 0.340171
O O11 0.868919 0.270351 0.254255
O O12 0.087999 0.500000 0.968898
O O13 0.945702 0.288692 0.015972
O O14 0.051601 0.219262 0.032221
O O15 0.100753 0.500000 0.683818
O O16 0.315574 0.721420 0.499050
O O17 0.630397 0.785095 0.234196
O O18 0.871764 0.000000 0.047305
O O19 0.388038 0.000000 0.415557
O O20 0.997763 0.000000 0.140888
#
# Coordination Sequence:
#
# PCOD8053213 Si02
#       8
#     4   4   4   4   4   4   4   4
#     4  11  21  37  61  88 117 152 196 244 292 346
#     4  10  20  36  57  86 120 156 193 239 295 348
#     4  10  19  35  59  89 119 151 193 243 292 346
#     4  12  25  40  60  86 118 159 200 244 294 350
#     4  10  20  33  55  88 120 151 190 241 290 341
#     4  10  22  41  61  85 118 155 195 240 295 355
#     4   9  18  35  58  84 116 154 191 234 290 349
#     4  12  23  37  59  88 120 154 196 247 294 345
#
# _framework density 19.005019999999998
#
# number of rings (size 3 to 8) (size 9 to 14) (size 15 to 20)
#    0.000    1.500    2.500    3.750    0.000    3.000 
#    0.000    1.250    0.000    4.500    0.000    0.000 
#    0.000    0.000    0.000    0.000    0.000    0.000 
#
# Total GULP energy -198497.516689 kJ/mol
# GULP energy per Si atom -12406.094793 kJ/mol
# Density = 1.896176 g / cm^3
# Si number density = 19.005020 Si / 1000 Ang^3
#
#
#
# Elastic Constant Matrix: (Units=GPa)
#
#
# Indices 1 2 3 4 5 6 
#
# 1 67.9220 24.7817 39.0387 0.0103 -2.5021 0.0000
# 2 24.7817 65.6291 23.8134 0.0195 -2.2961 0.0013
# 3 39.0387 23.8134 115.4847 0.0142 3.0134 0.0013
# 4 0.0103 0.0195 0.0142 36.4125 0.0018 1.0322
# 5 -2.5021 -2.2961 3.0134 0.0018 27.1904 0.0000
# 6 0.0000 0.0013 0.0013 1.0322 0.0000 27.2775
#
#
#
# Elastic Compliance Matrix: (Units=1/GPa)
#
#
# Indices 1 2 3 4 5 6 
#
# 1 0.020064 -0.005432 -0.005715 -0.000001 0.002021 0.000001
# 2 -0.005432 0.018025 -0.001913 -0.000007 0.001234 0.000000
# 3 -0.005715 -0.001913 0.011035 -0.000002 -0.001910 0.000000
# 4 -0.000001 -0.000007 -0.000002 0.027493 -0.000002 -0.001040
# 5 0.002021 0.001234 -0.001910 -0.000002 0.037280 0.000000
# 6 0.000001 0.000000 0.000000 -0.001040 0.000000 0.036700
#
#
# Mechanical properties :
#
#
# Convention : Reuss Voigt Hill
#
# Bulk Modulus (GPa) = 43.46865 47.14485 45.30675
# Shear Modulus (GPa) = 27.11725 28.93622 28.02674
#
# Velocity S-wave (km/s) = 3.78146 3.90623 3.84435
# Velocity P-wave (km/s) = 6.47980 6.72348 6.60276
#
# Compressibility (1/GPa) = 0.02300508
#
# Stress axis : x y z
#
# Youngs Moduli (GPa) = 49.84097 55.47699 90.61733
#
# Poissons Ratio (x) = 0.30134 0.51789
# Poissons Ratio (y) = 0.27072 0.17335
# Poissons Ratio (z) = 0.28485 0.10613
#
# Static dielectric constant tensor:
#      x y z
#    x 3.294940 0.000000 0.109250 
#    y 0.000000 3.465190 0.000000 
#    z 0.109250 0.000000 3.631710 
# 
# 
# High freq. dielectric constant tensor:
#      x y z
#    x 1.706970 0.000000 0.010350 
#    y 0.000000 1.746700 0.000000 
#    z 0.010350 0.000000 1.753960 
# 
# From -- ./inp_files/33041.got.cif
#   From: 2010.03.12/outbox.cif.g09.slc.cpg/sg8_17_cif.got.tgz:33041.got - 2010.03.31 10:45:26.
