data_PCOD8053355
_publ_section_title
;
Structure prediction by ZEFSAII (Michael W. Deem and Ramdas Pophale) SiO2 
 PCOD8053355
Probable space group: C M
;
_chemical_formula_sum "Si O2"
_cell_formula_units_Z 32
_cell_length_a 8.843671
_cell_length_b 10.298687
_cell_length_c 29.921369
_cell_angle_alpha 90.000000
_cell_angle_beta 146.154313
_cell_angle_gamma 90.000000
_cell_volume 1517.813415
_symmetry_space_group_name_H-M "C M"
_symmetry_group_IT_number 8
_symmetry_cell_setting 'monoclinic'
loop_
_space_group_symop_operation_xyz
x,y,z
x,-y,z
1/2+x,1/2+y,z
1/2+x,1/2-y,z
loop_
_atom_site_type_symbol
_atom_site_label
_atom_site_fract_x
_atom_site_fract_y
_atom_site_fract_z
Si Si1 0.642200 0.149662 0.909400
Si Si2 0.187189 0.652279 0.818140
Si Si3 0.263709 0.285537 0.190783
Si Si4 0.822776 0.357774 0.297280
Si Si5 0.245218 0.227338 0.570408
Si Si6 0.810692 0.855358 0.676535
Si Si7 0.195255 0.142768 0.083279
Si Si8 0.186617 0.355436 0.463964
O O1 0.459222 0.261751 0.886422
O O2 0.575161 0.148893 0.840578
O O3 0.589029 0.000000 0.913700
O O4 0.946187 0.205664 0.994374
O O5 0.227386 0.500000 0.811519
O O6 0.976860 0.732099 0.735913
O O7 0.513773 0.377011 0.238898
O O8 0.340726 0.219339 0.256011
O O9 0.230505 0.186931 0.142311
O O10 0.976097 0.356674 0.124825
O O11 0.941710 0.500000 0.316460
O O12 0.010373 0.287800 0.380969
O O13 0.514201 0.144906 0.626399
O O14 0.300790 0.340495 0.620430
O O15 0.129470 0.284657 0.496171
O O16 0.007062 0.137995 0.531794
O O17 0.935381 0.000000 0.717221
O O18 0.088797 0.000000 0.062150
O O19 0.073662 0.500000 0.441712
#
# Coordination Sequence:
#
# PCOD8053355 Si02
#       8
#     4   4   4   4   4   4   4   4
#     4  10  22  40  60  84 115 151 191 234 282 337
#     4  11  24  40  60  87 116 148 188 233 283 340
#     4  10  20  34  54  82 112 143 185 230 275 328
#     4  10  20  34  54  80 111 147 185 227 276 329
#     4  10  22  37  57  83 111 145 189 234 279 333
#     4  11  23  39  60  85 114 149 189 234 284 339
#     4  10  20  36  57  80 110 147 185 229 278 328
#     4  10  20  36  56  79 111 148 185 229 279 330
#
# _framework density 21.08296
#
# number of rings (size 3 to 8) (size 9 to 14) (size 15 to 20)
#    0.000    1.750    0.000    4.125    0.000    6.000 
#    0.000    3.125    0.000   12.000    0.000    0.000 
#    0.000    0.000    0.000    0.000    0.000    0.000 
#
# Total GULP energy -198218.738348 kJ/mol
# GULP energy per Si atom -12388.671147 kJ/mol
# Density = 2.103497 g / cm^3
# Si number density = 21.082960 Si / 1000 Ang^3
#
#
#
# Elastic Constant Matrix: (Units=GPa)
#
#
# Indices 1 2 3 4 5 6 
#
# 1 80.3534 22.7811 16.9002 0.0000 -11.1548 0.0000
# 2 22.7811 138.4962 47.7166 0.0000 -19.3516 0.0000
# 3 16.9002 47.7166 122.4561 -0.0003 -20.0665 -0.0001
# 4 0.0000 0.0000 -0.0003 23.5233 -0.0001 4.1712
# 5 -11.1548 -19.3516 -20.0665 -0.0001 39.6688 0.0000
# 6 0.0000 0.0000 -0.0001 4.1712 0.0000 10.9667
#
#
#
# Elastic Compliance Matrix: (Units=1/GPa)
#
#
# Indices 1 2 3 4 5 6 
#
# 1 0.013421 -0.001563 -0.000817 0.000000 0.002598 0.000000
# 2 -0.001563 0.008784 -0.002810 0.000000 0.002424 0.000000
# 3 -0.000817 -0.002810 0.009935 0.000000 0.003425 0.000000
# 4 0.000000 0.000000 0.000000 0.045585 0.000000 -0.017338
# 5 0.002598 0.002424 0.003425 0.000000 0.028855 0.000000
# 6 0.000000 0.000000 0.000000 -0.017338 0.000000 0.097780
#
#
# Mechanical properties :
#
#
# Convention : Reuss Voigt Hill
#
# Bulk Modulus (GPa) = 45.95678 57.34459 51.65068
# Shear Modulus (GPa) = 22.52311 31.75893 27.14102
#
# Velocity S-wave (km/s) = 3.27205 3.88542 3.59185
# Velocity P-wave (km/s) = 6.01003 6.88384 6.46172
#
# Compressibility (1/GPa) = 0.02175958
#
# Stress axis : x y z
#
# Youngs Moduli (GPa) = 74.51168 113.83846 100.65207
#
# Poissons Ratio (x) = 0.17792 0.08228
# Poissons Ratio (y) = 0.11646 0.28283
# Poissons Ratio (z) = 0.06091 0.31988
#
# Static dielectric constant tensor:
#      x y z
#    x 3.756490 0.000000 0.078130 
#    y 0.000000 3.616190 0.000000 
#    z 0.078130 0.000000 3.910500 
# 
# 
# High freq. dielectric constant tensor:
#      x y z
#    x 1.827300 0.000000 -0.002100 
#    y 0.000000 1.811210 0.000000 
#    z -0.002100 0.000000 1.843280 
# 
# From -- ./inp_files/30356.got.cif
#   From: 2010.03.12/outbox.cif.g09.slc.cpg/sg8_16_cif.got.tgz:30356.got - 2010.03.31 10:45:26.
