data_PCOD8053854
_publ_section_title
;
Structure prediction by ZEFSAII (Michael W. Deem and Ramdas Pophale) SiO2 
 PCOD8053854
Probable space group: C M
;
_chemical_formula_sum "Si O2"
_cell_formula_units_Z 32
_cell_length_a 13.647249
_cell_length_b 16.399187
_cell_length_c 11.445329
_cell_angle_alpha 90.000000
_cell_angle_beta 146.186783
_cell_angle_gamma 90.000000
_cell_volume 1425.446645
_symmetry_space_group_name_H-M "C M"
_symmetry_group_IT_number 8
_symmetry_cell_setting 'monoclinic'
loop_
_space_group_symop_operation_xyz
x,y,z
x,-y,z
1/2+x,1/2+y,z
1/2+x,1/2-y,z
loop_
_atom_site_type_symbol
_atom_site_label
_atom_site_fract_x
_atom_site_fract_y
_atom_site_fract_z
Si Si1 0.554560 0.907204 0.798160
Si Si2 0.696269 0.157539 0.708662
Si Si3 0.580948 0.358366 0.075249
Si Si4 0.149829 0.324868 0.118269
Si Si5 0.798531 0.336044 0.904507
Si Si6 0.394702 0.906320 0.246040
Si Si7 0.492167 0.592792 0.477157
Si Si8 0.658909 0.403226 0.403923
O O1 0.646432 0.903038 0.763784
O O2 0.358313 0.870030 0.599107
O O3 0.549502 0.000000 0.835107
O O4 0.665468 0.857210 0.001932
O O5 0.718711 0.247987 0.787407
O O6 0.546589 0.145868 0.462036
O O7 0.880976 0.130894 0.830751
O O8 0.659789 0.271122 0.123730
O O9 0.720789 0.419154 0.155048
O O10 0.560828 0.367681 0.194516
O O11 0.323618 0.357256 0.356792
O O12 0.974096 0.357070 0.006384
O O13 0.648883 0.401798 0.726116
O O14 0.844490 0.350053 0.085523
O O15 0.455021 0.000000 0.275229
O O16 0.434036 0.500000 0.403954
O O17 0.562056 0.629673 0.423306
O O18 0.656382 0.500000 0.396524
#
# Coordination Sequence:
#
# PCOD8053854 Si02
#       8
#     4   4   4   4   4   4   4   4
#     4  11  21  40  69  99 131 168 219 280 336 391
#     4  11  25  44  70 100 131 180 228 280 337 401
#     4  11  24  43  65 100 136 176 224 279 338 402
#     4  11  24  42  67  99 133 178 223 280 336 404
#     4  11  26  46  67  96 140 180 225 279 334 407
#     4  12  26  45  69  99 141 183 223 279 340 407
#     4  11  23  41  69  99 131 177 228 280 337 401
#     4  10  21  39  68  98 129 170 218 277 336 387
#
# _framework density 22.449103000000001
#
# number of rings (size 3 to 8) (size 9 to 14) (size 15 to 20)
#    0.000    1.000    2.500    3.750    0.000    8.500 
#    0.000    0.000    0.000    0.000    0.000    0.000 
#    0.000    0.000    0.000    0.000    0.000    0.000 
#
# Total GULP energy -198396.726854 kJ/mol
# GULP energy per Si atom -12399.795428 kJ/mol
# Density = 2.239801 g / cm^3
# Si number density = 22.449103 Si / 1000 Ang^3
#
#
#
# Elastic Constant Matrix: (Units=GPa)
#
#
# Indices 1 2 3 4 5 6 
#
# 1 81.3950 26.0912 68.2345 0.0000 7.2785 0.0000
# 2 26.0912 84.7317 43.9682 0.0000 2.4936 0.0000
# 3 68.2345 43.9682 156.0056 0.0000 3.5145 0.0000
# 4 0.0000 0.0000 0.0000 28.5038 0.0000 -4.9013
# 5 7.2785 2.4936 3.5145 0.0000 54.1043 0.0000
# 6 0.0000 0.0000 0.0000 -4.9013 0.0000 30.2738
#
#
#
# Elastic Compliance Matrix: (Units=1/GPa)
#
#
# Indices 1 2 3 4 5 6 
#
# 1 0.019873 -0.001842 -0.008127 0.000000 -0.002061 0.000000
# 2 -0.001842 0.014002 -0.003136 0.000000 -0.000194 0.000000
# 3 -0.008127 -0.003136 0.010836 0.000000 0.000534 0.000000
# 4 0.000000 0.000000 0.000000 0.036088 0.000000 0.005842
# 5 -0.002061 -0.000194 0.000534 0.000000 0.018734 0.000000
# 6 0.000000 0.000000 0.000000 0.005842 0.000000 0.033978
#
#
# Mechanical properties :
#
#
# Convention : Reuss Voigt Hill
#
# Bulk Modulus (GPa) = 54.04806 66.52446 60.28626
# Shear Modulus (GPa) = 30.14066 34.83228 32.48647
#
# Velocity S-wave (km/s) = 3.66816 3.94332 3.80823
# Velocity P-wave (km/s) = 6.48603 7.10147 6.80071
#
# Compressibility (1/GPa) = 0.01850205
#
# Stress axis : x y z
#
# Youngs Moduli (GPa) = 50.31907 71.41668 92.28098
#
# Poissons Ratio (x) = 0.13154 0.74994
# Poissons Ratio (y) = 0.09268 0.28943
# Poissons Ratio (z) = 0.40893 0.22399
#
# Static dielectric constant tensor:
#      x y z
#    x 4.029520 0.000000 0.126240 
#    y 0.000000 3.833730 0.000000 
#    z 0.126240 0.000000 4.231490 
# 
# 
# High freq. dielectric constant tensor:
#      x y z
#    x 1.879810 0.000000 0.013430 
#    y 0.000000 1.878680 0.000000 
#    z 0.013430 0.000000 1.897880 
# 
# From -- ./inp_files/22396.got.cif
#   From: 2010.03.12/outbox.cif.g09.slc.cpg/sg8_12_cif.got.tgz:22396.got - 2010.03.31 10:45:26.
