data_PCOD8053623
_publ_section_title
;
Structure prediction by ZEFSAII (Michael W. Deem and Ramdas Pophale) SiO2 
 PCOD8053623
Probable space group: C M
;
_chemical_formula_sum "Si O2"
_cell_formula_units_Z 32
_cell_length_a 17.968155
_cell_length_b 15.801794
_cell_length_c 11.379476
_cell_angle_alpha 90.000000
_cell_angle_beta 27.347935
_cell_angle_gamma 90.000000
_cell_volume 1484.281792
_symmetry_space_group_name_H-M "C M"
_symmetry_group_IT_number 8
_symmetry_cell_setting 'monoclinic'
loop_
_space_group_symop_operation_xyz
x,y,z
x,-y,z
1/2+x,1/2+y,z
1/2+x,1/2-y,z
loop_
_atom_site_type_symbol
_atom_site_label
_atom_site_fract_x
_atom_site_fract_y
_atom_site_fract_z
Si Si1 0.657560 0.593153 0.719900
Si Si2 0.701373 0.899424 0.704699
Si Si3 0.010333 0.641311 0.199344
Si Si4 0.053305 0.265171 0.749333
Si Si5 0.256568 0.905754 0.836523
Si Si6 0.691231 0.251852 0.294191
Si Si7 0.519654 0.687130 0.314141
Si Si8 0.623944 0.092631 0.271058
O O1 0.584881 0.500000 0.784556
O O2 0.845973 0.588455 0.419558
O O3 0.569388 0.673705 0.788256
O O4 0.644023 0.602724 0.879384
O O5 0.663340 0.842527 0.643365
O O6 0.886469 0.886257 0.486360
O O7 0.671233 0.000000 0.725629
O O8 0.587738 0.858399 0.962966
O O9 0.963196 0.733940 0.313984
O O10 0.141196 0.598812 0.105258
O O11 0.113304 0.249665 0.532245
O O12 0.867186 0.296452 0.032531
O O13 0.438915 0.879868 0.553303
O O14 0.250842 0.000000 0.895481
O O15 0.193262 0.842969 0.023909
O O16 0.553170 0.292240 0.403664
O O17 0.734221 0.157017 0.188405
O O18 0.669332 0.000000 0.252741
#
# Coordination Sequence:
#
# PCOD8053623 Si02
#       8
#     4   4   4   4   4   4   4   4
#     4  10  20  38  66  95 129 172 223 278 339 405
#     4  12  26  43  71 103 136 176 230 289 339 400
#     4  10  20  37  65  99 130 164 221 286 341 391
#     4  12  26  46  62 101 137 185 223 275 347 421
#     4   9  18  35  63  97 123 159 219 283 340 389
#     4  11  27  42  66  92 139 182 223 271 351 410
#     4  11  23  40  68  96 131 175 227 286 331 399
#     4   9  19  37  64  93 125 167 220 278 336 403
#
# _framework density 21.559248
#
# number of rings (size 3 to 8) (size 9 to 14) (size 15 to 20)
#    0.000    1.500    1.250    4.500    8.750    1.000 
#    0.000    2.500    0.000    0.000    0.000    0.000 
#    0.000    0.000    0.000    0.000    0.000    0.000 
#
# Total GULP energy -198290.751304 kJ/mol
# GULP energy per Si atom -12393.171957 kJ/mol
# Density = 2.151018 g / cm^3
# Si number density = 21.559248 Si / 1000 Ang^3
#
#
#
# Elastic Constant Matrix: (Units=GPa)
#
#
# Indices 1 2 3 4 5 6 
#
# 1 91.9065 41.9854 30.8023 -0.0005 10.9294 0.0003
# 2 41.9854 108.0097 9.2639 -0.0010 -2.8611 0.0005
# 3 30.8023 9.2639 70.7409 -0.0013 14.2436 0.0009
# 4 -0.0005 -0.0010 -0.0013 31.1695 0.0003 -4.6000
# 5 10.9294 -2.8611 14.2436 0.0003 34.6410 -0.0002
# 6 0.0003 0.0005 0.0009 -4.6000 -0.0002 14.4279
#
#
#
# Elastic Compliance Matrix: (Units=1/GPa)
#
#
# Indices 1 2 3 4 5 6 
#
# 1 0.015697 -0.005719 -0.005444 0.000000 -0.003186 0.000000
# 2 -0.005719 0.011509 0.000467 0.000000 0.002563 0.000000
# 3 -0.005444 0.000467 0.017544 0.000001 -0.005458 -0.000001
# 4 0.000000 0.000000 0.000001 0.033667 0.000000 0.010734
# 5 -0.003186 0.002563 -0.005458 0.000000 0.032328 0.000001
# 6 0.000000 0.000000 -0.000001 0.010734 0.000001 0.072732
#
#
# Mechanical properties :
#
#
# Convention : Reuss Voigt Hill
#
# Bulk Modulus (GPa) = 42.81232 48.30671 45.55951
# Shear Modulus (GPa) = 23.51205 28.62139 26.06672
#
# Velocity S-wave (km/s) = 3.30597 3.64753 3.48095
# Velocity P-wave (km/s) = 5.87143 6.33991 6.11016
#
# Compressibility (1/GPa) = 0.02335776
#
# Stress axis : x y z
#
# Youngs Moduli (GPa) = 63.70730 86.88566 56.99828
#
# Poissons Ratio (x) = 0.49691 0.31031
# Poissons Ratio (y) = 0.36435 -0.02662
# Poissons Ratio (z) = 0.34684 -0.04057
#
# Static dielectric constant tensor:
#      x y z
#    x 3.829400 0.000000 0.076890 
#    y 0.000000 3.949310 0.000000 
#    z 0.076890 0.000000 3.712050 
# 
# 
# High freq. dielectric constant tensor:
#      x y z
#    x 1.833460 0.000000 0.006360 
#    y 0.000000 1.851300 0.000000 
#    z 0.006360 0.000000 1.839310 
# 
# From -- ./inp_files/23305.got.cif
#   From: 2010.03.12/outbox.cif.g09.slc.cpg/sg8_12_cif.got.tgz:23305.got - 2010.03.31 10:45:26.
