data_PCOD8053351
_publ_section_title
;
Structure prediction by ZEFSAII (Michael W. Deem and Ramdas Pophale) SiO2 
 PCOD8053351
Probable space group: C M
;
_chemical_formula_sum "Si O2"
_cell_formula_units_Z 28
_cell_length_a 9.124065
_cell_length_b 10.524316
_cell_length_c 20.430322
_cell_angle_alpha 90.000000
_cell_angle_beta 132.058972
_cell_angle_gamma 90.000000
_cell_volume 1456.558803
_symmetry_space_group_name_H-M "C M"
_symmetry_group_IT_number 8
_symmetry_cell_setting 'monoclinic'
loop_
_space_group_symop_operation_xyz
x,y,z
x,-y,z
1/2+x,1/2+y,z
1/2+x,1/2-y,z
loop_
_atom_site_type_symbol
_atom_site_label
_atom_site_fract_x
_atom_site_fract_y
_atom_site_fract_z
Si Si1 0.328650 0.642621 0.210930
Si Si2 0.005484 0.858706 0.495515
Si Si3 0.990662 0.857381 0.985615
Si Si4 0.313746 0.858706 0.701029
Si Si5 0.904872 0.749988 0.098272
Si Si6 0.178008 0.144880 0.403810
Si Si7 0.261386 0.644879 0.792734
O O1 0.316271 0.500000 0.230559
O O2 0.360127 0.647775 0.141878
O O3 0.513107 0.702713 0.304878
O O4 0.124393 0.700377 0.175565
O O5 0.177633 0.830955 0.598272
O O6 0.096774 0.857558 0.451755
O O7 0.854432 0.743785 0.454754
O O8 0.911618 0.000000 0.480303
O O9 0.893290 0.797294 0.891668
O O10 0.919376 0.000000 0.965994
O O11 0.892506 0.799594 0.020976
O O12 0.229298 0.852243 0.054668
O O13 0.284965 0.743785 0.741786
O O14 0.536321 0.857562 0.744796
O O15 0.265504 0.000000 0.716236
O O16 0.243257 0.000000 0.403122
O O17 0.328707 0.500000 0.793426
#
# Coordination Sequence:
#
# PCOD8053351 Si02
#       7
#     4   4   4   4   4   4   4
#     4  10  20  35  54  78 107 139 177 219 264 314
#     4  10  21  37  56  80 110 143 180 222 269 321
#     4  10  20  35  54  78 107 139 177 219 264 314
#     4  10  21  37  56  80 110 143 180 222 269 321
#     4  10  20  34  54  78 106 140 176 216 264 316
#     4  10  21  37  57  81 110 143 180 223 269 319
#     4  10  21  37  57  81 110 143 180 223 269 319
#
# _framework density 19.223392
#
# number of rings (size 3 to 8) (size 9 to 14) (size 15 to 20)
#    0.000    2.000    0.000    3.429    0.000    2.857 
#    0.000    7.143    0.000    0.000    0.000    0.000 
#    0.000    0.000    0.000    0.000    0.000    0.000 
#
# Total GULP energy -173480.813033 kJ/mol
# GULP energy per Si atom -12391.486645 kJ/mol
# Density = 1.917964 g / cm^3
# Si number density = 19.223392 Si / 1000 Ang^3
#
#
#
# Elastic Constant Matrix: (Units=GPa)
#
#
# Indices 1 2 3 4 5 6 
#
# 1 82.4381 37.4374 34.0949 0.0000 0.0026 0.0000
# 2 37.4374 92.2029 45.4160 0.0000 -0.0016 0.0000
# 3 34.0949 45.4160 129.2253 0.0000 0.0012 0.0000
# 4 0.0000 0.0000 0.0000 32.2817 0.0000 0.0017
# 5 0.0026 -0.0016 0.0012 0.0000 40.4111 0.0000
# 6 0.0000 0.0000 0.0000 0.0017 0.0000 25.1423
#
#
#
# Elastic Compliance Matrix: (Units=1/GPa)
#
#
# Indices 1 2 3 4 5 6 
#
# 1 0.015398 -0.005141 -0.002256 0.000000 -0.000001 0.000000
# 2 -0.005141 0.014833 -0.003857 0.000000 0.000001 0.000000
# 3 -0.002256 -0.003857 0.009689 0.000000 0.000000 0.000000
# 4 0.000000 0.000000 0.000000 0.030977 0.000000 -0.000002
# 5 -0.000001 0.000001 0.000000 0.000000 0.024746 0.000000
# 6 0.000000 0.000000 0.000000 -0.000002 0.000000 0.039774
#
#
# Mechanical properties :
#
#
# Convention : Reuss Voigt Hill
#
# Bulk Modulus (GPa) = 57.42843 59.75144 58.58993
# Shear Modulus (GPa) = 30.53863 32.02820 31.28341
#
# Velocity S-wave (km/s) = 3.99007 4.08622 4.03843
# Velocity P-wave (km/s) = 7.15309 7.30843 7.23117
#
# Compressibility (1/GPa) = 0.01741298
#
# Stress axis : x y z
#
# Youngs Moduli (GPa) = 64.94380 67.41901 103.21012
#
# Poissons Ratio (x) = 0.34660 0.23283
# Poissons Ratio (y) = 0.33387 0.39803
# Poissons Ratio (z) = 0.14650 0.26000
#
# Static dielectric constant tensor:
#      x y z
#    x 3.338210 0.000000 0.000220 
#    y 0.000000 4.026720 0.000000 
#    z 0.000220 0.000000 4.030480 
# 
# 
# High freq. dielectric constant tensor:
#      x y z
#    x 1.740900 0.000000 0.000000 
#    y 0.000000 1.745320 0.000000 
#    z 0.000000 0.000000 1.771210 
# 
# From -- ./inp_files/1847.got.cif
#   From: 2010.03.12/outbox.cif.g09.slc.cpg/sg8_1_cif.got.tgz:1847.got - 2010.03.31 10:45:26.
