data_PCOD8053513
_publ_section_title
;
Structure prediction by ZEFSAII (Michael W. Deem and Ramdas Pophale) SiO2 
 PCOD8053513
Probable space group: C M
;
_chemical_formula_sum "Si O2"
_cell_formula_units_Z 26
_cell_length_a 22.382965
_cell_length_b 7.854033
_cell_length_c 13.835209
_cell_angle_alpha 90.000000
_cell_angle_beta 26.696426
_cell_angle_gamma 90.000000
_cell_volume 1092.690019
_symmetry_space_group_name_H-M "C M"
_symmetry_group_IT_number 8
_symmetry_cell_setting 'monoclinic'
loop_
_space_group_symop_operation_xyz
x,y,z
x,-y,z
1/2+x,1/2+y,z
1/2+x,1/2-y,z
loop_
_atom_site_type_symbol
_atom_site_label
_atom_site_fract_x
_atom_site_fract_y
_atom_site_fract_z
Si Si1 0.572230 0.190122 0.355340
Si Si2 0.931907 0.000000 0.037753
Si Si3 0.308565 0.309250 0.657713
Si Si4 0.502956 0.814635 0.695673
Si Si5 0.291778 0.191315 0.174919
Si Si6 0.220531 0.000000 0.661425
Si Si7 0.127288 0.000000 0.593775
Si Si8 0.258729 0.804745 0.930288
O O1 0.460128 0.314207 0.474779
O O2 0.644282 0.253050 0.350318
O O3 0.685110 0.181631 0.110179
O O4 0.513770 0.000000 0.453709
O O5 0.845872 0.172548 0.175626
O O6 0.980821 0.000000 0.855137
O O7 0.062651 0.000000 0.917820
O O8 0.268943 0.500000 0.679770
O O9 0.288108 0.172545 0.602100
O O10 0.220714 0.251511 0.876759
O O11 0.623173 0.676734 0.537722
O O12 0.572438 0.000000 0.592536
O O13 0.391973 0.818969 0.940162
O O14 0.419560 0.781916 0.715893
O O15 0.283556 0.000000 0.236534
O O16 0.238000 0.000000 0.518918
O O17 0.216674 0.000000 0.009375
#
# Coordination Sequence:
#
# PCOD8053513 Si02
#       8
#     4   2   4   4   4   2   2   4
#     4  11  20  35  59  88 123 156 196 248 310 357
#     4   8  16  29  49  76 106 148 188 241 277 340
#     4  12  24  39  56  87 126 162 203 245 297 358
#     4   8  15  26  48  81 109 136 181 234 289 342
#     4   9  15  27  49  82 111 138 187 238 294 347
#     4  10  22  37  51  82 119 161 202 245 283 358
#     4   8  16  28  50  74 107 141 192 236 278 334
#     4  10  20  36  58  89 123 151 194 245 304 363
#
# _framework density 23.794488000000001
#
# number of rings (size 3 to 8) (size 9 to 14) (size 15 to 20)
#    0.462    1.846    2.308    2.769    4.308    1.231 
#    0.000    0.000    0.000    0.000    4.000    0.000 
#    0.000    0.000    0.000    0.000    0.000    0.000 
#
# Total GULP energy -161177.193279 kJ/mol
# GULP energy per Si atom -12398.245637 kJ/mol
# Density = 2.374033 g / cm^3
# Si number density = 23.794488 Si / 1000 Ang^3
#
#
#
# Elastic Constant Matrix: (Units=GPa)
#
#
# Indices 1 2 3 4 5 6 
#
# 1 122.7988 65.1826 14.1762 0.0000 -6.1539 0.0000
# 2 65.1826 198.7320 25.4630 0.0002 -12.3213 0.0000
# 3 14.1762 25.4630 53.1882 0.0001 -15.0227 0.0000
# 4 0.0000 0.0002 0.0001 36.3754 0.0000 -0.4814
# 5 -6.1539 -12.3213 -15.0227 0.0000 30.6324 0.0000
# 6 0.0000 0.0000 0.0000 -0.4814 0.0000 32.0374
#
#
#
# Elastic Compliance Matrix: (Units=1/GPa)
#
#
# Indices 1 2 3 4 5 6 
#
# 1 0.009928 -0.003102 -0.001103 0.000000 0.000206 0.000000
# 2 -0.003102 0.006359 -0.001940 0.000000 0.000983 0.000000
# 3 -0.001103 -0.001940 0.022915 0.000000 0.010236 0.000000
# 4 0.000000 0.000000 0.000000 0.027497 0.000000 0.000413
# 5 0.000206 0.000983 0.010236 0.000000 0.038102 0.000000
# 6 0.000000 0.000000 0.000000 0.000413 0.000000 0.031220
#
#
# Mechanical properties :
#
#
# Convention : Reuss Voigt Hill
#
# Bulk Modulus (GPa) = 37.15797 64.92918 51.04358
# Shear Modulus (GPa) = 31.79055 37.80220 34.79638
#
# Velocity S-wave (km/s) = 3.65916 3.99017 3.82825
# Velocity P-wave (km/s) = 5.78816 6.96960 6.40617
#
# Compressibility (1/GPa) = 0.02691212
#
# Stress axis : x y z
#
# Youngs Moduli (GPa) = 100.72863 157.26066 43.63996
#
# Poissons Ratio (x) = 0.48785 0.04813
# Poissons Ratio (y) = 0.31247 0.08465
# Poissons Ratio (z) = 0.11108 0.30503
#
# Static dielectric constant tensor:
#      x y z
#    x 3.944880 0.000000 0.191190 
#    y 0.000000 4.363320 0.000000 
#    z 0.191190 0.000000 4.270020 
# 
# 
# High freq. dielectric constant tensor:
#      x y z
#    x 1.911740 0.000000 0.027550 
#    y 0.000000 1.957160 0.000000 
#    z 0.027550 0.000000 1.964330 
# 
# From -- ./inp_files/27741.got.cif
#   From: 2010.03.12/outbox.cif.g09.slc.cpg/sg8_14_cif.got.tgz:27741.got - 2010.03.31 10:45:26.
