data_PCOD8053352
_publ_section_title
;
Structure prediction by ZEFSAII (Michael W. Deem and Ramdas Pophale) SiO2 
 PCOD8053352
Probable space group: C M
;
_chemical_formula_sum "Si O2"
_cell_formula_units_Z 32
_cell_length_a 25.896872
_cell_length_b 9.184018
_cell_length_c 21.497172
_cell_angle_alpha 90.000000
_cell_angle_beta 19.015749
_cell_angle_gamma 90.000000
_cell_volume 1665.903428
_symmetry_space_group_name_H-M "C M"
_symmetry_group_IT_number 8
_symmetry_cell_setting 'monoclinic'
loop_
_space_group_symop_operation_xyz
x,y,z
x,-y,z
1/2+x,1/2+y,z
1/2+x,1/2-y,z
loop_
_atom_site_type_symbol
_atom_site_label
_atom_site_fract_x
_atom_site_fract_y
_atom_site_fract_z
Si Si1 0.618340 0.170081 0.720320
Si Si2 0.425566 0.669068 0.160094
Si Si3 0.769814 0.335336 0.441657
Si Si4 0.097350 0.335811 0.141969
Si Si5 0.939697 0.169899 0.426209
Si Si6 0.369703 0.668469 0.083524
Si Si7 0.242397 0.167339 0.871389
Si Si8 0.504003 0.167344 0.476789
O O1 0.639775 0.247737 0.629355
O O2 0.766824 0.203422 0.595669
O O3 0.596912 0.000000 0.732610
O O4 0.460866 0.232973 0.930477
O O5 0.382070 0.500000 0.217142
O O6 0.292909 0.759155 0.348717
O O7 0.420342 0.717771 0.094628
O O8 0.600460 0.704884 0.985681
O O9 0.710559 0.500000 0.499280
O O10 0.934573 0.330458 0.290133
O O11 0.149156 0.500000 0.098829
O O12 0.076189 0.248911 0.230445
O O13 0.232617 0.262579 0.945282
O O14 0.941769 0.229791 0.493319
O O15 0.978130 0.000000 0.382204
O O16 0.413032 0.500000 0.022713
O O17 0.185202 0.698965 0.285180
O O18 0.406331 0.204124 0.650407
O O19 0.232312 0.000000 0.903631
O O20 0.474544 0.000000 0.490579
#
# Coordination Sequence:
#
# PCOD8053352 Si02
#       8
#     4   4   4   4   4   4   4   4
#     4  10  20  34  54  79 105 135 173 215 258 306
#     4   9  17  31  52  76 102 133 169 210 257 308
#     4   9  17  30  51  78 104 130 166 214 262 306
#     4   9  17  30  51  78 104 130 166 214 262 306
#     4  10  20  34  54  79 105 135 173 215 258 306
#     4  10  21  36  53  75 105 140 176 213 255 305
#     4   9  17  31  52  76 102 133 169 210 257 308
#     4  10  21  36  53  75 105 140 176 213 255 305
#
# _framework density 19.208794999999999
#
# number of rings (size 3 to 8) (size 9 to 14) (size 15 to 20)
#    0.000    2.500    0.000    2.250    0.000    7.000 
#    0.000    3.750    0.000    4.500    0.000    0.000 
#    0.000    0.000    0.000    0.000    0.000    0.000 
#
# Total GULP energy -198448.057479 kJ/mol
# GULP energy per Si atom -12403.003592 kJ/mol
# Density = 1.916508 g / cm^3
# Si number density = 19.208795 Si / 1000 Ang^3
#
#
#
# Elastic Constant Matrix: (Units=GPa)
#
#
# Indices 1 2 3 4 5 6 
#
# 1 17.2483 24.3973 32.8794 0.0016 9.0113 -0.0008
# 2 24.3973 105.7502 69.6695 0.0075 14.3192 -0.0053
# 3 32.8794 69.6695 139.6707 0.0070 26.9272 -0.0054
# 4 0.0016 0.0075 0.0070 35.5831 -0.0030 11.7939
# 5 9.0113 14.3192 26.9272 -0.0030 24.1243 0.0018
# 6 -0.0008 -0.0053 -0.0054 11.7939 0.0018 26.9330
#
#
#
# Elastic Compliance Matrix: (Units=1/GPa)
#
#
# Indices 1 2 3 4 5 6 
#
# 1 0.121096 -0.013433 -0.018632 0.000000 -0.016463 -0.000002
# 2 -0.013433 0.015583 -0.004836 -0.000002 0.001166 0.000003
# 3 -0.018632 -0.004836 0.015370 -0.000003 -0.007326 0.000003
# 4 0.000000 -0.000002 -0.000003 0.032875 0.000010 -0.014396
# 5 -0.016463 0.001166 -0.007326 0.000010 0.055087 -0.000010
# 6 -0.000002 0.000003 0.000003 -0.014396 -0.000010 0.043433
#
#
# Mechanical properties :
#
#
# Convention : Reuss Voigt Hill
#
# Bulk Modulus (GPa) = 12.77997 57.39572 35.08785
# Shear Modulus (GPa) = 13.04364 26.37629 19.70997
#
# Velocity S-wave (km/s) = 2.60868 3.70961 3.20674
# Velocity P-wave (km/s) = 3.96752 6.94932 5.65837
#
# Compressibility (1/GPa) = 0.07824746
#
# Stress axis : x y z
#
# Youngs Moduli (GPa) = 8.25792 64.17122 65.06086
#
# Poissons Ratio (x) = 0.86204 1.21221
# Poissons Ratio (y) = 0.11093 0.31461
# Poissons Ratio (z) = 0.15386 0.31030
#
# Static dielectric constant tensor:
#      x y z
#    x 3.283960 0.000000 0.226900 
#    y 0.000000 3.553250 0.000000 
#    z 0.226900 0.000000 3.489120 
# 
# 
# High freq. dielectric constant tensor:
#      x y z
#    x 1.724690 0.000000 0.023890 
#    y 0.000000 1.749070 0.000000 
#    z 0.023890 0.000000 1.746310 
# 
# From -- ./inp_files/15847.got.cif
#   From: 2010.03.12/outbox.cif.g09.slc.cpg/sg8_8_cif.got.tgz:15847.got - 2010.03.31 10:45:26.
