data_PCOD8053184
_publ_section_title
;
Structure prediction by ZEFSAII (Michael W. Deem and Ramdas Pophale) SiO2 
 PCOD8053184
Probable space group: C M
;
_chemical_formula_sum "Si O2"
_cell_formula_units_Z 32
_cell_length_a 20.592602
_cell_length_b 9.086844
_cell_length_c 25.352031
_cell_angle_alpha 90.000000
_cell_angle_beta 158.115782
_cell_angle_gamma 90.000000
_cell_volume 1768.210502
_symmetry_space_group_name_H-M "C M"
_symmetry_group_IT_number 8
_symmetry_cell_setting 'monoclinic'
loop_
_space_group_symop_operation_xyz
x,y,z
x,-y,z
1/2+x,1/2+y,z
1/2+x,1/2-y,z
loop_
_atom_site_type_symbol
_atom_site_label
_atom_site_fract_x
_atom_site_fract_y
_atom_site_fract_z
Si Si1 0.941530 0.673288 0.645980
Si Si2 0.538769 0.827175 0.107988
Si Si3 0.137701 0.329623 0.365404
Si Si4 0.625581 0.831637 0.676610
Si Si5 0.474807 0.173059 0.940722
Si Si6 0.261938 0.828304 0.356166
Si Si7 0.192332 0.828536 0.909288
Si Si8 0.738909 0.667556 0.065791
O O1 0.910773 0.500000 0.627369
O O2 0.754689 0.750750 0.497873
O O3 0.061737 0.714478 0.686674
O O4 0.030394 0.734797 0.765560
O O5 0.701457 0.738286 0.254850
O O6 0.576986 0.000000 0.141262
O O7 0.518220 0.774086 0.032516
O O8 0.365971 0.782211 0.009339
O O9 0.191154 0.500000 0.400401
O O10 0.159926 0.254836 0.325469
O O11 0.938733 0.312736 0.233499
O O12 0.469351 0.804008 0.517568
O O13 0.788831 0.734951 0.782052
O O14 0.685634 0.000000 0.721491
O O15 0.462273 0.000000 0.928356
O O16 0.624951 0.225960 0.015299
O O17 0.215455 0.000000 0.325134
O O18 0.152600 0.000000 0.870674
O O19 0.215321 0.787298 0.987345
O O20 0.677975 0.500000 0.028639
#
# Coordination Sequence:
#
# PCOD8053184 Si02
#       8
#     4   4   4   4   4   4   4   4
#     4  10  20  33  54  87 116 142 181 234 281 321
#     4  10  20  36  56  83 113 143 187 231 276 332
#     4  10  19  35  57  81 111 151 187 223 276 333
#     4   9  19  35  53  79 114 147 181 221 275 333
#     4  11  23  37  57  83 112 147 185 229 278 329
#     4  10  20  33  55  87 114 141 182 235 282 321
#     4  10  19  36  58  82 111 145 188 231 273 330
#     4  10  22  39  58  80 111 150 187 224 275 337
#
# _framework density 18.097393
#
# number of rings (size 3 to 8) (size 9 to 14) (size 15 to 20)
#    0.000    2.000    2.500    2.250    0.000    5.500 
#    0.000    1.250    0.000    1.500    0.000    0.000 
#    0.000    0.000    0.000    0.000    0.000    0.000 
#
# Total GULP energy -198461.755902 kJ/mol
# GULP energy per Si atom -12403.859744 kJ/mol
# Density = 1.805620 g / cm^3
# Si number density = 18.097393 Si / 1000 Ang^3
#
#
#
# Elastic Constant Matrix: (Units=GPa)
#
#
# Indices 1 2 3 4 5 6 
#
# 1 88.5791 40.4386 50.9952 -0.0057 -0.7872 -0.0005
# 2 40.4386 86.1456 60.5510 -0.0006 -2.3726 0.0001
# 3 50.9952 60.5510 123.3356 0.0073 -10.5034 0.0008
# 4 -0.0057 -0.0006 0.0073 35.2988 0.0053 -0.9228
# 5 -0.7872 -2.3726 -10.5034 0.0053 25.4796 -0.0001
# 6 -0.0005 0.0001 0.0008 -0.9228 -0.0001 29.2817
#
#
#
# Elastic Compliance Matrix: (Units=1/GPa)
#
#
# Indices 1 2 3 4 5 6 
#
# 1 0.015881 -0.004246 -0.004636 0.000004 -0.001816 0.000001
# 2 -0.004246 0.018960 -0.007683 0.000001 -0.001533 0.000000
# 3 -0.004636 -0.007683 0.014223 -0.000005 0.005004 -0.000001
# 4 0.000004 0.000001 -0.000005 0.028353 -0.000007 0.000893
# 5 -0.001816 -0.001533 0.005004 -0.000007 0.041111 0.000000
# 6 0.000001 0.000000 -0.000001 0.000893 0.000000 0.034179
#
#
# Mechanical properties :
#
#
# Convention : Reuss Voigt Hill
#
# Bulk Modulus (GPa) = 62.76401 66.89223 64.82812
# Shear Modulus (GPa) = 26.15773 27.75039 26.95406
#
# Velocity S-wave (km/s) = 3.80595 3.92010 3.86345
# Velocity P-wave (km/s) = 7.35324 7.58500 7.47002
#
# Compressibility (1/GPa) = 0.01593270
#
# Stress axis : x y z
#
# Youngs Moduli (GPa) = 62.96952 52.74382 70.30844
#
# Poissons Ratio (x) = 0.22395 0.32597
# Poissons Ratio (y) = 0.26737 0.54019
# Poissons Ratio (z) = 0.29194 0.40523
#
# Static dielectric constant tensor:
#      x y z
#    x 3.115950 0.000000 -0.146350 
#    y 0.000000 3.338370 -0.000010 
#    z -0.146350 -0.000010 3.422530 
# 
# 
# High freq. dielectric constant tensor:
#      x y z
#    x 1.673350 0.000000 -0.011750 
#    y 0.000000 1.707830 0.000000 
#    z -0.011750 0.000000 1.711390 
# 
# From -- ./inp_files/23578.got.cif
#   From: 2010.03.12/outbox.cif.g09.slc.cpg/sg8_12_cif.got.tgz:23578.got - 2010.03.31 10:45:26.
