data_PCOD8053435
_publ_section_title
;
Structure prediction by ZEFSAII (Michael W. Deem and Ramdas Pophale) SiO2 
 PCOD8053435
Probable space group: C M
;
_chemical_formula_sum "Si O2"
_cell_formula_units_Z 32
_cell_length_a 14.963844
_cell_length_b 8.985379
_cell_length_c 14.367159
_cell_angle_alpha 90.000000
_cell_angle_beta 58.713815
_cell_angle_gamma 90.000000
_cell_volume 1650.841065
_symmetry_space_group_name_H-M "C M"
_symmetry_group_IT_number 8
_symmetry_cell_setting 'monoclinic'
loop_
_space_group_symop_operation_xyz
x,y,z
x,-y,z
1/2+x,1/2+y,z
1/2+x,1/2-y,z
loop_
_atom_site_type_symbol
_atom_site_label
_atom_site_fract_x
_atom_site_fract_y
_atom_site_fract_z
Si Si1 0.972270 0.322343 0.922700
Si Si2 0.105420 0.673960 0.675865
Si Si3 0.258042 0.323116 0.068528
Si Si4 0.553757 0.829704 0.072080
Si Si5 0.338760 0.325899 0.517018
Si Si6 0.652086 0.673135 0.283945
Si Si7 0.040120 0.827220 0.524718
Si Si8 0.954684 0.671650 0.309709
O O1 0.959286 0.500000 0.933520
O O2 0.045992 0.267461 0.799266
O O3 0.860009 0.248070 0.967757
O O4 0.022426 0.255835 0.990941
O O5 0.090557 0.500000 0.674647
O O6 0.227156 0.716459 0.621321
O O7 0.054167 0.741382 0.612254
O O8 0.265917 0.500000 0.065482
O O9 0.159849 0.263697 0.060078
O O10 0.243331 0.267031 0.183636
O O11 0.455440 0.813808 0.196920
O O12 0.578449 0.000000 0.037565
O O13 0.346562 0.500000 0.488668
O O14 0.429537 0.276700 0.539493
O O15 0.348528 0.230644 0.415301
O O16 0.675181 0.500000 0.254433
O O17 0.638153 0.706459 0.401951
O O18 0.542214 0.717169 0.299241
O O19 0.035160 0.000000 0.550981
O O20 0.977683 0.500000 0.325035
#
# Coordination Sequence:
#
# PCOD8053435 Si02
#       8
#     4   4   4   4   4   4   4   4
#     4  10  21  38  55  74 103 143 184 220 260 315
#     4  10  22  37  54  76 104 139 184 227 262 304
#     4  10  20  35  56  83 109 137 173 219 266 310
#     4   8  17  34  55  76 103 137 172 208 258 319
#     4   9  19  36  54  76 106 142 176 211 263 325
#     4   9  17  32  54  80 109 142 173 207 259 325
#     4   9  19  35  56  79 106 139 174 212 264 320
#     4   9  16  29  52  82 108 133 170 218 264 312
#
# _framework density 19.384058
#
# number of rings (size 3 to 8) (size 9 to 14) (size 15 to 20)
#    0.000    2.750    0.000    2.625    0.000    5.500 
#    0.000   10.000    0.000    0.000    0.000    0.000 
#    0.000    0.000    0.000    0.000    0.000    0.000 
#
# Total GULP energy -198289.856439 kJ/mol
# GULP energy per Si atom -12393.116027 kJ/mol
# Density = 1.933994 g / cm^3
# Si number density = 19.384058 Si / 1000 Ang^3
#
#
#
# Elastic Constant Matrix: (Units=GPa)
#
#
# Indices 1 2 3 4 5 6 
#
# 1 71.6635 26.2364 53.7799 0.0000 2.0271 0.0000
# 2 26.2364 40.2500 49.0888 0.0000 -2.1858 0.0000
# 3 53.7799 49.0888 162.7577 0.0000 -2.0628 0.0000
# 4 0.0000 0.0000 0.0000 30.1498 0.0000 -1.5192
# 5 2.0271 -2.1858 -2.0628 0.0000 32.5670 0.0000
# 6 0.0000 0.0000 0.0000 -1.5192 0.0000 22.2638
#
#
#
# Elastic Compliance Matrix: (Units=1/GPa)
#
#
# Indices 1 2 3 4 5 6 
#
# 1 0.020157 -0.008062 -0.004255 0.000000 -0.002065 0.000000
# 2 -0.008062 0.042642 -0.010163 0.000000 0.002720 0.000000
# 3 -0.004255 -0.010163 0.010619 0.000000 0.000255 0.000000
# 4 0.000000 0.000000 0.000000 0.033282 0.000000 0.002271
# 5 -0.002065 0.002720 0.000255 0.000000 0.031033 0.000000
# 6 0.000000 0.000000 0.000000 0.002271 0.000000 0.045071
#
#
# Mechanical properties :
#
#
# Convention : Reuss Voigt Hill
#
# Bulk Modulus (GPa) = 35.13924 59.20902 47.17413
# Shear Modulus (GPa) = 21.07487 26.70053 23.88770
#
# Velocity S-wave (km/s) = 3.30089 3.71542 3.51427
# Velocity P-wave (km/s) = 5.71796 7.00124 6.39189
#
# Compressibility (1/GPa) = 0.02845821
#
# Stress axis : x y z
#
# Youngs Moduli (GPa) = 49.60979 23.45123 94.17478
#
# Poissons Ratio (x) = 0.18906 0.40074
# Poissons Ratio (y) = 0.39994 0.95707
# Poissons Ratio (z) = 0.21110 0.23833
#
# Static dielectric constant tensor:
#      x y z
#    x 3.443250 0.000000 -0.025780 
#    y 0.000000 3.395510 0.000000 
#    z -0.025780 0.000000 3.948480 
# 
# 
# High freq. dielectric constant tensor:
#      x y z
#    x 1.738550 0.000000 -0.003830 
#    y 0.000000 1.738450 0.000000 
#    z -0.003830 0.000000 1.762020 
# 
# From -- ./inp_files/26537.got.cif
#   From: 2010.03.12/outbox.cif.g09.slc.cpg/sg8_14_cif.got.tgz:26537.got - 2010.03.31 10:45:26.
