data_PCOD8053544
_publ_section_title
;
Structure prediction by ZEFSAII (Michael W. Deem and Ramdas Pophale) SiO2 
 PCOD8053544
Probable space group: C M
;
_chemical_formula_sum "Si O2"
_cell_formula_units_Z 32
_cell_length_a 17.887511
_cell_length_b 13.542445
_cell_length_c 16.520610
_cell_angle_alpha 90.000000
_cell_angle_beta 24.528214
_cell_angle_gamma 90.000000
_cell_volume 1661.380067
_symmetry_space_group_name_H-M "C M"
_symmetry_group_IT_number 8
_symmetry_cell_setting 'monoclinic'
loop_
_space_group_symop_operation_xyz
x,y,z
x,-y,z
1/2+x,1/2+y,z
1/2+x,1/2-y,z
loop_
_atom_site_type_symbol
_atom_site_label
_atom_site_fract_x
_atom_site_fract_y
_atom_site_fract_z
Si Si1 0.461010 0.761858 0.678040
Si Si2 0.092895 0.612028 0.299161
Si Si3 0.149962 0.700750 0.079757
Si Si4 0.779767 0.289723 0.690382
Si Si5 0.344614 0.114697 0.931101
Si Si6 0.852536 0.290679 0.249061
Si Si7 0.026323 0.386422 0.925551
Si Si8 0.929389 0.112335 0.076996
O O1 0.378295 0.808839 0.678499
O O2 0.484389 0.849917 0.722175
O O3 0.644086 0.704534 0.478156
O O4 0.318962 0.681248 0.853000
O O5 0.034754 0.500000 0.374076
O O6 0.160592 0.622569 0.141187
O O7 0.922794 0.684083 0.479982
O O8 0.258289 0.643041 0.192497
O O9 0.965655 0.675912 0.215120
O O10 0.167563 0.814511 0.096565
O O11 0.709933 0.177472 0.749411
O O12 0.610485 0.363641 0.848967
O O13 0.430694 0.132905 0.934127
O O14 0.292119 0.000000 0.970690
O O15 0.918972 0.178677 0.167491
O O16 0.890335 0.356885 0.132197
O O17 0.082492 0.500000 0.879637
O O18 0.926525 0.000000 0.107419
#
# Coordination Sequence:
#
# PCOD8053544 Si02
#       8
#     4   4   4   4   4   4   4   4
#     4  10  22  36  61  87 118 158 194 245 298 337
#     4  11  24  39  63  91 118 157 199 248 299 356
#     4  10  22  39  57  86 125 159 194 245 296 354
#     4  11  21  40  63  87 122 155 200 246 298 353
#     4   9  20  38  60  86 121 155 192 246 298 348
#     4  11  21  38  61  88 118 161 198 244 292 346
#     4  10  21  40  64  88 120 160 199 243 292 357
#     4  10  20  36  60  91 120 151 197 245 298 353
#
# _framework density 19.261095999999998
#
# number of rings (size 3 to 8) (size 9 to 14) (size 15 to 20)
#    0.750    1.000    3.750    1.875    1.750    3.500 
#    0.000    1.875    0.000    0.000    0.000    0.000 
#    0.000    0.000    0.000    0.000    0.000    0.000 
#
# Total GULP energy -198312.185913 kJ/mol
# GULP energy per Si atom -12394.511620 kJ/mol
# Density = 1.921726 g / cm^3
# Si number density = 19.261096 Si / 1000 Ang^3
#
#
#
# Elastic Constant Matrix: (Units=GPa)
#
#
# Indices 1 2 3 4 5 6 
#
# 1 80.2292 36.3423 21.7890 -0.0004 2.4789 0.0005
# 2 36.3423 69.6396 27.6896 0.0151 -2.1450 -0.0103
# 3 21.7890 27.6896 111.3331 0.0082 -12.6698 -0.0042
# 4 -0.0004 0.0151 0.0082 20.2764 -0.0070 -0.7246
# 5 2.4789 -2.1450 -12.6698 -0.0070 29.4672 0.0021
# 6 0.0005 -0.0103 -0.0042 -0.7246 0.0021 24.9684
#
#
#
# Elastic Compliance Matrix: (Units=1/GPa)
#
#
# Indices 1 2 3 4 5 6 
#
# 1 0.016662 -0.008168 -0.001532 0.000006 -0.002655 -0.000004
# 2 -0.008168 0.019949 -0.003280 -0.000013 0.000729 0.000007
# 3 -0.001532 -0.003280 0.010604 0.000000 0.004449 0.000000
# 4 0.000006 -0.000013 0.000000 0.049370 0.000010 0.001433
# 5 -0.002655 0.000729 0.004449 0.000010 0.036126 -0.000002
# 6 -0.000004 0.000007 0.000000 0.001433 -0.000002 0.040092
#
#
# Mechanical properties :
#
#
# Convention : Reuss Voigt Hill
#
# Bulk Modulus (GPa) = 47.04627 48.09374 47.57000
# Shear Modulus (GPa) = 24.28984 26.63445 25.46215
#
# Velocity S-wave (km/s) = 3.55503 3.72265 3.63980
# Velocity P-wave (km/s) = 6.42880 6.59553 6.51270
#
# Compressibility (1/GPa) = 0.02125567
#
# Stress axis : x y z
#
# Youngs Moduli (GPa) = 60.01560 50.12798 94.30497
#
# Poissons Ratio (x) = 0.40946 0.14444
# Poissons Ratio (y) = 0.49022 0.30931
# Poissons Ratio (z) = 0.09192 0.16442
#
# Static dielectric constant tensor:
#      x y z
#    x 3.552220 0.000000 0.028250 
#    y 0.000000 3.325480 0.000000 
#    z 0.028250 0.000000 3.454250 
# 
# 
# High freq. dielectric constant tensor:
#      x y z
#    x 1.758830 0.000000 0.003180 
#    y 0.000000 1.731290 0.000000 
#    z 0.003180 0.000000 1.741050 
# 
# From -- ./inp_files/29947.got.cif
#   From: 2010.03.12/outbox.cif.g09.slc.cpg/sg8_15_cif.got.tgz:29947.got - 2010.03.31 10:45:26.
