data_PCOD8053143
_publ_section_title
;
Structure prediction by ZEFSAII (Michael W. Deem and Ramdas Pophale) SiO2 
 PCOD8053143
Probable space group: C M
;
_chemical_formula_sum "Si O2"
_cell_formula_units_Z 32
_cell_length_a 20.647261
_cell_length_b 8.944057
_cell_length_c 25.289146
_cell_angle_alpha 90.000000
_cell_angle_beta 22.146494
_cell_angle_gamma 90.000000
_cell_volume 1760.535809
_symmetry_space_group_name_H-M "C M"
_symmetry_group_IT_number 8
_symmetry_cell_setting 'monoclinic'
loop_
_space_group_symop_operation_xyz
x,y,z
x,-y,z
1/2+x,1/2+y,z
1/2+x,1/2-y,z
loop_
_atom_site_type_symbol
_atom_site_label
_atom_site_fract_x
_atom_site_fract_y
_atom_site_fract_z
Si Si1 0.066740 0.823368 0.985660
Si Si2 0.468032 0.328325 0.559344
Si Si3 0.465680 0.676895 0.243488
Si Si4 0.866233 0.171834 0.821817
Si Si5 0.827162 0.325439 0.243307
Si Si6 0.622561 0.323797 0.824548
Si Si7 0.818947 0.825037 0.978869
Si Si8 0.653441 0.672887 0.525178
O O1 0.228641 0.778515 0.898651
O O2 0.091338 0.764370 0.907502
O O3 0.043158 0.000000 0.005438
O O4 0.894110 0.746621 0.138468
O O5 0.413492 0.500000 0.600815
O O6 0.623139 0.297447 0.401109
O O7 0.303611 0.235033 0.665471
O O8 0.527498 0.278032 0.572811
O O9 0.462533 0.500000 0.240161
O O10 0.426604 0.750372 0.216659
O O11 0.325874 0.728349 0.392847
O O12 0.651493 0.731955 0.121928
O O13 0.877022 0.209599 0.875253
O O14 0.054960 0.201984 0.654579
O O15 0.811532 0.000000 0.853029
O O16 0.871959 0.500000 0.211391
O O17 0.631940 0.500000 0.816352
O O18 0.470544 0.266298 0.901957
O O19 0.781335 0.000000 0.015700
O O20 0.706502 0.500000 0.477437
#
# Coordination Sequence:
#
# PCOD8053143 Si02
#       8
#     4   4   4   4   4   4   4   4
#     4  11  21  33  53  84 114 139 180 233 278 315
#     4   9  18  33  54  79 106 139 181 223 269 322
#     4  11  21  33  53  83 111 141 180 228 280 319
#     4  10  19  34  58  81 104 141 189 228 266 322
#     4  10  20  35  55  80 109 144 183 224 271 330
#     4  10  22  37  54  80 114 148 180 221 275 327
#     4  10  21  38  57  78 110 151 186 218 267 333
#     4   9  18  33  54  81 108 139 181 227 274 326
#
# _framework density 18.176283999999999
#
# number of rings (size 3 to 8) (size 9 to 14) (size 15 to 20)
#    0.000    2.000    2.500    2.625    0.000    4.000 
#    0.000    1.250    0.000    6.000    0.000    0.000 
#    0.000    0.000    0.000    0.000    0.000    0.000 
#
# Total GULP energy -198441.588575 kJ/mol
# GULP energy per Si atom -12402.599286 kJ/mol
# Density = 1.813491 g / cm^3
# Si number density = 18.176284 Si / 1000 Ang^3
#
#
#
# Elastic Constant Matrix: (Units=GPa)
#
#
# Indices 1 2 3 4 5 6 
#
# 1 89.3499 36.6228 60.4151 0.0026 -5.8320 -0.0009
# 2 36.6228 76.3704 54.2843 0.0091 -3.7058 0.0017
# 3 60.4151 54.2843 147.6426 0.0014 -3.5531 0.0026
# 4 0.0026 0.0091 0.0014 35.6231 0.0029 -1.2496
# 5 -5.8320 -3.7058 -3.5531 0.0029 28.3396 0.0000
# 6 -0.0009 0.0017 0.0026 -1.2496 0.0000 19.9056
#
#
#
# Elastic Compliance Matrix: (Units=1/GPa)
#
#
# Indices 1 2 3 4 5 6 
#
# 1 0.016544 -0.004132 -0.005197 0.000000 0.002213 0.000002
# 2 -0.004132 0.018823 -0.005207 -0.000004 0.000958 -0.000001
# 3 -0.005197 -0.005207 0.010805 0.000001 -0.000396 -0.000001
# 4 0.000000 -0.000004 0.000001 0.028134 -0.000003 0.001766
# 5 0.002213 0.000958 -0.000396 -0.000003 0.035817 0.000000
# 6 0.000002 -0.000001 -0.000001 0.001766 0.000000 0.050348
#
#
# Mechanical properties :
#
#
# Convention : Reuss Voigt Hill
#
# Bulk Modulus (GPa) = 58.48084 68.44525 63.46305
# Shear Modulus (GPa) = 25.60902 27.57637 26.59270
#
# Velocity S-wave (km/s) = 3.75764 3.89930 3.82912
# Velocity P-wave (km/s) = 7.14637 7.61648 7.38517
#
# Compressibility (1/GPa) = 0.01709962
#
# Stress axis : x y z
#
# Youngs Moduli (GPa) = 60.44374 53.12615 92.55132
#
# Poissons Ratio (x) = 0.21952 0.48103
# Poissons Ratio (y) = 0.24975 0.48191
# Poissons Ratio (z) = 0.31415 0.27662
#
# Static dielectric constant tensor:
#      x y z
#    x 3.225930 0.000000 0.160930 
#    y 0.000000 3.258770 0.000010 
#    z 0.160930 0.000010 3.552890 
# 
# 
# High freq. dielectric constant tensor:
#      x y z
#    x 1.673740 0.000000 0.011610 
#    y 0.000000 1.701250 0.000000 
#    z 0.011610 0.000000 1.719000 
# 
# From -- ./inp_files/31341.got.cif
#   From: 2010.03.12/outbox.cif.g09.slc.cpg/sg8_16_cif.got.tgz:31341.got - 2010.03.31 10:45:26.
