data_PCOD8053237
_publ_section_title
;
Structure prediction by ZEFSAII (Michael W. Deem and Ramdas Pophale) SiO2 
 PCOD8053237
Probable space group: C M
;
_chemical_formula_sum "Si O2"
_cell_formula_units_Z 28
_cell_length_a 20.663692
_cell_length_b 15.289492
_cell_length_c 9.002979
_cell_angle_alpha 90.000000
_cell_angle_beta 30.261400
_cell_angle_gamma 90.000000
_cell_volume 1433.412144
_symmetry_space_group_name_H-M "C M"
_symmetry_group_IT_number 8
_symmetry_cell_setting 'monoclinic'
loop_
_space_group_symop_operation_xyz
x,y,z
x,-y,z
1/2+x,1/2+y,z
1/2+x,1/2-y,z
loop_
_atom_site_type_symbol
_atom_site_label
_atom_site_fract_x
_atom_site_fract_y
_atom_site_fract_z
Si Si1 0.317660 0.226792 0.202030
Si Si2 0.682251 0.096888 0.399019
Si Si3 0.647650 0.904884 0.791174
Si Si4 0.931690 0.598567 0.737421
Si Si5 0.918771 0.812889 0.268111
Si Si6 0.179433 0.899536 0.688217
Si Si7 0.405786 0.150953 0.454262
O O1 0.276637 0.320102 0.211423
O O2 0.428501 0.247432 0.104969
O O3 0.205244 0.170000 0.505089
O O4 0.365174 0.168903 0.973066
O O5 0.598179 0.097418 0.718488
O O6 0.585000 0.106031 0.454209
O O7 0.752415 0.000000 0.249590
O O8 0.779920 0.854049 0.530937
O O9 0.685303 0.000000 0.771183
O O10 0.540815 0.873188 0.114433
O O11 0.885433 0.500000 0.868089
O O12 0.895327 0.618965 0.641529
O O13 0.909938 0.756450 0.436995
O O14 0.038028 0.879071 0.035374
O O15 0.285446 0.890691 0.606596
O O16 0.180257 0.000000 0.628959
#
# Coordination Sequence:
#
# PCOD8053237 Si02
#       7
#     4   4   4   4   4   4   4
#     4  10  20  36  57  83 111 145 184 227 278 334
#     4   9  19  35  57  80 106 140 184 231 275 323
#     4  10  19  36  59  83 108 140 182 229 275 327
#     4  11  22  36  54  80 111 147 187 228 271 325
#     4  10  21  37  57  83 111 144 184 230 280 329
#     4  11  21  36  58  86 116 147 183 230 281 331
#     4  11  22  36  55  81 113 149 189 227 269 327
#
# _framework density 19.533809000000002
#
# number of rings (size 3 to 8) (size 9 to 14) (size 15 to 20)
#    0.000    1.714    0.000    7.286    0.000    4.000 
#    0.000    0.000    0.000    0.857    0.000    6.000 
#    0.000    0.000    0.000    0.000    0.000    0.000 
#
# Total GULP energy -173444.060338 kJ/mol
# GULP energy per Si atom -12388.861453 kJ/mol
# Density = 1.948935 g / cm^3
# Si number density = 19.533809 Si / 1000 Ang^3
#
#
#
# Elastic Constant Matrix: (Units=GPa)
#
#
# Indices 1 2 3 4 5 6 
#
# 1 83.2435 46.3244 40.4314 0.0000 -1.4150 0.0000
# 2 46.3244 155.5500 30.7756 0.0000 0.5876 0.0000
# 3 40.4314 30.7756 80.2079 0.0000 -9.7126 0.0000
# 4 0.0000 0.0000 0.0000 34.6425 0.0000 -16.0256
# 5 -1.4150 0.5876 -9.7126 0.0000 23.9609 0.0000
# 6 0.0000 0.0000 0.0000 -16.0256 0.0000 9.0133
#
#
#
# Elastic Compliance Matrix: (Units=1/GPa)
#
#
# Indices 1 2 3 4 5 6 
#
# 1 0.017867 -0.003769 -0.007804 0.000000 -0.002016 0.000000
# 2 -0.003769 0.007792 -0.001199 0.000000 -0.000900 0.000000
# 3 -0.007804 -0.001199 0.017677 0.000000 0.006734 0.000000
# 4 0.000000 0.000000 0.000000 0.162624 0.000000 0.289145
# 5 -0.002016 -0.000900 0.006734 0.000000 0.044367 0.000000
# 6 0.000000 0.000000 0.000000 0.289145 0.000000 0.625044
#
#
# Mechanical properties :
#
#
# Convention : Reuss Voigt Hill
#
# Bulk Modulus (GPa) = 56.20693 61.56267 58.88480
# Shear Modulus (GPa) = 5.51362 26.95468 16.23415
#
# Velocity S-wave (km/s) = 1.68188 3.71873 2.88597
# Velocity P-wave (km/s) = 5.71037 7.07269 6.42772
#
# Compressibility (1/GPa) = 0.01779140
#
# Stress axis : x y z
#
# Youngs Moduli (GPa) = 55.97005 128.33899 56.57100
#
# Poissons Ratio (x) = 0.48374 0.44149
# Poissons Ratio (y) = 0.21096 0.06781
# Poissons Ratio (z) = 0.43680 0.15384
#
# Static dielectric constant tensor:
#      x y z
#    x 3.561980 0.000000 -0.016050 
#    y 0.000000 4.234550 0.000000 
#    z -0.016050 0.000000 3.240690 
# 
# 
# High freq. dielectric constant tensor:
#      x y z
#    x 1.748350 0.000000 -0.009580 
#    y 0.000000 1.788830 0.000000 
#    z -0.009580 0.000000 1.733580 
# 
# From -- ./inp_files/10470.got.cif
#   From: 2010.03.12/outbox.cif.g09.slc.cpg/sg8_6_cif.got.tgz:10470.got - 2010.03.31 10:45:26.
