data_PCOD8053051
_publ_section_title
;
Structure prediction by ZEFSAII (Michael W. Deem and Ramdas Pophale) SiO2 
 PCOD8053051
Probable space group: C M
;
_chemical_formula_sum "Si O2"
_cell_formula_units_Z 32
_cell_length_a 18.500681
_cell_length_b 14.943696
_cell_length_c 12.153455
_cell_angle_alpha 90.000000
_cell_angle_beta 153.111526
_cell_angle_gamma 90.000000
_cell_volume 1519.599568
_symmetry_space_group_name_H-M "C M"
_symmetry_group_IT_number 8
_symmetry_cell_setting 'monoclinic'
loop_
_space_group_symop_operation_xyz
x,y,z
x,-y,z
1/2+x,1/2+y,z
1/2+x,1/2-y,z
loop_
_atom_site_type_symbol
_atom_site_label
_atom_site_fract_x
_atom_site_fract_y
_atom_site_fract_z
Si Si1 0.388300 0.099994 0.849160
Si Si2 0.838829 0.215966 0.152692
Si Si3 0.179919 0.598816 0.633003
Si Si4 0.054538 0.601042 0.703377
Si Si5 0.766994 0.397591 0.454396
Si Si6 0.599784 0.402541 0.593326
Si Si7 0.458697 0.277416 0.063885
Si Si8 0.345580 0.901291 0.121697
O O1 0.394058 0.117247 0.726552
O O2 0.196388 0.100470 0.610540
O O3 0.456853 0.000000 0.973066
O O4 0.477889 0.177427 0.040344
O O5 0.915620 0.219495 0.134307
O O6 0.804740 0.317930 0.146624
O O7 0.962895 0.172121 0.407370
O O8 0.675541 0.162602 0.935832
O O9 0.260202 0.500000 0.740796
O O10 0.078686 0.614805 0.606957
O O11 0.036042 0.605221 0.347532
O O12 0.315209 0.673373 0.801154
O O13 0.096091 0.500000 0.794543
O O14 0.871549 0.623325 0.487214
O O15 0.702571 0.500000 0.366982
O O16 0.621277 0.329197 0.260741
O O17 0.519791 0.500000 0.503197
O O18 0.737882 0.383585 0.869141
O O19 0.309599 0.000000 0.124827
#
# Coordination Sequence:
#
# PCOD8053051 Si02
#       8
#     4   4   4   4   4   4   4   4
#     4  10  20  34  54  82 117 148 183 229 279 331
#     4  11  20  32  58  85 112 143 188 233 276 325
#     4   9  19  35  57  87 116 143 183 235 282 330
#     4   9  20  38  58  84 115 146 185 235 284 329
#     4  10  21  39  59  81 112 153 189 226 281 336
#     4  10  19  33  54  84 114 144 183 231 277 326
#     4  11  20  32  59  87 112 141 188 234 277 327
#     4  10  21  35  53  82 118 150 181 227 288 334
#
# _framework density 21.058178999999999
#
# number of rings (size 3 to 8) (size 9 to 14) (size 15 to 20)
#    0.000    2.000    2.500    1.500    1.750    1.000 
#    2.250    0.000    0.000    0.750    3.250    0.000 
#    0.000    0.000    0.000    0.000    0.000    0.000 
#
# Total GULP energy -198209.074289 kJ/mol
# GULP energy per Si atom -12388.067143 kJ/mol
# Density = 2.101025 g / cm^3
# Si number density = 21.058179 Si / 1000 Ang^3
#
#
#
# Elastic Constant Matrix: (Units=GPa)
#
#
# Indices 1 2 3 4 5 6 
#
# 1 46.8878 33.4504 18.3997 0.0000 12.9254 0.0000
# 2 33.4504 178.0139 76.4458 0.0000 9.2004 0.0000
# 3 18.3997 76.4458 111.6142 0.0000 2.0757 0.0000
# 4 0.0000 0.0000 0.0000 39.9455 0.0000 -1.4569
# 5 12.9254 9.2004 2.0757 0.0000 21.8838 0.0000
# 6 0.0000 0.0000 0.0000 -1.4569 0.0000 15.9081
#
#
#
# Elastic Compliance Matrix: (Units=1/GPa)
#
#
# Indices 1 2 3 4 5 6 
#
# 1 0.029048 -0.003869 -0.001853 0.000000 -0.015354 0.000000
# 2 -0.003869 0.008653 -0.005273 0.000000 -0.000853 0.000000
# 3 -0.001853 -0.005273 0.012837 0.000000 0.002094 0.000000
# 4 0.000000 0.000000 0.000000 0.025118 0.000000 0.002300
# 5 -0.015354 -0.000853 0.002094 0.000000 0.054925 0.000000
# 6 0.000000 0.000000 0.000000 0.002300 0.000000 0.063072
#
#
# Mechanical properties :
#
#
# Convention : Reuss Voigt Hill
#
# Bulk Modulus (GPa) = 35.02857 65.90086 50.46472
# Shear Modulus (GPa) = 22.20662 29.42880 25.81771
#
# Velocity S-wave (km/s) = 3.25089 3.74237 3.50525
# Velocity P-wave (km/s) = 5.54629 7.07364 6.35601
#
# Compressibility (1/GPa) = 0.02854812
#
# Stress axis : x y z
#
# Youngs Moduli (GPa) = 34.42637 115.56714 77.89731
#
# Poissons Ratio (x) = 0.44712 0.14435
# Poissons Ratio (y) = 0.13319 0.41074
# Poissons Ratio (z) = 0.06379 0.60937
#
# Static dielectric constant tensor:
#      x y z
#    x 3.407200 0.000000 -0.071030 
#    y 0.000000 4.248750 0.000000 
#    z -0.071030 0.000000 3.716620 
# 
# 
# High freq. dielectric constant tensor:
#      x y z
#    x 1.765540 0.000000 -0.013390 
#    y 0.000000 1.852610 0.000000 
#    z -0.013390 0.000000 1.819660 
# 
# From -- ./inp_files/17121.got.cif
#   From: 2010.03.12/outbox.cif.g09.slc.cpg/sg8_9_cif.got.tgz:17121.got - 2010.03.31 10:45:26.
