data_PCOD8053519
_publ_section_title
;
Structure prediction by ZEFSAII (Michael W. Deem and Ramdas Pophale) SiO2 
 PCOD8053519
Probable space group: C M
;
_chemical_formula_sum "Si O2"
_cell_formula_units_Z 24
_cell_length_a 18.829838
_cell_length_b 8.546996
_cell_length_c 11.889378
_cell_angle_alpha 90.000000
_cell_angle_beta 39.317992
_cell_angle_gamma 90.000000
_cell_volume 1212.413406
_symmetry_space_group_name_H-M "C M"
_symmetry_group_IT_number 8
_symmetry_cell_setting 'monoclinic'
loop_
_space_group_symop_operation_xyz
x,y,z
x,-y,z
1/2+x,1/2+y,z
1/2+x,1/2-y,z
loop_
_atom_site_type_symbol
_atom_site_label
_atom_site_fract_x
_atom_site_fract_y
_atom_site_fract_z
Si Si1 0.443950 0.182204 0.460180
Si Si2 0.569148 0.315404 0.725999
Si Si3 0.510370 0.315782 0.041686
Si Si4 0.650014 0.316556 0.082734
Si Si5 0.805905 0.815521 0.435295
Si Si6 0.885134 0.817990 0.768842
O O1 0.556883 0.274861 0.289790
O O2 0.339124 0.233661 0.511799
O O3 0.411230 0.215685 0.628016
O O4 0.466757 0.000000 0.416108
O O5 0.588948 0.500000 0.707957
O O6 0.682899 0.233224 0.546734
O O7 0.473214 0.270173 0.756326
O O8 0.535688 0.243274 0.888625
O O9 0.505958 0.500000 0.034680
O O10 0.606205 0.266755 0.012821
O O11 0.390368 0.256458 0.234324
O O12 0.675014 0.500000 0.058870
O O13 0.762972 0.221350 0.968074
O O14 0.816167 0.000000 0.440860
O O15 0.893172 0.000000 0.728411
#
# Coordination Sequence:
#
# PCOD8053519 Si02
#       6
#     4   4   4   4   4   4
#     4  11  22  38  60  83 112 152 196 239 284 333
#     4  10  21  37  56  81 115 151 185 225 280 345
#     4   8  17  35  57  79 105 140 179 224 279 335
#     4  10  20  37  61  86 112 145 190 240 288 341
#     4  10  20  36  59  85 112 143 186 237 285 338
#     4  11  23  37  55  84 120 155 192 233 280 338
#
# _framework density 19.795228000000002
#
# number of rings (size 3 to 8) (size 9 to 14) (size 15 to 20)
#    0.000    2.000    0.000    5.000    0.000    4.000 
#    0.000    5.833    0.000    0.000    0.000    0.000 
#    0.000    0.000    0.000    0.000    0.000    0.000 
#
# Total GULP energy -148840.390847 kJ/mol
# GULP energy per Si atom -12403.365904 kJ/mol
# Density = 1.975017 g / cm^3
# Si number density = 19.795228 Si / 1000 Ang^3
#
#
#
# Elastic Constant Matrix: (Units=GPa)
#
#
# Indices 1 2 3 4 5 6 
#
# 1 104.1726 31.5935 48.1564 0.0000 -26.2607 0.0000
# 2 31.5935 54.3045 17.4022 0.0000 -5.5074 0.0000
# 3 48.1564 17.4022 85.0161 0.0000 -19.0568 0.0000
# 4 0.0000 0.0000 0.0000 32.3306 0.0000 -6.2891
# 5 -26.2607 -5.5074 -19.0568 0.0000 27.4173 0.0000
# 6 0.0000 0.0000 0.0000 -6.2891 0.0000 23.1569
#
#
#
# Elastic Compliance Matrix: (Units=1/GPa)
#
#
# Indices 1 2 3 4 5 6 
#
# 1 0.017203 -0.007021 -0.005840 0.000000 0.011008 0.000000
# 2 -0.007021 0.022616 -0.001352 0.000000 -0.003122 0.000000
# 3 -0.005840 -0.001352 0.016622 0.000000 0.005688 0.000000
# 4 0.000000 0.000000 0.000000 0.032656 0.000000 0.008869
# 5 0.011008 -0.003122 0.005688 0.000000 0.050344 0.000000
# 6 0.000000 0.000000 0.000000 0.008869 0.000000 0.045592
#
#
# Mechanical properties :
#
#
# Convention : Reuss Voigt Hill
#
# Bulk Modulus (GPa) = 35.69420 48.64417 42.16918
# Shear Modulus (GPa) = 22.44179 26.33701 24.38940
#
# Velocity S-wave (km/s) = 3.37069 3.65152 3.51391
# Velocity P-wave (km/s) = 5.76365 6.51193 6.14918
#
# Compressibility (1/GPa) = 0.02801576
#
# Stress axis : x y z
#
# Youngs Moduli (GPa) = 58.12771 44.21644 60.15989
#
# Poissons Ratio (x) = 0.31044 0.35134
# Poissons Ratio (y) = 0.40810 0.08135
# Poissons Ratio (z) = 0.33947 0.05979
#
# Static dielectric constant tensor:
#      x y z
#    x 3.614560 0.000000 0.005930 
#    y 0.000000 3.417500 0.000000 
#    z 0.005930 0.000000 3.802780 
# 
# 
# High freq. dielectric constant tensor:
#      x y z
#    x 1.765980 0.000000 -0.006870 
#    y 0.000000 1.762510 0.000000 
#    z -0.006870 0.000000 1.782780 
# 
# From -- ./inp_files/23640.got.cif
#   From: 2010.03.12/outbox.cif.g09.slc.cpg/sg8_12_cif.got.tgz:23640.got - 2010.03.31 10:45:26.
