data_PCOD8053125
_publ_section_title
;
Structure prediction by ZEFSAII (Michael W. Deem and Ramdas Pophale) SiO2 
 PCOD8053125
Probable space group: C M
;
_chemical_formula_sum "Si O2"
_cell_formula_units_Z 32
_cell_length_a 20.588102
_cell_length_b 8.924286
_cell_length_c 12.100317
_cell_angle_alpha 90.000000
_cell_angle_beta 127.941470
_cell_angle_gamma 90.000000
_cell_volume 1753.335134
_symmetry_space_group_name_H-M "C M"
_symmetry_group_IT_number 8
_symmetry_cell_setting 'monoclinic'
loop_
_space_group_symop_operation_xyz
x,y,z
x,-y,z
1/2+x,1/2+y,z
1/2+x,1/2-y,z
loop_
_atom_site_type_symbol
_atom_site_label
_atom_site_fract_x
_atom_site_fract_y
_atom_site_fract_z
Si Si1 0.378430 0.323234 0.639510
Si Si2 0.675738 0.823661 0.893117
Si Si3 0.860451 0.826005 0.042171
Si Si4 0.125974 0.323138 0.082869
Si Si5 0.936953 0.675664 0.914984
Si Si6 0.770734 0.677095 0.349247
Si Si7 0.398124 0.328084 0.327846
Si Si8 0.027194 0.828122 0.638389
O O1 0.364440 0.500000 0.625786
O O2 0.382160 0.261541 0.767327
O O3 0.302007 0.247802 0.496669
O O4 0.462479 0.278362 0.664719
O O5 0.610534 0.765857 0.734972
O O6 0.670750 0.000000 0.890386
O O7 0.766313 0.770546 0.953016
O O8 0.653431 0.762436 0.991308
O O9 0.905985 0.798411 0.206276
O O10 0.865278 0.000000 0.012351
O O11 0.906384 0.722846 0.003132
O O12 0.140292 0.500000 0.109517
O O13 0.179104 0.238024 0.230964
O O14 0.031753 0.277512 0.002942
O O15 0.924857 0.500000 0.884695
O O16 0.769356 0.500000 0.359772
O O17 0.828678 0.723295 0.307572
O O18 0.370779 0.500000 0.323049
O O19 0.486759 0.296505 0.476258
O O20 0.051326 0.000000 0.678398
#
# Coordination Sequence:
#
# PCOD8053125 Si02
#       8
#     4   4   4   4   4   4   4   4
#     4  10  20  36  57  81 114 152 186 224 282 341
#     4  10  19  34  57  81 109 146 187 229 274 328
#     4  10  21  38  58  78 109 153 192 225 277 341
#     4  10  20  37  57  80 113 149 188 232 280 332
#     4  11  23  38  58  84 115 148 187 235 281 330
#     4  11  21  32  55  88 115 142 186 239 281 323
#     4   9  18  36  56  78 111 152 188 224 279 336
#     4   9  18  31  54  84 110 138 180 234 280 321
#
# _framework density 18.250931000000001
#
# number of rings (size 3 to 8) (size 9 to 14) (size 15 to 20)
#    0.000    2.000    2.500    2.625    0.000    4.500 
#    0.000    1.250    0.000    6.000    0.000    0.000 
#    0.000    0.000    0.000    0.000    0.000    0.000 
#
# Total GULP energy -198449.574743 kJ/mol
# GULP energy per Si atom -12403.098421 kJ/mol
# Density = 1.820939 g / cm^3
# Si number density = 18.250931 Si / 1000 Ang^3
#
#
#
# Elastic Constant Matrix: (Units=GPa)
#
#
# Indices 1 2 3 4 5 6 
#
# 1 85.7002 35.6261 51.6530 0.0000 -1.0392 0.0000
# 2 35.6261 69.4821 49.3968 0.0000 2.8934 0.0000
# 3 51.6530 49.3968 145.4711 0.0000 2.7358 0.0000
# 4 0.0000 0.0000 0.0000 33.9268 0.0000 1.1489
# 5 -1.0392 2.8934 2.7358 0.0000 25.4849 0.0000
# 6 0.0000 0.0000 0.0000 1.1489 0.0000 28.0168
#
#
#
# Elastic Compliance Matrix: (Units=1/GPa)
#
#
# Indices 1 2 3 4 5 6 
#
# 1 0.016429 -0.005702 -0.003930 0.000000 0.001739 0.000000
# 2 -0.005702 0.021006 -0.005069 0.000000 -0.002073 0.000000
# 3 -0.003930 -0.005069 0.010003 0.000000 -0.000659 0.000000
# 4 0.000000 0.000000 0.000000 0.029516 0.000000 -0.001210
# 5 0.001739 -0.002073 -0.000659 0.000000 0.039616 0.000000
# 6 0.000000 0.000000 0.000000 -0.001210 0.000000 0.035742
#
#
# Mechanical properties :
#
#
# Convention : Reuss Voigt Hill
#
# Bulk Modulus (GPa) = 55.44598 63.77838 59.61218
# Shear Modulus (GPa) = 26.63438 28.41752 27.52595
#
# Velocity S-wave (km/s) = 3.82428 3.95022 3.88776
# Velocity P-wave (km/s) = 7.06724 7.47173 7.27230
#
# Compressibility (1/GPa) = 0.01803557
#
# Stress axis : x y z
#
# Youngs Moduli (GPa) = 60.86900 47.60518 99.96679
#
# Poissons Ratio (x) = 0.27145 0.39286
# Poissons Ratio (y) = 0.34709 0.50675
# Poissons Ratio (z) = 0.23921 0.24132
#
# Static dielectric constant tensor:
#      x y z
#    x 3.129700 0.000000 0.065500 
#    y 0.000000 3.246310 0.000000 
#    z 0.065500 0.000000 3.572730 
# 
# 
# High freq. dielectric constant tensor:
#      x y z
#    x 1.676620 0.000000 0.005790 
#    y 0.000000 1.704040 0.000000 
#    z 0.005790 0.000000 1.723940 
# 
# From -- ./inp_files/23828.got.cif
#   From: 2010.03.12/outbox.cif.g09.slc.cpg/sg8_12_cif.got.tgz:23828.got - 2010.03.31 10:45:26.
