data_PCOD8053408
_publ_section_title
;
Structure prediction by ZEFSAII (Michael W. Deem and Ramdas Pophale) SiO2 
 PCOD8053408
Probable space group: C M
;
_chemical_formula_sum "Si O2"
_cell_formula_units_Z 32
_cell_length_a 14.130876
_cell_length_b 8.640969
_cell_length_c 20.042347
_cell_angle_alpha 90.000000
_cell_angle_beta 135.014286
_cell_angle_gamma 90.000000
_cell_volume 1730.042606
_symmetry_space_group_name_H-M "C M"
_symmetry_group_IT_number 8
_symmetry_cell_setting 'monoclinic'
loop_
_space_group_symop_operation_xyz
x,y,z
x,-y,z
1/2+x,1/2+y,z
1/2+x,1/2-y,z
loop_
_atom_site_type_symbol
_atom_site_label
_atom_site_fract_x
_atom_site_fract_y
_atom_site_fract_z
Si Si1 0.517900 0.684476 0.346580
Si Si2 0.805296 0.817680 0.137261
Si Si3 0.291416 0.318022 0.981174
Si Si4 0.312591 0.181682 0.497515
Si Si5 0.821534 0.678178 0.650449
Si Si6 0.003186 0.681164 0.988400
Si Si7 0.012257 0.819883 0.850623
Si Si8 0.509718 0.676669 0.492443
O O1 0.515273 0.500000 0.341661
O O2 0.411502 0.758475 0.241533
O O3 0.666664 0.747771 0.402987
O O4 0.480074 0.736295 0.402749
O O5 0.820836 0.000000 0.148064
O O6 0.835581 0.761031 0.077068
O O7 0.654801 0.770827 0.083004
O O8 0.261471 0.500000 0.966175
O O9 0.407279 0.279379 0.987455
O O10 0.155719 0.230832 0.892592
O O11 0.352233 0.241148 0.591109
O O12 0.424888 0.221431 0.500605
O O13 0.296039 0.000000 0.495930
O O14 0.867111 0.500000 0.682085
O O15 0.900541 0.787842 0.739867
O O16 0.664763 0.695450 0.587770
O O17 0.976995 0.500000 0.986113
O O18 0.975268 0.722269 0.897783
O O19 0.013846 0.000000 0.869527
O O20 0.463919 0.500000 0.477634
#
# Coordination Sequence:
#
# PCOD8053408 Si02
#       8
#     4   4   4   4   4   4   4   4
#     4   8  15  31  51  73 102 137 169 200 247 303
#     4   8  16  31  52  75 102 135 171 208 250 299
#     4  10  20  35  54  77 105 138 172 212 257 305
#     4   9  18  32  52  74 100 133 168 206 250 298
#     4   9  19  36  52  70 100 137 169 203 252 309
#     4  10  20  35  54  77 105 138 172 212 257 305
#     4  11  22  36  55  78 102 133 171 215 261 309
#     4   9  18  32  52  74 100 133 168 206 250 298
#
# _framework density 18.496653999999999
#
# number of rings (size 3 to 8) (size 9 to 14) (size 15 to 20)
#    0.000    2.750    0.000    4.125    0.000    3.000 
#    0.000    4.375    0.000    7.500    0.000    0.000 
#    0.000    0.000    0.000    0.000    0.000    0.000 
#
# Total GULP energy -198369.754361 kJ/mol
# GULP energy per Si atom -12398.109648 kJ/mol
# Density = 1.845455 g / cm^3
# Si number density = 18.496654 Si / 1000 Ang^3
#
#
#
# Elastic Constant Matrix: (Units=GPa)
#
#
# Indices 1 2 3 4 5 6 
#
# 1 108.5208 4.6220 43.4722 0.0000 0.8601 0.0000
# 2 4.6220 33.9047 19.8195 0.0000 1.0704 0.0000
# 3 43.4722 19.8195 135.4297 0.0000 -3.2010 0.0000
# 4 0.0000 0.0000 0.0000 17.1543 0.0000 0.6179
# 5 0.8601 1.0704 -3.2010 0.0000 14.2303 0.0000
# 6 0.0000 0.0000 0.0000 0.6179 0.0000 31.9327
#
#
#
# Elastic Compliance Matrix: (Units=1/GPa)
#
#
# Indices 1 2 3 4 5 6 
#
# 1 0.010617 0.000670 -0.003541 0.000000 -0.001489 0.000000
# 2 0.000670 0.032471 -0.005053 0.000000 -0.003619 0.000000
# 3 -0.003541 -0.005053 0.009324 0.000000 0.002691 0.000000
# 4 0.000000 0.000000 0.000000 0.058335 0.000000 -0.001129
# 5 -0.001489 -0.003619 0.002691 0.000000 0.071240 0.000000
# 6 0.000000 0.000000 0.000000 -0.001129 0.000000 0.031338
#
#
# Mechanical properties :
#
#
# Convention : Reuss Voigt Hill
#
# Bulk Modulus (GPa) = 27.34975 45.96472 36.65723
# Shear Modulus (GPa) = 20.71599 26.65957 23.68778
#
# Velocity S-wave (km/s) = 3.35025 3.80059 3.58250
# Velocity P-wave (km/s) = 5.45747 6.64557 6.08061
#
# Compressibility (1/GPa) = 0.03656341
#
# Stress axis : x y z
#
# Youngs Moduli (GPa) = 94.19206 30.79677 107.25481
#
# Poissons Ratio (x) = -0.02062 0.37980
# Poissons Ratio (y) = -0.06308 0.54190
# Poissons Ratio (z) = 0.33354 0.15560
#
# Static dielectric constant tensor:
#      x y z
#    x 3.330470 0.000000 -0.027480 
#    y 0.000000 3.104500 0.000000 
#    z -0.027480 0.000000 3.696760 
# 
# 
# High freq. dielectric constant tensor:
#      x y z
#    x 1.718480 0.000000 -0.000290 
#    y 0.000000 1.692630 0.000000 
#    z -0.000290 0.000000 1.723210 
# 
# From -- ./inp_files/26417.got.cif
#   From: 2010.03.12/outbox.cif.g09.slc.cpg/sg8_14_cif.got.tgz:26417.got - 2010.03.31 10:45:26.
