data_PCOD8053721
_publ_section_title
;
Structure prediction by ZEFSAII (Michael W. Deem and Ramdas Pophale) SiO2 
 PCOD8053721
Probable space group: C M
;
_chemical_formula_sum "Si O2"
_cell_formula_units_Z 32
_cell_length_a 15.450535
_cell_length_b 9.012348
_cell_length_c 22.875309
_cell_angle_alpha 90.000000
_cell_angle_beta 148.152118
_cell_angle_gamma 90.000000
_cell_volume 1680.766739
_symmetry_space_group_name_H-M "C M"
_symmetry_group_IT_number 8
_symmetry_cell_setting 'monoclinic'
loop_
_space_group_symop_operation_xyz
x,y,z
x,-y,z
1/2+x,1/2+y,z
1/2+x,1/2-y,z
loop_
_atom_site_type_symbol
_atom_site_label
_atom_site_fract_x
_atom_site_fract_y
_atom_site_fract_z
Si Si1 0.991340 0.674563 0.557110
Si Si2 0.447739 0.333395 0.335643
Si Si3 0.835855 0.176952 0.089937
Si Si4 0.674485 0.172674 0.549861
Si Si5 0.633550 0.825130 0.083756
Si Si6 0.144412 0.832843 0.330811
Si Si7 0.500674 0.176156 0.692857
Si Si8 0.310060 0.323857 0.943566
O O1 0.959383 0.500000 0.544790
O O2 0.822309 0.747366 0.434615
O O3 0.030835 0.737190 0.644354
O O4 0.141239 0.707384 0.599326
O O5 0.438706 0.500000 0.356264
O O6 0.511161 0.220901 0.421274
O O7 0.269072 0.282623 0.210310
O O8 0.576474 0.330295 0.357170
O O9 0.695941 0.228129 0.055449
O O10 0.013031 0.244564 0.211660
O O11 0.846499 0.000000 0.099432
O O12 0.795928 0.234523 0.002148
O O13 0.831494 0.264310 0.621133
O O14 0.706373 0.000000 0.557066
O O15 0.600591 0.000000 0.065340
O O16 0.467910 0.739767 0.002091
O O17 0.168047 0.000000 0.321961
O O18 0.649783 0.234886 0.818010
O O19 0.491711 0.000000 0.689480
O O20 0.322527 0.500000 0.949169
#
# Coordination Sequence:
#
# PCOD8053721 Si02
#       8
#     4   4   4   4   4   4   4   4
#     4   9  18  32  52  76 103 141 178 207 260 328
#     4   9  17  33  56  78 107 146 177 205 259 329
#     4   8  16  31  51  78 107 137 175 210 257 319
#     4  11  22  33  53  84 107 133 178 230 269 299
#     4   9  19  35  55  79 109 144 175 210 263 323
#     4   8  13  27  53  75  99 140 175 202 246 320
#     4  10  21  40  57  72 105 148 183 212 258 325
#     4  10  21  35  57  82 103 137 183 226 258 301
#
# _framework density 19.038929
#
# number of rings (size 3 to 8) (size 9 to 14) (size 15 to 20)
#    0.000    2.750    1.250    1.875    1.750    2.000 
#    0.000    1.875    0.000    0.750    0.000    0.000 
#    0.000    0.000    0.000    0.000    0.000    0.000 
#
# Total GULP energy -198312.218011 kJ/mol
# GULP energy per Si atom -12394.513626 kJ/mol
# Density = 1.899560 g / cm^3
# Si number density = 19.038929 Si / 1000 Ang^3
#
#
#
# Elastic Constant Matrix: (Units=GPa)
#
#
# Indices 1 2 3 4 5 6 
#
# 1 124.9616 17.0872 76.3148 0.0000 -12.0920 0.0000
# 2 17.0872 16.4383 20.7624 0.0001 -1.7278 0.0000
# 3 76.3148 20.7624 135.8116 0.0005 -12.9689 0.0001
# 4 0.0000 0.0001 0.0005 21.3340 0.0001 7.6861
# 5 -12.0920 -1.7278 -12.9689 0.0001 27.1868 0.0000
# 6 0.0000 0.0000 0.0001 7.6861 0.0000 23.4761
#
#
#
# Elastic Compliance Matrix: (Units=1/GPa)
#
#
# Indices 1 2 3 4 5 6 
#
# 1 0.012669 -0.005223 -0.006091 0.000000 0.002397 0.000000
# 2 -0.005223 0.077558 -0.009087 0.000000 -0.001729 0.000000
# 3 -0.006091 -0.009087 0.012427 0.000000 0.002641 0.000000
# 4 0.000000 0.000000 0.000000 0.053142 0.000000 -0.017399
# 5 0.002397 -0.001729 0.002641 0.000000 0.038999 0.000000
# 6 0.000000 0.000000 0.000000 -0.017399 0.000000 0.048293
#
#
# Mechanical properties :
#
#
# Convention : Reuss Voigt Hill
#
# Bulk Modulus (GPa) = 16.16774 56.17116 36.16945
# Shear Modulus (GPa) = 16.41991 25.26916 20.84453
#
# Velocity S-wave (km/s) = 2.93992 3.64708 3.31242
# Velocity P-wave (km/s) = 4.47599 6.87766 5.80245
#
# Compressibility (1/GPa) = 0.06185158
#
# Stress axis : x y z
#
# Youngs Moduli (GPa) = 78.93507 12.89349 80.46736
#
# Poissons Ratio (x) = 0.06734 0.49015
# Poissons Ratio (y) = 0.41229 0.73121
# Poissons Ratio (z) = 0.48082 0.11716
#
# Static dielectric constant tensor:
#      x y z
#    x 3.557720 0.000000 -0.184120 
#    y 0.000000 3.011960 0.000000 
#    z -0.184120 0.000000 3.722900 
# 
# 
# High freq. dielectric constant tensor:
#      x y z
#    x 1.746080 0.000000 -0.001400 
#    y 0.000000 1.690830 0.000000 
#    z -0.001400 0.000000 1.745370 
# 
# From -- ./inp_files/26571.got.cif
#   From: 2010.03.12/outbox.cif.g09.slc.cpg/sg8_14_cif.got.tgz:26571.got - 2010.03.31 10:45:26.
