data_PCOD8053787
_publ_section_title
;
Structure prediction by ZEFSAII (Michael W. Deem and Ramdas Pophale) SiO2 
 PCOD8053787
Probable space group: C M
;
_chemical_formula_sum "Si O2"
_cell_formula_units_Z 32
_cell_length_a 19.527064
_cell_length_b 9.172269
_cell_length_c 11.904261
_cell_angle_alpha 90.000000
_cell_angle_beta 128.210903
_cell_angle_gamma 90.000000
_cell_volume 1675.307733
_symmetry_space_group_name_H-M "C M"
_symmetry_group_IT_number 8
_symmetry_cell_setting 'monoclinic'
loop_
_space_group_symop_operation_xyz
x,y,z
x,-y,z
1/2+x,1/2+y,z
1/2+x,1/2-y,z
loop_
_atom_site_type_symbol
_atom_site_label
_atom_site_fract_x
_atom_site_fract_y
_atom_site_fract_z
Si Si1 0.133600 0.667883 0.475780
Si Si2 0.207501 0.326797 0.919324
Si Si3 0.045263 0.331606 0.610934
Si Si4 0.567664 0.665202 0.198108
Si Si5 0.871106 0.832641 0.937158
Si Si6 0.356900 0.826606 0.473530
Si Si7 0.705838 0.330291 0.154378
Si Si8 0.305885 0.172552 0.668700
O O1 0.161753 0.500000 0.494024
O O2 0.057860 0.688843 0.490559
O O3 0.103081 0.723236 0.324919
O O4 0.212962 0.760539 0.605169
O O5 0.204417 0.500000 0.927503
O O6 0.124895 0.264991 0.764631
O O7 0.296754 0.278357 0.948060
O O8 0.204343 0.259142 0.038932
O O9 0.040604 0.500000 0.639066
O O10 0.952088 0.258270 0.544304
O O11 0.591071 0.500000 0.259588
O O12 0.614887 0.697160 0.127579
O O13 0.464746 0.687561 0.088291
O O14 0.873620 0.734532 0.828020
O O15 0.854008 0.000000 0.885595
O O16 0.285628 0.770822 0.311774
O O17 0.331244 0.772023 0.570905
O O18 0.358819 0.000000 0.471202
O O19 0.718142 0.500000 0.138192
O O20 0.303115 0.000000 0.673930
#
# Coordination Sequence:
#
# PCOD8053787 Si02
#       8
#     4   4   4   4   4   4   4   4
#     4  11  21  37  62  86 113 148 192 237 284 338
#     4  10  21  38  57  80 114 150 185 228 282 337
#     4   9  19  36  57  81 111 146 183 231 284 331
#     4  10  22  40  59  82 117 154 188 234 288 334
#     4  10  22  40  59  82 117 154 188 234 288 334
#     4   9  19  36  57  81 111 146 183 231 284 331
#     4  10  21  38  57  80 114 150 185 228 282 337
#     4  11  21  37  62  86 113 148 192 237 284 338
#
# _framework density 19.100968999999999
#
# number of rings (size 3 to 8) (size 9 to 14) (size 15 to 20)
#    0.000    2.000    2.500    0.750    3.500    1.500 
#    0.000    0.000    0.000    3.750    0.000    0.000 
#    0.000    0.000    0.000    0.000    0.000    0.000 
#
# Total GULP energy -198405.227074 kJ/mol
# GULP energy per Si atom -12400.326692 kJ/mol
# Density = 1.905749 g / cm^3
# Si number density = 19.100969 Si / 1000 Ang^3
#
#
#
# Elastic Constant Matrix: (Units=GPa)
#
#
# Indices 1 2 3 4 5 6 
#
# 1 109.4635 22.4823 41.4083 0.0000 8.0913 0.0000
# 2 22.4823 48.2836 29.3974 0.0000 -7.2014 0.0000
# 3 41.4083 29.3974 88.7655 0.0000 -8.3133 0.0000
# 4 0.0000 0.0000 0.0000 31.2261 0.0000 -8.4984
# 5 8.0913 -7.2014 -8.3133 0.0000 38.4797 0.0000
# 6 0.0000 0.0000 0.0000 -8.4984 0.0000 22.2134
#
#
#
# Elastic Compliance Matrix: (Units=1/GPa)
#
#
# Indices 1 2 3 4 5 6 
#
# 1 0.011959 -0.003202 -0.004909 0.000000 -0.004174 0.000000
# 2 -0.003202 0.027157 -0.007105 0.000000 0.004221 0.000000
# 3 -0.004909 -0.007105 0.016209 0.000000 0.003204 0.000000
# 4 0.000000 0.000000 0.000000 0.035747 0.000000 0.013676
# 5 -0.004174 0.004221 0.003204 0.000000 0.028348 0.000000
# 6 0.000000 0.000000 0.000000 0.013676 0.000000 0.050250
#
#
# Mechanical properties :
#
#
# Convention : Reuss Voigt Hill
#
# Bulk Modulus (GPa) = 40.17256 48.12095 44.14675
# Shear Modulus (GPa) = 23.99243 28.59878 26.29561
#
# Velocity S-wave (km/s) = 3.54797 3.87362 3.71437
# Velocity P-wave (km/s) = 6.15317 6.72712 6.44654
#
# Compressibility (1/GPa) = 0.02489262
#
# Stress axis : x y z
#
# Youngs Moduli (GPa) = 83.62082 36.82253 61.69472
#
# Poissons Ratio (x) = 0.11791 0.30287
# Poissons Ratio (y) = 0.26776 0.43834
# Poissons Ratio (z) = 0.41051 0.26162
#
# Static dielectric constant tensor:
#      x y z
#    x 3.714220 0.000000 0.186330 
#    y 0.000000 3.233470 0.000000 
#    z 0.186330 0.000000 3.589570 
# 
# 
# High freq. dielectric constant tensor:
#      x y z
#    x 1.755340 0.000000 0.001900 
#    y 0.000000 1.713840 0.000000 
#    z 0.001900 0.000000 1.749150 
# 
# From -- ./inp_files/23891.got.cif
#   From: 2010.03.12/outbox.cif.g09.slc.cpg/sg8_12_cif.got.tgz:23891.got - 2010.03.31 10:45:26.
