data_PCOD8053490
_publ_section_title
;
Structure prediction by ZEFSAII (Michael W. Deem and Ramdas Pophale) SiO2 
 PCOD8053490
Probable space group: C M
;
_chemical_formula_sum "Si O2"
_cell_formula_units_Z 32
_cell_length_a 14.429278
_cell_length_b 8.586931
_cell_length_c 14.008167
_cell_angle_alpha 90.000000
_cell_angle_beta 73.967996
_cell_angle_gamma 90.000000
_cell_volume 1668.153027
_symmetry_space_group_name_H-M "C M"
_symmetry_group_IT_number 8
_symmetry_cell_setting 'monoclinic'
loop_
_space_group_symop_operation_xyz
x,y,z
x,-y,z
1/2+x,1/2+y,z
1/2+x,1/2-y,z
loop_
_atom_site_type_symbol
_atom_site_label
_atom_site_fract_x
_atom_site_fract_y
_atom_site_fract_z
Si Si1 0.092260 0.816216 0.322540
Si Si2 0.390425 0.817106 0.313471
Si Si3 0.276663 0.681597 0.177540
Si Si4 0.201460 0.183491 0.474984
Si Si5 0.191047 0.177804 0.688443
Si Si6 0.576209 0.678147 0.896954
Si Si7 0.771089 0.817681 0.839559
Si Si8 0.877213 0.680597 0.973390
O O1 0.178500 0.775358 0.225750
O O2 0.124618 0.754669 0.418630
O O3 0.994763 0.731220 0.320821
O O4 0.074716 0.000000 0.325692
O O5 0.363938 0.731811 0.222454
O O6 0.310215 0.769500 0.414833
O O7 0.388372 0.000000 0.293679
O O8 0.255530 0.500000 0.194941
O O9 0.308956 0.719020 0.061203
O O10 0.178883 0.253293 0.586655
O O11 0.190196 0.000000 0.481099
O O12 0.090099 0.185447 0.776676
O O13 0.272095 0.272075 0.726472
O O14 0.227083 0.000000 0.669197
O O15 0.564517 0.500000 0.934627
O O16 0.671590 0.755468 0.916150
O O17 0.488341 0.779521 0.960017
O O18 0.783706 0.000000 0.849103
O O19 0.856563 0.729768 0.870137
O O20 0.858903 0.500000 0.996876
#
# Coordination Sequence:
#
# PCOD8053490 Si02
#       8
#     4   4   4   4   4   4   4   4
#     4  10  20  37  59  85 115 147 185 228 277 332
#     4  10  20  37  59  85 115 147 185 228 276 332
#     4  11  23  39  59  83 112 144 184 232 282 332
#     4   8  16  34  58  81 113 151 186 228 276 324
#     4   8  16  35  58  79 113 153 185 229 279 320
#     4   9  19  36  57  80 111 146 185 229 275 323
#     4  10  20  36  55  80 112 147 186 229 274 324
#     4  12  23  38  59  83 111 147 188 229 279 333
#
# _framework density 19.182894000000001
#
# number of rings (size 3 to 8) (size 9 to 14) (size 15 to 20)
#    0.750    1.500    0.000    4.875    0.000    1.000 
#    2.250    8.750    0.000    0.000    0.000    0.000 
#    0.000    0.000    0.000    0.000    0.000    0.000 
#
# Total GULP energy -198305.572134 kJ/mol
# GULP energy per Si atom -12394.098258 kJ/mol
# Density = 1.913923 g / cm^3
# Si number density = 19.182894 Si / 1000 Ang^3
#
#
#
# Elastic Constant Matrix: (Units=GPa)
#
#
# Indices 1 2 3 4 5 6 
#
# 1 78.6230 9.0038 4.8903 0.0000 4.7497 0.0000
# 2 9.0038 75.1961 10.3201 0.0000 2.0491 0.0000
# 3 4.8903 10.3201 63.0358 0.0000 2.8561 0.0000
# 4 0.0000 0.0000 0.0000 22.8029 0.0000 0.5854
# 5 4.7497 2.0491 2.8561 0.0000 19.9144 0.0000
# 6 0.0000 0.0000 0.0000 0.5854 0.0000 32.4277
#
#
#
# Elastic Compliance Matrix: (Units=1/GPa)
#
#
# Indices 1 2 3 4 5 6 
#
# 1 0.013094 -0.001399 -0.000656 0.000000 -0.002885 0.000000
# 2 -0.001399 0.013777 -0.002112 0.000000 -0.000781 0.000000
# 3 -0.000656 -0.002112 0.016350 0.000000 -0.001971 0.000000
# 4 0.000000 0.000000 0.000000 0.043874 0.000000 -0.000792
# 5 -0.002885 -0.000781 -0.001971 0.000000 0.051266 0.000000
# 6 0.000000 0.000000 0.000000 -0.000792 0.000000 0.030852
#
#
# Mechanical properties :
#
#
# Convention : Reuss Voigt Hill
#
# Bulk Modulus (GPa) = 28.66354 29.47593 29.06974
# Shear Modulus (GPa) = 26.43028 27.87172 27.15100
#
# Velocity S-wave (km/s) = 3.71591 3.81589 3.76623
# Velocity P-wave (km/s) = 5.77800 5.90032 5.83948
#
# Compressibility (1/GPa) = 0.03488753
#
# Stress axis : x y z
#
# Youngs Moduli (GPa) = 76.36945 72.58374 61.16241
#
# Poissons Ratio (x) = 0.10156 0.04013
# Poissons Ratio (y) = 0.10686 0.12915
# Poissons Ratio (z) = 0.05010 0.15327
#
# Static dielectric constant tensor:
#      x y z
#    x 3.362490 0.000000 0.102760 
#    y 0.000000 3.366780 0.000000 
#    z 0.102760 0.000000 3.599190 
# 
# 
# High freq. dielectric constant tensor:
#      x y z
#    x 1.735370 0.000000 0.007190 
#    y 0.000000 1.744350 0.000000 
#    z 0.007190 0.000000 1.737550 
# 
# From -- ./inp_files/26429.got.cif
#   From: 2010.03.12/outbox.cif.g09.slc.cpg/sg8_14_cif.got.tgz:26429.got - 2010.03.31 10:45:26.
