data_PCOD8053691
_publ_section_title
;
Structure prediction by ZEFSAII (Michael W. Deem and Ramdas Pophale) SiO2 
 PCOD8053691
Probable space group: C M
;
_chemical_formula_sum "Si O2"
_cell_formula_units_Z 32
_cell_length_a 19.538155
_cell_length_b 8.253016
_cell_length_c 23.789380
_cell_angle_alpha 90.000000
_cell_angle_beta 156.541616
_cell_angle_gamma 90.000000
_cell_volume 1527.048571
_symmetry_space_group_name_H-M "C M"
_symmetry_group_IT_number 8
_symmetry_cell_setting 'monoclinic'
loop_
_space_group_symop_operation_xyz
x,y,z
x,-y,z
1/2+x,1/2+y,z
1/2+x,1/2-y,z
loop_
_atom_site_type_symbol
_atom_site_label
_atom_site_fract_x
_atom_site_fract_y
_atom_site_fract_z
Si Si1 0.974720 0.186557 0.977750
Si Si2 0.961861 0.692327 0.233986
Si Si3 0.838241 0.810550 0.481581
Si Si4 0.346143 0.806979 0.268005
Si Si5 0.138596 0.310975 0.781687
Si Si6 0.527751 0.811096 0.517519
Si Si7 0.165038 0.809800 0.924672
Si Si8 0.398891 0.812851 0.804690
O O1 0.804100 0.268797 0.874912
O O2 0.983003 0.208937 0.917455
O O3 0.965038 0.000000 0.987004
O O4 0.153693 0.260862 0.135298
O O5 0.960672 0.500000 0.235622
O O6 0.921515 0.762755 0.266015
O O7 0.149508 0.755372 0.356403
O O8 0.817653 0.751832 0.080838
O O9 0.893860 0.718319 0.466904
O O10 0.968285 0.778471 0.631206
O O11 0.831888 0.000000 0.463829
O O12 0.457300 0.750097 0.404592
O O13 0.338368 0.000000 0.257835
O O14 0.117111 0.500000 0.751316
O O15 0.174864 0.286206 0.874223
O O16 0.695023 0.704584 0.653570
O O17 0.575969 0.000000 0.552281
O O18 0.978602 0.763719 0.808674
O O19 0.177761 0.000000 0.922644
O O20 0.448676 0.000000 0.848232
#
# Coordination Sequence:
#
# PCOD8053691 Si02
#       8
#     4   4   4   4   4   4   4   4
#     4  10  20  40  67  89 119 160 206 257 310 367
#     4   9  20  39  63  90 120 160 207 254 302 364
#     4  11  23  40  62  90 126 165 206 254 307 363
#     4   9  19  38  64  91 116 156 208 253 302 367
#     4  11  24  40  62  94 127 161 208 258 308 364
#     4  11  23  39  64  92 121 164 208 251 310 369
#     4  11  23  42  67  90 122 166 209 253 310 370
#     4  12  24  40  63  92 125 158 204 262 311 364
#
# _framework density 20.955456999999999
#
# number of rings (size 3 to 8) (size 9 to 14) (size 15 to 20)
#    0.000    1.500    2.500    2.625    3.500    0.500 
#    0.000    3.125    0.000    0.000    0.000    0.000 
#    0.000    0.000    0.000    0.000    0.000    0.000 
#
# Total GULP energy -198407.425628 kJ/mol
# GULP energy per Si atom -12400.464102 kJ/mol
# Density = 2.090776 g / cm^3
# Si number density = 20.955457 Si / 1000 Ang^3
#
#
#
# Elastic Constant Matrix: (Units=GPa)
#
#
# Indices 1 2 3 4 5 6 
#
# 1 121.7330 9.3432 39.1750 0.0010 -4.9612 0.0017
# 2 9.3432 25.0558 13.0695 0.0003 6.7514 0.0000
# 3 39.1750 13.0695 103.9904 -0.0036 2.9469 0.0014
# 4 0.0010 0.0003 -0.0036 19.1939 -0.0006 1.7577
# 5 -4.9612 6.7514 2.9469 -0.0006 42.9059 0.0002
# 6 0.0017 0.0000 0.0014 1.7577 0.0002 28.5972
#
#
#
# Elastic Compliance Matrix: (Units=1/GPa)
#
#
# Indices 1 2 3 4 5 6 
#
# 1 0.009537 -0.002261 -0.003357 -0.000001 0.001689 0.000000
# 2 -0.002261 0.045055 -0.004612 -0.000002 -0.007034 0.000001
# 3 -0.003357 -0.004612 0.011473 0.000002 -0.000450 -0.000001
# 4 -0.000001 -0.000002 0.000002 0.052395 0.000001 -0.003220
# 5 0.001689 -0.007034 -0.000450 0.000001 0.024640 0.000000
# 6 0.000000 0.000001 -0.000001 -0.003220 0.000000 0.035166
#
#
# Mechanical properties :
#
#
# Convention : Reuss Voigt Hill
#
# Bulk Modulus (GPa) = 21.92622 41.55052 31.73837
# Shear Modulus (GPa) = 23.37254 30.75216 27.06235
#
# Velocity S-wave (km/s) = 3.34330 3.83495 3.59754
# Velocity P-wave (km/s) = 5.03880 6.28333 5.69516
#
# Compressibility (1/GPa) = 0.04560749
#
# Stress axis : x y z
#
# Youngs Moduli (GPa) = 104.85219 22.19526 87.16042
#
# Poissons Ratio (x) = 0.05018 0.29256
# Poissons Ratio (y) = 0.23704 0.40194
# Poissons Ratio (z) = 0.35195 0.10235
#
# Static dielectric constant tensor:
#      x y z
#    x 3.918170 0.000000 0.081930 
#    y 0.000000 3.414070 0.000000 
#    z 0.081930 0.000000 4.084160 
# 
# 
# High freq. dielectric constant tensor:
#      x y z
#    x 1.830190 0.000000 0.005310 
#    y 0.000000 1.793530 0.000000 
#    z 0.005310 0.000000 1.832640 
# 
# From -- ./inp_files/33065.got.cif
#   From: 2010.03.12/outbox.cif.g09.slc.cpg/sg8_17_cif.got.tgz:33065.got - 2010.03.31 10:45:26.
