data_PCOD8053692
_publ_section_title
;
Structure prediction by ZEFSAII (Michael W. Deem and Ramdas Pophale) SiO2 
 PCOD8053692
Probable space group: C M
;
_chemical_formula_sum "Si O2"
_cell_formula_units_Z 32
_cell_length_a 19.089526
_cell_length_b 8.644241
_cell_length_c 11.906029
_cell_angle_alpha 90.000000
_cell_angle_beta 52.605322
_cell_angle_gamma 90.000000
_cell_volume 1560.871012
_symmetry_space_group_name_H-M "C M"
_symmetry_group_IT_number 8
_symmetry_cell_setting 'monoclinic'
loop_
_space_group_symop_operation_xyz
x,y,z
x,-y,z
1/2+x,1/2+y,z
1/2+x,1/2-y,z
loop_
_atom_site_type_symbol
_atom_site_label
_atom_site_fract_x
_atom_site_fract_y
_atom_site_fract_z
Si Si1 0.133860 0.173979 0.808230
Si Si2 0.395870 0.319685 0.790635
Si Si3 0.370026 0.317250 0.361790
Si Si4 0.230135 0.818150 0.078831
Si Si5 0.832672 0.673233 0.634865
Si Si6 0.082349 0.320440 0.635812
Si Si7 0.725506 0.319506 0.345361
Si Si8 0.061540 0.183448 0.108326
O O1 0.230620 0.171778 0.768616
O O2 0.130803 0.289201 0.706555
O O3 0.107470 0.000000 0.794886
O O4 0.071498 0.235802 0.968931
O O5 0.410680 0.500000 0.792575
O O6 0.384031 0.283264 0.670517
O O7 0.482158 0.231748 0.749057
O O8 0.313803 0.266457 0.944692
O O9 0.369419 0.500000 0.380158
O O10 0.338549 0.234298 0.503886
O O11 0.304671 0.275304 0.324504
O O12 0.467771 0.253051 0.241076
O O13 0.224483 0.778705 0.215446
O O14 0.140602 0.752325 0.109315
O O15 0.241306 0.000000 0.046090
O O16 0.872014 0.500000 0.604690
O O17 0.088219 0.500000 0.601385
O O18 0.131220 0.228049 0.489009
O O19 0.741103 0.500000 0.352132
O O20 0.063516 0.000000 0.112755
#
# Coordination Sequence:
#
# PCOD8053692 Si02
#       8
#     4   4   4   4   4   4   4   4
#     4  10  20  40  68  92 123 165 210 260 319 378
#     4  12  26  43  66  95 129 168 215 265 322 385
#     4  11  23  39  64  95 128 168 214 262 316 379
#     4  10  22  44  67  91 127 170 214 261 319 380
#     4  11  22  41  68  93 126 166 210 266 324 377
#     4  12  26  43  65  94 129 167 216 269 319 381
#     4  11  24  42  65  92 129 172 212 264 323 379
#     4   9  20  40  65  92 123 164 209 257 312 373
#
# _framework density 20.501374999999999
#
# number of rings (size 3 to 8) (size 9 to 14) (size 15 to 20)
#    0.000    1.250    2.500    3.375    3.500    1.500 
#    0.000    1.875    0.000    0.000    0.000    0.000 
#    0.000    0.000    0.000    0.000    0.000    0.000 
#
# Total GULP energy -198470.232817 kJ/mol
# GULP energy per Si atom -12404.389551 kJ/mol
# Density = 2.045471 g / cm^3
# Si number density = 20.501375 Si / 1000 Ang^3
#
#
#
# Elastic Constant Matrix: (Units=GPa)
#
#
# Indices 1 2 3 4 5 6 
#
# 1 83.5406 16.7543 39.5820 0.0000 -5.2995 0.0000
# 2 16.7543 57.9116 23.7548 0.0000 2.6913 0.0000
# 3 39.5820 23.7548 108.5418 0.0000 -2.2300 0.0000
# 4 0.0000 0.0000 0.0000 27.1532 0.0000 0.3706
# 5 -5.2995 2.6913 -2.2300 0.0000 38.8887 0.0000
# 6 0.0000 0.0000 0.0000 0.3706 0.0000 30.8562
#
#
#
# Elastic Compliance Matrix: (Units=1/GPa)
#
#
# Indices 1 2 3 4 5 6 
#
# 1 0.014876 -0.002399 -0.004860 0.000000 0.001914 0.000000
# 2 -0.002399 0.019452 -0.003421 0.000000 -0.001869 0.000000
# 3 -0.004860 -0.003421 0.011739 0.000000 0.000248 0.000000
# 4 0.000000 0.000000 0.000000 0.036834 0.000000 -0.000442
# 5 0.001914 -0.001869 0.000248 0.000000 0.026119 0.000000
# 6 0.000000 0.000000 0.000000 -0.000442 0.000000 0.032414
#
#
# Mechanical properties :
#
#
# Convention : Reuss Voigt Hill
#
# Bulk Modulus (GPa) = 40.47499 45.57513 43.02506
# Shear Modulus (GPa) = 29.23488 30.70650 29.97069
#
# Velocity S-wave (km/s) = 3.78033 3.87431 3.82761
# Velocity P-wave (km/s) = 6.23217 6.50325 6.36915
#
# Compressibility (1/GPa) = 0.02470662
#
# Stress axis : x y z
#
# Youngs Moduli (GPa) = 67.22398 51.40935 85.18485
#
# Poissons Ratio (x) = 0.12333 0.41403
# Poissons Ratio (y) = 0.16127 0.29139
# Poissons Ratio (z) = 0.32673 0.17585
#
# Static dielectric constant tensor:
#      x y z
#    x 3.804230 0.000000 -0.121330 
#    y 0.000000 3.595470 0.000000 
#    z -0.121330 0.000000 3.848730 
# 
# 
# High freq. dielectric constant tensor:
#      x y z
#    x 1.808610 0.000000 -0.000130 
#    y 0.000000 1.790410 0.000000 
#    z -0.000130 0.000000 1.815040 
# 
# From -- ./inp_files/23892.got.cif
#   From: 2010.03.12/outbox.cif.g09.slc.cpg/sg8_12_cif.got.tgz:23892.got - 2010.03.31 10:45:26.
