data_PCOD8053614
_publ_section_title
;
Structure prediction by ZEFSAII (Michael W. Deem and Ramdas Pophale) SiO2 
 PCOD8053614
Probable space group: C M
;
_chemical_formula_sum "Si O2"
_cell_formula_units_Z 28
_cell_length_a 8.357683
_cell_length_b 12.854565
_cell_length_c 11.715485
_cell_angle_alpha 90.000000
_cell_angle_beta 110.510662
_cell_angle_gamma 90.000000
_cell_volume 1178.856528
_symmetry_space_group_name_H-M "C M"
_symmetry_group_IT_number 8
_symmetry_cell_setting 'monoclinic'
loop_
_space_group_symop_operation_xyz
x,y,z
x,-y,z
1/2+x,1/2+y,z
1/2+x,1/2-y,z
loop_
_atom_site_type_symbol
_atom_site_label
_atom_site_fract_x
_atom_site_fract_y
_atom_site_fract_z
Si Si1 0.082760 0.624558 0.182160
Si Si2 0.704666 0.385548 0.425719
Si Si3 0.208444 0.245723 0.637064
Si Si4 0.048981 0.385490 0.421506
Si Si5 0.017656 0.877866 0.778331
Si Si6 0.936330 0.876865 0.182528
Si Si7 0.198518 0.877308 0.059505
O O1 0.073952 0.500000 0.172692
O O2 0.237449 0.664275 0.136945
O O3 0.127917 0.660648 0.323624
O O4 0.892259 0.671123 0.110129
O O5 0.680353 0.500000 0.471941
O O6 0.780263 0.314918 0.545336
O O7 0.842637 0.388643 0.356728
O O8 0.523198 0.349517 0.326522
O O9 0.347569 0.308369 0.745070
O O10 0.082314 0.327995 0.548357
O O11 0.117621 0.160817 0.692500
O O12 0.126563 0.500000 0.456571
O O13 0.973681 0.000000 0.755675
O O14 0.129833 0.854485 0.916612
O O15 0.059169 0.827224 0.114341
O O16 0.930407 0.000000 0.160836
O O17 0.210868 0.000000 0.086778
#
# Coordination Sequence:
#
# PCOD8053614 Si02
#       7
#     4   4   4   4   4   4   4
#     4   9  17  32  62 100 131 171 223 277 350 421
#     4  10  20  37  63  95 134 175 218 280 351 412
#     4  12  24  44  64  96 138 180 236 282 338 414
#     4  10  20  37  63  95 134 175 218 280 351 412
#     4  11  26  47  71  97 137 188 235 289 340 404
#     4   9  17  32  62 100 131 171 223 277 350 421
#     4   9  18  39  64  91 133 176 224 283 341 404
#
# _framework density 23.751830000000002
#
# number of rings (size 3 to 8) (size 9 to 14) (size 15 to 20)
#    0.000    2.000    2.857    0.857    2.000    0.000 
#    2.571    1.429    0.000    0.000    0.000    0.000 
#    0.000    0.000    0.000    0.000    0.000    0.000 
#
# Total GULP energy -173453.848388 kJ/mol
# GULP energy per Si atom -12389.560599 kJ/mol
# Density = 2.369777 g / cm^3
# Si number density = 23.751830 Si / 1000 Ang^3
#
#
#
# Elastic Constant Matrix: (Units=GPa)
#
#
# Indices 1 2 3 4 5 6 
#
# 1 153.9561 42.2072 49.1661 0.0000 7.0049 0.0000
# 2 42.2072 68.7790 12.5123 0.0000 2.2426 0.0000
# 3 49.1661 12.5123 107.9821 0.0000 5.9054 0.0000
# 4 0.0000 0.0000 0.0000 -76.2424 0.0000 15.0007
# 5 7.0049 2.2426 5.9054 0.0000 32.6601 0.0000
# 6 0.0000 0.0000 0.0000 15.0007 0.0000 38.4406
#
#
#
# Elastic Compliance Matrix: (Units=1/GPa)
#
#
# Indices 1 2 3 4 5 6 
#
# 1 0.008977 -0.004845 -0.003473 0.000000 -0.000965 0.000000
# 2 -0.004845 0.017484 0.000191 0.000000 -0.000196 0.000000
# 3 -0.003473 0.000191 0.010888 0.000000 -0.001237 0.000000
# 4 0.000000 0.000000 0.000000 -0.012181 0.000000 0.004753
# 5 -0.000965 -0.000196 -0.001237 0.000000 0.031062 0.000000
# 6 0.000000 0.000000 0.000000 0.004753 0.000000 0.024159
#
#
# Mechanical properties :
#
#
# Convention : Reuss Voigt Hill
#
# Bulk Modulus (GPa) = 47.40746 59.83205 53.61976
# Shear Modulus (GPa) = 48.22717 14.09378 31.16048
#
# Velocity S-wave (km/s) = 4.51095 2.43857 3.62597
# Velocity P-wave (km/s) = 6.86545 5.75969 6.33674
#
# Compressibility (1/GPa) = 0.02109372
#
# Stress axis : x y z
#
# Youngs Moduli (GPa) = 111.39887 57.19367 91.84718
#
# Poissons Ratio (x) = 0.27713 0.31899
# Poissons Ratio (y) = 0.53978 -0.01754
# Poissons Ratio (z) = 0.38689 -0.01092
#
# Static dielectric constant tensor:
#      x y z
#    x 4.534910 0.000000 0.113130 
#    y 0.000000 4.405730 0.000000 
#    z 0.113130 0.000000 3.914830 
# 
# 
# High freq. dielectric constant tensor:
#      x y z
#    x 1.949980 0.000000 0.000920 
#    y 0.000000 1.970210 0.000000 
#    z 0.000920 0.000000 1.910910 
# 
# From -- ./inp_files/18803.got.cif
#   From: 2010.03.12/outbox.cif.g09.slc.cpg/sg8_10_cif.got.tgz:18803.got - 2010.03.31 10:45:26.
