data_PCOD8053895
_publ_section_title
;
Structure prediction by ZEFSAII (Michael W. Deem and Ramdas Pophale) SiO2 
 PCOD8053895
Probable space group: C M
;
_chemical_formula_sum "Si O2"
_cell_formula_units_Z 32
_cell_length_a 23.989773
_cell_length_b 13.502862
_cell_length_c 8.870488
_cell_angle_alpha 90.000000
_cell_angle_beta 149.996239
_cell_angle_gamma 90.000000
_cell_volume 1436.874568
_symmetry_space_group_name_H-M "C M"
_symmetry_group_IT_number 8
_symmetry_cell_setting 'monoclinic'
loop_
_space_group_symop_operation_xyz
x,y,z
x,-y,z
1/2+x,1/2+y,z
1/2+x,1/2-y,z
loop_
_atom_site_type_symbol
_atom_site_label
_atom_site_fract_x
_atom_site_fract_y
_atom_site_fract_z
Si Si1 0.046410 0.614489 0.514190
Si Si2 0.914936 0.115661 0.073839
Si Si3 0.251206 0.113691 0.415893
Si Si4 0.659568 0.386245 0.530065
Si Si5 0.714167 0.884972 0.398054
Si Si6 0.222561 0.724464 0.123481
Si Si7 0.499815 0.117293 0.064192
Si Si8 0.347215 0.776672 0.141612
O O1 0.084851 0.500000 0.616568
O O2 0.031433 0.650212 0.307173
O O3 0.928689 0.628638 0.322560
O O4 0.131434 0.689340 0.790636
O O5 0.904228 0.180707 0.199015
O O6 0.029981 0.135693 0.256567
O O7 0.901731 0.000000 0.086316
O O8 0.816222 0.155112 0.735528
O O9 0.183864 0.131913 0.411258
O O10 0.190513 0.176411 0.142184
O O11 0.249560 0.000000 0.361812
O O12 0.377327 0.156180 0.731358
O O13 0.689452 0.500000 0.642130
O O14 0.730475 0.310516 0.796230
O O15 0.740068 0.862459 0.285083
O O16 0.595757 0.839515 0.177999
O O17 0.705311 0.000000 0.400402
O O18 0.332129 0.747890 0.281543
O O19 0.493417 0.000000 0.044727
#
# Coordination Sequence:
#
# PCOD8053895 Si02
#       8
#     4   4   4   4   4   4   4   4
#     4  11  24  44  70  99 132 174 228 282 334 392
#     4  10  23  43  68  97 133 179 226 277 335 402
#     4  10  22  43  69 100 133 177 229 284 337 395
#     4  10  21  44  73  97 126 170 230 287 335 394
#     4  10  22  41  65  96 135 180 226 277 336 399
#     4  12  27  39  59 104 142 177 209 277 345 402
#     4   9  19  41  73  99 125 173 234 288 327 382
#     4  12  24  41  64 100 134 178 225 274 334 400
#
# _framework density 22.27056
#
# number of rings (size 3 to 8) (size 9 to 14) (size 15 to 20)
#    0.000    1.500    1.250    3.000    1.750    5.000 
#    0.000    0.625    0.000    0.000    0.000    0.000 
#    0.000    0.000    0.000    0.000    0.000    0.000 
#
# Total GULP energy -198372.009307 kJ/mol
# GULP energy per Si atom -12398.250582 kJ/mol
# Density = 2.221987 g / cm^3
# Si number density = 22.270560 Si / 1000 Ang^3
#
#
#
# Elastic Constant Matrix: (Units=GPa)
#
#
# Indices 1 2 3 4 5 6 
#
# 1 158.7921 36.3833 26.1446 0.0000 5.0151 0.0000
# 2 36.3833 77.4036 41.2392 0.0000 3.7108 0.0000
# 3 26.1446 41.2392 49.1006 0.0000 0.8114 0.0000
# 4 0.0000 0.0000 0.0000 37.2081 0.0000 -3.7305
# 5 5.0151 3.7108 0.8114 0.0000 34.9750 0.0000
# 6 0.0000 0.0000 0.0000 -3.7305 0.0000 35.6039
#
#
#
# Elastic Compliance Matrix: (Units=1/GPa)
#
#
# Indices 1 2 3 4 5 6 
#
# 1 0.007161 -0.002363 -0.001816 0.000000 -0.000734 0.000000
# 2 -0.002363 0.024307 -0.019127 0.000000 -0.001796 0.000000
# 3 -0.001816 -0.019127 0.037374 0.000000 0.001423 0.000000
# 4 0.000000 0.000000 0.000000 0.027161 0.000000 0.002846
# 5 -0.000734 -0.001796 0.001423 0.000000 0.028855 0.000000
# 6 0.000000 0.000000 0.000000 0.002846 0.000000 0.028385
#
#
# Mechanical properties :
#
#
# Convention : Reuss Voigt Hill
#
# Bulk Modulus (GPa) = 44.98493 54.75896 49.87194
# Shear Modulus (GPa) = 24.12360 33.65934 28.89147
#
# Velocity S-wave (km/s) = 3.29478 3.89187 3.60570
# Velocity P-wave (km/s) = 5.89213 6.69604 6.30691
#
# Compressibility (1/GPa) = 0.02222967
#
# Stress axis : x y z
#
# Youngs Moduli (GPa) = 139.64069 41.14075 26.75631
#
# Poissons Ratio (x) = 0.09723 0.04859
# Poissons Ratio (y) = 0.33002 0.51177
# Poissons Ratio (z) = 0.25359 0.78690
#
# Static dielectric constant tensor:
#      x y z
#    x 4.200230 0.000000 0.241310 
#    y 0.000000 4.058040 0.000000 
#    z 0.241310 0.000000 3.984400 
# 
# 
# High freq. dielectric constant tensor:
#      x y z
#    x 1.883600 0.000000 0.011250 
#    y 0.000000 1.890410 0.000000 
#    z 0.011250 0.000000 1.861700 
# 
# From -- ./inp_files/17119.got.cif
#   From: 2010.03.12/outbox.cif.g09.slc.cpg/sg8_9_cif.got.tgz:17119.got - 2010.03.31 10:45:26.
