data_PCOD8053440
_publ_section_title
;
Structure prediction by ZEFSAII (Michael W. Deem and Ramdas Pophale) SiO2 
 PCOD8053440
Probable space group: C M
;
_chemical_formula_sum "Si O2"
_cell_formula_units_Z 32
_cell_length_a 5.138069
_cell_length_b 19.369933
_cell_length_c 16.014066
_cell_angle_alpha 90.000000
_cell_angle_beta 87.906475
_cell_angle_gamma 90.000000
_cell_volume 1592.720936
_symmetry_space_group_name_H-M "C M"
_symmetry_group_IT_number 8
_symmetry_cell_setting 'monoclinic'
loop_
_space_group_symop_operation_xyz
x,y,z
x,-y,z
1/2+x,1/2+y,z
1/2+x,1/2-y,z
loop_
_atom_site_type_symbol
_atom_site_label
_atom_site_fract_x
_atom_site_fract_y
_atom_site_fract_z
Si Si1 0.539740 0.291045 0.031580
Si Si2 0.981731 0.580497 0.788453
Si Si3 0.493634 0.924398 0.142119
Si Si4 0.498481 0.582276 0.686925
Si Si5 0.945101 0.791358 0.370547
Si Si6 0.491051 0.643347 0.198385
Si Si7 0.977115 0.202803 0.557597
Si Si8 0.298737 0.080117 0.968949
O O1 0.281026 0.255847 0.999596
O O2 0.553026 0.294313 0.133173
O O3 0.558082 0.368338 0.991899
O O4 0.941159 0.500000 0.790929
O O5 0.763542 0.608332 0.727187
O O6 0.937222 0.607079 0.883026
O O7 0.268266 0.600249 0.754357
O O8 0.690336 0.874026 0.185713
O O9 0.196932 0.916988 0.176990
O O10 0.590840 0.000000 0.163483
O O11 0.505454 0.911780 0.042060
O O12 0.497825 0.500000 0.662819
O O13 0.460137 0.630650 0.607160
O O14 0.641953 0.773296 0.362094
O O15 0.028788 0.841442 0.295259
O O16 0.986098 0.823876 0.461685
O O17 0.730831 0.252302 0.577929
O O18 0.199039 0.000000 0.964053
#
# Coordination Sequence:
#
# PCOD8053440 Si02
#       8
#     4   4   4   4   4   4   4   4
#     4  11  22  36  53  80 113 142 179 231 280 318
#     4   9  19  35  59  84 108 144 192 233 267 329
#     4  10  21  35  54  80 111 147 191 236 276 322
#     4  10  20  37  59  84 112 144 184 230 281 335
#     4  10  20  35  57  82 107 141 188 230 267 329
#     4  11  20  35  56  78 109 151 187 226 279 330
#     4  10  21  38  60  86 115 145 182 229 281 336
#     4   9  20  39  59  80 109 152 195 229 273 331
#
# _framework density 20.091403
#
# number of rings (size 3 to 8) (size 9 to 14) (size 15 to 20)
#    0.000    2.000    0.000    4.125    0.000    3.500 
#    0.000   13.125    0.000    1.500    0.000    0.000 
#    0.000    0.000    0.000    0.000    0.000    0.000 
#
# Total GULP energy -198289.242552 kJ/mol
# GULP energy per Si atom -12393.077659 kJ/mol
# Density = 2.004567 g / cm^3
# Si number density = 20.091403 Si / 1000 Ang^3
#
#
#
# Elastic Constant Matrix: (Units=GPa)
#
#
# Indices 1 2 3 4 5 6 
#
# 1 89.9264 18.8832 9.6552 0.0000 -2.9429 0.0000
# 2 18.8832 72.8960 42.0540 0.0000 -6.6027 0.0000
# 3 9.6552 42.0540 119.3554 0.0000 -7.9707 0.0000
# 4 0.0000 0.0000 0.0000 27.5471 0.0000 0.1842
# 5 -2.9429 -6.6027 -7.9707 0.0000 24.3337 0.0000
# 6 0.0000 0.0000 0.0000 0.1842 0.0000 19.9895
#
#
#
# Elastic Compliance Matrix: (Units=1/GPa)
#
#
# Indices 1 2 3 4 5 6 
#
# 1 0.011772 -0.003096 0.000181 0.000000 0.000643 0.000000
# 2 -0.003096 0.018213 -0.005993 0.000000 0.002605 0.000000
# 3 0.000181 -0.005993 0.010600 0.000000 0.001868 0.000000
# 4 0.000000 0.000000 0.000000 0.036304 0.000000 -0.000335
# 5 0.000643 0.002605 0.001868 0.000000 0.042492 0.000000
# 6 0.000000 0.000000 0.000000 -0.000335 0.000000 0.050029
#
#
# Mechanical properties :
#
#
# Convention : Reuss Voigt Hill
#
# Bulk Modulus (GPa) = 43.91647 47.04029 45.47838
# Shear Modulus (GPa) = 25.66539 28.47976 27.07258
#
# Velocity S-wave (km/s) = 3.57800 3.76907 3.67477
# Velocity P-wave (km/s) = 6.24301 6.51192 6.37888
#
# Compressibility (1/GPa) = 0.02277050
#
# Stress axis : x y z
#
# Youngs Moduli (GPa) = 84.94838 54.90450 94.33970
#
# Poissons Ratio (x) = 0.16998 -0.01712
# Poissons Ratio (y) = 0.26299 0.56538
# Poissons Ratio (z) = -0.01542 0.32904
#
# Static dielectric constant tensor:
#      x y z
#    x 3.764810 0.000000 -0.078190 
#    y 0.000000 3.470510 0.000000 
#    z -0.078190 0.000000 3.842830 
# 
# 
# High freq. dielectric constant tensor:
#      x y z
#    x 1.797730 0.000000 -0.004060 
#    y 0.000000 1.761480 0.000000 
#    z -0.004060 0.000000 1.776820 
# 
# From -- ./inp_files/24954.got.cif
#   From: 2010.03.12/outbox.cif.g09.slc.cpg/sg8_13_cif.got.tgz:24954.got - 2010.03.31 10:45:26.
