data_PCOD8053282
_publ_section_title
;
Structure prediction by ZEFSAII (Michael W. Deem and Ramdas Pophale) SiO2 
 PCOD8053282
Probable space group: C M
;
_chemical_formula_sum "Si O2"
_cell_formula_units_Z 32
_cell_length_a 11.974765
_cell_length_b 13.838648
_cell_length_c 15.390440
_cell_angle_alpha 90.000000
_cell_angle_beta 142.263743
_cell_angle_gamma 90.000000
_cell_volume 1560.927424
_symmetry_space_group_name_H-M "C M"
_symmetry_group_IT_number 8
_symmetry_cell_setting 'monoclinic'
loop_
_space_group_symop_operation_xyz
x,y,z
x,-y,z
1/2+x,1/2+y,z
1/2+x,1/2-y,z
loop_
_atom_site_type_symbol
_atom_site_label
_atom_site_fract_x
_atom_site_fract_y
_atom_site_fract_z
Si Si1 0.365920 0.797015 0.455000
Si Si2 0.687981 0.109805 0.943921
Si Si3 0.252988 0.608745 0.692927
Si Si4 0.593802 0.606762 0.802870
Si Si5 0.580745 0.708824 0.962813
Si Si6 0.605149 0.613037 0.154355
Si Si7 0.561792 0.612219 0.590675
Si Si8 0.352825 0.890324 0.623895
O O1 0.555489 0.850256 0.551184
O O2 0.213662 0.833730 0.296564
O O3 0.391934 0.681253 0.461031
O O4 0.301671 0.820909 0.513185
O O5 0.619703 0.176283 0.982920
O O6 0.561109 0.128953 0.781258
O O7 0.662088 0.000000 0.960681
O O8 0.893686 0.130962 0.043213
O O9 0.236030 0.500000 0.722229
O O10 0.371775 0.605531 0.677095
O O11 0.366769 0.676868 0.830200
O O12 0.675667 0.500000 0.865212
O O13 0.679624 0.670787 0.933870
O O14 0.635873 0.643432 0.731641
O O15 0.667534 0.662006 0.102203
O O16 0.654122 0.500000 0.181591
O O17 0.499675 0.500000 0.549903
O O18 0.726350 0.634984 0.627335
O O19 0.323031 0.000000 0.574680
#
# Coordination Sequence:
#
# PCOD8053282 Si02
#       8
#     4   4   4   4   4   4   4   4
#     4  12  23  36  63  92 124 158 204 248 300 359
#     4  10  22  39  59  86 121 159 201 247 298 357
#     4   9  18  35  62  93 121 149 193 254 305 345
#     4   8  17  35  61  92 121 150 190 250 307 353
#     4  10  19  37  62  88 115 156 199 243 299 355
#     4  11  24  41  60  87 123 160 199 249 303 358
#     4  10  22  39  60  91 125 156 198 252 307 358
#     4  10  21  38  63  93 120 154 200 251 301 355
#
# _framework density 20.500632
#
# number of rings (size 3 to 8) (size 9 to 14) (size 15 to 20)
#    0.750    1.250    0.000    4.125    1.750    3.000 
#    0.000    1.875    0.000    2.250    0.000    0.000 
#    0.000    0.000    0.000    0.000    0.000    0.000 
#
# Total GULP energy -198286.669261 kJ/mol
# GULP energy per Si atom -12392.916829 kJ/mol
# Density = 2.045397 g / cm^3
# Si number density = 20.500632 Si / 1000 Ang^3
#
#
#
# Elastic Constant Matrix: (Units=GPa)
#
#
# Indices 1 2 3 4 5 6 
#
# 1 107.5545 57.0498 54.8105 0.0003 -20.6697 0.0001
# 2 57.0498 139.0982 62.1515 0.0000 -13.8619 0.0001
# 3 54.8105 62.1515 113.5171 0.0001 -21.7853 0.0003
# 4 0.0003 0.0000 0.0001 28.0281 0.0000 -0.1266
# 5 -20.6697 -13.8619 -21.7853 0.0000 19.3859 0.0000
# 6 0.0001 0.0001 0.0003 -0.1266 0.0000 29.6449
#
#
#
# Elastic Compliance Matrix: (Units=1/GPa)
#
#
# Indices 1 2 3 4 5 6 
#
# 1 0.014708 -0.003613 -0.003327 0.000000 0.009360 0.000000
# 2 -0.003613 0.010427 -0.004173 0.000000 -0.001086 0.000000
# 3 -0.003327 -0.004173 0.014595 0.000000 0.009869 0.000000
# 4 0.000000 0.000000 0.000000 0.035679 0.000000 0.000152
# 5 0.009360 -0.001086 0.009869 0.000000 0.071878 0.000000
# 6 0.000000 0.000000 0.000000 0.000152 0.000000 0.033733
#
#
# Mechanical properties :
#
#
# Convention : Reuss Voigt Hill
#
# Bulk Modulus (GPa) = 57.13059 78.68816 67.90937
# Shear Modulus (GPa) = 23.91406 27.82232 25.86819
#
# Velocity S-wave (km/s) = 3.41912 3.68794 3.55607
# Velocity P-wave (km/s) = 6.59662 7.52337 7.07519
#
# Compressibility (1/GPa) = 0.01750376
#
# Stress axis : x y z
#
# Youngs Moduli (GPa) = 67.98790 95.90162 68.51867
#
# Poissons Ratio (x) = 0.34650 0.22799
# Poissons Ratio (y) = 0.24564 0.28592
# Poissons Ratio (z) = 0.22622 0.40018
#
# Static dielectric constant tensor:
#      x y z
#    x 3.639190 0.000000 -0.060440 
#    y 0.000000 4.007050 0.000000 
#    z -0.060440 0.000000 3.304740 
# 
# 
# High freq. dielectric constant tensor:
#      x y z
#    x 1.800140 0.000000 -0.007170 
#    y 0.000000 1.821130 0.000000 
#    z -0.007170 0.000000 1.754130 
# 
# From -- ./inp_files/29285.got.cif
#   From: 2010.03.12/outbox.cif.g09.slc.cpg/sg8_15_cif.got.tgz:29285.got - 2010.03.31 10:45:26.
