data_PCOD8053960
_publ_section_title
;
Structure prediction by ZEFSAII (Michael W. Deem and Ramdas Pophale) SiO2 
 PCOD8053960
Probable space group: C M
;
_chemical_formula_sum "Si O2"
_cell_formula_units_Z 32
_cell_length_a 23.782777
_cell_length_b 12.937676
_cell_length_c 9.571343
_cell_angle_alpha 90.000000
_cell_angle_beta 143.978292
_cell_angle_gamma 90.000000
_cell_volume 1731.955721
_symmetry_space_group_name_H-M "C M"
_symmetry_group_IT_number 8
_symmetry_cell_setting 'monoclinic'
loop_
_space_group_symop_operation_xyz
x,y,z
x,-y,z
1/2+x,1/2+y,z
1/2+x,1/2-y,z
loop_
_atom_site_type_symbol
_atom_site_label
_atom_site_fract_x
_atom_site_fract_y
_atom_site_fract_z
Si Si1 0.861230 0.120706 0.297970
Si Si2 0.421496 0.384749 0.981457
Si Si3 0.955915 0.192040 0.754938
Si Si4 0.998987 0.768549 0.368733
Si Si5 0.338143 0.884267 0.603477
Si Si6 0.201680 0.231125 0.873700
Si Si7 0.831483 0.689312 0.890557
Si Si8 0.654529 0.620528 0.055280
O O1 0.950516 0.172168 0.400245
O O2 0.878047 0.141239 0.495434
O O3 0.855341 0.000000 0.253343
O O4 0.763069 0.171965 0.049098
O O5 0.387100 0.500000 0.945459
O O6 0.458022 0.377305 0.897260
O O7 0.331609 0.308298 0.831695
O O8 0.508520 0.351486 0.260204
O O9 0.923833 0.309174 0.726969
O O10 0.062680 0.191091 0.906492
O O11 0.099614 0.723817 0.620469
O O12 0.931529 0.673988 0.178121
O O13 0.324058 0.885763 0.743232
O O14 0.238171 0.851790 0.332319
O O15 0.366529 0.000000 0.613453
O O16 0.245983 0.173071 0.827917
O O17 0.191206 0.146436 0.973889
O O18 0.625687 0.500000 0.003336
#
# Coordination Sequence:
#
# PCOD8053960 Si02
#       8
#     4   4   4   4   4   4   4   4
#     4  11  21  37  60  84 117 157 194 236 286 338
#     4   9  18  34  57  86 113 144 191 239 287 334
#     4  11  21  38  62  85 117 150 192 244 285 342
#     4   9  20  34  55  82 117 153 189 233 289 333
#     4  10  22  41  61  84 115 155 192 236 292 344
#     4  11  21  36  56  87 122 147 190 241 286 339
#     4   8  21  35  56  81 116 155 187 235 285 338
#     4  11  23  37  60  89 115 149 192 238 291 342
#
# _framework density 18.476222
#
# number of rings (size 3 to 8) (size 9 to 14) (size 15 to 20)
#    0.750    1.250    2.500    1.500    1.750    1.000 
#    0.000    1.250    0.000    3.750    0.000    0.000 
#    0.000    0.000    0.000    0.000    0.000    0.000 
#
# Total GULP energy -198293.859893 kJ/mol
# GULP energy per Si atom -12393.366243 kJ/mol
# Density = 1.843417 g / cm^3
# Si number density = 18.476222 Si / 1000 Ang^3
#
#
#
# Elastic Constant Matrix: (Units=GPa)
#
#
# Indices 1 2 3 4 5 6 
#
# 1 117.1427 28.5003 55.2366 0.0000 -3.3617 0.0000
# 2 28.5003 65.9144 35.2144 0.0000 11.9855 0.0000
# 3 55.2366 35.2144 118.3877 0.0000 3.4070 0.0000
# 4 0.0000 0.0000 0.0000 20.1526 0.0000 2.1089
# 5 -3.3617 11.9855 3.4070 0.0000 34.2670 0.0000
# 6 0.0000 0.0000 0.0000 2.1089 0.0000 13.2823
#
#
#
# Elastic Compliance Matrix: (Units=1/GPa)
#
#
# Indices 1 2 3 4 5 6 
#
# 1 0.011486 -0.003022 -0.004536 0.000000 0.002635 0.000000
# 2 -0.003022 0.020057 -0.004358 0.000000 -0.006878 0.000000
# 3 -0.004536 -0.004358 0.011862 0.000000 -0.000100 0.000000
# 4 0.000000 0.000000 0.000000 0.050460 0.000000 -0.008012
# 5 0.002635 -0.006878 -0.000100 0.000000 0.031857 0.000000
# 6 0.000000 0.000000 0.000000 -0.008012 0.000000 0.076560
#
#
# Mechanical properties :
#
#
# Convention : Reuss Voigt Hill
#
# Bulk Modulus (GPa) = 51.09028 59.92750 55.50889
# Shear Modulus (GPa) = 21.49248 25.70661 23.59954
#
# Velocity S-wave (km/s) = 3.41435 3.73411 3.57780
# Velocity P-wave (km/s) = 6.57690 7.14820 6.86849
#
# Compressibility (1/GPa) = 0.01957320
#
# Stress axis : x y z
#
# Youngs Moduli (GPa) = 87.05902 49.85819 84.30006
#
# Poissons Ratio (x) = 0.15069 0.38240
# Poissons Ratio (y) = 0.26312 0.36737
# Poissons Ratio (z) = 0.39491 0.21727
#
# Static dielectric constant tensor:
#      x y z
#    x 3.432370 0.000000 -0.254140 
#    y 0.000000 3.081820 0.000000 
#    z -0.254140 0.000000 3.489430 
# 
# 
# High freq. dielectric constant tensor:
#      x y z
#    x 1.719630 0.000000 -0.023670 
#    y 0.000000 1.689970 0.000000 
#    z -0.023670 0.000000 1.722110 
# 
# From -- ./inp_files/17123.got.cif
#   From: 2010.03.12/outbox.cif.g09.slc.cpg/sg8_9_cif.got.tgz:17123.got - 2010.03.31 10:45:26.
