data_PCOD8053422
_publ_section_title
;
Structure prediction by ZEFSAII (Michael W. Deem and Ramdas Pophale) SiO2 
 PCOD8053422
Probable space group: C M
;
_chemical_formula_sum "Si O2"
_cell_formula_units_Z 32
_cell_length_a 18.207233
_cell_length_b 8.993153
_cell_length_c 24.920271
_cell_angle_alpha 90.000000
_cell_angle_beta 24.390104
_cell_angle_gamma 90.000000
_cell_volume 1685.012580
_symmetry_space_group_name_H-M "C M"
_symmetry_group_IT_number 8
_symmetry_cell_setting 'monoclinic'
loop_
_space_group_symop_operation_xyz
x,y,z
x,-y,z
1/2+x,1/2+y,z
1/2+x,1/2-y,z
loop_
_atom_site_type_symbol
_atom_site_label
_atom_site_fract_x
_atom_site_fract_y
_atom_site_fract_z
Si Si1 0.422780 0.675667 0.689330
Si Si2 0.643018 0.828596 0.451840
Si Si3 0.046446 0.826640 0.195158
Si Si4 0.498236 0.828020 0.429632
Si Si5 0.216573 0.825401 0.193744
Si Si6 0.046295 0.825008 0.928481
Si Si7 0.872428 0.174547 0.932225
Si Si8 0.598840 0.324131 0.682729
O O1 0.393634 0.500000 0.707225
O O2 0.535572 0.724773 0.563324
O O3 0.235145 0.755507 0.815087
O O4 0.527224 0.727221 0.672912
O O5 0.559870 0.807050 0.449144
O O6 0.846771 0.774321 0.315773
O O7 0.629202 0.000000 0.479944
O O8 0.093274 0.782804 0.225090
O O9 0.069911 0.000000 0.169526
O O10 0.177551 0.745964 0.066359
O O11 0.623900 0.729977 0.309030
O O12 0.298735 0.764153 0.557074
O O13 0.509692 0.000000 0.404027
O O14 0.250650 0.000000 0.174632
O O15 0.405646 0.744101 0.063410
O O16 0.991885 0.783901 0.904077
O O17 0.054927 0.000000 0.931885
O O18 0.971963 0.241042 0.813895
O O19 0.843898 0.000000 0.946369
O O20 0.601948 0.500000 0.686750
#
# Coordination Sequence:
#
# PCOD8053422 Si02
#       8
#     4   4   4   4   4   4   4   4
#     4  11  22  35  54  80 109 139 175 222 270 314
#     4  10  21  37  56  78 107 142 179 219 263 315
#     4   9  19  35  54  79 110 140 172 215 265 312
#     4  10  20  36  57  78 105 142 182 220 259 312
#     4  10  20  35  55  80 111 141 173 218 267 314
#     4  10  20  36  58  80 105 141 181 217 260 316
#     4   9  18  35  58  79 102 138 180 217 257 311
#     4   9  19  35  54  78 107 139 176 218 263 312
#
# _framework density 18.990955
#
# number of rings (size 3 to 8) (size 9 to 14) (size 15 to 20)
#    0.000    2.250    0.000    2.625    0.000    5.000 
#    0.000    5.000    0.000    0.000    0.000    0.000 
#    0.000    0.000    0.000    0.000    0.000    0.000 
#
# Total GULP energy -198460.775225 kJ/mol
# GULP energy per Si atom -12403.798452 kJ/mol
# Density = 1.894773 g / cm^3
# Si number density = 18.990955 Si / 1000 Ang^3
#
#
#
# Elastic Constant Matrix: (Units=GPa)
#
#
# Indices 1 2 3 4 5 6 
#
# 1 96.5242 40.4526 73.9283 -0.0025 -10.8682 -0.0003
# 2 40.4526 58.4367 52.0258 -0.0073 -3.6102 -0.0019
# 3 73.9283 52.0258 166.4126 -0.0088 -9.0208 -0.0036
# 4 -0.0025 -0.0073 -0.0088 37.5997 -0.0018 -2.1604
# 5 -10.8682 -3.6102 -9.0208 -0.0018 39.7807 0.0009
# 6 -0.0003 -0.0019 -0.0036 -2.1604 0.0009 20.6722
#
#
#
# Elastic Compliance Matrix: (Units=1/GPa)
#
#
# Indices 1 2 3 4 5 6 
#
# 1 0.018030 -0.007357 -0.005547 -0.000001 0.003000 -0.000002
# 2 -0.007357 0.026724 -0.005127 0.000004 -0.000747 0.000002
# 3 -0.005547 -0.005127 0.010093 0.000001 0.000308 0.000001
# 4 -0.000001 0.000004 0.000001 0.026757 0.000001 0.002796
# 5 0.003000 -0.000747 0.000308 0.000001 0.025960 -0.000001
# 6 -0.000002 0.000002 0.000001 0.002796 -0.000001 0.048666
#
#
# Mechanical properties :
#
#
# Convention : Reuss Voigt Hill
#
# Bulk Modulus (GPa) = 53.23560 72.68741 62.96151
# Shear Modulus (GPa) = 25.18234 29.94165 27.56200
#
# Velocity S-wave (km/s) = 3.64540 3.97498 3.81376
# Velocity P-wave (km/s) = 6.76842 7.70877 7.25385
#
# Compressibility (1/GPa) = 0.01878442
#
# Stress axis : x y z
#
# Youngs Moduli (GPa) = 55.46419 37.41996 99.08043
#
# Poissons Ratio (x) = 0.27531 0.54959
# Poissons Ratio (y) = 0.40807 0.50796
# Poissons Ratio (z) = 0.30765 0.19184
#
# Static dielectric constant tensor:
#      x y z
#    x 3.535830 0.000000 -0.099700 
#    y 0.000000 3.364410 0.000040 
#    z -0.099700 0.000040 3.790230 
# 
# 
# High freq. dielectric constant tensor:
#      x y z
#    x 1.738860 0.000000 -0.003140 
#    y 0.000000 1.725360 0.000000 
#    z -0.003140 0.000000 1.754120 
# 
# From -- ./inp_files/33037.got.cif
#   From: 2010.03.12/outbox.cif.g09.slc.cpg/sg8_17_cif.got.tgz:33037.got - 2010.03.31 10:45:26.
