data_PCOD8053985
_publ_section_title
;
Structure prediction by ZEFSAII (Michael W. Deem and Ramdas Pophale) SiO2 
 PCOD8053985
Probable space group: C M
;
_chemical_formula_sum "Si O2"
_cell_formula_units_Z 32
_cell_length_a 11.527385
_cell_length_b 18.114937
_cell_length_c 9.615090
_cell_angle_alpha 90.000000
_cell_angle_beta 50.284117
_cell_angle_gamma 90.000000
_cell_volume 1544.446725
_symmetry_space_group_name_H-M "C M"
_symmetry_group_IT_number 8
_symmetry_cell_setting 'monoclinic'
loop_
_space_group_symop_operation_xyz
x,y,z
x,-y,z
1/2+x,1/2+y,z
1/2+x,1/2-y,z
loop_
_atom_site_type_symbol
_atom_site_label
_atom_site_fract_x
_atom_site_fract_y
_atom_site_fract_z
Si Si1 0.490910 0.314852 0.719670
Si Si2 0.746517 0.585346 0.018414
Si Si3 0.557737 0.154278 0.718286
Si Si4 0.200843 0.416458 0.355844
Si Si5 0.998155 0.583286 0.262531
Si Si6 0.679983 0.585971 0.385310
Si Si7 0.647237 0.809645 0.943553
Si Si8 0.998614 0.845989 0.026137
O O1 0.583597 0.238519 0.648903
O O2 0.543317 0.366977 0.553485
O O3 0.320837 0.288923 0.824286
O O4 0.512867 0.357691 0.849159
O O5 0.793051 0.500000 0.984456
O O6 0.882437 0.632461 0.851290
O O7 0.709396 0.611648 0.204292
O O8 0.603923 0.596752 0.027527
O O9 0.658278 0.101503 0.546100
O O10 0.619752 0.144135 0.825326
O O11 0.263413 0.500000 0.299186
O O12 0.045048 0.408534 0.387787
O O13 0.327167 0.360594 0.203129
O O14 0.025419 0.500000 0.187676
O O15 0.824249 0.604209 0.371396
O O16 0.109054 0.636884 0.097945
O O17 0.635927 0.500000 0.423976
O O18 0.542298 0.737470 0.032136
#
# Coordination Sequence:
#
# PCOD8053985 Si02
#       8
#     4   4   4   4   4   4   4   4
#     4  11  25  43  65  97 131 170 219 266 322 385
#     4  11  23  44  67  92 132 173 216 267 321 384
#     4  11  25  41  65  98 130 171 216 265 327 386
#     4  11  25  43  66  99 133 171 215 266 326 383
#     4  10  22  42  68  94 126 172 217 263 321 381
#     4  10  24  42  67  99 128 172 219 264 324 382
#     4  11  23  44  67  92 130 172 216 269 320 381
#     4  11  25  43  65  97 130 171 216 266 325 384
#
# _framework density 20.719394000000001
#
# number of rings (size 3 to 8) (size 9 to 14) (size 15 to 20)
#    0.000    1.250    3.750    0.750    5.250    3.000 
#    0.000    0.000    0.000    0.000    0.000    0.000 
#    0.000    0.000    0.000    0.000    0.000    0.000 
#
# Total GULP energy -198466.823831 kJ/mol
# GULP energy per Si atom -12404.176489 kJ/mol
# Density = 2.067224 g / cm^3
# Si number density = 20.719394 Si / 1000 Ang^3
#
#
#
# Elastic Constant Matrix: (Units=GPa)
#
#
# Indices 1 2 3 4 5 6 
#
# 1 94.8874 25.5504 23.3888 0.0000 1.7110 0.0000
# 2 25.5504 79.1168 54.6002 0.0000 0.2848 0.0000
# 3 23.3888 54.6002 113.4405 0.0000 4.1687 0.0000
# 4 0.0000 0.0000 0.0000 32.9322 0.0000 -2.7225
# 5 1.7110 0.2848 4.1687 0.0000 25.7539 0.0000
# 6 0.0000 0.0000 0.0000 -2.7225 0.0000 33.0583
#
#
#
# Elastic Compliance Matrix: (Units=1/GPa)
#
#
# Indices 1 2 3 4 5 6 
#
# 1 0.011610 -0.003160 -0.000851 0.000000 -0.000599 0.000000
# 2 -0.003160 0.019828 -0.008945 0.000000 0.001439 0.000000
# 3 -0.000851 -0.008945 0.013370 0.000000 -0.002009 0.000000
# 4 0.000000 0.000000 0.000000 0.030574 0.000000 0.002518
# 5 -0.000599 0.001439 -0.002009 0.000000 0.039178 0.000000
# 6 0.000000 0.000000 0.000000 0.002518 0.000000 0.030457
#
#
# Mechanical properties :
#
#
# Convention : Reuss Voigt Hill
#
# Bulk Modulus (GPa) = 52.91995 54.94707 53.93351
# Shear Modulus (GPa) = 28.21251 30.60923 29.41087
#
# Velocity S-wave (km/s) = 3.69405 3.84777 3.77169
# Velocity P-wave (km/s) = 6.61751 6.80570 6.71227
#
# Compressibility (1/GPa) = 0.01889646
#
# Stress axis : x y z
#
# Youngs Moduli (GPa) = 86.13076 50.43410 74.79665
#
# Poissons Ratio (x) = 0.15938 0.06363
# Poissons Ratio (y) = 0.27219 0.66903
# Poissons Ratio (z) = 0.07327 0.45112
#
# Static dielectric constant tensor:
#      x y z
#    x 3.840640 0.000000 0.133490 
#    y 0.000000 3.669040 0.000000 
#    z 0.133490 0.000000 3.555610 
# 
# 
# High freq. dielectric constant tensor:
#      x y z
#    x 1.821770 0.000000 0.007590 
#    y 0.000000 1.813810 0.000000 
#    z 0.007590 0.000000 1.802420 
# 
# From -- ./inp_files/11436.got.cif
#   From: 2010.03.12/outbox.cif.g09.slc.cpg/sg8_6_cif.got.tgz:11436.got - 2010.03.31 10:45:26.
