data_PCOD8053975
_publ_section_title
;
Structure prediction by ZEFSAII (Michael W. Deem and Ramdas Pophale) SiO2 
 PCOD8053975
Probable space group: C M
;
_chemical_formula_sum "Si O2"
_cell_formula_units_Z 24
_cell_length_a 8.995028
_cell_length_b 12.880207
_cell_length_c 9.297891
_cell_angle_alpha 90.000000
_cell_angle_beta 75.983859
_cell_angle_gamma 90.000000
_cell_volume 1045.161512
_symmetry_space_group_name_H-M "C M"
_symmetry_group_IT_number 8
_symmetry_cell_setting 'monoclinic'
loop_
_space_group_symop_operation_xyz
x,y,z
x,-y,z
1/2+x,1/2+y,z
1/2+x,1/2-y,z
loop_
_atom_site_type_symbol
_atom_site_label
_atom_site_fract_x
_atom_site_fract_y
_atom_site_fract_z
Si Si1 0.263510 0.119868 0.630090
Si Si2 0.545667 0.266212 0.477399
Si Si3 0.795501 0.303909 0.924504
Si Si4 0.046018 0.117572 0.191665
Si Si5 0.613417 0.882038 0.964632
Si Si6 0.713304 0.885876 0.248610
O O1 0.406979 0.191614 0.553888
O O2 0.110404 0.169913 0.598060
O O3 0.247955 0.119543 0.806405
O O4 0.285279 0.000000 0.573594
O O5 0.505234 0.348284 0.363245
O O6 0.678971 0.193899 0.382738
O O7 0.681398 0.317021 0.087377
O O8 0.764226 0.184248 0.881760
O O9 0.967980 0.325382 0.929616
O O10 0.885386 0.132417 0.144137
O O11 0.104611 0.000000 0.179006
O O12 0.595100 0.880574 0.142413
O O13 0.629328 0.000000 0.903316
O O14 0.706379 0.000000 0.320732
#
# Coordination Sequence:
#
# PCOD8053975 Si02
#       6
#     4   4   4   4   4   4
#     4  12  28  48  71 102 144 191 231 283 354 420
#     4  12  24  46  67 101 138 183 235 286 342 413
#     4  12  25  46  72 105 143 183 232 291 350 416
#     4  11  23  42  71 102 135 178 236 293 343 409
#     4  11  24  43  71 106 138 180 231 286 352 408
#     4  10  22  41  68 102 136 175 229 291 347 404
#
# _framework density 22.962959000000001
#
# number of rings (size 3 to 8) (size 9 to 14) (size 15 to 20)
#    0.000    0.667    3.333    4.500    2.333    0.000 
#    0.000    7.500    0.000    0.000    0.000    0.000 
#    0.000    0.000    0.000    0.000    0.000    0.000 
#
# Total GULP energy -148764.096773 kJ/mol
# GULP energy per Si atom -12397.008064 kJ/mol
# Density = 2.291069 g / cm^3
# Si number density = 22.962959 Si / 1000 Ang^3
#
#
#
# Elastic Constant Matrix: (Units=GPa)
#
#
# Indices 1 2 3 4 5 6 
#
# 1 111.8667 69.9612 21.9993 0.0000 23.6796 0.0000
# 2 69.9612 159.1757 11.4929 0.0000 0.8523 0.0000
# 3 21.9993 11.4929 69.2347 0.0000 16.7810 0.0000
# 4 0.0000 0.0000 0.0000 29.5068 0.0000 -0.4974
# 5 23.6796 0.8523 16.7810 0.0000 32.1098 0.0000
# 6 0.0000 0.0000 0.0000 -0.4974 0.0000 37.2026
#
#
#
# Elastic Compliance Matrix: (Units=1/GPa)
#
#
# Indices 1 2 3 4 5 6 
#
# 1 0.015671 -0.006739 -0.001263 0.000000 -0.010718 0.000000
# 2 -0.006739 0.009262 -0.000620 0.000000 0.005048 0.000000
# 3 -0.001263 -0.000620 0.016853 0.000000 -0.007860 0.000000
# 4 0.000000 0.000000 0.000000 0.033898 0.000000 0.000453
# 5 -0.010718 0.005048 -0.007860 0.000000 0.043021 0.000000
# 6 0.000000 0.000000 0.000000 0.000453 0.000000 0.026886
#
#
# Mechanical properties :
#
#
# Convention : Reuss Voigt Hill
#
# Bulk Modulus (GPa) = 40.74599 60.79821 50.77210
# Shear Modulus (GPa) = 29.23727 35.55209 32.39468
#
# Velocity S-wave (km/s) = 3.57211 3.93903 3.76005
# Velocity P-wave (km/s) = 5.89882 6.87183 6.40383
#
# Compressibility (1/GPa) = 0.02454230
#
# Stress axis : x y z
#
# Youngs Moduli (GPa) = 63.81247 107.96721 59.33730
#
# Poissons Ratio (x) = 0.72761 0.07494
# Poissons Ratio (y) = 0.43004 0.03677
# Poissons Ratio (z) = 0.08060 0.06690
#
# Static dielectric constant tensor:
#      x y z
#    x 4.044120 0.000000 0.192440 
#    y 0.000000 4.428900 0.000000 
#    z 0.192440 0.000000 3.948850 
# 
# 
# High freq. dielectric constant tensor:
#      x y z
#    x 1.907670 0.000000 0.018260 
#    y 0.000000 1.930940 0.000000 
#    z 0.018260 0.000000 1.884180 
# 
# From -- ./inp_files/7822.got.cif
#   From: 2010.03.12/outbox.cif.g09.slc.cpg/sg8_4_cif.got.tgz:7822.got - 2010.03.31 10:45:26.
