data_PCOD8053433
_publ_section_title
;
Structure prediction by ZEFSAII (Michael W. Deem and Ramdas Pophale) SiO2 
 PCOD8053433
Probable space group: C M
;
_chemical_formula_sum "Si O2"
_cell_formula_units_Z 24
_cell_length_a 14.806036
_cell_length_b 19.065120
_cell_length_c 8.707149
_cell_angle_alpha 90.000000
_cell_angle_beta 31.772266
_cell_angle_gamma 90.000000
_cell_volume 1294.163873
_symmetry_space_group_name_H-M "C M"
_symmetry_group_IT_number 8
_symmetry_cell_setting 'monoclinic'
loop_
_space_group_symop_operation_xyz
x,y,z
x,-y,z
1/2+x,1/2+y,z
1/2+x,1/2-y,z
loop_
_atom_site_type_symbol
_atom_site_label
_atom_site_fract_x
_atom_site_fract_y
_atom_site_fract_z
Si Si1 0.454260 0.581063 0.165370
Si Si2 0.951305 0.318698 0.489871
Si Si3 0.316792 0.178856 0.170796
Si Si4 0.661009 0.821284 0.482383
Si Si5 0.292791 0.918939 0.488066
Si Si6 0.114737 0.181462 0.162979
O O1 0.422110 0.500000 0.246883
O O2 0.277444 0.613719 0.362828
O O3 0.511645 0.615955 0.242856
O O4 0.598891 0.592292 0.826752
O O5 0.927780 0.384232 0.410555
O O6 0.098942 0.337367 0.398955
O O7 0.996877 0.250125 0.326100
O O8 0.778234 0.299443 0.826344
O O9 0.271999 0.250101 0.326352
O O10 0.313367 0.113886 0.290847
O O11 0.171297 0.162846 0.254208
O O12 0.503736 0.186778 0.826572
O O13 0.341985 0.000000 0.406300
#
# Coordination Sequence:
#
# PCOD8053433 Si02
#       6
#     4   4   4   4   4   4
#     4  10  21  36  53  76 108 142 173 210 259 310
#     4   9  19  35  55  77 102 135 173 214 259 307
#     4  10  20  35  56  80 105 135 174 217 259 306
#     4  10  20  35  56  80 105 135 174 217 259 306
#     4  10  21  36  53  76 108 142 173 210 259 310
#     4   9  19  35  55  77 102 135 173 214 259 307
#
# _framework density 18.544792000000001
#
# number of rings (size 3 to 8) (size 9 to 14) (size 15 to 20)
#    0.000    2.333    0.000    2.000    0.000    7.333 
#    0.000    3.333    0.000    0.000    0.000    0.000 
#    0.000    0.000    0.000    0.000    0.000    0.000 
#
# Total GULP energy -148846.585102 kJ/mol
# GULP energy per Si atom -12403.882092 kJ/mol
# Density = 1.850258 g / cm^3
# Si number density = 18.544792 Si / 1000 Ang^3
#
#
#
# Elastic Constant Matrix: (Units=GPa)
#
#
# Indices 1 2 3 4 5 6 
#
# 1 100.9079 79.2715 52.0292 0.0069 -0.6019 0.0021
# 2 79.2715 162.2498 65.6635 0.0075 -0.9840 0.0029
# 3 52.0292 65.6635 72.6888 0.0213 -0.8951 0.0124
# 4 0.0069 0.0075 0.0213 31.9071 -0.0163 0.2787
# 5 -0.6019 -0.9840 -0.8951 -0.0163 20.4776 -0.0063
# 6 0.0021 0.0029 0.0124 0.2787 -0.0063 22.5975
#
#
#
# Elastic Compliance Matrix: (Units=1/GPa)
#
#
# Indices 1 2 3 4 5 6 
#
# 1 0.018675 -0.005855 -0.008079 0.000003 -0.000086 0.000003
# 2 -0.005855 0.011551 -0.006242 0.000003 0.000110 0.000003
# 3 -0.008079 -0.006242 0.025186 -0.000013 0.000563 -0.000012
# 4 0.000003 0.000003 -0.000013 0.031344 0.000024 -0.000387
# 5 -0.000086 0.000110 0.000563 0.000024 0.048861 0.000013
# 6 0.000003 0.000003 -0.000012 -0.000387 0.000013 0.044257
#
#
# Mechanical properties :
#
#
# Convention : Reuss Voigt Hill
#
# Bulk Modulus (GPa) = 66.40485 81.08611 73.74548
# Shear Modulus (GPa) = 22.19789 24.25526 23.22658
#
# Velocity S-wave (km/s) = 3.46350 3.62045 3.54285
# Velocity P-wave (km/s) = 7.20278 7.82919 7.52251
#
# Compressibility (1/GPa) = 0.01505914
#
# Stress axis : x y z
#
# Youngs Moduli (GPa) = 53.54859 86.57345 39.70464
#
# Poissons Ratio (x) = 0.50688 0.32077
# Poissons Ratio (y) = 0.31352 0.24785
# Poissons Ratio (z) = 0.43262 0.54042
#
# Static dielectric constant tensor:
#      x y z
#    x 3.589710 0.000000 -0.006560 
#    y 0.000000 3.380390 0.000010 
#    z -0.006560 0.000010 3.402370 
# 
# 
# High freq. dielectric constant tensor:
#      x y z
#    x 1.729220 0.000000 -0.000330 
#    y 0.000000 1.713680 0.000000 
#    z -0.000330 0.000000 1.719780 
# 
# From -- ./inp_files/8500.got.cif
#   From: 2010.03.12/outbox.cif.g09.slc.cpg/sg8_5_cif.got.tgz:8500.got - 2010.03.31 10:45:26.
