data_PCOD8053922
_publ_section_title
;
Structure prediction by ZEFSAII (Michael W. Deem and Ramdas Pophale) SiO2 
 PCOD8053922
Probable space group: C M
;
_chemical_formula_sum "Si O2"
_cell_formula_units_Z 24
_cell_length_a 14.841815
_cell_length_b 8.940837
_cell_length_c 14.591545
_cell_angle_alpha 90.000000
_cell_angle_beta 140.277867
_cell_angle_gamma 90.000000
_cell_volume 1237.403933
_symmetry_space_group_name_H-M "C M"
_symmetry_group_IT_number 8
_symmetry_cell_setting 'monoclinic'
loop_
_space_group_symop_operation_xyz
x,y,z
x,-y,z
1/2+x,1/2+y,z
1/2+x,1/2-y,z
loop_
_atom_site_type_symbol
_atom_site_label
_atom_site_fract_x
_atom_site_fract_y
_atom_site_fract_z
Si Si1 0.477720 0.327733 0.954820
Si Si2 0.186573 0.173949 0.436602
Si Si3 0.011242 0.172737 0.475791
Si Si4 0.163106 0.672457 0.758910
Si Si5 0.688125 0.824899 0.251113
Si Si6 0.460673 0.676312 0.732231
O O1 0.526193 0.500000 0.995928
O O2 0.330451 0.305024 0.891339
O O3 0.461315 0.272370 0.837723
O O4 0.594946 0.225472 0.092671
O O5 0.063908 0.204083 0.414150
O O6 0.134071 0.240546 0.299401
O O7 0.330707 0.252328 0.577590
O O8 0.217795 0.000000 0.449052
O O9 0.101613 0.274143 0.614140
O O10 0.848627 0.218939 0.354349
O O11 0.033512 0.000000 0.520892
O O12 0.121903 0.500000 0.739639
O O13 0.103820 0.768295 0.796776
O O14 0.670153 0.000000 0.252561
O O15 0.446926 0.500000 0.711498
#
# Coordination Sequence:
#
# PCOD8053922 Si02
#       6
#     4   4   4   4   4   4
#     4  10  24  43  61  87 126 163 201 252 306 363
#     4  11  22  38  63  92 122 161 205 251 303 360
#     4  10  22  39  61  90 123 158 202 253 301 361
#     4  11  22  38  63  92 120 160 206 251 303 362
#     4  11  24  41  62  90 125 163 202 253 308 360
#     4  11  22  39  62  91 124 159 204 254 303 360
#
# _framework density 19.395444999999999
#
# number of rings (size 3 to 8) (size 9 to 14) (size 15 to 20)
#    0.000    1.333    3.333    2.000    0.000    5.333 
#    0.000    5.000    0.000    0.000    0.000    0.000 
#    0.000    0.000    0.000    0.000    0.000    0.000 
#
# Total GULP energy -148880.524507 kJ/mol
# GULP energy per Si atom -12406.710376 kJ/mol
# Density = 1.935130 g / cm^3
# Si number density = 19.395445 Si / 1000 Ang^3
#
#
#
# Elastic Constant Matrix: (Units=GPa)
#
#
# Indices 1 2 3 4 5 6 
#
# 1 101.4793 33.6513 18.3309 0.0000 -8.8149 0.0000
# 2 33.6513 82.6856 36.4955 0.0000 -4.1018 0.0000
# 3 18.3309 36.4955 80.4004 0.0000 -2.6430 0.0000
# 4 0.0000 0.0000 0.0000 36.5035 0.0000 -2.5664
# 5 -8.8149 -4.1018 -2.6430 0.0000 28.0899 0.0000
# 6 0.0000 0.0000 0.0000 -2.5664 0.0000 33.2290
#
#
#
# Elastic Compliance Matrix: (Units=1/GPa)
#
#
# Indices 1 2 3 4 5 6 
#
# 1 0.011657 -0.004335 -0.000592 0.000000 0.002969 0.000000
# 2 -0.004335 0.016806 -0.006625 0.000000 0.000470 0.000000
# 3 -0.000592 -0.006625 0.015590 0.000000 0.000314 0.000000
# 4 0.000000 0.000000 0.000000 0.027544 0.000000 0.002127
# 5 0.002969 0.000470 0.000314 0.000000 0.036630 0.000000
# 6 0.000000 0.000000 0.000000 0.002127 0.000000 0.030259
#
#
# Mechanical properties :
#
#
# Convention : Reuss Voigt Hill
#
# Bulk Modulus (GPa) = 47.73651 49.05785 48.39718
# Shear Modulus (GPa) = 29.66089 31.30365 30.48227
#
# Velocity S-wave (km/s) = 3.91483 4.02178 3.96867
# Velocity P-wave (km/s) = 6.71567 6.84943 6.78288
#
# Compressibility (1/GPa) = 0.02094833
#
# Stress axis : x y z
#
# Youngs Moduli (GPa) = 85.78714 59.50373 64.14330
#
# Poissons Ratio (x) = 0.25797 0.03798
# Poissons Ratio (y) = 0.37192 0.42492
# Poissons Ratio (z) = 0.05080 0.39419
#
# Static dielectric constant tensor:
#      x y z
#    x 3.791990 0.000000 -0.030840 
#    y 0.000000 3.593740 0.000000 
#    z -0.030840 0.000000 3.388320 
# 
# 
# High freq. dielectric constant tensor:
#      x y z
#    x 1.771450 0.000000 -0.001950 
#    y 0.000000 1.763840 0.000000 
#    z -0.001950 0.000000 1.747460 
# 
# From -- ./inp_files/12068.got.cif
#   From: 2010.03.12/outbox.cif.g09.slc.cpg/sg8_7_cif.got.tgz:12068.got - 2010.03.31 10:45:26.
