data_PCOD8053263
_publ_section_title
;
Structure prediction by ZEFSAII (Michael W. Deem and Ramdas Pophale) SiO2 
 PCOD8053263
Probable space group: C M
;
_chemical_formula_sum "Si O2"
_cell_formula_units_Z 32
_cell_length_a 23.726061
_cell_length_b 8.594389
_cell_length_c 14.193049
_cell_angle_alpha 90.000000
_cell_angle_beta 32.658723
_cell_angle_gamma 90.000000
_cell_volume 1561.764720
_symmetry_space_group_name_H-M "C M"
_symmetry_group_IT_number 8
_symmetry_cell_setting 'monoclinic'
loop_
_space_group_symop_operation_xyz
x,y,z
x,-y,z
1/2+x,1/2+y,z
1/2+x,1/2-y,z
loop_
_atom_site_type_symbol
_atom_site_label
_atom_site_fract_x
_atom_site_fract_y
_atom_site_fract_z
Si Si1 0.272280 0.180718 0.505870
Si Si2 0.117848 0.816814 0.217270
Si Si3 0.482167 0.679469 0.728745
Si Si4 0.869233 0.180688 0.185482
Si Si5 0.690039 0.319739 0.317392
Si Si6 0.046519 0.679969 0.825514
Si Si7 0.298089 0.317595 0.851596
Si Si8 0.382493 0.316147 0.529205
O O1 0.330105 0.277499 0.344105
O O2 0.150213 0.217754 0.679435
O O3 0.321541 0.222281 0.536140
O O4 0.286354 0.000000 0.463091
O O5 0.164727 0.752236 0.249355
O O6 0.001259 0.753891 0.364054
O O7 0.110567 0.000000 0.236896
O O8 0.190034 0.766899 0.028770
O O9 0.466375 0.500000 0.779456
O O10 0.589715 0.703007 0.523178
O O11 0.480656 0.784700 0.823879
O O12 0.389010 0.739649 0.793575
O O13 0.782929 0.218582 0.228635
O O14 0.895877 0.000000 0.143791
O O15 0.975348 0.275179 0.015010
O O16 0.724374 0.500000 0.266356
O O17 0.077593 0.500000 0.787317
O O18 0.281525 0.500000 0.884903
O O19 0.328260 0.271976 0.703621
O O20 0.376403 0.500000 0.517830
#
# Coordination Sequence:
#
# PCOD8053263 Si02
#       8
#     4   4   4   4   4   4   4   4
#     4  12  26  45  66  91 123 162 210 264 315 368
#     4  10  21  38  62  91 124 164 204 249 305 364
#     4  10  19  36  63  93 128 167 204 248 307 370
#     4  12  25  42  65  95 127 165 208 255 312 372
#     4  10  19  36  63  93 128 167 204 248 307 370
#     4  12  25  42  65  95 127 165 208 255 312 372
#     4  10  21  38  62  91 124 164 204 249 305 364
#     4  10  22  43  64  85 119 164 210 254 307 368
#
# _framework density 20.489640999999999
#
# number of rings (size 3 to 8) (size 9 to 14) (size 15 to 20)
#    0.000    1.250    2.500    4.125    0.000    5.000 
#    0.000    2.500    0.000    0.000    0.000    0.000 
#    0.000    0.000    0.000    0.000    0.000    0.000 
#
# Total GULP energy -198498.294961 kJ/mol
# GULP energy per Si atom -12406.143435 kJ/mol
# Density = 2.044301 g / cm^3
# Si number density = 20.489641 Si / 1000 Ang^3
#
#
#
# Elastic Constant Matrix: (Units=GPa)
#
#
# Indices 1 2 3 4 5 6 
#
# 1 110.7540 21.8861 28.9657 -0.0001 7.7303 0.0000
# 2 21.8861 60.0806 14.0076 -0.0004 -0.4858 0.0002
# 3 28.9657 14.0076 106.2713 -0.0003 15.8495 0.0001
# 4 -0.0001 -0.0004 -0.0003 33.5567 0.0002 1.4104
# 5 7.7303 -0.4858 15.8495 0.0002 7.1665 0.0000
# 6 0.0000 0.0002 0.0001 1.4104 0.0000 33.4203
#
#
#
# Elastic Compliance Matrix: (Units=1/GPa)
#
#
# Indices 1 2 3 4 5 6 
#
# 1 0.010698 -0.003744 -0.000990 0.000000 -0.009604 0.000000
# 2 -0.003744 0.018899 -0.003378 0.000000 0.012791 0.000000
# 3 -0.000990 -0.003378 0.014922 0.000000 -0.032162 0.000000
# 4 0.000000 0.000000 0.000000 0.029853 -0.000001 -0.001260
# 5 -0.009604 0.012791 -0.032162 -0.000001 0.221894 0.000000
# 6 0.000000 0.000000 0.000000 -0.001260 0.000000 0.029975
#
#
# Mechanical properties :
#
#
# Convention : Reuss Voigt Hill
#
# Bulk Modulus (GPa) = 35.34271 45.20275 40.27273
# Shear Modulus (GPa) = 14.20866 28.97846 21.59356
#
# Velocity S-wave (km/s) = 2.63621 3.76480 3.24987
# Velocity P-wave (km/s) = 5.15293 6.40370 5.81206
#
# Compressibility (1/GPa) = 0.02829438
#
# Stress axis : x y z
#
# Youngs Moduli (GPa) = 93.47441 52.91223 67.01620
#
# Poissons Ratio (x) = 0.19810 0.06635
# Poissons Ratio (y) = 0.34996 0.22640
# Poissons Ratio (z) = 0.09255 0.17876
#
# Static dielectric constant tensor:
#      x y z
#    x 3.774650 0.000000 0.001510 
#    y 0.000000 3.514720 0.000000 
#    z 0.001510 0.000000 3.846170 
# 
# 
# High freq. dielectric constant tensor:
#      x y z
#    x 1.801350 0.000000 0.002470 
#    y 0.000000 1.789660 0.000000 
#    z 0.002470 0.000000 1.817760 
# 
# From -- ./inp_files/26584.got.cif
#   From: 2010.03.12/outbox.cif.g09.slc.cpg/sg8_14_cif.got.tgz:26584.got - 2010.03.31 10:45:26.
