data_PCOD8053420
_publ_section_title
;
Structure prediction by ZEFSAII (Michael W. Deem and Ramdas Pophale) SiO2 
 PCOD8053420
Probable space group: C M
;
_chemical_formula_sum "Si O2"
_cell_formula_units_Z 32
_cell_length_a 14.071580
_cell_length_b 8.481617
_cell_length_c 15.768326
_cell_angle_alpha 90.000000
_cell_angle_beta 117.587160
_cell_angle_gamma 90.000000
_cell_volume 1667.982454
_symmetry_space_group_name_H-M "C M"
_symmetry_group_IT_number 8
_symmetry_cell_setting 'monoclinic'
loop_
_space_group_symop_operation_xyz
x,y,z
x,-y,z
1/2+x,1/2+y,z
1/2+x,1/2-y,z
loop_
_atom_site_type_symbol
_atom_site_label
_atom_site_fract_x
_atom_site_fract_y
_atom_site_fract_z
Si Si1 0.167640 0.682962 0.887030
Si Si2 0.193192 0.684084 0.234141
Si Si3 0.021379 0.683076 0.605720
Si Si4 0.922117 0.181521 0.400539
Si Si5 0.761272 0.318654 0.091938
Si Si6 0.242561 0.182900 0.746376
Si Si7 0.490579 0.183800 0.258703
Si Si8 0.449141 0.315469 0.746451
O O1 0.170817 0.500000 0.864917
O O2 0.231264 0.777632 0.840937
O O3 0.044739 0.739804 0.841126
O O4 0.223672 0.710058 0.999765
O O5 0.188076 0.500000 0.209534
O O6 0.298644 0.724407 0.331836
O O7 0.191300 0.780507 0.146045
O O8 0.091742 0.740057 0.246237
O O9 0.046904 0.500000 0.627879
O O10 0.960187 0.710421 0.492997
O O11 0.946132 0.740972 0.651346
O O12 0.133199 0.776924 0.651957
O O13 0.992120 0.218460 0.346267
O O14 0.936737 0.000000 0.431773
O O15 0.744701 0.500000 0.060167
O O16 0.885029 0.277912 0.160736
O O17 0.337560 0.285165 0.746423
O O18 0.269877 0.000000 0.746242
O O19 0.496773 0.000000 0.284462
O O20 0.470473 0.500000 0.746828
#
# Coordination Sequence:
#
# PCOD8053420 Si02
#       8
#     4   4   4   4   4   4   4   4
#     4  11  22  38  58  82 113 149 188 230 277 327
#     4   9  19  36  56  78 107 143 183 227 276 330
#     4  11  22  38  58  82 113 149 188 230 277 327
#     4  10  20  35  55  80 110 143 182 229 279 329
#     4  10  20  35  55  80 110 143 182 229 279 329
#     4  11  22  39  60  84 113 145 184 229 279 332
#     4   9  19  36  56  78 107 143 183 227 276 330
#     4  11  22  39  60  84 113 145 184 229 279 332
#
# _framework density 19.184853
#
# number of rings (size 3 to 8) (size 9 to 14) (size 15 to 20)
#    0.000    1.750    0.000    6.750    0.000    3.500 
#    0.000    7.500    0.000    0.000    0.000    0.000 
#    0.000    0.000    0.000    0.000    0.000    0.000 
#
# Total GULP energy -198495.135150 kJ/mol
# GULP energy per Si atom -12405.945947 kJ/mol
# Density = 1.914119 g / cm^3
# Si number density = 19.184853 Si / 1000 Ang^3
#
#
#
# Elastic Constant Matrix: (Units=GPa)
#
#
# Indices 1 2 3 4 5 6 
#
# 1 133.1965 10.2563 45.3234 0.0000 -6.4488 0.0000
# 2 10.2563 82.5872 29.9666 0.0000 -1.2456 0.0000
# 3 45.3234 29.9666 118.1131 0.0000 -4.0864 0.0000
# 4 0.0000 0.0000 0.0000 32.6820 0.0000 -3.2571
# 5 -6.4488 -1.2456 -4.0864 0.0000 11.6524 0.0000
# 6 0.0000 0.0000 0.0000 -3.2571 0.0000 31.4438
#
#
#
# Elastic Compliance Matrix: (Units=1/GPa)
#
#
# Indices 1 2 3 4 5 6 
#
# 1 0.008794 0.000156 -0.003285 0.000000 0.003732 0.000000
# 2 0.000156 0.013340 -0.003434 0.000000 0.000308 0.000000
# 3 -0.003285 -0.003434 0.010652 0.000000 0.001550 0.000000
# 4 0.000000 0.000000 0.000000 0.030917 0.000000 0.003202
# 5 0.003732 0.000308 0.001550 0.000000 0.088461 0.000000
# 6 0.000000 0.000000 0.000000 0.003202 0.000000 0.032134
#
#
# Mechanical properties :
#
#
# Convention : Reuss Voigt Hill
#
# Bulk Modulus (GPa) = 50.86371 56.10993 53.48682
# Shear Modulus (GPa) = 24.51258 31.71234 28.11246
#
# Velocity S-wave (km/s) = 3.57838 4.07011 3.83214
# Velocity P-wave (km/s) = 6.60629 7.16925 6.89352
#
# Compressibility (1/GPa) = 0.01966038
#
# Stress axis : x y z
#
# Youngs Moduli (GPa) = 113.71156 74.96498 93.88046
#
# Poissons Ratio (x) = -0.01170 0.30841
# Poissons Ratio (y) = -0.01775 0.32235
# Poissons Ratio (z) = 0.37355 0.25740
#
# Static dielectric constant tensor:
#      x y z
#    x 3.513750 0.000000 -0.011360 
#    y 0.000000 3.531840 0.000000 
#    z -0.011360 0.000000 3.416590 
# 
# 
# High freq. dielectric constant tensor:
#      x y z
#    x 1.746570 0.000000 -0.002250 
#    y 0.000000 1.758020 0.000000 
#    z -0.002250 0.000000 1.746070 
# 
# From -- ./inp_files/26573.got.cif
#   From: 2010.03.12/outbox.cif.g09.slc.cpg/sg8_14_cif.got.tgz:26573.got - 2010.03.31 10:45:26.
