data_PCOD8053343
_publ_section_title
;
Structure prediction by ZEFSAII (Michael W. Deem and Ramdas Pophale) SiO2 
 PCOD8053343
Probable space group: C M
;
_chemical_formula_sum "Si O2"
_cell_formula_units_Z 32
_cell_length_a 22.284274
_cell_length_b 9.009859
_cell_length_c 11.153595
_cell_angle_alpha 90.000000
_cell_angle_beta 130.354484
_cell_angle_gamma 90.000000
_cell_volume 1706.540092
_symmetry_space_group_name_H-M "C M"
_symmetry_group_IT_number 8
_symmetry_cell_setting 'monoclinic'
loop_
_space_group_symop_operation_xyz
x,y,z
x,-y,z
1/2+x,1/2+y,z
1/2+x,1/2-y,z
loop_
_atom_site_type_symbol
_atom_site_label
_atom_site_fract_x
_atom_site_fract_y
_atom_site_fract_z
Si Si1 0.426540 0.326738 0.609350
Si Si2 0.643196 0.172146 0.745939
Si Si3 0.807804 0.173954 0.845837
Si Si4 0.769853 0.824248 0.530083
Si Si5 0.456433 0.823766 0.154690
Si Si6 0.571181 0.826045 0.901369
Si Si7 0.498493 0.325618 0.450955
Si Si8 0.110405 0.676393 0.213161
O O1 0.436965 0.500000 0.645933
O O2 0.338790 0.273315 0.528799
O O3 0.486226 0.246844 0.776053
O O4 0.444348 0.285455 0.495088
O O5 0.733393 0.208084 0.834277
O O6 0.628699 0.216367 0.865759
O O7 0.586793 0.265808 0.585651
O O8 0.623822 0.000000 0.696756
O O9 0.787581 0.231944 0.686740
O O10 0.829379 0.000000 0.875050
O O11 0.880368 0.268372 0.986247
O O12 0.687789 0.755094 0.376753
O O13 0.762115 0.000000 0.522078
O O14 0.456926 0.754183 0.286876
O O15 0.533416 0.767191 0.183396
O O16 0.454011 0.000000 0.161965
O O17 0.556847 0.000000 0.889572
O O18 0.608845 0.766946 0.073660
O O19 0.502395 0.500000 0.432005
O O20 0.113842 0.500000 0.220713
#
# Coordination Sequence:
#
# PCOD8053343 Si02
#       8
#     4   4   4   4   4   4   4   4
#     4   9  18  32  52  76 101 131 165 203 247 297
#     4   9  18  33  54  79 105 135 169 205 249 301
#     4  10  20  34  53  77 104 134 170 210 252 301
#     4   9  17  31  52  75 100 131 167 207 250 297
#     4  11  22  35  52  74 102 135 172 213 256 302
#     4   9  17  31  53  77 102 132 164 201 245 296
#     4  10  20  34  53  77 104 134 170 210 252 301
#     4   9  18  32  51  75 100 130 169 209 249 297
#
# _framework density 18.751390000000001
#
# number of rings (size 3 to 8) (size 9 to 14) (size 15 to 20)
#    0.000    2.500    0.000    2.250    0.000    4.000 
#    0.000    4.375    0.000    3.000    0.000    0.000 
#    0.000    0.000    0.000    0.000    0.000    0.000 
#
# Total GULP energy -198419.088573 kJ/mol
# GULP energy per Si atom -12401.193036 kJ/mol
# Density = 1.870871 g / cm^3
# Si number density = 18.751390 Si / 1000 Ang^3
#
#
#
# Elastic Constant Matrix: (Units=GPa)
#
#
# Indices 1 2 3 4 5 6 
#
# 1 125.1044 32.3397 85.2712 0.0000 10.2376 0.0000
# 2 32.3397 41.9031 42.9929 0.0000 2.2375 0.0000
# 3 85.2712 42.9929 176.3867 0.0000 0.7111 0.0000
# 4 0.0000 0.0000 0.0000 31.3097 0.0000 3.4390
# 5 10.2376 2.2375 0.7111 0.0000 33.3527 0.0000
# 6 0.0000 0.0000 0.0000 3.4390 0.0000 20.0171
#
#
#
# Elastic Compliance Matrix: (Units=1/GPa)
#
#
# Indices 1 2 3 4 5 6 
#
# 1 0.012967 -0.004534 -0.005149 0.000000 -0.003566 0.000000
# 2 -0.004534 0.033538 -0.005980 0.000000 -0.000731 0.000000
# 3 -0.005149 -0.005980 0.009609 0.000000 0.001777 0.000000
# 4 0.000000 0.000000 0.000000 0.032553 0.000000 -0.005593
# 5 -0.003566 -0.000731 0.001777 0.000000 0.031088 0.000000
# 6 0.000000 0.000000 0.000000 -0.005593 0.000000 0.050918
#
#
# Mechanical properties :
#
#
# Convention : Reuss Voigt Hill
#
# Bulk Modulus (GPa) = 40.34191 73.84465 57.09328
# Shear Modulus (GPa) = 23.77982 29.12193 26.45088
#
# Velocity S-wave (km/s) = 3.56499 3.94516 3.75988
# Velocity P-wave (km/s) = 6.20535 7.76007 7.02585
#
# Compressibility (1/GPa) = 0.02478812
#
# Stress axis : x y z
#
# Youngs Moduli (GPa) = 77.11985 29.81674 104.06934
#
# Poissons Ratio (x) = 0.13519 0.53586
# Poissons Ratio (y) = 0.34966 0.62232
# Poissons Ratio (z) = 0.39710 0.17830
#
# Static dielectric constant tensor:
#      x y z
#    x 3.671630 0.000000 -0.051240 
#    y 0.000000 3.174140 0.000000 
#    z -0.051240 0.000000 3.589380 
# 
# 
# High freq. dielectric constant tensor:
#      x y z
#    x 1.740600 0.000000 -0.005080 
#    y 0.000000 1.698880 0.000000 
#    z -0.005080 0.000000 1.733080 
# 
# From -- ./inp_files/23874.got.cif
#   From: 2010.03.12/outbox.cif.g09.slc.cpg/sg8_12_cif.got.tgz:23874.got - 2010.03.31 10:45:26.
