data_PCOD8053798
_publ_section_title
;
Structure prediction by ZEFSAII (Michael W. Deem and Ramdas Pophale) SiO2 
 PCOD8053798
Probable space group: C M
;
_chemical_formula_sum "Si O2"
_cell_formula_units_Z 32
_cell_length_a 11.746326
_cell_length_b 15.356669
_cell_length_c 17.872387
_cell_angle_alpha 90.000000
_cell_angle_beta 28.800538
_cell_angle_gamma 90.000000
_cell_volume 1553.152451
_symmetry_space_group_name_H-M "C M"
_symmetry_group_IT_number 8
_symmetry_cell_setting 'monoclinic'
loop_
_space_group_symop_operation_xyz
x,y,z
x,-y,z
1/2+x,1/2+y,z
1/2+x,1/2-y,z
loop_
_atom_site_type_symbol
_atom_site_label
_atom_site_fract_x
_atom_site_fract_y
_atom_site_fract_z
Si Si1 0.493550 0.398566 0.146040
Si Si2 0.537142 0.096190 0.961154
Si Si3 0.471559 0.152940 0.834391
Si Si4 0.560327 0.330927 0.270443
Si Si5 0.615763 0.097098 0.591344
Si Si6 0.509583 0.167433 0.390913
Si Si7 0.523936 0.400311 0.632687
Si Si8 0.898705 0.258365 0.610140
O O1 0.565179 0.500000 0.111052
O O2 0.473114 0.353427 0.238169
O O3 0.240306 0.392743 0.251587
O O4 0.686836 0.342057 0.987397
O O5 0.497527 0.095397 0.894395
O O6 0.812196 0.124944 0.813982
O O7 0.496078 0.000000 0.016376
O O8 0.343414 0.154499 0.116266
O O9 0.576978 0.105666 0.701739
O O10 0.612597 0.244738 0.765883
O O11 0.396624 0.389824 0.418251
O O12 0.505999 0.230817 0.321300
O O13 0.457004 0.166340 0.636649
O O14 0.543368 0.000000 0.606770
O O15 0.276173 0.107987 0.527530
O O16 0.518188 0.222185 0.462276
O O17 0.488893 0.500000 0.625724
O O18 0.508143 0.334317 0.572274
#
# Coordination Sequence:
#
# PCOD8053798 Si02
#       8
#     4   4   4   4   4   4   4   4
#     4  11  23  40  62  90 120 158 207 252 301 360
#     4   9  19  37  60  88 119 155 200 249 298 355
#     4  10  21  38  60  87 122 155 200 251 302 355
#     4  11  21  37  59  88 122 154 200 247 300 352
#     4  12  22  37  63  92 124 160 204 255 302 361
#     4  12  22  38  59  90 124 158 200 249 302 359
#     4  10  21  39  61  85 119 160 200 241 300 365
#     4  11  22  40  57  88 124 156 200 252 298 359
#
# _framework density 20.603259000000001
#
# number of rings (size 3 to 8) (size 9 to 14) (size 15 to 20)
#    0.000    1.250    3.750    3.375    0.000    5.500 
#    0.000    0.000    0.000    0.000    0.000    0.000 
#    0.000    0.000    0.000    0.000    0.000    0.000 
#
# Total GULP energy -198242.184193 kJ/mol
# GULP energy per Si atom -12390.136512 kJ/mol
# Density = 2.055636 g / cm^3
# Si number density = 20.603259 Si / 1000 Ang^3
#
#
#
# Elastic Constant Matrix: (Units=GPa)
#
#
# Indices 1 2 3 4 5 6 
#
# 1 56.2202 34.7439 50.8658 -0.0146 -14.5382 0.0085
# 2 34.7439 111.1603 42.6901 0.0077 -9.3625 -0.0118
# 3 50.8658 42.6901 175.0215 0.1156 -27.2429 -0.0243
# 4 -0.0146 0.0077 0.1156 26.0323 -0.0164 -8.6338
# 5 -14.5382 -9.3625 -27.2429 -0.0164 46.7768 -0.0017
# 6 0.0085 -0.0118 -0.0243 -8.6338 -0.0017 23.8567
#
#
#
# Elastic Compliance Matrix: (Units=1/GPa)
#
#
# Indices 1 2 3 4 5 6 
#
# 1 0.028065 -0.006115 -0.006046 0.000046 0.003978 -0.000002
# 2 -0.006115 0.011275 -0.001009 0.000000 -0.000231 0.000007
# 3 -0.006046 -0.001009 0.008130 -0.000039 0.002654 -0.000004
# 4 0.000046 0.000000 -0.000039 0.043654 0.000008 0.015798
# 5 0.003978 -0.000231 0.002654 0.000008 0.024114 0.000006
# 6 -0.000002 0.000007 -0.000004 0.015798 0.000006 0.047634
#
#
# Mechanical properties :
#
#
# Convention : Reuss Voigt Hill
#
# Bulk Modulus (GPa) = 47.32517 66.55571 56.94044
# Shear Modulus (GPa) = 25.47713 33.60666 29.54190
#
# Velocity S-wave (km/s) = 3.52029 4.04311 3.79072
# Velocity P-wave (km/s) = 6.28831 7.35998 6.84515
#
# Compressibility (1/GPa) = 0.02113040
#
# Stress axis : x y z
#
# Youngs Moduli (GPa) = 35.63185 88.68922 123.00340
#
# Poissons Ratio (x) = 0.54234 0.74364
# Poissons Ratio (y) = 0.21789 0.12412
# Poissons Ratio (z) = 0.21542 0.08949
#
# Static dielectric constant tensor:
#      x y z
#    x 3.563140 0.000010 -0.339590 
#    y 0.000010 3.615380 0.000020 
#    z -0.339590 0.000020 4.280270 
# 
# 
# High freq. dielectric constant tensor:
#      x y z
#    x 1.779680 0.000000 -0.018550 
#    y 0.000000 1.794660 0.000010 
#    z -0.018550 0.000010 1.824750 
# 
# From -- ./inp_files/28886.got.cif
#   From: 2010.03.12/outbox.cif.g09.slc.cpg/sg8_15_cif.got.tgz:28886.got - 2010.03.31 10:45:26.
