data_PCOD8053919
_publ_section_title
;
Structure prediction by ZEFSAII (Michael W. Deem and Ramdas Pophale) SiO2 
 PCOD8053919
Probable space group: C M
;
_chemical_formula_sum "Si O2"
_cell_formula_units_Z 32
_cell_length_a 19.555287
_cell_length_b 8.806795
_cell_length_c 11.957471
_cell_angle_alpha 90.000000
_cell_angle_beta 128.199647
_cell_angle_gamma 90.000000
_cell_volume 1618.329647
_symmetry_space_group_name_H-M "C M"
_symmetry_group_IT_number 8
_symmetry_cell_setting 'monoclinic'
loop_
_space_group_symop_operation_xyz
x,y,z
x,-y,z
1/2+x,1/2+y,z
1/2+x,1/2-y,z
loop_
_atom_site_type_symbol
_atom_site_label
_atom_site_fract_x
_atom_site_fract_y
_atom_site_fract_z
Si Si1 0.133600 0.674315 0.475780
Si Si2 0.219029 0.319444 0.929724
Si Si3 0.055262 0.323312 0.627377
Si Si4 0.578391 0.675562 0.196336
Si Si5 0.882821 0.822486 0.951060
Si Si6 0.365007 0.821702 0.481179
Si Si7 0.716253 0.179687 0.181527
Si Si8 0.308107 0.176497 0.672969
O O1 0.132982 0.500000 0.435301
O O2 0.064834 0.703448 0.504531
O O3 0.116571 0.783240 0.355065
O O4 0.226314 0.718527 0.621375
O O5 0.216250 0.500000 0.924101
O O6 0.134774 0.250562 0.779345
O O7 0.308058 0.263884 0.960280
O O8 0.218041 0.259516 0.055996
O O9 0.054803 0.500000 0.656289
O O10 0.961944 0.252666 0.564880
O O11 0.597658 0.500000 0.193332
O O12 0.626461 0.767659 0.147486
O O13 0.476460 0.712968 0.098743
O O14 0.881461 0.726125 0.835244
O O15 0.871804 0.000000 0.912984
O O16 0.299853 0.742324 0.330194
O O17 0.338411 0.783604 0.579767
O O18 0.362923 0.000000 0.453589
O O19 0.720132 0.000000 0.188901
O O20 0.285370 0.000000 0.662798
#
# Coordination Sequence:
#
# PCOD8053919 Si02
#       8
#     4   4   4   4   4   4   4   4
#     4  11  21  38  65  88 115 155 203 248 294 356
#     4   9  19  38  61  85 113 151 198 243 290 346
#     4   9  19  37  62  87 114 153 196 242 295 349
#     4  11  24  40  60  87 123 159 195 247 303 349
#     4  10  22  41  63  85 117 159 199 243 299 355
#     4  10  22  39  60  86 120 157 192 241 301 351
#     4  11  23  38  62  87 116 158 201 245 293 356
#     4  11  22  37  61  89 120 154 196 249 299 350
#
# _framework density 19.773475999999999
#
# number of rings (size 3 to 8) (size 9 to 14) (size 15 to 20)
#    0.000    1.750    2.500    1.500    3.500    1.500 
#    0.000    1.875    0.000    0.000    0.000    0.000 
#    0.000    0.000    0.000    0.000    0.000    0.000 
#
# Total GULP energy -198427.211244 kJ/mol
# GULP energy per Si atom -12401.700703 kJ/mol
# Density = 1.972847 g / cm^3
# Si number density = 19.773476 Si / 1000 Ang^3
#
#
#
# Elastic Constant Matrix: (Units=GPa)
#
#
# Indices 1 2 3 4 5 6 
#
# 1 125.8380 34.4660 57.2429 0.0000 12.2672 0.0000
# 2 34.4660 37.9349 28.7539 0.0000 -3.6383 0.0000
# 3 57.2429 28.7539 105.1812 0.0000 -7.9506 0.0000
# 4 0.0000 0.0000 0.0000 22.5907 0.0000 1.9975
# 5 12.2672 -3.6383 -7.9506 0.0000 34.8395 0.0000
# 6 0.0000 0.0000 0.0000 1.9975 0.0000 17.6740
#
#
#
# Elastic Compliance Matrix: (Units=1/GPa)
#
#
# Indices 1 2 3 4 5 6 
#
# 1 0.013525 -0.008800 -0.005479 0.000000 -0.006932 0.000000
# 2 -0.008800 0.039046 -0.005436 0.000000 0.005936 0.000000
# 3 -0.005479 -0.005436 0.014325 0.000000 0.004631 0.000000
# 4 0.000000 0.000000 0.000000 0.044713 0.000000 -0.005053
# 5 -0.006932 0.005936 0.004631 0.000000 0.032820 0.000000
# 6 0.000000 0.000000 0.000000 -0.005053 0.000000 0.057151
#
#
# Mechanical properties :
#
#
# Convention : Reuss Voigt Hill
#
# Bulk Modulus (GPa) = 36.40875 56.65329 46.53102
# Shear Modulus (GPa) = 19.98662 24.92027 22.45345
#
# Velocity S-wave (km/s) = 3.18272 3.55390 3.37342
# Velocity P-wave (km/s) = 5.65325 6.74935 6.22547
#
# Compressibility (1/GPa) = 0.02746593
#
# Stress axis : x y z
#
# Youngs Moduli (GPa) = 73.93660 25.61067 69.80597
#
# Poissons Ratio (x) = 0.22538 0.38247
# Poissons Ratio (y) = 0.65065 0.37948
# Poissons Ratio (z) = 0.40510 0.13923
#
# Static dielectric constant tensor:
#      x y z
#    x 3.804280 0.000000 0.084670 
#    y 0.000000 3.320380 0.000000 
#    z 0.084670 0.000000 3.687360 
# 
# 
# High freq. dielectric constant tensor:
#      x y z
#    x 1.782540 0.000000 0.000300 
#    y 0.000000 1.746220 0.000000 
#    z 0.000300 0.000000 1.781350 
# 
# From -- ./inp_files/23838.got.cif
#   From: 2010.03.12/outbox.cif.g09.slc.cpg/sg8_12_cif.got.tgz:23838.got - 2010.03.31 10:45:26.
