data_PCOD8053377
_publ_section_title
;
Structure prediction by ZEFSAII (Michael W. Deem and Ramdas Pophale) SiO2 
 PCOD8053377
Probable space group: C M
;
_chemical_formula_sum "Si O2"
_cell_formula_units_Z 32
_cell_length_a 19.944175
_cell_length_b 8.899695
_cell_length_c 24.927407
_cell_angle_alpha 90.000000
_cell_angle_beta 23.328274
_cell_angle_gamma 90.000000
_cell_volume 1752.112738
_symmetry_space_group_name_H-M "C M"
_symmetry_group_IT_number 8
_symmetry_cell_setting 'monoclinic'
loop_
_space_group_symop_operation_xyz
x,y,z
x,-y,z
1/2+x,1/2+y,z
1/2+x,1/2-y,z
loop_
_atom_site_type_symbol
_atom_site_label
_atom_site_fract_x
_atom_site_fract_y
_atom_site_fract_z
Si Si1 0.432510 0.175319 0.049430
Si Si2 0.462354 0.823000 0.814003
Si Si3 0.943448 0.323220 0.557627
Si Si4 0.043654 0.827909 0.587007
Si Si5 0.560676 0.678400 0.848043
Si Si6 0.751293 0.173974 0.882514
Si Si7 0.094882 0.674657 0.334016
Si Si8 0.248347 0.172361 0.536778
O O1 0.248299 0.220522 0.204709
O O2 0.438595 0.000000 0.029932
O O3 0.479714 0.271850 0.963217
O O4 0.561288 0.211032 0.003558
O O5 0.450269 0.748558 0.881317
O O6 0.299205 0.770357 0.899587
O O7 0.637032 0.775722 0.657225
O O8 0.456923 0.000000 0.824346
O O9 0.934040 0.500000 0.565136
O O10 0.752884 0.259013 0.702579
O O11 0.058958 0.269320 0.522114
O O12 0.028753 0.268159 0.440109
O O13 0.205814 0.794959 0.505724
O O14 0.874685 0.781291 0.743030
O O15 0.035944 0.000000 0.574751
O O16 0.553824 0.500000 0.848815
O O17 0.776621 0.000000 0.878709
O O18 0.149782 0.500000 0.295111
O O19 0.946250 0.701768 0.399963
O O20 0.201121 0.000000 0.586100
#
# Coordination Sequence:
#
# PCOD8053377 Si02
#       8
#     4   4   4   4   4   4   4   4
#     4  11  23  39  58  85 116 149 191 236 282 337
#     4  11  21  32  55  88 115 141 187 243 283 326
#     4  10  20  34  56  83 111 143 186 231 274 330
#     4   9  17  31  55  82 109 141 180 230 279 326
#     4  11  21  37  59  83 114 151 189 232 282 339
#     4   9  19  36  55  78 114 152 183 226 286 344
#     4  10  21  39  58  79 111 154 194 228 277 342
#     4   9  18  36  56  78 112 153 190 224 279 342
#
# _framework density 18.263665
#
# number of rings (size 3 to 8) (size 9 to 14) (size 15 to 20)
#    0.000    2.000    2.500    2.625    0.000    4.500 
#    0.000    1.250    0.000    4.500    0.000    0.000 
#    0.000    0.000    0.000    0.000    0.000    0.000 
#
# Total GULP energy -198434.417694 kJ/mol
# GULP energy per Si atom -12402.151106 kJ/mol
# Density = 1.822210 g / cm^3
# Si number density = 18.263665 Si / 1000 Ang^3
#
#
#
# Elastic Constant Matrix: (Units=GPa)
#
#
# Indices 1 2 3 4 5 6 
#
# 1 136.1383 50.1110 56.3745 -0.0021 -7.7999 0.0003
# 2 50.1110 72.2525 33.4936 0.0143 -0.9745 -0.0014
# 3 56.3745 33.4936 94.7443 0.0423 -7.4083 -0.0039
# 4 -0.0021 0.0143 0.0423 26.5706 -0.0022 0.1675
# 5 -7.7999 -0.9745 -7.4083 -0.0022 27.1868 -0.0023
# 6 0.0003 -0.0014 -0.0039 0.1675 -0.0023 33.9004
#
#
#
# Elastic Compliance Matrix: (Units=1/GPa)
#
#
# Indices 1 2 3 4 5 6 
#
# 1 0.011514 -0.005802 -0.004657 0.000012 0.001826 -0.000001
# 2 -0.005802 0.019505 -0.003595 -0.000005 -0.001945 0.000000
# 3 -0.004657 -0.003595 0.014797 -0.000022 0.002567 0.000002
# 4 0.000012 -0.000005 -0.000022 0.037637 0.000000 -0.000186
# 5 0.001826 -0.001945 0.002567 0.000000 0.037936 0.000003
# 6 -0.000001 0.000000 0.000002 -0.000186 0.000003 0.029499
#
#
# Mechanical properties :
#
#
# Convention : Reuss Voigt Hill
#
# Bulk Modulus (GPa) = 56.47231 64.78815 60.63023
# Shear Modulus (GPa) = 27.04157 28.40863 27.72510
#
# Velocity S-wave (km/s) = 3.85206 3.94823 3.90044
# Velocity P-wave (km/s) = 7.12546 7.50570 7.31805
#
# Compressibility (1/GPa) = 0.01770779
#
# Stress axis : x y z
#
# Youngs Moduli (GPa) = 86.84745 51.26948 67.57904
#
# Poissons Ratio (x) = 0.29748 0.31473
# Poissons Ratio (y) = 0.50392 0.24294
# Poissons Ratio (z) = 0.40447 0.18431
#
# Static dielectric constant tensor:
#      x y z
#    x 3.607610 0.000000 -0.179280 
#    y 0.000000 3.245780 0.000010 
#    z -0.179280 0.000010 3.181780 
# 
# 
# High freq. dielectric constant tensor:
#      x y z
#    x 1.722730 0.000000 -0.011230 
#    y 0.000000 1.704050 0.000000 
#    z -0.011230 0.000000 1.678650 
# 
# From -- ./inp_files/15819.got.cif
#   From: 2010.03.12/outbox.cif.g09.slc.cpg/sg8_8_cif.got.tgz:15819.got - 2010.03.31 10:45:26.
