data_PCOD8053450
_publ_section_title
;
Structure prediction by ZEFSAII (Michael W. Deem and Ramdas Pophale) SiO2 
 PCOD8053450
Probable space group: C M
;
_chemical_formula_sum "Si O2"
_cell_formula_units_Z 32
_cell_length_a 19.813951
_cell_length_b 8.910684
_cell_length_c 24.763480
_cell_angle_alpha 90.000000
_cell_angle_beta 23.352511
_cell_angle_gamma 90.000000
_cell_volume 1733.058796
_symmetry_space_group_name_H-M "C M"
_symmetry_group_IT_number 8
_symmetry_cell_setting 'monoclinic'
loop_
_space_group_symop_operation_xyz
x,y,z
x,-y,z
1/2+x,1/2+y,z
1/2+x,1/2-y,z
loop_
_atom_site_type_symbol
_atom_site_label
_atom_site_fract_x
_atom_site_fract_y
_atom_site_fract_z
Si Si1 0.701710 0.322994 0.887360
Si Si2 0.518837 0.325659 0.364827
Si Si3 0.401643 0.174546 0.052475
Si Si4 0.903027 0.827458 0.827595
Si Si5 0.017757 0.826787 0.860098
Si Si6 0.482749 0.325215 0.607458
Si Si7 0.729414 0.672197 0.520011
Si Si8 0.408564 0.824017 0.555294
O O1 0.706433 0.500000 0.879845
O O2 0.758003 0.272417 0.905903
O O3 0.824304 0.257528 0.751354
O O4 0.512059 0.264909 0.015208
O O5 0.495477 0.500000 0.395306
O O6 0.706496 0.287255 0.206811
O O7 0.391299 0.278167 0.410419
O O8 0.480666 0.229607 0.445646
O O9 0.441524 0.000000 0.029871
O O10 0.444939 0.222470 0.959990
O O11 0.902400 0.798238 0.891911
O O12 0.087293 0.784892 0.668593
O O13 0.863820 0.000000 0.842105
O O14 0.210603 0.781370 0.705088
O O15 0.008118 0.000000 0.885420
O O16 0.437239 0.500000 0.638067
O O17 0.655204 0.298445 0.514753
O O18 0.512915 0.259082 0.525930
O O19 0.786076 0.500000 0.485722
O O20 0.438685 0.000000 0.538480
#
# Coordination Sequence:
#
# PCOD8053450 Si02
#       8
#     4   4   4   4   4   4   4   4
#     4  11  21  34  55  85 115 147 190 235 284 336
#     4  11  24  39  57  83 116 154 194 233 283 340
#     4  11  24  40  57  81 116 156 193 233 283 341
#     4   9  18  35  57  83 115 146 181 231 286 340
#     4  10  20  36  59  87 114 144 189 237 284 337
#     4  10  20  35  57  85 116 149 186 232 283 336
#     4   9  18  35  57  82 114 149 186 229 282 337
#     4  11  21  36  59  88 116 145 191 240 281 333
#
# _framework density 18.464462999999999
#
# number of rings (size 3 to 8) (size 9 to 14) (size 15 to 20)
#    0.000    1.750    2.500    3.375    0.000    5.500 
#    0.000    1.250    0.000    1.500    0.000    0.000 
#    0.000    0.000    0.000    0.000    0.000    0.000 
#
# Total GULP energy -198462.072519 kJ/mol
# GULP energy per Si atom -12403.879532 kJ/mol
# Density = 1.842244 g / cm^3
# Si number density = 18.464463 Si / 1000 Ang^3
#
#
#
# Elastic Constant Matrix: (Units=GPa)
#
#
# Indices 1 2 3 4 5 6 
#
# 1 117.0209 58.5908 50.1224 0.0026 -13.2863 0.0026
# 2 58.5908 115.3893 58.7889 -0.0077 -11.1970 -0.0008
# 3 50.1224 58.7889 89.6278 -0.0127 -10.1953 -0.0010
# 4 0.0026 -0.0077 -0.0127 26.2074 0.0036 -2.1800
# 5 -13.2863 -11.1970 -10.1953 0.0036 26.1191 0.0001
# 6 0.0026 -0.0008 -0.0010 -2.1800 0.0001 37.3695
#
#
#
# Elastic Compliance Matrix: (Units=1/GPa)
#
#
# Indices 1 2 3 4 5 6 
#
# 1 0.012676 -0.004060 -0.004071 -0.000005 0.003119 -0.000001
# 2 -0.004060 0.014456 -0.007055 0.000001 0.001378 0.000000
# 3 -0.004071 -0.007055 0.018294 0.000007 0.002046 0.000001
# 4 -0.000005 0.000001 0.000007 0.038343 -0.000005 0.002237
# 5 0.003119 0.001378 0.002046 -0.000005 0.041262 -0.000001
# 6 -0.000001 0.000000 0.000001 0.002237 -0.000001 0.026890
#
#
# Mechanical properties :
#
#
# Convention : Reuss Voigt Hill
#
# Bulk Modulus (GPa) = 66.42539 73.00468 69.71503
# Shear Modulus (GPa) = 26.69367 28.24159 27.46763
#
# Velocity S-wave (km/s) = 3.80633 3.91514 3.86112
# Velocity P-wave (km/s) = 7.44113 7.74994 7.59710
#
# Compressibility (1/GPa) = 0.01505449
#
# Stress axis : x y z
#
# Youngs Moduli (GPa) = 78.88985 69.17711 54.66247
#
# Poissons Ratio (x) = 0.28083 0.22254
# Poissons Ratio (y) = 0.32026 0.38563
# Poissons Ratio (z) = 0.32118 0.48803
#
# Static dielectric constant tensor:
#      x y z
#    x 3.600940 0.000000 -0.139800 
#    y 0.000000 3.427820 0.000000 
#    z -0.139800 0.000000 3.189840 
# 
# 
# High freq. dielectric constant tensor:
#      x y z
#    x 1.731480 0.000000 -0.011120 
#    y 0.000000 1.723410 0.000000 
#    z -0.011120 0.000000 1.685270 
# 
# From -- ./inp_files/31362.got.cif
#   From: 2010.03.12/outbox.cif.g09.slc.cpg/sg8_16_cif.got.tgz:31362.got - 2010.03.31 10:45:26.
