data_PCOD8053386
_publ_section_title
;
Structure prediction by ZEFSAII (Michael W. Deem and Ramdas Pophale) SiO2 
 PCOD8053386
Probable space group: C M
;
_chemical_formula_sum "Si O2"
_cell_formula_units_Z 32
_cell_length_a 20.498976
_cell_length_b 8.857851
_cell_length_c 12.127898
_cell_angle_alpha 90.000000
_cell_angle_beta 128.391264
_cell_angle_gamma 90.000000
_cell_volume 1726.015811
_symmetry_space_group_name_H-M "C M"
_symmetry_group_IT_number 8
_symmetry_cell_setting 'monoclinic'
loop_
_space_group_symop_operation_xyz
x,y,z
x,-y,z
1/2+x,1/2+y,z
1/2+x,1/2-y,z
loop_
_atom_site_type_symbol
_atom_site_label
_atom_site_fract_x
_atom_site_fract_y
_atom_site_fract_z
Si Si1 0.802670 0.672613 0.581010
Si Si2 0.552310 0.173283 0.294817
Si Si3 0.677671 0.677550 0.264384
Si Si4 0.123977 0.324880 0.996790
Si Si5 0.649761 0.675186 0.581022
Si Si6 0.712945 0.824818 0.860134
Si Si7 0.385197 0.173370 0.003222
Si Si8 0.447391 0.322489 0.845769
O O1 0.833154 0.500000 0.614535
O O2 0.761496 0.713600 0.420323
O O3 0.735874 0.700834 0.607189
O O4 0.881288 0.780611 0.681087
O O5 0.597486 0.254712 0.240865
O O6 0.573869 0.252227 0.433093
O O7 0.453677 0.186814 0.171488
O O8 0.581594 0.000000 0.329366
O O9 0.662928 0.500000 0.239338
O O10 0.684931 0.751425 0.151828
O O11 0.112374 0.500000 0.011984
O O12 0.164852 0.296831 0.922329
O O13 0.034939 0.246866 0.904712
O O14 0.630012 0.500000 0.576873
O O15 0.655561 0.755620 0.704442
O O16 0.727951 0.000000 0.851313
O O17 0.801126 0.743077 0.962021
O O18 0.369097 0.000000 0.953068
O O19 0.414851 0.259466 0.926486
O O20 0.457138 0.500000 0.864892
#
# Coordination Sequence:
#
# PCOD8053386 Si02
#       8
#     4   4   4   4   4   4   4   4
#     4   9  19  35  56  85 118 149 187 238 291 337
#     4  10  20  34  57  86 118 152 189 237 289 343
#     4  10  20  35  58  86 115 151 193 238 288 345
#     4  11  24  41  59  83 119 157 193 240 295 348
#     4  10  20  35  58  85 117 153 190 238 291 343
#     4  11  24  40  60  85 116 156 198 239 289 350
#     4  11  22  37  59  87 119 152 190 240 291 341
#     4  12  23  35  59  89 116 150 196 242 284 343
#
# _framework density 18.539807
#
# number of rings (size 3 to 8) (size 9 to 14) (size 15 to 20)
#    0.000    1.500    2.500    4.125    0.000    6.000 
#    0.000    1.250    0.000    1.500    0.000    0.000 
#    0.000    0.000    0.000    0.000    0.000    0.000 
#
# Total GULP energy -198471.028372 kJ/mol
# GULP energy per Si atom -12404.439273 kJ/mol
# Density = 1.849761 g / cm^3
# Si number density = 18.539807 Si / 1000 Ang^3
#
#
#
# Elastic Constant Matrix: (Units=GPa)
#
#
# Indices 1 2 3 4 5 6 
#
# 1 79.3119 71.4242 55.8159 0.0000 3.6569 0.0000
# 2 71.4242 172.8726 84.4139 0.0000 -3.1378 0.0000
# 3 55.8159 84.4139 146.9345 0.0000 -5.0223 0.0000
# 4 0.0000 0.0000 0.0000 37.6783 0.0000 0.8789
# 5 3.6569 -3.1378 -5.0223 0.0000 26.4937 0.0000
# 6 0.0000 0.0000 0.0000 0.8789 0.0000 27.7485
#
#
#
# Elastic Compliance Matrix: (Units=1/GPa)
#
#
# Indices 1 2 3 4 5 6 
#
# 1 0.022500 -0.007130 -0.004616 0.000000 -0.004825 0.000000
# 2 -0.007130 0.010300 -0.003154 0.000000 0.001606 0.000000
# 3 -0.004616 -0.003154 0.010448 0.000000 0.002244 0.000000
# 4 0.000000 0.000000 0.000000 0.026560 0.000000 -0.000841
# 5 -0.004825 0.001606 0.002244 0.000000 0.039026 0.000000
# 6 0.000000 0.000000 0.000000 -0.000841 0.000000 0.036065
#
#
# Mechanical properties :
#
#
# Convention : Reuss Voigt Hill
#
# Bulk Modulus (GPa) = 74.35864 91.38077 82.86970
# Shear Modulus (GPa) = 27.90485 30.88178 29.39331
#
# Velocity S-wave (km/s) = 3.88381 4.08573 3.98605
# Velocity P-wave (km/s) = 7.76573 8.46484 8.12281
#
# Compressibility (1/GPa) = 0.01344834
#
# Stress axis : x y z
#
# Youngs Moduli (GPa) = 44.44424 97.09207 95.71417
#
# Poissons Ratio (x) = 0.69224 0.44181
# Poissons Ratio (y) = 0.31688 0.30186
# Poissons Ratio (z) = 0.20515 0.30621
#
# Static dielectric constant tensor:
#      x y z
#    x 3.145910 0.000000 0.069460 
#    y 0.000000 3.608960 0.000000 
#    z 0.069460 0.000000 3.680100 
# 
# 
# High freq. dielectric constant tensor:
#      x y z
#    x 1.685730 0.000000 0.004770 
#    y 0.000000 1.737810 0.000000 
#    z 0.004770 0.000000 1.738480 
# 
# From -- ./inp_files/23871.got.cif
#   From: 2010.03.12/outbox.cif.g09.slc.cpg/sg8_12_cif.got.tgz:23871.got - 2010.03.31 10:45:26.
