data_PCOD8053540
_publ_section_title
;
Structure prediction by ZEFSAII (Michael W. Deem and Ramdas Pophale) SiO2 
 PCOD8053540
Probable space group: C M
;
_chemical_formula_sum "Si O2"
_cell_formula_units_Z 32
_cell_length_a 22.284937
_cell_length_b 8.474732
_cell_length_c 11.198984
_cell_angle_alpha 90.000000
_cell_angle_beta 48.577453
_cell_angle_gamma 90.000000
_cell_volume 1585.954967
_symmetry_space_group_name_H-M "C M"
_symmetry_group_IT_number 8
_symmetry_cell_setting 'monoclinic'
loop_
_space_group_symop_operation_xyz
x,y,z
x,-y,z
1/2+x,1/2+y,z
1/2+x,1/2-y,z
loop_
_atom_site_type_symbol
_atom_site_label
_atom_site_fract_x
_atom_site_fract_y
_atom_site_fract_z
Si Si1 0.453170 0.318880 0.004230
Si Si2 0.257834 0.813831 0.614187
Si Si3 0.573780 0.683517 0.239914
Si Si4 0.234023 0.186054 0.910337
Si Si5 0.150388 0.683012 0.361451
Si Si6 0.430111 0.181668 0.289685
Si Si7 0.809001 0.315314 0.052932
Si Si8 0.606471 0.817311 0.684206
O O1 0.448104 0.500000 0.050828
O O2 0.442928 0.211014 0.133500
O O3 0.384245 0.281781 0.000211
O O4 0.538669 0.289029 0.832595
O O5 0.261667 0.749946 0.745535
O O6 0.340391 0.770877 0.441706
O O7 0.190454 0.716679 0.635647
O O8 0.238909 0.000000 0.633828
O O9 0.583503 0.500000 0.256894
O O10 0.583275 0.778597 0.350780
O O11 0.488530 0.714583 0.293545
O O12 0.642952 0.740242 0.056894
O O13 0.238247 0.000000 0.903997
O O14 0.292213 0.245753 0.939842
O O15 0.174160 0.500000 0.325955
O O16 0.230533 0.784639 0.236150
O O17 0.112534 0.729431 0.537735
O O18 0.447272 0.000000 0.295921
O O19 0.829467 0.500000 0.030934
O O20 0.583808 0.000000 0.729908
#
# Coordination Sequence:
#
# PCOD8053540 Si02
#       8
#     4   4   4   4   4   4   4   4
#     4  12  25  40  59  83 115 153 194 242 296 352
#     4  10  21  38  60  85 115 151 190 235 289 347
#     4  10  20  36  60  87 117 155 197 240 286 339
#     4   8  17  35  58  83 111 147 187 229 281 337
#     4  10  21  38  60  86 118 155 195 239 289 346
#     4  11  23  38  59  87 118 154 196 240 288 344
#     4  10  20  37  61  87 118 153 191 237 289 346
#     4  11  24  40  59  84 114 150 194 244 294 345
#
# _framework density 20.177119000000001
#
# number of rings (size 3 to 8) (size 9 to 14) (size 15 to 20)
#    0.000    1.750    0.000    5.250    0.000    7.000 
#    0.000    5.625    0.000    0.000    0.000    0.000 
#    0.000    0.000    0.000    0.000    0.000    0.000 
#
# Total GULP energy -198469.218738 kJ/mol
# GULP energy per Si atom -12404.326171 kJ/mol
# Density = 2.013119 g / cm^3
# Si number density = 20.177119 Si / 1000 Ang^3
#
#
#
# Elastic Constant Matrix: (Units=GPa)
#
#
# Indices 1 2 3 4 5 6 
#
# 1 121.9761 13.2891 56.9322 0.0000 -0.4433 0.0000
# 2 13.2891 43.7454 21.3171 0.0000 2.1248 0.0000
# 3 56.9322 21.3171 126.9514 0.0000 12.7718 0.0000
# 4 0.0000 0.0000 0.0000 25.7370 0.0000 -4.6002
# 5 -0.4433 2.1248 12.7718 0.0000 34.6407 0.0000
# 6 0.0000 0.0000 0.0000 -4.6002 0.0000 32.5604
#
#
#
# Elastic Compliance Matrix: (Units=1/GPa)
#
#
# Indices 1 2 3 4 5 6 
#
# 1 0.010531 -0.000977 -0.004755 0.000000 0.001948 0.000000
# 2 -0.000977 0.024987 -0.003741 0.000000 -0.000166 0.000000
# 3 -0.004755 -0.003741 0.011030 0.000000 -0.003898 0.000000
# 4 0.000000 0.000000 0.000000 0.039861 0.000000 0.005632
# 5 0.001948 -0.000166 -0.003898 0.000000 0.030340 0.000000
# 6 0.000000 0.000000 0.000000 0.005632 0.000000 0.031508
#
#
# Mechanical properties :
#
#
# Convention : Reuss Voigt Hill
#
# Bulk Modulus (GPa) = 36.22787 52.86107 44.54447
# Shear Modulus (GPa) = 28.34418 31.99657 30.17038
#
# Velocity S-wave (km/s) = 3.75209 3.98651 3.87108
# Velocity P-wave (km/s) = 6.06340 6.88804 6.48883
#
# Compressibility (1/GPa) = 0.02760306
#
# Stress axis : x y z
#
# Youngs Moduli (GPa) = 94.95724 40.02023 90.66515
#
# Poissons Ratio (x) = 0.03909 0.43108
# Poissons Ratio (y) = 0.09276 0.33918
# Poissons Ratio (z) = 0.45149 0.14972
#
# Static dielectric constant tensor:
#      x y z
#    x 3.790320 0.000000 0.189600 
#    y 0.000000 3.548810 0.000000 
#    z 0.189600 0.000000 3.800060 
# 
# 
# High freq. dielectric constant tensor:
#      x y z
#    x 1.798900 0.000000 0.006140 
#    y 0.000000 1.781440 0.000000 
#    z 0.006140 0.000000 1.789060 
# 
# From -- ./inp_files/23852.got.cif
#   From: 2010.03.12/outbox.cif.g09.slc.cpg/sg8_12_cif.got.tgz:23852.got - 2010.03.31 10:45:26.
