data_PCOD8053652
_publ_section_title
;
Structure prediction by ZEFSAII (Michael W. Deem and Ramdas Pophale) SiO2 
 PCOD8053652
Probable space group: C M
;
_chemical_formula_sum "Si O2"
_cell_formula_units_Z 32
_cell_length_a 17.185287
_cell_length_b 14.678377
_cell_length_c 11.355418
_cell_angle_alpha 90.000000
_cell_angle_beta 31.043144
_cell_angle_gamma 90.000000
_cell_volume 1477.138057
_symmetry_space_group_name_H-M "C M"
_symmetry_group_IT_number 8
_symmetry_cell_setting 'monoclinic'
loop_
_space_group_symop_operation_xyz
x,y,z
x,-y,z
1/2+x,1/2+y,z
1/2+x,1/2-y,z
loop_
_atom_site_type_symbol
_atom_site_label
_atom_site_fract_x
_atom_site_fract_y
_atom_site_fract_z
Si Si1 0.921400 0.711297 0.515240
Si Si2 0.849364 0.147665 0.323746
Si Si3 0.805318 0.396635 0.005244
Si Si4 0.574693 0.791571 0.556104
Si Si5 0.276999 0.395691 0.668377
Si Si6 0.166349 0.902017 0.944119
Si Si7 0.473296 0.155731 0.193225
Si Si8 0.197086 0.100993 0.406811
O O1 0.907255 0.821650 0.528831
O O2 0.752346 0.674361 0.758093
O O3 0.982707 0.655523 0.323226
O O4 0.036374 0.690045 0.470438
O O5 0.731895 0.152844 0.368768
O O6 0.744840 0.122575 0.571884
O O7 0.942065 0.240716 0.205055
O O8 0.992324 0.080773 0.129543
O O9 0.863831 0.500000 0.922511
O O10 0.679139 0.377177 0.067544
O O11 0.945754 0.330049 0.806738
O O12 0.742160 0.375253 0.215195
O O13 0.587740 0.685347 0.580890
O O14 0.334814 0.500000 0.613819
O O15 0.128626 0.380771 0.938384
O O16 0.246441 0.000000 0.819474
O O17 0.338487 0.095907 0.312902
O O18 0.119601 0.000000 0.513526
#
# Coordination Sequence:
#
# PCOD8053652 Si02
#       8
#     4   4   4   4   4   4   4   4
#     4  10  23  40  62  92 126 163 202 244 307 373
#     4  10  21  38  59  93 120 154 204 259 300 347
#     4   9  20  38  63  91 119 156 206 252 300 356
#     4  10  22  38  62  91 123 158 199 255 302 352
#     4  11  22  37  65  94 120 157 206 259 300 352
#     4  10  20  38  64  90 122 163 205 252 304 362
#     4  10  21  38  59  86 125 163 199 244 303 368
#     4  10  21  37  62  91 121 158 201 249 300 358
#
# _framework density 21.663512999999998
#
# number of rings (size 3 to 8) (size 9 to 14) (size 15 to 20)
#    0.000    2.000    1.250    1.500    3.500    3.500 
#    0.000    0.000    0.000    0.750    0.000    0.000 
#    0.000    0.000    0.000    0.000    0.000    0.000 
#
# Total GULP energy -198209.990171 kJ/mol
# GULP energy per Si atom -12388.124386 kJ/mol
# Density = 2.161421 g / cm^3
# Si number density = 21.663513 Si / 1000 Ang^3
#
#
#
# Elastic Constant Matrix: (Units=GPa)
#
#
# Indices 1 2 3 4 5 6 
#
# 1 105.8148 23.5367 47.3788 0.0001 -6.1093 0.0000
# 2 23.5367 117.6830 46.4945 0.0000 3.2797 0.0000
# 3 47.3788 46.4945 90.7586 0.0000 -3.7499 0.0001
# 4 0.0001 0.0000 0.0000 29.2517 0.0000 0.9338
# 5 -6.1093 3.2797 -3.7499 0.0000 28.2649 -0.0001
# 6 0.0000 0.0000 0.0001 0.9338 -0.0001 19.6054
#
#
#
# Elastic Compliance Matrix: (Units=1/GPa)
#
#
# Indices 1 2 3 4 5 6 
#
# 1 0.012427 -0.000004 -0.006409 0.000000 0.001836 0.000000
# 2 -0.000004 0.010764 -0.005594 0.000000 -0.001992 0.000000
# 3 -0.006409 -0.005594 0.017294 0.000000 0.001558 0.000000
# 4 0.000000 0.000000 0.000000 0.034238 0.000000 -0.001631
# 5 0.001836 -0.001992 0.001558 0.000000 0.036214 0.000000
# 6 0.000000 0.000000 0.000000 -0.001631 0.000000 0.051084
#
#
# Mechanical properties :
#
#
# Convention : Reuss Voigt Hill
#
# Bulk Modulus (GPa) = 60.71776 61.00850 60.86313
# Shear Modulus (GPa) = 26.10586 28.54749 27.32668
#
# Velocity S-wave (km/s) = 3.47517 3.63405 3.55549
# Velocity P-wave (km/s) = 6.64762 6.76989 6.70903
#
# Compressibility (1/GPa) = 0.01646965
#
# Stress axis : x y z
#
# Youngs Moduli (GPa) = 80.46838 92.90217 57.82242
#
# Poissons Ratio (x) = 0.00041 0.37060
# Poissons Ratio (y) = 0.00036 0.32347
# Poissons Ratio (z) = 0.51574 0.51972
#
# Static dielectric constant tensor:
#      x y z
#    x 4.132570 0.000000 0.045850 
#    y 0.000000 4.324350 0.000000 
#    z 0.045850 0.000000 3.612510 
# 
# 
# High freq. dielectric constant tensor:
#      x y z
#    x 1.848160 0.000000 -0.001650 
#    y 0.000000 1.862650 0.000000 
#    z -0.001650 0.000000 1.827240 
# 
# From -- ./inp_files/23309.got.cif
#   From: 2010.03.12/outbox.cif.g09.slc.cpg/sg8_12_cif.got.tgz:23309.got - 2010.03.31 10:45:26.
