data_PCOD8053166
_publ_section_title
;
Structure prediction by ZEFSAII (Michael W. Deem and Ramdas Pophale) SiO2 
 PCOD8053166
Probable space group: C M
;
_chemical_formula_sum "Si O2"
_cell_formula_units_Z 28
_cell_length_a 5.643030
_cell_length_b 31.754736
_cell_length_c 7.349326
_cell_angle_alpha 90.000000
_cell_angle_beta 56.491470
_cell_angle_gamma 90.000000
_cell_volume 1098.075409
_symmetry_space_group_name_H-M "C M"
_symmetry_group_IT_number 8
_symmetry_cell_setting 'monoclinic'
loop_
_space_group_symop_operation_xyz
x,y,z
x,-y,z
1/2+x,1/2+y,z
1/2+x,1/2-y,z
loop_
_atom_site_type_symbol
_atom_site_label
_atom_site_fract_x
_atom_site_fract_y
_atom_site_fract_z
Si Si1 0.727920 0.411105 0.510070
Si Si2 0.448574 0.000000 0.843854
Si Si3 0.231508 0.642391 0.258668
Si Si4 0.428237 0.266091 0.630727
Si Si5 0.302826 0.265232 0.132304
Si Si6 0.236392 0.645458 0.664322
Si Si7 0.255291 0.909368 0.934633
Si Si8 0.138457 0.000000 0.583413
O O1 0.422458 0.396381 0.576134
O O2 0.751815 0.410234 0.717628
O O3 0.754363 0.459077 0.428854
O O4 0.949138 0.381338 0.310671
O O5 0.339315 0.044409 0.979760
O O6 0.791637 0.000000 0.722396
O O7 0.293995 0.000000 0.713414
O O8 0.299807 0.684119 0.116016
O O9 0.167111 0.659478 0.488296
O O10 0.463920 0.605624 0.147370
O O11 0.601621 0.250623 0.737180
O O12 0.618994 0.254702 0.374817
O O13 0.404311 0.315810 0.682037
O O14 0.635487 0.250310 0.018869
O O15 0.968010 0.629427 0.895231
#
# Coordination Sequence:
#
# PCOD8053166 Si02
#       8
#     4   2   4   4   4   4   4   2
#     4  10  22  40  66  92 127 170 213 268 321 392
#     4  10  20  45  65  90 137 174 206 268 336 383
#     4  11  23  39  65  97 127 169 222 270 321 385
#     4  10  19  34  61  87 121 171 209 255 324 377
#     4  10  19  37  60  87 127 173 208 262 328 373
#     4  11  21  39  66  91 125 168 216 267 318 385
#     4  10  24  41  64  95 129 170 214 268 327 388
#     4  10  20  41  69  92 129 176 214 256 338 391
#
# _framework density 25.49916
#
# number of rings (size 3 to 8) (size 9 to 14) (size 15 to 20)
#    0.000    1.714    4.286    1.714    2.000    1.714 
#    0.000    2.857    0.000    0.000    0.000    0.000 
#    0.000    0.000    0.000    0.000    0.000    0.000 
#
# Total GULP energy -173446.514364 kJ/mol
# GULP energy per Si atom -12389.036740 kJ/mol
# Density = 2.544112 g / cm^3
# Si number density = 25.499160 Si / 1000 Ang^3
#
#
#
# Elastic Constant Matrix: (Units=GPa)
#
#
# Indices 1 2 3 4 5 6 
#
# 1 147.2707 17.3812 35.1421 0.0000 -11.1337 0.0000
# 2 17.3812 151.8702 6.3557 0.0000 2.9437 0.0000
# 3 35.1421 6.3557 54.7368 0.0000 1.4631 0.0000
# 4 0.0000 0.0000 0.0000 18.7689 0.0000 -17.3676
# 5 -11.1337 2.9437 1.4631 0.0000 37.3325 0.0000
# 6 0.0000 0.0000 0.0000 -17.3676 0.0000 46.8202
#
#
#
# Elastic Compliance Matrix: (Units=1/GPa)
#
#
# Indices 1 2 3 4 5 6 
#
# 1 0.008371 -0.000787 -0.005357 0.000000 0.002768 0.000000
# 2 -0.000787 0.006700 -0.000252 0.000000 -0.000753 0.000000
# 3 -0.005357 -0.000252 0.021803 0.000000 -0.002432 0.000000
# 4 0.000000 0.000000 0.000000 0.081126 0.000000 0.030093
# 5 0.002768 -0.000753 -0.002432 0.000000 0.027767 0.000000
# 6 0.000000 0.000000 0.000000 0.030093 0.000000 0.032521
#
#
# Mechanical properties :
#
#
# Convention : Reuss Voigt Hill
#
# Bulk Modulus (GPa) = 41.52766 52.40398 46.96582
# Shear Modulus (GPa) = 25.11221 40.25089 32.68155
#
# Velocity S-wave (km/s) = 3.14160 3.97737 3.58393
# Velocity P-wave (km/s) = 5.42962 6.45666 5.96528
#
# Compressibility (1/GPa) = 0.02408033
#
# Stress axis : x y z
#
# Youngs Moduli (GPa) = 119.46465 149.25702 45.86601
#
# Poissons Ratio (x) = 0.11754 0.24569
# Poissons Ratio (y) = 0.09408 0.01157
# Poissons Ratio (z) = 0.63994 0.03765
#
# Static dielectric constant tensor:
#      x y z
#    x 5.188540 0.000000 -0.119470 
#    y 0.000000 4.975450 0.000000 
#    z -0.119470 0.000000 4.223890 
# 
# 
# High freq. dielectric constant tensor:
#      x y z
#    x 2.040930 0.000000 -0.006240 
#    y 0.000000 2.033380 0.000000 
#    z -0.006240 0.000000 2.008210 
# 
# From -- ./inp_files/7167.got.cif
#   From: 2010.03.12/outbox.cif.g09.slc.cpg/sg8_4_cif.got.tgz:7167.got - 2010.03.31 10:45:26.
