data_PCOD8053266
_publ_section_title
;
Structure prediction by ZEFSAII (Michael W. Deem and Ramdas Pophale) SiO2 
 PCOD8053266
Probable space group: C M
;
_chemical_formula_sum "Si O2"
_cell_formula_units_Z 24
_cell_length_a 11.542201
_cell_length_b 20.982237
_cell_length_c 5.081039
_cell_angle_alpha 90.000000
_cell_angle_beta 115.064128
_cell_angle_gamma 90.000000
_cell_volume 1114.658074
_symmetry_space_group_name_H-M "C M"
_symmetry_group_IT_number 8
_symmetry_cell_setting 'monoclinic'
loop_
_space_group_symop_operation_xyz
x,y,z
x,-y,z
1/2+x,1/2+y,z
1/2+x,1/2-y,z
loop_
_atom_site_type_symbol
_atom_site_label
_atom_site_fract_x
_atom_site_fract_y
_atom_site_fract_z
Si Si1 0.715470 0.228302 0.432840
Si Si2 0.336398 0.329607 0.050910
Si Si3 0.126154 0.134176 0.396163
Si Si4 0.738100 0.425374 0.001720
Si Si5 0.631573 0.927741 0.915766
Si Si6 0.512180 0.126171 0.299570
O O1 0.810238 0.196491 0.734271
O O2 0.714689 0.303364 0.482772
O O3 0.572124 0.196954 0.310912
O O4 0.775270 0.218947 0.202128
O O5 0.271974 0.398495 0.022796
O O6 0.484498 0.339468 0.235301
O O7 0.142877 0.093778 0.676678
O O8 0.162389 0.086797 0.196641
O O9 0.776943 0.500000 0.021714
O O10 0.861568 0.379247 0.100421
O O11 0.533468 0.893350 0.622769
O O12 0.641528 0.000000 0.840801
O O13 0.583332 0.921514 0.167936
#
# Coordination Sequence:
#
# PCOD8053266 Si02
#       6
#     4   4   4   4   4   4
#     4  10  23  41  68  92 127 163 223 270 328 371
#     4  10  23  43  60  96 125 162 219 265 318 392
#     4  12  26  42  68  93 133 178 207 273 327 389
#     4  12  26  44  65  99 136 177 218 256 327 397
#     4  10  19  36  64  90 122 165 208 262 316 364
#     4  10  22  40  63  94 124 165 213 274 306 377
#
# _framework density 21.531267
#
# number of rings (size 3 to 8) (size 9 to 14) (size 15 to 20)
#    0.000    1.333    0.000    5.000    4.667    1.333 
#    0.000    0.000    0.000    0.000    0.000    0.000 
#    0.000    0.000    0.000    0.000    0.000    0.000 
#
# Total GULP energy -148843.469116 kJ/mol
# GULP energy per Si atom -12403.622426 kJ/mol
# Density = 2.148226 g / cm^3
# Si number density = 21.531267 Si / 1000 Ang^3
#
#
#
# Elastic Constant Matrix: (Units=GPa)
#
#
# Indices 1 2 3 4 5 6 
#
# 1 56.9018 17.3137 23.6747 0.0000 9.3207 0.0000
# 2 17.3137 86.4834 16.6652 0.0000 -2.3862 0.0000
# 3 23.6747 16.6652 98.4431 0.0000 1.7639 0.0000
# 4 0.0000 0.0000 0.0000 17.1939 0.0000 -2.4079
# 5 9.3207 -2.3862 1.7639 0.0000 35.1605 0.0000
# 6 0.0000 0.0000 0.0000 -2.4079 0.0000 16.1011
#
#
#
# Elastic Compliance Matrix: (Units=1/GPa)
#
#
# Indices 1 2 3 4 5 6 
#
# 1 0.021454 -0.003595 -0.004449 0.000000 -0.005708 0.000000
# 2 -0.003595 0.012585 -0.001299 0.000000 0.001872 0.000000
# 3 -0.004449 -0.001299 0.011439 0.000000 0.000517 0.000000
# 4 0.000000 0.000000 0.000000 0.059404 0.000000 0.008884
# 5 -0.005708 0.001872 0.000517 0.000000 0.030055 0.000000
# 6 0.000000 0.000000 0.000000 0.008884 0.000000 0.063436
#
#
# Mechanical properties :
#
#
# Convention : Reuss Voigt Hill
#
# Bulk Modulus (GPa) = 37.32601 39.68172 38.50386
# Shear Modulus (GPa) = 22.12486 25.96940 24.04713
#
# Velocity S-wave (km/s) = 3.20905 3.47670 3.34555
# Velocity P-wave (km/s) = 5.57710 5.88102 5.73107
#
# Compressibility (1/GPa) = 0.02679097
#
# Stress axis : x y z
#
# Youngs Moduli (GPa) = 46.61140 79.46140 87.42254
#
# Poissons Ratio (x) = 0.28569 0.38891
# Poissons Ratio (y) = 0.16758 0.11359
# Poissons Ratio (z) = 0.20735 0.10325
#
# Static dielectric constant tensor:
#      x y z
#    x 3.804500 0.000000 -0.119430 
#    y 0.000000 3.847970 0.000000 
#    z -0.119430 0.000000 3.988340 
# 
# 
# High freq. dielectric constant tensor:
#      x y z
#    x 1.840840 0.000000 -0.010380 
#    y 0.000000 1.844590 0.000000 
#    z -0.010380 0.000000 1.859490 
# 
# From -- ./inp_files/2862.got.cif
#   From: 2010.03.12/outbox.cif.g09.slc.cpg/sg8_2_cif.got.tgz:2862.got - 2010.03.31 10:45:26.
