data_PCOD8053617
_publ_section_title
;
Structure prediction by ZEFSAII (Michael W. Deem and Ramdas Pophale) SiO2 
 PCOD8053617
Probable space group: C M
;
_chemical_formula_sum "Si O2"
_cell_formula_units_Z 32
_cell_length_a 19.412460
_cell_length_b 8.734635
_cell_length_c 19.527857
_cell_angle_alpha 90.000000
_cell_angle_beta 151.129095
_cell_angle_gamma 90.000000
_cell_volume 1598.752164
_symmetry_space_group_name_H-M "C M"
_symmetry_group_IT_number 8
_symmetry_cell_setting 'monoclinic'
loop_
_space_group_symop_operation_xyz
x,y,z
x,-y,z
1/2+x,1/2+y,z
1/2+x,1/2-y,z
loop_
_atom_site_type_symbol
_atom_site_label
_atom_site_fract_x
_atom_site_fract_y
_atom_site_fract_z
Si Si1 0.540730 0.819485 0.898190
Si Si2 0.966884 0.682005 0.452773
Si Si3 0.030357 0.321710 0.160568
Si Si4 0.215747 0.177843 0.927075
Si Si5 0.027934 0.678036 0.657914
Si Si6 0.236819 0.324774 0.605459
Si Si7 0.156322 0.181280 0.138776
Si Si8 0.259064 0.325883 0.470776
O O1 0.639969 0.770242 0.921492
O O2 0.378164 0.768620 0.746085
O O3 0.544762 0.000000 0.907522
O O4 0.602162 0.750003 0.021061
O O5 0.962366 0.500000 0.446482
O O6 0.991495 0.741278 0.551073
O O7 0.816045 0.745292 0.293221
O O8 0.100271 0.745401 0.525598
O O9 0.040443 0.500000 0.150992
O O10 0.050369 0.228153 0.108013
O O11 0.148221 0.269387 0.317628
O O12 0.882584 0.284126 0.069807
O O13 0.159072 0.228137 0.803256
O O14 0.184516 0.000000 0.912672
O O15 0.066579 0.500000 0.691630
O O16 0.891657 0.710622 0.586697
O O17 0.265207 0.500000 0.652412
O O18 0.191134 0.314642 0.486572
O O19 0.156379 0.000000 0.132217
O O20 0.309421 0.500000 0.499859
#
# Coordination Sequence:
#
# PCOD8053617 Si02
#       8
#     4   4   4   4   4   4   4   4
#     4  12  26  43  61  90 127 162 204 257 307 363
#     4   9  21  39  63  93 122 158 205 250 299 361
#     4  10  23  41  63  94 127 160 205 257 304 360
#     4  11  24  42  64  91 122 165 208 250 308 367
#     4  11  21  38  62  91 124 158 202 258 304 356
#     4  10  21  40  65  91 120 163 208 248 302 365
#     4  11  23  42  66  90 123 166 205 249 307 370
#     4  10  20  37  64  90 119 160 203 253 307 362
#
# _framework density 20.015609000000001
#
# number of rings (size 3 to 8) (size 9 to 14) (size 15 to 20)
#    0.000    1.500    2.500    2.250    3.500    1.000 
#    0.000    1.875    0.000    0.000    0.000    0.000 
#    0.000    0.000    0.000    0.000    0.000    0.000 
#
# Total GULP energy -198434.131322 kJ/mol
# GULP energy per Si atom -12402.133208 kJ/mol
# Density = 1.997005 g / cm^3
# Si number density = 20.015609 Si / 1000 Ang^3
#
#
#
# Elastic Constant Matrix: (Units=GPa)
#
#
# Indices 1 2 3 4 5 6 
#
# 1 113.9448 35.2476 40.3635 0.0001 -1.5762 0.0000
# 2 35.2476 68.9176 34.7630 0.0001 3.0071 0.0000
# 3 40.3635 34.7630 100.9728 -0.0002 -10.3813 -0.0001
# 4 0.0001 0.0001 -0.0002 26.6949 -0.0002 -2.8885
# 5 -1.5762 3.0071 -10.3813 -0.0002 38.4596 -0.0001
# 6 0.0000 0.0000 -0.0001 -2.8885 -0.0001 22.9442
#
#
#
# Elastic Compliance Matrix: (Units=1/GPa)
#
#
# Indices 1 2 3 4 5 6 
#
# 1 0.011135 -0.004171 -0.003019 0.000000 -0.000032 0.000000
# 2 -0.004171 0.019486 -0.005365 0.000000 -0.003143 0.000000
# 3 -0.003019 -0.005365 0.013358 0.000000 0.003902 0.000000
# 4 0.000000 0.000000 0.000000 0.037978 0.000000 0.004781
# 5 -0.000032 -0.003143 0.003902 0.000000 0.027299 0.000000
# 6 0.000000 0.000000 0.000000 0.004781 0.000000 0.044186
#
#
# Mechanical properties :
#
#
# Convention : Reuss Voigt Hill
#
# Bulk Modulus (GPa) = 52.98939 56.06479 54.52709
# Shear Modulus (GPa) = 27.05020 29.18380 28.11700
#
# Velocity S-wave (km/s) = 3.68020 3.82259 3.75207
# Velocity P-wave (km/s) = 6.67758 6.89596 6.78765
#
# Compressibility (1/GPa) = 0.01887170
#
# Stress axis : x y z
#
# Youngs Moduli (GPa) = 89.80441 51.31778 74.85945
#
# Poissons Ratio (x) = 0.21405 0.22597
# Poissons Ratio (y) = 0.37458 0.40159
# Poissons Ratio (z) = 0.27108 0.27530
#
# Static dielectric constant tensor:
#      x y z
#    x 3.718550 0.000000 -0.026590 
#    y 0.000000 3.521880 0.000000 
#    z -0.026590 0.000000 3.835660 
# 
# 
# High freq. dielectric constant tensor:
#      x y z
#    x 1.790240 0.000000 -0.004270 
#    y 0.000000 1.766910 0.000000 
#    z -0.004270 0.000000 1.793630 
# 
# From -- ./inp_files/31358.got.cif
#   From: 2010.03.12/outbox.cif.g09.slc.cpg/sg8_16_cif.got.tgz:31358.got - 2010.03.31 10:45:26.
