data_PCOD8053532
_publ_section_title
;
Structure prediction by ZEFSAII (Michael W. Deem and Ramdas Pophale) SiO2 
 PCOD8053532
Probable space group: C M
;
_chemical_formula_sum "Si O2"
_cell_formula_units_Z 28
_cell_length_a 7.687736
_cell_length_b 22.044390
_cell_length_c 11.400976
_cell_angle_alpha 90.000000
_cell_angle_beta 130.393389
_cell_angle_gamma 90.000000
_cell_volume 1471.543061
_symmetry_space_group_name_H-M "C M"
_symmetry_group_IT_number 8
_symmetry_cell_setting 'monoclinic'
loop_
_space_group_symop_operation_xyz
x,y,z
x,-y,z
1/2+x,1/2+y,z
1/2+x,1/2-y,z
loop_
_atom_site_type_symbol
_atom_site_label
_atom_site_fract_x
_atom_site_fract_y
_atom_site_fract_z
Si Si1 0.275020 0.239945 0.829500
Si Si2 0.389718 0.280350 0.490764
Si Si3 0.276365 0.139183 0.666016
Si Si4 0.149566 0.831413 0.987655
Si Si5 0.505175 0.069686 0.559838
Si Si6 0.043987 0.931867 0.770866
Si Si7 0.908805 0.668957 0.342390
O O1 0.407800 0.189552 0.804796
O O2 0.289657 0.215528 0.968494
O O3 0.391733 0.305461 0.880547
O O4 0.012922 0.245136 0.664595
O O5 0.575965 0.324087 0.506670
O O6 0.312693 0.225428 0.374715
O O7 0.173959 0.320131 0.431952
O O8 0.445329 0.101776 0.657388
O O9 0.139758 0.093832 0.691721
O O10 0.145078 0.897082 0.927004
O O11 0.262046 0.837526 0.162322
O O12 0.772319 0.072752 0.654059
O O13 0.379477 0.106464 0.401329
O O14 0.417962 0.000000 0.522487
O O15 0.130273 0.000000 0.821992
#
# Coordination Sequence:
#
# PCOD8053532 Si02
#       7
#     4   4   4   4   4   4   4
#     4   9  20  35  56  85 109 154 187 238 291 346
#     4  10  20  36  60  83 122 148 194 244 290 352
#     4   9  20  36  63  88 110 143 201 254 281 336
#     4  11  22  35  56  86 121 152 186 245 302 355
#     4  11  22  37  62  86 113 157 205 245 286 348
#     4  10  21  39  60  83 112 156 204 244 285 345
#     4  12  22  36  55  91 122 154 193 238 313 350
#
# _framework density 19.027646000000001
#
# number of rings (size 3 to 8) (size 9 to 14) (size 15 to 20)
#    0.857    0.857    1.429    3.857    4.000    0.571 
#    0.000    0.000    0.000    0.000    0.000    0.000 
#    0.000    0.000    0.000    0.000    0.000    0.000 
#
# Total GULP energy -173501.259304 kJ/mol
# GULP energy per Si atom -12392.947093 kJ/mol
# Density = 1.898434 g / cm^3
# Si number density = 19.027646 Si / 1000 Ang^3
#
#
#
# Elastic Constant Matrix: (Units=GPa)
#
#
# Indices 1 2 3 4 5 6 
#
# 1 47.0449 9.2996 29.0187 0.0000 -7.7625 0.0000
# 2 9.2996 97.8947 48.1546 0.0000 -11.1862 0.0000
# 3 29.0187 48.1546 117.3924 0.0000 -18.1515 0.0000
# 4 0.0000 0.0000 0.0000 17.9086 0.0000 -0.1457
# 5 -7.7625 -11.1862 -18.1515 0.0000 28.0886 0.0000
# 6 0.0000 0.0000 0.0000 -0.1457 0.0000 27.9925
#
#
#
# Elastic Compliance Matrix: (Units=1/GPa)
#
#
# Indices 1 2 3 4 5 6 
#
# 1 0.025430 0.001012 -0.006169 0.000000 0.003444 0.000000
# 2 0.001012 0.012929 -0.005238 0.000000 0.002044 0.000000
# 3 -0.006169 -0.005238 0.012894 0.000000 0.004542 0.000000
# 4 0.000000 0.000000 0.000000 0.055841 0.000000 0.000291
# 5 0.003444 0.002044 0.004542 0.000000 0.040303 0.000000
# 6 0.000000 0.000000 0.000000 0.000291 0.000000 0.035725
#
#
# Mechanical properties :
#
#
# Convention : Reuss Voigt Hill
#
# Bulk Modulus (GPa) = 32.82524 48.36421 40.59473
# Shear Modulus (GPa) = 23.35743 26.52188 24.93966
#
# Velocity S-wave (km/s) = 3.50745 3.73749 3.62430
# Velocity P-wave (km/s) = 5.80445 6.64065 6.23658
#
# Compressibility (1/GPa) = 0.03046436
#
# Stress axis : x y z
#
# Youngs Moduli (GPa) = 39.32435 77.34642 77.55509
#
# Poissons Ratio (x) = -0.07830 0.47841
# Poissons Ratio (y) = -0.03981 0.40620
# Poissons Ratio (z) = 0.24258 0.40511
#
# Static dielectric constant tensor:
#      x y z
#    x 3.471270 0.000000 -0.172140 
#    y 0.000000 3.714480 0.000000 
#    z -0.172140 0.000000 3.150060 
# 
# 
# High freq. dielectric constant tensor:
#      x y z
#    x 1.748230 0.000000 -0.014920 
#    y 0.000000 1.744910 0.000000 
#    z -0.014920 0.000000 1.707170 
# 
# From -- ./inp_files/19216.got.cif
#   From: 2010.03.12/outbox.cif.g09.slc.cpg/sg8_10_cif.got.tgz:19216.got - 2010.03.31 10:45:26.
