data_PCOD8053993
_publ_section_title
;
Structure prediction by ZEFSAII (Michael W. Deem and Ramdas Pophale) SiO2 
 PCOD8053993
Probable space group: C M
;
_chemical_formula_sum "Si O2"
_cell_formula_units_Z 16
_cell_length_a 7.744590
_cell_length_b 18.811340
_cell_length_c 7.976578
_cell_angle_alpha 90.000000
_cell_angle_beta 145.229570
_cell_angle_gamma 90.000000
_cell_volume 662.720355
_symmetry_space_group_name_H-M "C M"
_symmetry_group_IT_number 8
_symmetry_cell_setting 'monoclinic'
loop_
_space_group_symop_operation_xyz
x,y,z
x,-y,z
1/2+x,1/2+y,z
1/2+x,1/2-y,z
loop_
_atom_site_type_symbol
_atom_site_label
_atom_site_fract_x
_atom_site_fract_y
_atom_site_fract_z
Si Si1 0.264410 0.420218 0.029720
Si Si2 0.825069 0.693488 0.828766
Si Si3 0.180742 0.305033 0.424955
Si Si4 0.400783 0.920253 0.421889
O O1 0.224119 0.500000 0.069336
O O2 0.616420 0.396483 0.312492
O O3 0.054136 0.369737 0.970682
O O4 0.188247 0.417433 0.772037
O O5 0.494982 0.661671 0.608252
O O6 0.778071 0.748412 0.641534
O O7 0.984793 0.731689 0.118241
O O8 0.962635 0.366828 0.319570
O O9 0.345475 0.000000 0.306820
#
# Coordination Sequence:
#
# PCOD8053993 Si02
#       4
#     4   4   4   4
#     4  10  22  43  69  96 130 171 216 269 330 391
#     4  12  26  43  66  97 136 176 220 272 326 392
#     4  12  26  43  66  97 136 176 220 272 326 392
#     4  10  22  43  69  96 130 171 216 269 330 391
#
# _framework density 24.142914000000001
#
# number of rings (size 3 to 8) (size 9 to 14) (size 15 to 20)
#    0.000    1.000    0.000    6.000    0.000    6.000 
#    0.000    0.000    0.000    0.000    0.000    0.000 
#    0.000    0.000    0.000    0.000    0.000    0.000 
#
# Total GULP energy -99198.159102 kJ/mol
# GULP energy per Si atom -12399.769888 kJ/mol
# Density = 2.408796 g / cm^3
# Si number density = 24.142914 Si / 1000 Ang^3
#
#
#
# Elastic Constant Matrix: (Units=GPa)
#
#
# Indices 1 2 3 4 5 6 
#
# 1 120.9354 62.4375 32.6575 0.0000 23.4020 0.0000
# 2 62.4375 106.9672 27.3938 0.0000 12.3716 0.0000
# 3 32.6575 27.3938 126.4781 0.0000 -3.6084 0.0000
# 4 0.0000 0.0000 0.0000 29.2960 0.0000 7.9352
# 5 23.4020 12.3716 -3.6084 0.0000 54.8926 0.0000
# 6 0.0000 0.0000 0.0000 7.9352 0.0000 23.7279
#
#
#
# Elastic Compliance Matrix: (Units=1/GPa)
#
#
# Indices 1 2 3 4 5 6 
#
# 1 0.013048 -0.006602 -0.002059 0.000000 -0.004210 0.000000
# 2 -0.006602 0.013557 -0.001241 0.000000 -0.000323 0.000000
# 3 -0.002059 -0.001241 0.008756 0.000000 0.001733 0.000000
# 4 0.000000 0.000000 0.000000 0.037534 0.000000 -0.012552
# 5 -0.004210 -0.000323 0.001733 0.000000 0.020199 0.000000
# 6 0.000000 0.000000 0.000000 -0.012552 0.000000 0.046342
#
#
# Mechanical properties :
#
#
# Convention : Reuss Voigt Hill
#
# Bulk Modulus (GPa) = 64.27738 66.59540 65.43639
# Shear Modulus (GPa) = 30.40845 37.04275 33.72560
#
# Velocity S-wave (km/s) = 3.55282 3.92128 3.74159
# Velocity P-wave (km/s) = 6.59633 6.93870 6.76968
#
# Compressibility (1/GPa) = 0.01555757
#
# Stress axis : x y z
#
# Youngs Moduli (GPa) = 76.63876 73.76045 114.20147
#
# Poissons Ratio (x) = 0.48697 0.23518
# Poissons Ratio (y) = 0.50597 0.14171
# Poissons Ratio (z) = 0.15782 0.09153
#
# Static dielectric constant tensor:
#      x y z
#    x 4.418620 0.000000 0.144400 
#    y 0.000000 4.166140 0.000000 
#    z 0.144400 0.000000 4.805710 
# 
# 
# High freq. dielectric constant tensor:
#      x y z
#    x 1.957480 0.000000 0.013570 
#    y 0.000000 1.943930 0.000000 
#    z 0.013570 0.000000 1.985600 
# 
# From -- ./inp_files/8077.got.cif
#   From: 2010.03.12/outbox.cif.g09.slc.cpg/sg8_5_cif.got.tgz:8077.got - 2010.03.31 10:45:26.
