data_PCOD8053618
_publ_section_title
;
Structure prediction by ZEFSAII (Michael W. Deem and Ramdas Pophale) SiO2 
 PCOD8053618
Probable space group: C M
;
_chemical_formula_sum "Si O2"
_cell_formula_units_Z 28
_cell_length_a 9.809177
_cell_length_b 14.651564
_cell_length_c 12.176834
_cell_angle_alpha 90.000000
_cell_angle_beta 49.675491
_cell_angle_gamma 90.000000
_cell_volume 1334.224891
_symmetry_space_group_name_H-M "C M"
_symmetry_group_IT_number 8
_symmetry_cell_setting 'monoclinic'
loop_
_space_group_symop_operation_xyz
x,y,z
x,-y,z
1/2+x,1/2+y,z
1/2+x,1/2-y,z
loop_
_atom_site_type_symbol
_atom_site_label
_atom_site_fract_x
_atom_site_fract_y
_atom_site_fract_z
Si Si1 0.604990 0.279323 0.444380
Si Si2 0.702802 0.392783 0.188142
Si Si3 0.322126 0.597103 0.033612
Si Si4 0.374419 0.217329 0.916514
Si Si5 0.722788 0.280590 0.620920
Si Si6 0.237080 0.097215 0.797917
Si Si7 0.813207 0.896994 0.293775
O O1 0.709346 0.343610 0.303824
O O2 0.633997 0.314933 0.553595
O O3 0.397063 0.283752 0.515849
O O4 0.679757 0.176258 0.415548
O O5 0.741590 0.500000 0.184179
O O6 0.516590 0.375640 0.222326
O O7 0.857986 0.347793 0.031982
O O8 0.228395 0.500000 0.045788
O O9 0.283828 0.615157 0.180294
O O10 0.266901 0.686979 0.993884
O O11 0.528917 0.581747 0.908931
O O12 0.581822 0.231643 0.776490
O O13 0.282058 0.173461 0.861372
O O14 0.795165 0.370250 0.646344
O O15 0.332917 0.000000 0.773447
O O16 0.763473 0.000000 0.357971
#
# Coordination Sequence:
#
# PCOD8053618 Si02
#       7
#     4   4   4   4   4   4   4
#     4  12  23  44  64  96 138 175 217 273 338 397
#     4  11  23  40  68  99 131 174 223 280 338 392
#     4   9  18  33  59  95 125 162 214 269 325 383
#     4  11  20  38  66  95 133 171 224 274 330 388
#     4  11  25  41  64  95 134 179 221 267 336 395
#     4  10  20  37  64  92 125 170 221 265 319 396
#     4  10  20  37  64  96 128 167 219 268 325 397
#
# _framework density 20.985966999999999
#
# number of rings (size 3 to 8) (size 9 to 14) (size 15 to 20)
#    0.000    1.429    5.714    0.429    0.000    1.143 
#    0.000    1.429    0.000   15.429    0.000    0.000 
#    0.000    0.000    0.000    0.000    0.000    0.000 
#
# Total GULP energy -173476.606173 kJ/mol
# GULP energy per Si atom -12391.186155 kJ/mol
# Density = 2.093820 g / cm^3
# Si number density = 20.985967 Si / 1000 Ang^3
#
#
#
# Elastic Constant Matrix: (Units=GPa)
#
#
# Indices 1 2 3 4 5 6 
#
# 1 80.3743 36.2020 14.0592 0.0001 -1.1156 -0.0001
# 2 36.2020 163.8384 53.3531 0.0001 26.4084 0.0000
# 3 14.0592 53.3531 137.2083 0.0004 51.8340 -0.0002
# 4 0.0001 0.0001 0.0004 21.4058 -0.0001 3.2114
# 5 -1.1156 26.4084 51.8340 -0.0001 73.4632 0.0001
# 6 -0.0001 0.0000 -0.0002 3.2114 0.0001 27.1836
#
#
#
# Elastic Compliance Matrix: (Units=1/GPa)
#
#
# Indices 1 2 3 4 5 6 
#
# 1 0.014044 -0.003105 -0.001000 0.000000 0.002035 0.000000
# 2 -0.003105 0.007711 -0.002202 0.000000 -0.001265 0.000000
# 3 -0.001000 -0.002202 0.010844 0.000000 -0.006875 0.000000
# 4 0.000000 0.000000 0.000000 0.047559 0.000000 -0.005619
# 5 0.002035 -0.001265 -0.006875 0.000000 0.018949 0.000000
# 6 0.000000 0.000000 0.000000 -0.005619 0.000000 0.037451
#
#
# Mechanical properties :
#
#
# Convention : Reuss Voigt Hill
#
# Bulk Modulus (GPa) = 50.04314 65.40551 57.72432
# Shear Modulus (GPa) = 32.08530 42.93096 37.50813
#
# Velocity S-wave (km/s) = 3.91435 4.52785 4.23223
# Velocity P-wave (km/s) = 6.65787 7.65305 7.17274
#
# Compressibility (1/GPa) = 0.01998276
#
# Stress axis : x y z
#
# Youngs Moduli (GPa) = 71.20593 129.68800 92.21522
#
# Poissons Ratio (x) = 0.40274 0.09225
# Poissons Ratio (y) = 0.22113 0.20307
# Poissons Ratio (z) = 0.07124 0.28559
#
# Static dielectric constant tensor:
#      x y z
#    x 3.450660 0.000000 0.012690 
#    y 0.000000 4.649210 0.000000 
#    z 0.012690 0.000000 3.796220 
# 
# 
# High freq. dielectric constant tensor:
#      x y z
#    x 1.792780 0.000000 0.010750 
#    y 0.000000 1.828730 0.000000 
#    z 0.010750 0.000000 1.829600 
# 
# From -- ./inp_files/18827.got.cif
#   From: 2010.03.12/outbox.cif.g09.slc.cpg/sg8_10_cif.got.tgz:18827.got - 2010.03.31 10:45:26.
