data_PCOD8053395
_publ_section_title
;
Structure prediction by ZEFSAII (Michael W. Deem and Ramdas Pophale) SiO2 
 PCOD8053395
Probable space group: C M
;
_chemical_formula_sum "Si O2"
_cell_formula_units_Z 32
_cell_length_a 19.773671
_cell_length_b 8.608585
_cell_length_c 24.723462
_cell_angle_alpha 90.000000
_cell_angle_beta 156.471674
_cell_angle_gamma 90.000000
_cell_volume 1680.047273
_symmetry_space_group_name_H-M "C M"
_symmetry_group_IT_number 8
_symmetry_cell_setting 'monoclinic'
loop_
_space_group_symop_operation_xyz
x,y,z
x,-y,z
1/2+x,1/2+y,z
1/2+x,1/2-y,z
loop_
_atom_site_type_symbol
_atom_site_label
_atom_site_fract_x
_atom_site_fract_y
_atom_site_fract_z
Si Si1 0.907480 0.181436 0.907040
Si Si2 0.743589 0.677931 0.446433
Si Si3 0.553376 0.318830 0.617569
Si Si4 0.931200 0.822231 0.138805
Si Si5 0.015239 0.322457 0.363886
Si Si6 0.041569 0.681073 0.114793
Si Si7 0.908740 0.319950 0.403903
Si Si8 0.216928 0.318460 0.081192
O O1 0.714665 0.223412 0.755105
O O2 0.936004 0.000000 0.920586
O O3 0.957510 0.229617 0.003846
O O4 0.023265 0.269236 0.947637
O O5 0.802373 0.500000 0.491868
O O6 0.604307 0.705057 0.298257
O O7 0.665890 0.723439 0.447567
O O8 0.903446 0.784444 0.549897
O O9 0.595415 0.500000 0.649091
O O10 0.505668 0.267060 0.522468
O O11 0.774047 0.775821 0.062148
O O12 0.926585 0.711485 0.083385
O O13 0.916999 0.000000 0.109127
O O14 0.040869 0.500000 0.365480
O O15 0.022964 0.301700 0.434097
O O16 0.830529 0.269138 0.208675
O O17 0.047511 0.500000 0.105493
O O18 0.227777 0.743362 0.262522
O O19 0.881862 0.500000 0.399731
O O20 0.244004 0.500000 0.111263
#
# Coordination Sequence:
#
# PCOD8053395 Si02
#       8
#     4   4   4   4   4   4   4   4
#     4  12  25  42  62  85 121 162 198 244 303 363
#     4  10  20  36  59  86 121 158 196 243 298 354
#     4  12  25  41  62  88 120 158 202 248 297 359
#     4   9  19  35  58  87 121 155 193 244 298 348
#     4  10  20  34  58  89 121 155 197 246 294 348
#     4  12  23  36  60  91 121 154 201 251 292 346
#     4  11  22  38  60  89 123 157 198 245 297 351
#     4  10  20  36  59  87 120 155 197 245 297 353
#
# _framework density 19.047082
#
# number of rings (size 3 to 8) (size 9 to 14) (size 15 to 20)
#    0.000    1.250    2.500    5.625    0.000    4.000 
#    0.000    1.250    0.000    6.000    0.000    0.000 
#    0.000    0.000    0.000    0.000    0.000    0.000 
#
# Total GULP energy -198477.186625 kJ/mol
# GULP energy per Si atom -12404.824164 kJ/mol
# Density = 1.900373 g / cm^3
# Si number density = 19.047082 Si / 1000 Ang^3
#
#
#
# Elastic Constant Matrix: (Units=GPa)
#
#
# Indices 1 2 3 4 5 6 
#
# 1 112.9252 30.8720 41.9468 -0.0006 9.5609 0.0000
# 2 30.8720 71.1996 9.0203 0.0061 -3.2293 0.0003
# 3 41.9468 9.0203 80.9928 0.0087 0.0846 0.0005
# 4 -0.0006 0.0061 0.0087 31.2131 0.0014 3.2075
# 5 9.5609 -3.2293 0.0846 0.0014 26.2828 -0.0001
# 6 0.0000 0.0003 0.0005 3.2075 -0.0001 35.0248
#
#
#
# Elastic Compliance Matrix: (Units=1/GPa)
#
#
# Indices 1 2 3 4 5 6 
#
# 1 0.012984 -0.005092 -0.006152 0.000003 -0.005329 0.000000
# 2 -0.005092 0.016325 0.000815 -0.000004 0.003855 0.000000
# 3 -0.006152 0.000815 0.015440 -0.000005 0.002288 0.000000
# 4 0.000003 -0.000004 -0.000005 0.032342 -0.000003 -0.002962
# 5 -0.005329 0.003855 0.002288 -0.000003 0.040453 0.000000
# 6 0.000000 0.000000 0.000000 -0.002962 0.000000 0.028822
#
#
# Mechanical properties :
#
#
# Convention : Reuss Voigt Hill
#
# Bulk Modulus (GPa) = 41.85754 47.64398 44.75076
# Shear Modulus (GPa) = 28.54111 30.72273 29.63192
#
# Velocity S-wave (km/s) = 3.87518 4.02056 3.94854
# Velocity P-wave (km/s) = 6.48431 6.82798 6.65836
#
# Compressibility (1/GPa) = 0.02389056
#
# Stress axis : x y z
#
# Youngs Moduli (GPa) = 77.01921 61.25754 64.76841
#
# Poissons Ratio (x) = 0.31193 0.39844
# Poissons Ratio (y) = 0.39219 -0.05279
# Poissons Ratio (z) = 0.47380 -0.04993
#
# Static dielectric constant tensor:
#      x y z
#    x 3.785120 0.000000 0.079140 
#    y 0.000000 3.596530 0.000000 
#    z 0.079140 0.000000 3.223210 
# 
# 
# High freq. dielectric constant tensor:
#      x y z
#    x 1.756640 0.000000 0.012000 
#    y 0.000000 1.755230 0.000000 
#    z 0.012000 0.000000 1.711120 
# 
# From -- ./inp_files/31336.got.cif
#   From: 2010.03.12/outbox.cif.g09.slc.cpg/sg8_16_cif.got.tgz:31336.got - 2010.03.31 10:45:26.
