data_PCOD8053600
_publ_section_title
;
Structure prediction by ZEFSAII (Michael W. Deem and Ramdas Pophale) SiO2 
 PCOD8053600
Probable space group: C M
;
_chemical_formula_sum "Si O2"
_cell_formula_units_Z 32
_cell_length_a 27.851012
_cell_length_b 8.771037
_cell_length_c 11.801290
_cell_angle_alpha 90.000000
_cell_angle_beta 33.573189
_cell_angle_gamma 90.000000
_cell_volume 1594.218693
_symmetry_space_group_name_H-M "C M"
_symmetry_group_IT_number 8
_symmetry_cell_setting 'monoclinic'
loop_
_space_group_symop_operation_xyz
x,y,z
x,-y,z
1/2+x,1/2+y,z
1/2+x,1/2-y,z
loop_
_atom_site_type_symbol
_atom_site_label
_atom_site_fract_x
_atom_site_fract_y
_atom_site_fract_z
Si Si1 0.111880 0.820267 0.232580
Si Si2 0.450823 0.680905 0.406151
Si Si3 0.857226 0.675131 0.953658
Si Si4 0.557823 0.177340 0.566913
Si Si5 0.289410 0.321016 0.866125
Si Si6 0.964349 0.180672 0.121898
Si Si7 0.623118 0.179322 0.685215
Si Si8 0.303044 0.822714 0.311540
O O1 0.104858 0.772120 0.376973
O O2 0.032145 0.752185 0.316689
O O3 0.114156 0.000000 0.221250
O O4 0.199849 0.756438 0.005192
O O5 0.453272 0.500000 0.408172
O O6 0.363253 0.743065 0.636697
O O7 0.454574 0.737287 0.270129
O O8 0.848536 0.500000 0.931886
O O9 0.812955 0.782780 0.948945
O O10 0.957160 0.722058 0.771483
O O11 0.807978 0.703977 0.167699
O O12 0.601505 0.224304 0.598951
O O13 0.570879 0.000000 0.515081
O O14 0.278649 0.500000 0.875329
O O15 0.890714 0.261486 0.194022
O O16 0.954517 0.000000 0.130093
O O17 0.058765 0.231384 0.894503
O O18 0.720743 0.231453 0.522392
O O19 0.612576 0.000000 0.726941
O O20 0.293204 0.000000 0.360477
#
# Coordination Sequence:
#
# PCOD8053600 Si02
#       8
#     4   4   4   4   4   4   4   4
#     4  11  22  39  61  89 121 156 196 242 294 354
#     4   9  22  42  61  84 118 155 200 249 296 349
#     4  10  20  37  61  90 123 155 192 241 295 355
#     4  10  20  37  61  90 123 155 192 241 295 355
#     4  11  22  39  61  89 121 156 196 242 294 354
#     4  11  23  42  65  88 118 159 204 253 302 353
#     4  11  23  41  62  91 125 159 199 247 299 358
#     4  11  23  41  62  91 125 159 199 247 299 358
#
# _framework density 20.07253
#
# number of rings (size 3 to 8) (size 9 to 14) (size 15 to 20)
#    0.000    1.500    2.500    2.625    0.000    5.000 
#    0.000    7.500    0.000    0.000    0.000    0.000 
#    0.000    0.000    0.000    0.000    0.000    0.000 
#
# Total GULP energy -198489.509520 kJ/mol
# GULP energy per Si atom -12405.594345 kJ/mol
# Density = 2.002684 g / cm^3
# Si number density = 20.072530 Si / 1000 Ang^3
#
#
#
# Elastic Constant Matrix: (Units=GPa)
#
#
# Indices 1 2 3 4 5 6 
#
# 1 45.9871 26.3303 50.9882 0.0000 9.7901 0.0000
# 2 26.3303 57.8616 33.5139 0.0000 5.1481 0.0000
# 3 50.9882 33.5139 141.4616 0.0000 -9.8838 0.0000
# 4 0.0000 0.0000 0.0000 32.6462 0.0000 -9.1234
# 5 9.7901 5.1481 -9.8838 0.0000 36.2062 0.0000
# 6 0.0000 0.0000 0.0000 -9.1234 0.0000 15.9331
#
#
#
# Elastic Compliance Matrix: (Units=1/GPa)
#
#
# Indices 1 2 3 4 5 6 
#
# 1 0.050291 -0.011896 -0.016454 0.000000 -0.016399 0.000000
# 2 -0.011896 0.023500 -0.001313 0.000000 -0.000483 0.000000
# 3 -0.016454 -0.001313 0.013900 0.000000 0.008431 0.000000
# 4 0.000000 0.000000 0.000000 0.036467 0.000000 0.020881
# 5 -0.016399 -0.000483 0.008431 0.000000 0.034424 0.000000
# 6 0.000000 0.000000 0.000000 0.020881 0.000000 0.074719
#
#
# Mechanical properties :
#
#
# Convention : Reuss Voigt Hill
#
# Bulk Modulus (GPa) = 35.25631 51.88613 43.57122
# Shear Modulus (GPa) = 16.55175 25.92229 21.23702
#
# Velocity S-wave (km/s) = 2.87470 3.59755 3.25624
# Velocity P-wave (km/s) = 5.34987 6.56977 5.99095
#
# Compressibility (1/GPa) = 0.02836371
#
# Stress axis : x y z
#
# Youngs Moduli (GPa) = 19.88418 42.55395 71.94205
#
# Poissons Ratio (x) = 0.50621 1.18377
# Poissons Ratio (y) = 0.23654 0.09449
# Poissons Ratio (z) = 0.32718 0.05589
#
# Static dielectric constant tensor:
#      x y z
#    x 3.675130 0.000000 -0.082120 
#    y 0.000000 3.497400 0.000000 
#    z -0.082120 0.000000 3.848970 
# 
# 
# High freq. dielectric constant tensor:
#      x y z
#    x 1.782150 0.000000 -0.009990 
#    y 0.000000 1.775810 0.000000 
#    z -0.009990 0.000000 1.798490 
# 
# From -- ./inp_files/21545.got.cif
#   From: 2010.03.12/outbox.cif.g09.slc.cpg/sg8_11_cif.got.tgz:21545.got - 2010.03.31 10:45:26.
