data_PCOD8053640
_publ_section_title
;
Structure prediction by ZEFSAII (Michael W. Deem and Ramdas Pophale) SiO2 
 PCOD8053640
Probable space group: C M
;
_chemical_formula_sum "Si O2"
_cell_formula_units_Z 28
_cell_length_a 10.009802
_cell_length_b 20.155852
_cell_length_c 6.804514
_cell_angle_alpha 90.000000
_cell_angle_beta 92.123774
_cell_angle_gamma 90.000000
_cell_volume 1371.909115
_symmetry_space_group_name_H-M "C M"
_symmetry_group_IT_number 8
_symmetry_cell_setting 'monoclinic'
loop_
_space_group_symop_operation_xyz
x,y,z
x,-y,z
1/2+x,1/2+y,z
1/2+x,1/2-y,z
loop_
_atom_site_type_symbol
_atom_site_label
_atom_site_fract_x
_atom_site_fract_y
_atom_site_fract_z
Si Si1 0.294530 0.339790 0.717840
Si Si2 0.227149 0.860843 0.399151
Si Si3 0.736147 0.924600 0.092779
Si Si4 0.598607 0.223191 0.441933
Si Si5 0.888013 0.300777 0.737063
Si Si6 0.448371 0.422910 0.438446
Si Si7 0.465328 0.863857 0.139858
O O1 0.192676 0.336285 0.527203
O O2 0.305086 0.263901 0.800119
O O3 0.421483 0.378201 0.631073
O O4 0.241767 0.380487 0.898800
O O5 0.178026 0.785818 0.362064
O O6 0.306306 0.856450 0.609949
O O7 0.326070 0.887337 0.232184
O O8 0.103047 0.911221 0.391095
O O9 0.850262 0.902108 0.253669
O O10 0.584517 0.917720 0.168295
O O11 0.761313 0.000000 0.033546
O O12 0.499935 0.238108 0.616943
O O13 0.510720 0.202075 0.253185
O O14 0.945738 0.344099 0.914542
O O15 0.426265 0.500000 0.489379
#
# Coordination Sequence:
#
# PCOD8053640 Si02
#       7
#     4   4   4   4   4   4   4
#     4  11  21  38  64  92 122 158 206 254 302 368
#     4  10  24  39  60  96 126 159 205 250 310 373
#     4  11  25  41  63  92 122 166 215 251 298 367
#     4  10  20  38  61  93 125 156 198 251 311 370
#     4  10  22  37  63  97 125 154 200 255 319 362
#     4  11  24  44  64  86 125 171 208 252 302 364
#     4  11  23  39  65  94 124 162 200 255 316 360
#
# _framework density 20.409516
#
# number of rings (size 3 to 8) (size 9 to 14) (size 15 to 20)
#    0.000    1.429    4.286    0.429    4.000    1.714 
#    0.000    0.714    0.000    0.000    0.000    0.000 
#    0.000    0.000    0.000    0.000    0.000    0.000 
#
# Total GULP energy -173482.781712 kJ/mol
# GULP energy per Si atom -12391.627265 kJ/mol
# Density = 2.036306 g / cm^3
# Si number density = 20.409516 Si / 1000 Ang^3
#
#
#
# Elastic Constant Matrix: (Units=GPa)
#
#
# Indices 1 2 3 4 5 6 
#
# 1 121.7241 17.8772 30.1280 0.0000 5.1006 0.0000
# 2 17.8772 61.3602 28.6769 0.0000 3.6254 0.0000
# 3 30.1280 28.6769 69.6347 0.0000 8.6252 0.0000
# 4 0.0000 0.0000 0.0000 22.4261 0.0000 2.5460
# 5 5.1006 3.6254 8.6252 0.0000 25.5399 0.0000
# 6 0.0000 0.0000 0.0000 2.5460 0.0000 28.9726
#
#
#
# Elastic Compliance Matrix: (Units=1/GPa)
#
#
# Indices 1 2 3 4 5 6 
#
# 1 0.009258 -0.001021 -0.003521 0.000000 -0.000515 0.000000
# 2 -0.001021 0.020294 -0.007915 0.000000 -0.000004 0.000000
# 3 -0.003521 -0.007915 0.019743 0.000000 -0.004841 0.000000
# 4 0.000000 0.000000 0.000000 0.045040 0.000000 -0.003958
# 5 -0.000515 -0.000004 -0.004841 0.000000 0.040893 0.000000
# 6 0.000000 0.000000 0.000000 -0.003958 0.000000 0.034863
#
#
# Mechanical properties :
#
#
# Convention : Reuss Voigt Hill
#
# Bulk Modulus (GPa) = 41.01670 45.12035 43.06852
# Shear Modulus (GPa) = 24.61422 27.12350 25.86886
#
# Velocity S-wave (km/s) = 3.47654 3.64945 3.56405
# Velocity P-wave (km/s) = 6.02126 6.31771 6.17127
#
# Compressibility (1/GPa) = 0.02438031
#
# Stress axis : x y z
#
# Youngs Moduli (GPa) = 108.00942 49.27524 50.64968
#
# Poissons Ratio (x) = 0.05032 0.17836
# Poissons Ratio (y) = 0.11031 0.40090
# Poissons Ratio (z) = 0.38034 0.39002
#
# Static dielectric constant tensor:
#      x y z
#    x 4.006150 0.000000 0.091480 
#    y 0.000000 3.391780 0.000000 
#    z 0.091480 0.000000 3.597830 
# 
# 
# High freq. dielectric constant tensor:
#      x y z
#    x 1.812310 0.000000 0.004190 
#    y 0.000000 1.774230 0.000000 
#    z 0.004190 0.000000 1.793810 
# 
# From -- ./inp_files/2961.got.cif
#   From: 2010.03.12/outbox.cif.g09.slc.cpg/sg8_2_cif.got.tgz:2961.got - 2010.03.31 10:45:26.
