data_PCOD8053207
_publ_section_title
;
Structure prediction by ZEFSAII (Michael W. Deem and Ramdas Pophale) SiO2 
 PCOD8053207
Probable space group: C M
;
_chemical_formula_sum "Si O2"
_cell_formula_units_Z 32
_cell_length_a 19.456625
_cell_length_b 8.683491
_cell_length_c 12.104908
_cell_angle_alpha 90.000000
_cell_angle_beta 52.464990
_cell_angle_gamma 90.000000
_cell_volume 1621.758786
_symmetry_space_group_name_H-M "C M"
_symmetry_group_IT_number 8
_symmetry_cell_setting 'monoclinic'
loop_
_space_group_symop_operation_xyz
x,y,z
x,-y,z
1/2+x,1/2+y,z
1/2+x,1/2-y,z
loop_
_atom_site_type_symbol
_atom_site_label
_atom_site_fract_x
_atom_site_fract_y
_atom_site_fract_z
Si Si1 0.873110 0.183957 0.736180
Si Si2 0.859063 0.183394 0.208012
Si Si3 0.216821 0.817293 0.500520
Si Si4 0.054731 0.175245 0.034689
Si Si5 0.561825 0.317886 0.496567
Si Si6 0.211221 0.681893 0.749378
Si Si7 0.126425 0.174403 0.197870
Si Si8 0.801321 0.821173 0.030929
O O1 0.796981 0.244089 0.729244
O O2 0.966772 0.252125 0.612726
O O3 0.871043 0.000000 0.735266
O O4 0.858780 0.246279 0.874857
O O5 0.806555 0.256462 0.360913
O O6 0.821017 0.252421 0.130862
O O7 0.958552 0.237572 0.106700
O O8 0.851643 0.000000 0.226399
O O9 0.135040 0.753827 0.508793
O O10 0.206796 0.759949 0.634630
O O11 0.218425 0.000000 0.497718
O O12 0.060601 0.183797 0.161288
O O13 0.066331 0.000000 0.981306
O O14 0.125427 0.277649 0.902931
O O15 0.557334 0.500000 0.512699
O O16 0.581703 0.265771 0.352818
O O17 0.215408 0.500000 0.729322
O O18 0.203288 0.289275 0.093282
O O19 0.161307 0.000000 0.180089
O O20 0.819907 0.000000 0.022756
#
# Coordination Sequence:
#
# PCOD8053207 Si02
#       8
#     4   4   4   4   4   4   4   4
#     4   9  19  35  58  84 110 147 191 232 278 335
#     4  10  22  38  60  87 116 152 194 237 283 338
#     4  11  23  39  60  84 117 153 191 237 288 343
#     4  10  22  38  60  87 116 152 194 237 283 338
#     4   9  19  35  58  84 110 147 191 232 278 335
#     4  11  23  39  60  84 117 153 191 237 288 343
#     4  10  19  35  59  84 112 145 187 236 283 334
#     4  10  19  35  59  84 112 145 187 236 283 334
#
# _framework density 19.731666000000001
#
# number of rings (size 3 to 8) (size 9 to 14) (size 15 to 20)
#    0.000    2.000    2.500    0.750    3.500    0.500 
#    0.000    0.000    0.000    3.750    0.000    0.000 
#    0.000    0.000    0.000    0.000    0.000    0.000 
#
# Total GULP energy -198364.292030 kJ/mol
# GULP energy per Si atom -12397.768252 kJ/mol
# Density = 1.968676 g / cm^3
# Si number density = 19.731666 Si / 1000 Ang^3
#
#
#
# Elastic Constant Matrix: (Units=GPa)
#
#
# Indices 1 2 3 4 5 6 
#
# 1 107.5172 25.1649 56.1934 0.0000 -6.5979 0.0000
# 2 25.1649 30.8005 26.3711 0.0000 0.7279 0.0000
# 3 56.1934 26.3711 154.7053 0.0000 -1.1197 0.0000
# 4 0.0000 0.0000 0.0000 29.8499 0.0000 -0.2734
# 5 -6.5979 0.7279 -1.1197 0.0000 43.5424 0.0000
# 6 0.0000 0.0000 0.0000 -0.2734 0.0000 23.3796
#
#
#
# Elastic Compliance Matrix: (Units=1/GPa)
#
#
# Indices 1 2 3 4 5 6 
#
# 1 0.013016 -0.007783 -0.003387 0.000000 0.002015 0.000000
# 2 -0.007783 0.042696 -0.004466 0.000000 -0.002008 0.000000
# 3 -0.003387 -0.004466 0.008454 0.000000 -0.000221 0.000000
# 4 0.000000 0.000000 0.000000 0.033505 0.000000 0.000392
# 5 0.002015 -0.002008 -0.000221 0.000000 0.023299 0.000000
# 6 0.000000 0.000000 0.000000 0.000392 0.000000 0.042777
#
#
# Mechanical properties :
#
#
# Convention : Reuss Voigt Hill
#
# Bulk Modulus (GPa) = 30.39844 56.49797 43.44821
# Shear Modulus (GPa) = 24.27394 31.70729 27.99062
#
# Velocity S-wave (km/s) = 3.51123 4.01299 3.77047
# Velocity P-wave (km/s) = 5.64603 7.08290 6.40489
#
# Compressibility (1/GPa) = 0.03289643
#
# Stress axis : x y z
#
# Youngs Moduli (GPa) = 76.82833 23.42113 118.29219
#
# Poissons Ratio (x) = 0.18228 0.40061
# Poissons Ratio (y) = 0.59792 0.52826
# Poissons Ratio (z) = 0.26019 0.10459
#
# Static dielectric constant tensor:
#      x y z
#    x 3.807090 0.000000 0.032950 
#    y 0.000000 3.247400 0.000000 
#    z 0.032950 0.000000 3.840670 
# 
# 
# High freq. dielectric constant tensor:
#      x y z
#    x 1.779140 0.000000 0.005460 
#    y 0.000000 1.733200 0.000000 
#    z 0.005460 0.000000 1.784460 
# 
# From -- ./inp_files/23849.got.cif
#   From: 2010.03.12/outbox.cif.g09.slc.cpg/sg8_12_cif.got.tgz:23849.got - 2010.03.31 10:45:26.
