data_PCOD8053592
_publ_section_title
;
Structure prediction by ZEFSAII (Michael W. Deem and Ramdas Pophale) SiO2 
 PCOD8053592
Probable space group: C M
;
_chemical_formula_sum "Si O2"
_cell_formula_units_Z 32
_cell_length_a 20.311355
_cell_length_b 8.528718
_cell_length_c 8.988466
_cell_angle_alpha 90.000000
_cell_angle_beta 96.420516
_cell_angle_gamma 90.000000
_cell_volume 1547.304302
_symmetry_space_group_name_H-M "C M"
_symmetry_group_IT_number 8
_symmetry_cell_setting 'monoclinic'
loop_
_space_group_symop_operation_xyz
x,y,z
x,-y,z
1/2+x,1/2+y,z
1/2+x,1/2-y,z
loop_
_atom_site_type_symbol
_atom_site_label
_atom_site_fract_x
_atom_site_fract_y
_atom_site_fract_z
Si Si1 0.948380 0.816182 0.092300
Si Si2 0.062832 0.680830 0.941345
Si Si3 0.305270 0.326634 0.121161
Si Si4 0.848603 0.172318 0.471384
Si Si5 0.475684 0.180236 0.414322
Si Si6 0.091368 0.182722 0.635859
Si Si7 0.706549 0.186047 0.491246
Si Si8 0.174873 0.818585 0.163581
O O1 0.871085 0.765554 0.052294
O O2 0.973523 0.783673 0.265598
O O3 0.957323 0.000000 0.064714
O O4 0.989552 0.718297 0.982929
O O5 0.066395 0.500000 0.894791
O O6 0.077880 0.789814 0.805106
O O7 0.115386 0.716294 0.083431
O O8 0.285334 0.500000 0.058144
O O9 0.323890 0.338153 0.297304
O O10 0.242403 0.212534 0.086469
O O11 0.910836 0.288920 0.501480
O O12 0.783706 0.228163 0.547249
O O13 0.872096 0.000000 0.531442
O O14 0.540336 0.221320 0.522890
O O15 0.477520 0.000000 0.367462
O O16 0.164489 0.247623 0.617901
O O17 0.085684 0.000000 0.597931
O O18 0.682043 0.271296 0.336231
O O19 0.698017 0.000000 0.469318
O O20 0.156283 0.000000 0.145938
#
# Coordination Sequence:
#
# PCOD8053592 Si02
#       8
#     4   4   4   4   4   4   4   4
#     4  10  20  37  60  86 115 147 185 228 277 329
#     4  12  25  41  58  79 111 148 188 232 280 332
#     4   8  16  32  55  83 114 145 179 225 278 327
#     4   8  16  32  55  83 114 145 179 225 278 327
#     4  11  21  35  58  87 116 147 186 229 274 326
#     4  12  25  41  58  79 111 148 188 232 280 332
#     4  10  20  37  60  86 115 147 185 228 277 329
#     4  11  21  35  58  87 116 147 186 229 274 326
#
# _framework density 20.681128999999999
#
# number of rings (size 3 to 8) (size 9 to 14) (size 15 to 20)
#    0.000    1.750    0.000    7.500    0.000    5.500 
#    0.000    1.250    0.000    7.500    0.000    0.000 
#    0.000    0.000    0.000    0.000    0.000    0.000 
#
# Total GULP energy -198400.652625 kJ/mol
# GULP energy per Si atom -12400.040789 kJ/mol
# Density = 2.063406 g / cm^3
# Si number density = 20.681129 Si / 1000 Ang^3
#
#
#
# Elastic Constant Matrix: (Units=GPa)
#
#
# Indices 1 2 3 4 5 6 
#
# 1 112.0654 30.9538 21.7346 0.0000 -38.5042 0.0000
# 2 30.9538 89.9369 4.5149 0.0000 -5.9208 0.0000
# 3 21.7346 4.5149 43.6210 0.0000 -21.1652 0.0000
# 4 0.0000 0.0000 0.0000 27.2205 0.0000 -3.5254
# 5 -38.5042 -5.9208 -21.1652 0.0000 24.3993 0.0000
# 6 0.0000 0.0000 0.0000 -3.5254 0.0000 36.4809
#
#
#
# Elastic Compliance Matrix: (Units=1/GPa)
#
#
# Indices 1 2 3 4 5 6 
#
# 1 0.024524 -0.005910 0.011180 0.000000 0.046965 0.000000
# 2 -0.005910 0.012726 -0.002416 0.000000 -0.008334 0.000000
# 3 0.011180 -0.002416 0.044690 0.000000 0.055824 0.000000
# 4 0.000000 0.000000 0.000000 0.037203 0.000000 0.003595
# 5 0.046965 -0.008334 0.055824 0.000000 0.161503 0.000000
# 6 0.000000 0.000000 0.000000 0.003595 0.000000 0.027759
#
#
# Mechanical properties :
#
#
# Convention : Reuss Voigt Hill
#
# Bulk Modulus (GPa) = 11.40929 40.00332 25.70630
# Shear Modulus (GPa) = 15.06422 30.18145 22.62284
#
# Velocity S-wave (km/s) = 2.70182 3.82432 3.31099
# Velocity P-wave (km/s) = 3.90665 6.23582 5.20324
#
# Compressibility (1/GPa) = 0.08764788
#
# Stress axis : x y z
#
# Youngs Moduli (GPa) = 40.77628 78.58201 22.37620
#
# Poissons Ratio (x) = 0.46441 -0.25017
# Poissons Ratio (y) = 0.24098 0.05407
# Poissons Ratio (z) = -0.45589 0.18989
#
# Static dielectric constant tensor:
#      x y z
#    x 4.359960 0.000000 -0.329610 
#    y 0.000000 3.688620 0.000000 
#    z -0.329610 0.000000 3.329760 
# 
# 
# High freq. dielectric constant tensor:
#      x y z
#    x 1.830030 0.000000 -0.017560 
#    y 0.000000 1.810790 0.000000 
#    z -0.017560 0.000000 1.766150 
# 
# From -- ./inp_files/16796.got.cif
#   From: 2010.03.12/outbox.cif.g09.slc.cpg/sg8_9_cif.got.tgz:16796.got - 2010.03.31 10:45:26.
