data_PCOD8053774
_publ_section_title
;
Structure prediction by ZEFSAII (Michael W. Deem and Ramdas Pophale) SiO2 
 PCOD8053774
Probable space group: C M
;
_chemical_formula_sum "Si O2"
_cell_formula_units_Z 32
_cell_length_a 24.030764
_cell_length_b 8.699905
_cell_length_c 14.340761
_cell_angle_alpha 90.000000
_cell_angle_beta 147.460679
_cell_angle_gamma 90.000000
_cell_volume 1612.643232
_symmetry_space_group_name_H-M "C M"
_symmetry_group_IT_number 8
_symmetry_cell_setting 'monoclinic'
loop_
_space_group_symop_operation_xyz
x,y,z
x,-y,z
1/2+x,1/2+y,z
1/2+x,1/2-y,z
loop_
_atom_site_type_symbol
_atom_site_label
_atom_site_fract_x
_atom_site_fract_y
_atom_site_fract_z
Si Si1 0.329850 0.324379 0.918270
Si Si2 0.064773 0.317885 0.922886
Si Si3 0.527664 0.677500 0.305297
Si Si4 0.701104 0.819769 0.440136
Si Si5 0.755069 0.181936 0.310395
Si Si6 0.885851 0.680301 0.810265
Si Si7 0.108334 0.181219 0.616861
Si Si8 0.486974 0.682883 0.623694
O O1 0.296684 0.500000 0.856206
O O2 0.394273 0.267462 0.919963
O O3 0.227541 0.227061 0.791021
O O4 0.404942 0.305737 0.113773
O O5 0.060248 0.500000 0.903385
O O6 0.977521 0.262897 0.872482
O O7 0.047351 0.238551 0.799805
O O8 0.176099 0.261348 0.118865
O O9 0.562207 0.500000 0.343252
O O10 0.585997 0.781878 0.311627
O O11 0.554362 0.741190 0.445988
O O12 0.712926 0.763192 0.350833
O O13 0.776601 0.720495 0.610668
O O14 0.725653 0.000000 0.485229
O O15 0.869867 0.249428 0.455899
O O16 0.758943 0.000000 0.314071
O O17 0.893508 0.500000 0.840381
O O18 0.046214 0.249845 0.617217
O O19 0.101297 0.000000 0.610483
O O20 0.485001 0.500000 0.621727
#
# Coordination Sequence:
#
# PCOD8053774 Si02
#       8
#     4   4   4   4   4   4   4   4
#     4  11  23  38  60  89 116 150 195 240 286 343
#     4  10  21  37  59  86 116 152 189 231 287 343
#     4  10  22  39  58  85 118 152 189 233 291 350
#     4  11  20  34  60  89 116 150 191 234 285 348
#     4   9  19  36  58  84 115 150 188 228 282 348
#     4  11  21  35  57  86 122 156 186 232 294 346
#     4  10  22  40  60  81 113 156 193 238 297 344
#     4  10  21  39  60  82 112 152 197 240 286 336
#
# _framework density 19.843198999999998
#
# number of rings (size 3 to 8) (size 9 to 14) (size 15 to 20)
#    0.000    1.750    2.500    1.875    0.000    4.000 
#    0.000    4.375    0.000    0.000    0.000    0.000 
#    0.000    0.000    0.000    0.000    0.000    0.000 
#
# Total GULP energy -198434.182571 kJ/mol
# GULP energy per Si atom -12402.136411 kJ/mol
# Density = 1.979803 g / cm^3
# Si number density = 19.843199 Si / 1000 Ang^3
#
#
#
# Elastic Constant Matrix: (Units=GPa)
#
#
# Indices 1 2 3 4 5 6 
#
# 1 154.9862 14.9622 63.3886 0.0000 -3.6914 0.0000
# 2 14.9622 11.3991 9.2616 0.0000 -2.6711 0.0000
# 3 63.3886 9.2616 140.8371 0.0000 -10.1420 0.0000
# 4 0.0000 0.0000 0.0000 25.8701 0.0000 -3.2622
# 5 -3.6914 -2.6711 -10.1420 0.0000 16.2369 0.0000
# 6 0.0000 0.0000 0.0000 -3.2622 0.0000 24.4485
#
#
#
# Elastic Compliance Matrix: (Units=1/GPa)
#
#
# Indices 1 2 3 4 5 6 
#
# 1 0.008687 -0.008997 -0.003437 0.000000 -0.001652 0.000000
# 2 -0.008997 0.104275 -0.001801 0.000000 0.013984 0.000000
# 3 -0.003437 -0.001801 0.009098 0.000000 0.004605 0.000000
# 4 0.000000 0.000000 0.000000 0.039316 0.000000 0.005246
# 5 -0.001652 0.013984 0.004605 0.000000 0.066389 0.000000
# 6 0.000000 0.000000 0.000000 0.005246 0.000000 0.041602
#
#
# Mechanical properties :
#
#
# Convention : Reuss Voigt Hill
#
# Bulk Modulus (GPa) = 10.68496 53.60525 32.14511
# Shear Modulus (GPa) = 15.19599 27.95178 21.57388
#
# Velocity S-wave (km/s) = 2.77032 3.75725 3.30088
# Velocity P-wave (km/s) = 3.95339 6.77463 5.54639
#
# Compressibility (1/GPa) = 0.09358949
#
# Stress axis : x y z
#
# Youngs Moduli (GPa) = 115.11137 9.59002 109.92018
#
# Poissons Ratio (x) = 0.08628 0.37783
# Poissons Ratio (y) = 1.03565 0.19795
# Poissons Ratio (z) = 0.39567 0.01727
#
# Static dielectric constant tensor:
#      x y z
#    x 3.814490 0.000000 -0.008650 
#    y 0.000000 3.362850 0.000000 
#    z -0.008650 0.000000 3.769230 
# 
# 
# High freq. dielectric constant tensor:
#      x y z
#    x 1.772700 0.000000 -0.002820 
#    y 0.000000 1.752840 0.000000 
#    z -0.002820 0.000000 1.787610 
# 
# From -- ./inp_files/26521.got.cif
#   From: 2010.03.12/outbox.cif.g09.slc.cpg/sg8_14_cif.got.tgz:26521.got - 2010.03.31 10:45:26.
