data_PCOD8053421
_publ_section_title
;
Structure prediction by ZEFSAII (Michael W. Deem and Ramdas Pophale) SiO2 
 PCOD8053421
Probable space group: C M
;
_chemical_formula_sum "Si O2"
_cell_formula_units_Z 32
_cell_length_a 16.104941
_cell_length_b 13.956423
_cell_length_c 21.653272
_cell_angle_alpha 90.000000
_cell_angle_beta 160.281188
_cell_angle_gamma 90.000000
_cell_volume 1642.129778
_symmetry_space_group_name_H-M "C M"
_symmetry_group_IT_number 8
_symmetry_cell_setting 'monoclinic'
loop_
_space_group_symop_operation_xyz
x,y,z
x,-y,z
1/2+x,1/2+y,z
1/2+x,1/2-y,z
loop_
_atom_site_type_symbol
_atom_site_label
_atom_site_fract_x
_atom_site_fract_y
_atom_site_fract_z
Si Si1 0.802150 0.279804 0.792620
Si Si2 0.053655 0.892329 0.162841
Si Si3 0.819548 0.889011 0.491032
Si Si4 0.081951 0.609154 0.573081
Si Si5 0.154346 0.719908 0.151635
Si Si6 0.181826 0.716918 0.517066
Si Si7 0.444663 0.889209 0.118569
Si Si8 0.095631 0.282730 0.879863
O O1 0.587424 0.348493 0.664756
O O2 0.700671 0.171751 0.711302
O O3 0.911016 0.315668 0.804085
O O4 0.025637 0.289343 0.996134
O O5 0.285507 0.881396 0.371370
O O6 0.087980 0.826253 0.127547
O O7 0.030901 0.000000 0.122372
O O8 0.806752 0.862240 0.025299
O O9 0.694988 0.840533 0.462840
O O10 0.651687 0.870179 0.314282
O O11 0.847589 0.000000 0.525814
O O12 0.169010 0.500000 0.642794
O O13 0.162233 0.644802 0.561436
O O14 0.448929 0.711153 0.350763
O O15 0.056591 0.640075 0.130689
O O16 0.432889 0.778430 0.702798
O O17 0.360973 0.000000 0.058048
O O18 0.210485 0.823485 0.971456
#
# Coordination Sequence:
#
# PCOD8053421 Si02
#       8
#     4   4   4   4   4   4   4   4
#     4  11  22  35  55  80 111 146 182 224 269 323
#     4   9  18  35  57  78 105 140 177 220 270 322
#     4  11  22  36  57  83 110 144 186 229 273 324
#     4   9  19  36  58  82 108 139 177 225 276 324
#     4  10  21  37  56  80 111 144 180 225 273 321
#     4  10  20  36  56  80 112 145 180 225 272 322
#     4  10  21  38  59  83 111 142 181 229 277 326
#     4  10  20  35  55  80 110 144 180 221 271 324
#
# _framework density 19.486888
#
# number of rings (size 3 to 8) (size 9 to 14) (size 15 to 20)
#    0.000    2.000    0.000    5.625    0.000    5.500 
#    0.000    0.625    0.000    0.750    0.000    0.000 
#    0.000    0.000    0.000    0.000    0.000    0.000 
#
# Total GULP energy -198369.065040 kJ/mol
# GULP energy per Si atom -12398.066565 kJ/mol
# Density = 1.944254 g / cm^3
# Si number density = 19.486888 Si / 1000 Ang^3
#
#
#
# Elastic Constant Matrix: (Units=GPa)
#
#
# Indices 1 2 3 4 5 6 
#
# 1 67.6878 14.8829 21.9703 0.0901 -3.6926 0.0710
# 2 14.8829 43.0121 13.8340 0.2689 -2.1830 0.0839
# 3 21.9703 13.8340 102.2817 0.2620 -0.9464 -0.0237
# 4 0.0901 0.2689 0.2620 23.3827 -0.1012 -3.1159
# 5 -3.6926 -2.1830 -0.9464 -0.1012 40.3803 0.1035
# 6 0.0710 0.0839 -0.0237 -3.1159 0.1035 21.5017
#
#
#
# Elastic Compliance Matrix: (Units=1/GPa)
#
#
# Indices 1 2 3 4 5 6 
#
# 1 0.016860 -0.004821 -0.002958 0.000023 0.001212 -0.000043
# 2 -0.004821 0.025749 -0.002438 -0.000264 0.000894 -0.000130
# 3 -0.002958 -0.002438 0.010741 -0.000079 -0.000151 0.000020
# 4 0.000023 -0.000264 -0.000079 0.043613 0.000079 0.006321
# 5 0.001212 0.000894 -0.000151 0.000079 0.024921 -0.000116
# 6 -0.000043 -0.000130 0.000020 0.006321 -0.000116 0.047425
#
#
# Mechanical properties :
#
#
# Convention : Reuss Voigt Hill
#
# Bulk Modulus (GPa) = 30.38133 34.92844 32.65489
# Shear Modulus (GPa) = 24.91090 27.87256 26.39173
#
# Velocity S-wave (km/s) = 3.57927 3.78607 3.68412
# Velocity P-wave (km/s) = 5.71892 6.08895 5.90684
#
# Compressibility (1/GPa) = 0.03291495
#
# Stress axis : x y z
#
# Youngs Moduli (GPa) = 59.31164 38.83667 93.10150
#
# Poissons Ratio (x) = 0.18723 0.27543
# Poissons Ratio (y) = 0.28594 0.22700
# Poissons Ratio (z) = 0.17547 0.09469
#
# Static dielectric constant tensor:
#      x y z
#    x 3.397960 0.000140 0.058250 
#    y 0.000140 3.495300 -0.001160 
#    z 0.058250 -0.001160 3.902220 
# 
# 
# High freq. dielectric constant tensor:
#      x y z
#    x 1.748570 0.000010 0.004800 
#    y 0.000010 1.742150 -0.000060 
#    z 0.004800 -0.000060 1.781180 
# 
# From -- ./inp_files/13255.got.cif
#   From: 2010.03.12/outbox.cif.g09.slc.cpg/sg8_7_cif.got.tgz:13255.got - 2010.03.31 10:45:26.
