data_PCOD8053129
_publ_section_title
;
Structure prediction by ZEFSAII (Michael W. Deem and Ramdas Pophale) SiO2 
 PCOD8053129
Probable space group: C M
;
_chemical_formula_sum "Si O2"
_cell_formula_units_Z 32
_cell_length_a 19.886117
_cell_length_b 8.913088
_cell_length_c 24.800281
_cell_angle_alpha 90.000000
_cell_angle_beta 23.570168
_cell_angle_gamma 90.000000
_cell_volume 1757.744015
_symmetry_space_group_name_H-M "C M"
_symmetry_group_IT_number 8
_symmetry_cell_setting 'monoclinic'
loop_
_space_group_symop_operation_xyz
x,y,z
x,-y,z
1/2+x,1/2+y,z
1/2+x,1/2-y,z
loop_
_atom_site_type_symbol
_atom_site_label
_atom_site_fract_x
_atom_site_fract_y
_atom_site_fract_z
Si Si1 0.410560 0.326374 0.606680
Si Si2 0.062574 0.173964 0.883695
Si Si3 0.946520 0.173153 0.853119
Si Si4 0.764272 0.672848 0.551255
Si Si5 0.236303 0.823250 0.921286
Si Si6 0.011207 0.171398 0.649079
Si Si7 0.938608 0.322030 0.082365
Si Si8 0.066752 0.176511 0.380412
O O1 0.354971 0.500000 0.641585
O O2 0.248995 0.222797 0.731034
O O3 0.529114 0.304130 0.571986
O O4 0.515625 0.270448 0.477968
O O5 0.943094 0.199866 0.919639
O O6 0.065225 0.000000 0.898945
O O7 0.992144 0.273686 0.983395
O O8 0.799058 0.268932 0.933818
O O9 0.126829 0.224183 0.696626
O O10 0.916831 0.000000 0.859947
O O11 0.810735 0.500000 0.524490
O O12 0.689239 0.707359 0.546839
O O13 0.934789 0.764767 0.433292
O O14 0.365075 0.776748 0.779548
O O15 0.216773 0.000000 0.935990
O O16 0.056454 0.750177 0.041214
O O17 0.958806 0.000000 0.701135
O O18 0.951538 0.500000 0.077238
O O19 0.751124 0.261052 0.231263
O O20 0.067900 0.000000 0.375552
#
# Coordination Sequence:
#
# PCOD8053129 Si02
#       8
#     4   4   4   4   4   4   4   4
#     4  10  19  34  57  82 109 144 184 227 274 325
#     4  11  21  35  57  86 111 139 188 235 275 327
#     4   9  19  35  55  81 113 143 175 226 285 332
#     4   9  17  32  53  78 109 143 177 222 278 326
#     4  11  21  33  54  83 111 142 187 231 272 329
#     4   9  18  33  54  80 110 144 179 222 279 328
#     4  11  23  39  55  76 115 157 187 226 277 330
#     4  10  22  37  55  80 110 148 189 223 272 335
#
# _framework density 18.205154
#
# number of rings (size 3 to 8) (size 9 to 14) (size 15 to 20)
#    0.000    2.000    2.500    2.625    0.000    4.000 
#    0.000    1.250    0.000    3.000    0.000    0.000 
#    0.000    0.000    0.000    0.000    0.000    0.000 
#
# Total GULP energy -198418.156200 kJ/mol
# GULP energy per Si atom -12401.134762 kJ/mol
# Density = 1.816372 g / cm^3
# Si number density = 18.205154 Si / 1000 Ang^3
#
#
#
# Elastic Constant Matrix: (Units=GPa)
#
#
# Indices 1 2 3 4 5 6 
#
# 1 114.6062 37.9670 51.0572 0.0110 -18.4180 0.0000
# 2 37.9670 71.3727 40.3121 -0.0047 -10.6524 -0.0022
# 3 51.0572 40.3121 109.7656 0.0025 -19.9513 -0.0027
# 4 0.0110 -0.0047 0.0025 19.3591 -0.0045 -8.7107
# 5 -18.4180 -10.6524 -19.9513 -0.0045 26.3948 -0.0008
# 6 0.0000 -0.0022 -0.0027 -8.7107 -0.0008 28.2180
#
#
#
# Elastic Compliance Matrix: (Units=1/GPa)
#
#
# Indices 1 2 3 4 5 6 
#
# 1 0.012272 -0.003913 -0.003480 -0.000008 0.004354 -0.000003
# 2 -0.003913 0.019079 -0.004966 0.000010 0.001216 0.000004
# 3 -0.003480 -0.004966 0.013618 0.000001 0.005861 0.000001
# 4 -0.000008 0.000010 0.000001 0.059987 0.000010 0.018518
# 5 0.004354 0.001216 0.005861 0.000010 0.045845 0.000005
# 6 -0.000003 0.000004 0.000001 0.018518 0.000005 0.041155
#
#
# Mechanical properties :
#
#
# Convention : Reuss Voigt Hill
#
# Bulk Modulus (GPa) = 49.37863 61.60191 55.49027
# Shear Modulus (GPa) = 22.37909 25.88824 24.13366
#
# Velocity S-wave (km/s) = 3.50990 3.77507 3.64490
# Velocity P-wave (km/s) = 6.60365 7.27411 6.94697
#
# Compressibility (1/GPa) = 0.02025167
#
# Stress axis : x y z
#
# Youngs Moduli (GPa) = 81.48845 52.41492 73.43211
#
# Poissons Ratio (x) = 0.20509 0.25553
# Poissons Ratio (y) = 0.31884 0.36464
# Poissons Ratio (z) = 0.28357 0.26028
#
# Static dielectric constant tensor:
#      x y z
#    x 3.643050 0.000000 -0.082520 
#    y 0.000000 3.284760 0.000000 
#    z -0.082520 0.000000 3.226080 
# 
# 
# High freq. dielectric constant tensor:
#      x y z
#    x 1.721870 0.000000 -0.011410 
#    y 0.000000 1.703690 0.000000 
#    z -0.011410 0.000000 1.673380 
# 
# From -- ./inp_files/23693.got.cif
#   From: 2010.03.12/outbox.cif.g09.slc.cpg/sg8_12_cif.got.tgz:23693.got - 2010.03.31 10:45:26.
