data_PCOD8053478
_publ_section_title
;
Structure prediction by ZEFSAII (Michael W. Deem and Ramdas Pophale) SiO2 
 PCOD8053478
Probable space group: C M
;
_chemical_formula_sum "Si O2"
_cell_formula_units_Z 28
_cell_length_a 19.125618
_cell_length_b 13.029870
_cell_length_c 5.504027
_cell_angle_alpha 90.000000
_cell_angle_beta 64.061793
_cell_angle_gamma 90.000000
_cell_volume 1233.458198
_symmetry_space_group_name_H-M "C M"
_symmetry_group_IT_number 8
_symmetry_cell_setting 'monoclinic'
loop_
_space_group_symop_operation_xyz
x,y,z
x,-y,z
1/2+x,1/2+y,z
1/2+x,1/2-y,z
loop_
_atom_site_type_symbol
_atom_site_label
_atom_site_fract_x
_atom_site_fract_y
_atom_site_fract_z
Si Si1 0.431090 0.240772 0.974800
Si Si2 0.785948 0.739439 0.927239
Si Si3 0.082784 0.683701 0.898450
Si Si4 0.160283 0.383160 0.288196
Si Si5 0.370448 0.386985 0.438592
Si Si6 0.149664 0.883963 0.959206
Si Si7 0.019696 0.109929 0.527492
O O1 0.362980 0.184253 0.926171
O O2 0.486834 0.171359 0.061057
O O3 0.500049 0.290592 0.711256
O O4 0.380036 0.331060 0.168421
O O5 0.811455 0.822762 0.690709
O O6 0.738963 0.647517 0.871938
O O7 0.732001 0.803343 0.197530
O O8 0.111540 0.625364 0.613124
O O9 0.109471 0.804053 0.834455
O O10 0.113012 0.639586 0.109345
O O11 0.190228 0.500000 0.226692
O O12 0.334058 0.500000 0.453909
O O13 0.456845 0.394816 0.409464
O O14 0.147180 0.000000 0.856394
O O15 0.104733 0.876267 0.283911
O O16 0.016150 0.000000 0.675818
#
# Coordination Sequence:
#
# PCOD8053478 Si02
#       7
#     4   4   4   4   4   4   4
#     4  11  21  36  63  93 133 169 220 275 337 388
#     4  10  24  39  63  94 136 174 216 274 339 398
#     4  11  24  43  72  98 133 176 227 279 326 392
#     4  11  25  47  71 100 133 176 225 276 335 397
#     4  10  20  35  59  93 128 166 213 273 338 391
#     4  10  21  43  67  94 132 176 223 274 331 398
#     4   9  18  35  59  90 123 165 220 273 328 386
#
# _framework density 22.700403999999999
#
# number of rings (size 3 to 8) (size 9 to 14) (size 15 to 20)
#    0.000    1.714    1.429    3.000    6.000    2.286 
#    0.000    4.286    0.000    0.000    0.000    0.000 
#    0.000    0.000    0.000    0.000    0.000    0.000 
#
# Total GULP energy -173434.355195 kJ/mol
# GULP energy per Si atom -12388.168228 kJ/mol
# Density = 2.264874 g / cm^3
# Si number density = 22.700404 Si / 1000 Ang^3
#
#
#
# Elastic Constant Matrix: (Units=GPa)
#
#
# Indices 1 2 3 4 5 6 
#
# 1 149.7816 17.8030 24.2340 0.0000 -12.8991 0.0000
# 2 17.8030 73.3656 9.4582 0.0000 -3.5331 0.0000
# 3 24.2340 9.4582 80.6964 0.0000 2.8254 0.0000
# 4 0.0000 0.0000 0.0000 21.1725 0.0000 -5.1788
# 5 -12.8991 -3.5331 2.8254 0.0000 30.7440 0.0000
# 6 0.0000 0.0000 0.0000 -5.1788 0.0000 17.3597
#
#
#
# Elastic Compliance Matrix: (Units=1/GPa)
#
#
# Indices 1 2 3 4 5 6 
#
# 1 0.007468 -0.001377 -0.002193 0.000000 0.003177 0.000000
# 2 -0.001377 0.014187 -0.001290 0.000000 0.001171 0.000000
# 3 -0.002193 -0.001290 0.013282 0.000000 -0.002289 0.000000
# 4 0.000000 0.000000 0.000000 0.050949 0.000000 0.015199
# 5 0.003177 0.001171 -0.002289 0.000000 0.034205 0.000000
# 6 0.000000 0.000000 0.000000 0.015199 0.000000 0.062139
#
#
# Mechanical properties :
#
#
# Convention : Reuss Voigt Hill
#
# Bulk Modulus (GPa) = 39.65415 45.20378 42.42896
# Shear Modulus (GPa) = 24.95565 30.67847 27.81706
#
# Velocity S-wave (km/s) = 3.31924 3.68020 3.50437
# Velocity P-wave (km/s) = 5.67417 6.16562 5.92499
#
# Compressibility (1/GPa) = 0.02521804
#
# Stress axis : x y z
#
# Youngs Moduli (GPa) = 133.89813 70.48610 75.28979
#
# Poissons Ratio (x) = 0.09703 0.16509
# Poissons Ratio (y) = 0.18433 0.09716
# Poissons Ratio (z) = 0.29360 0.09096
#
# Static dielectric constant tensor:
#      x y z
#    x 4.246760 0.000000 -0.126110 
#    y 0.000000 4.152980 0.000000 
#    z -0.126110 0.000000 3.946250 
# 
# 
# High freq. dielectric constant tensor:
#      x y z
#    x 1.911880 0.000000 -0.002600 
#    y 0.000000 1.868480 0.000000 
#    z -0.002600 0.000000 1.883580 
# 
# From -- ./inp_files/4935.got.cif
#   From: 2010.03.12/outbox.cif.g09.slc.cpg/sg8_3_cif.got.tgz:4935.got - 2010.03.31 10:45:26.
