data_PCOD8053517
_publ_section_title
;
Structure prediction by ZEFSAII (Michael W. Deem and Ramdas Pophale) SiO2 
 PCOD8053517
Probable space group: C M
;
_chemical_formula_sum "Si O2"
_cell_formula_units_Z 32
_cell_length_a 22.103836
_cell_length_b 8.932760
_cell_length_c 11.037517
_cell_angle_alpha 90.000000
_cell_angle_beta 130.302465
_cell_angle_gamma 90.000000
_cell_volume 1662.051846
_symmetry_space_group_name_H-M "C M"
_symmetry_group_IT_number 8
_symmetry_cell_setting 'monoclinic'
loop_
_space_group_symop_operation_xyz
x,y,z
x,-y,z
1/2+x,1/2+y,z
1/2+x,1/2-y,z
loop_
_atom_site_type_symbol
_atom_site_label
_atom_site_fract_x
_atom_site_fract_y
_atom_site_fract_z
Si Si1 0.789260 0.823010 0.270520
Si Si2 0.133611 0.825274 0.970152
Si Si3 0.518669 0.827472 0.208259
Si Si4 0.585409 0.674802 0.640752
Si Si5 0.436967 0.823188 0.346190
Si Si6 0.985868 0.673030 0.895499
Si Si7 0.163470 0.174349 0.496332
Si Si8 0.818754 0.674580 0.562603
O O1 0.702476 0.770628 0.119435
O O2 0.852881 0.751845 0.262294
O O3 0.806724 0.773159 0.429062
O O4 0.794196 0.000000 0.268575
O O5 0.149909 0.000000 0.013692
O O6 0.129696 0.787240 0.822624
O O7 0.051066 0.781285 0.924167
O O8 0.461155 0.772938 0.241818
O O9 0.603337 0.746510 0.322408
O O10 0.537714 0.000000 0.251836
O O11 0.476841 0.794589 0.026703
O O12 0.564031 0.500000 0.604757
O O13 0.503118 0.765963 0.526832
O O14 0.644145 0.726628 0.608498
O O15 0.427923 0.000000 0.349403
O O16 0.008891 0.500000 0.901951
O O17 0.902888 0.715211 0.728170
O O18 0.252784 0.219145 0.576934
O O19 0.150346 0.000000 0.467623
O O20 0.812871 0.500000 0.519777
#
# Coordination Sequence:
#
# PCOD8053517 Si02
#       8
#     4   4   4   4   4   4   4   4
#     4  12  25  39  56  79 110 145 183 229 278 326
#     4  11  23  38  57  81 110 145 185 227 273 325
#     4   9  19  35  56  82 111 145 181 221 270 321
#     4   9  19  36  58  84 114 146 181 223 270 321
#     4  10  20  36  59  84 112 145 182 223 269 325
#     4  10  21  37  57  82 113 146 182 225 272 322
#     4   9  18  34  57  83 111 145 182 221 267 320
#     4  10  21  37  58  83 111 145 184 225 271 324
#
# _framework density 19.253309999999999
#
# number of rings (size 3 to 8) (size 9 to 14) (size 15 to 20)
#    0.000    2.000    0.000    3.375    0.000    8.000 
#    0.000    3.750    0.000    1.500    0.000    0.000 
#    0.000    0.000    0.000    0.000    0.000    0.000 
#
# Total GULP energy -198457.633981 kJ/mol
# GULP energy per Si atom -12403.602124 kJ/mol
# Density = 1.920949 g / cm^3
# Si number density = 19.253310 Si / 1000 Ang^3
#
#
#
# Elastic Constant Matrix: (Units=GPa)
#
#
# Indices 1 2 3 4 5 6 
#
# 1 113.7359 43.3461 56.5940 0.0000 12.2319 0.0000
# 2 43.3461 73.2890 47.2584 0.0000 3.4299 0.0000
# 3 56.5940 47.2584 132.2541 0.0000 1.0086 0.0000
# 4 0.0000 0.0000 0.0000 23.0082 0.0000 1.0266
# 5 12.2319 3.4299 1.0086 0.0000 33.1727 0.0000
# 6 0.0000 0.0000 0.0000 1.0266 0.0000 30.4525
#
#
#
# Elastic Compliance Matrix: (Units=1/GPa)
#
#
# Indices 1 2 3 4 5 6 
#
# 1 0.013043 -0.005120 -0.003720 0.000000 -0.004167 0.000000
# 2 -0.005120 0.019830 -0.004895 0.000000 -0.000013 0.000000
# 3 -0.003720 -0.004895 0.010890 0.000000 0.001547 0.000000
# 4 0.000000 0.000000 0.000000 0.043528 0.000000 -0.001467
# 5 -0.004167 -0.000013 0.001547 0.000000 0.031636 0.000000
# 6 0.000000 0.000000 0.000000 -0.001467 0.000000 0.032887
#
#
# Mechanical properties :
#
#
# Convention : Reuss Voigt Hill
#
# Bulk Modulus (GPa) = 61.37539 68.18624 64.78082
# Shear Modulus (GPa) = 27.06869 28.79871 27.93370
#
# Velocity S-wave (km/s) = 3.75363 3.87173 3.81314
# Velocity P-wave (km/s) = 7.12274 7.44844 7.28741
#
# Compressibility (1/GPa) = 0.01629317
#
# Stress axis : x y z
#
# Youngs Moduli (GPa) = 76.67058 50.42919 91.82605
#
# Poissons Ratio (x) = 0.25822 0.34157
# Poissons Ratio (y) = 0.39259 0.44945
# Poissons Ratio (z) = 0.28520 0.24683
#
# Static dielectric constant tensor:
#      x y z
#    x 3.804410 0.000000 -0.099150 
#    y 0.000000 3.506960 0.000000 
#    z -0.099150 0.000000 3.561740 
# 
# 
# High freq. dielectric constant tensor:
#      x y z
#    x 1.760810 0.000000 -0.004080 
#    y 0.000000 1.746350 0.000000 
#    z -0.004080 0.000000 1.750220 
# 
# From -- ./inp_files/23896.got.cif
#   From: 2010.03.12/outbox.cif.g09.slc.cpg/sg8_12_cif.got.tgz:23896.got - 2010.03.31 10:45:26.
