data_PCOD8053967
_publ_section_title
;
Structure prediction by ZEFSAII (Michael W. Deem and Ramdas Pophale) SiO2 
 PCOD8053967
Probable space group: C M
;
_chemical_formula_sum "Si O2"
_cell_formula_units_Z 32
_cell_length_a 19.165017
_cell_length_b 9.064647
_cell_length_c 23.373747
_cell_angle_alpha 90.000000
_cell_angle_beta 156.553155
_cell_angle_gamma 90.000000
_cell_volume 1615.698508
_symmetry_space_group_name_H-M "C M"
_symmetry_group_IT_number 8
_symmetry_cell_setting 'monoclinic'
loop_
_space_group_symop_operation_xyz
x,y,z
x,-y,z
1/2+x,1/2+y,z
1/2+x,1/2-y,z
loop_
_atom_site_type_symbol
_atom_site_label
_atom_site_fract_x
_atom_site_fract_y
_atom_site_fract_z
Si Si1 0.947480 0.166996 0.984520
Si Si2 0.007276 0.829625 0.283561
Si Si3 0.865792 0.826060 0.523591
Si Si4 0.306391 0.668925 0.245386
Si Si5 0.159423 0.174602 0.834178
Si Si6 0.523870 0.669283 0.523105
Si Si7 0.163939 0.672359 0.956451
Si Si8 0.368022 0.667497 0.797391
O O1 0.847854 0.267076 0.955475
O O2 0.842274 0.173568 0.846060
O O3 0.956127 0.000000 0.014422
O O4 0.141924 0.224507 0.121068
O O5 0.936969 0.781471 0.293035
O O6 0.177768 0.737957 0.397022
O O7 0.060246 0.000000 0.323966
O O8 0.861745 0.797146 0.125734
O O9 0.924473 0.772058 0.504857
O O10 0.007901 0.772323 0.676952
O O11 0.847585 0.000000 0.511209
O O12 0.246213 0.500000 0.189523
O O13 0.397239 0.687384 0.374501
O O14 0.117617 0.242589 0.863935
O O15 0.169321 0.000000 0.846499
O O16 0.582931 0.500000 0.576327
O O17 0.694437 0.766338 0.638111
O O18 0.129013 0.500000 0.921353
O O19 0.035128 0.733551 0.907983
O O20 0.395488 0.500000 0.796431
#
# Coordination Sequence:
#
# PCOD8053967 Si02
#       8
#     4   4   4   4   4   4   4   4
#     4  11  23  40  64  93 123 160 205 255 306 360
#     4  10  23  41  61  88 124 162 201 248 305 362
#     4  10  23  41  61  88 124 162 201 248 305 362
#     4  10  22  41  64  91 121 161 206 249 304 365
#     4  11  24  42  64  91 124 163 206 253 305 364
#     4  10  22  41  64  91 121 161 206 249 304 365
#     4  11  24  42  64  91 124 163 206 253 305 364
#     4  11  23  40  64  93 123 160 205 255 306 360
#
# _framework density 19.805675999999998
#
# number of rings (size 3 to 8) (size 9 to 14) (size 15 to 20)
#    0.000    1.500    2.500    1.500    3.500    4.500 
#    0.000    0.000    0.000    0.000    0.000    0.000 
#    0.000    0.000    0.000    0.000    0.000    0.000 
#
# Total GULP energy -198487.546343 kJ/mol
# GULP energy per Si atom -12405.471646 kJ/mol
# Density = 1.976060 g / cm^3
# Si number density = 19.805676 Si / 1000 Ang^3
#
#
#
# Elastic Constant Matrix: (Units=GPa)
#
#
# Indices 1 2 3 4 5 6 
#
# 1 89.7306 35.3361 33.6585 -0.0127 -3.6208 0.0018
# 2 35.3361 86.0891 45.6965 0.0196 1.3257 0.0017
# 3 33.6585 45.6965 93.0640 0.0420 7.8531 0.0003
# 4 -0.0127 0.0196 0.0420 36.7522 0.0026 7.3768
# 5 -3.6208 1.3257 7.8531 0.0026 35.1189 -0.0008
# 6 0.0018 0.0017 0.0003 7.3768 -0.0008 34.8000
#
#
#
# Elastic Compliance Matrix: (Units=1/GPa)
#
#
# Indices 1 2 3 4 5 6 
#
# 1 0.014075 -0.004066 -0.003291 0.000011 0.002341 -0.000003
# 2 -0.004066 0.016931 -0.006884 -0.000003 0.000481 0.000000
# 3 -0.003291 -0.006884 0.015617 -0.000016 -0.003572 0.000004
# 4 0.000011 -0.000003 -0.000016 0.028418 0.000003 -0.006024
# 5 0.002341 0.000481 -0.003572 0.000003 0.029497 0.000000
# 6 -0.000003 0.000000 0.000004 -0.006024 0.000000 0.030013
#
#
# Mechanical properties :
#
#
# Convention : Reuss Voigt Hill
#
# Bulk Modulus (GPa) = 55.12396 55.36287 55.24341
# Shear Modulus (GPa) = 29.57177 31.61371 30.59274
#
# Velocity S-wave (km/s) = 3.86825 3.99957 3.93446
# Velocity P-wave (km/s) = 6.91693 7.02442 6.97089
#
# Compressibility (1/GPa) = 0.01814093
#
# Stress axis : x y z
#
# Youngs Moduli (GPa) = 71.04907 59.06220 64.03221
#
# Poissons Ratio (x) = 0.24015 0.21076
# Poissons Ratio (y) = 0.28889 0.44078
# Poissons Ratio (z) = 0.23385 0.40656
#
# Static dielectric constant tensor:
#      x y z
#    x 3.710580 0.000040 -0.093490 
#    y 0.000040 3.616460 -0.000040 
#    z -0.093490 -0.000040 3.501700 
# 
# 
# High freq. dielectric constant tensor:
#      x y z
#    x 1.782130 0.000000 -0.001000 
#    y 0.000000 1.773750 0.000000 
#    z -0.001000 0.000000 1.775400 
# 
# From -- ./inp_files/33043.got.cif
#   From: 2010.03.12/outbox.cif.g09.slc.cpg/sg8_17_cif.got.tgz:33043.got - 2010.03.31 10:45:26.
