data_PCOD8053144
_publ_section_title
;
Structure prediction by ZEFSAII (Michael W. Deem and Ramdas Pophale) SiO2 
 PCOD8053144
Probable space group: C M
;
_chemical_formula_sum "Si O2"
_cell_formula_units_Z 32
_cell_length_a 26.516474
_cell_length_b 9.018857
_cell_length_c 21.911678
_cell_angle_alpha 90.000000
_cell_angle_beta 161.275991
_cell_angle_gamma 90.000000
_cell_volume 1682.136785
_symmetry_space_group_name_H-M "C M"
_symmetry_group_IT_number 8
_symmetry_cell_setting 'monoclinic'
loop_
_space_group_symop_operation_xyz
x,y,z
x,-y,z
1/2+x,1/2+y,z
1/2+x,1/2-y,z
loop_
_atom_site_type_symbol
_atom_site_label
_atom_site_fract_x
_atom_site_fract_y
_atom_site_fract_z
Si Si1 0.643000 0.672384 0.227770
Si Si2 0.043515 0.173995 0.524511
Si Si3 0.336547 0.327420 0.804178
Si Si4 0.228572 0.676383 0.951963
Si Si5 0.965199 0.173593 0.573179
Si Si6 0.541943 0.326814 0.245173
Si Si7 0.374737 0.832870 0.227438
Si Si8 0.197296 0.336442 0.523835
O O1 0.694141 0.500000 0.288262
O O2 0.786944 0.777001 0.377449
O O3 0.568032 0.723457 0.205981
O O4 0.513140 0.702151 0.027512
O O5 0.216667 0.231043 0.706448
O O6 0.017387 0.213837 0.564892
O O7 0.905868 0.252728 0.327696
O O8 0.033797 0.000000 0.500300
O O9 0.288563 0.500000 0.757527
O O10 0.328785 0.282996 0.723308
O O11 0.220595 0.500000 0.947501
O O12 0.069331 0.736971 0.740658
O O13 0.373225 0.732003 0.075163
O O14 0.246767 0.743094 0.040923
O O15 0.981456 0.000000 0.605195
O O16 0.545696 0.500000 0.256535
O O17 0.685396 0.267410 0.451216
O O18 0.536049 0.834509 0.375916
O O19 0.313343 0.000000 0.168837
O O20 0.236608 0.500000 0.544402
#
# Coordination Sequence:
#
# PCOD8053144 Si02
#       8
#     4   4   4   4   4   4   4   4
#     4  10  21  37  54  73 101 138 179 219 261 310
#     4  10  20  34  54  80 108 139 177 219 262 310
#     4   9  18  34  56  80 103 131 173 219 262 312
#     4  10  19  34  58  83 107 137 173 215 265 316
#     4  11  24  38  51  74 108 143 181 221 260 308
#     4   9  18  32  53  80 104 130 168 212 257 309
#     4   9  17  31  53  81 110 137 170 214 262 312
#     4   8  15  28  49  77 105 131 161 205 257 307
#
# _framework density 19.023423999999999
#
# number of rings (size 3 to 8) (size 9 to 14) (size 15 to 20)
#    0.000    2.500    0.000    3.000    0.000    7.500 
#    0.000    1.250    0.000    6.000    0.000    0.000 
#    0.000    0.000    0.000    0.000    0.000    0.000 
#
# Total GULP energy -198389.910540 kJ/mol
# GULP energy per Si atom -12399.369409 kJ/mol
# Density = 1.898013 g / cm^3
# Si number density = 19.023424 Si / 1000 Ang^3
#
#
#
# Elastic Constant Matrix: (Units=GPa)
#
#
# Indices 1 2 3 4 5 6 
#
# 1 21.3743 22.8091 38.3499 0.0003 -10.3441 0.0001
# 2 22.8091 67.5402 42.1116 0.0006 -8.1417 0.0003
# 3 38.3499 42.1116 128.8159 0.0001 -26.1000 0.0001
# 4 0.0003 0.0006 0.0001 33.5991 0.0003 -5.3406
# 5 -10.3441 -8.1417 -26.1000 0.0003 28.6070 0.0003
# 6 0.0001 0.0003 0.0001 -5.3406 0.0003 27.6215
#
#
#
# Elastic Compliance Matrix: (Units=1/GPa)
#
#
# Indices 1 2 3 4 5 6 
#
# 1 0.129971 -0.024935 -0.027551 -0.000001 0.014763 -0.000001
# 2 -0.024935 0.023383 -0.000858 0.000000 -0.003144 0.000000
# 3 -0.027551 -0.000858 0.017393 0.000000 0.005662 0.000000
# 4 -0.000001 0.000000 0.000000 0.030706 -0.000001 0.005937
# 5 0.014763 -0.003144 0.005662 -0.000001 0.044566 -0.000001
# 6 -0.000001 0.000000 0.000000 0.005937 -0.000001 0.037352
#
#
# Mechanical properties :
#
#
# Convention : Reuss Voigt Hill
#
# Bulk Modulus (GPa) = 15.61054 47.14129 31.37592
# Shear Modulus (GPa) = 12.15330 25.59617 18.87474
#
# Velocity S-wave (km/s) = 2.53031 3.67210 3.15331
# Velocity P-wave (km/s) = 4.09395 6.54320 5.45774
#
# Compressibility (1/GPa) = 0.06405927
#
# Stress axis : x y z
#
# Youngs Moduli (GPa) = 7.69403 42.76676 57.49478
#
# Poissons Ratio (x) = 1.06639 1.58403
# Poissons Ratio (y) = 0.19185 0.04931
# Poissons Ratio (z) = 0.21198 0.03668
#
# Static dielectric constant tensor:
#      x y z
#    x 3.429520 0.000000 -0.339980 
#    y 0.000000 3.515770 0.000000 
#    z -0.339980 0.000000 3.628990 
# 
# 
# High freq. dielectric constant tensor:
#      x y z
#    x 1.718950 0.000000 -0.029030 
#    y 0.000000 1.740460 0.000000 
#    z -0.029030 0.000000 1.740530 
# 
# From -- ./inp_files/15862.got.cif
#   From: 2010.03.12/outbox.cif.g09.slc.cpg/sg8_8_cif.got.tgz:15862.got - 2010.03.31 10:45:26.
