data_PCOD8053966
_publ_section_title
;
Structure prediction by ZEFSAII (Michael W. Deem and Ramdas Pophale) SiO2 
 PCOD8053966
Probable space group: C M
;
_chemical_formula_sum "Si O2"
_cell_formula_units_Z 32
_cell_length_a 19.122968
_cell_length_b 8.905006
_cell_length_c 11.852048
_cell_angle_alpha 90.000000
_cell_angle_beta 127.852360
_cell_angle_gamma 90.000000
_cell_volume 1593.628442
_symmetry_space_group_name_H-M "C M"
_symmetry_group_IT_number 8
_symmetry_cell_setting 'monoclinic'
loop_
_space_group_symop_operation_xyz
x,y,z
x,-y,z
1/2+x,1/2+y,z
1/2+x,1/2-y,z
loop_
_atom_site_type_symbol
_atom_site_label
_atom_site_fract_x
_atom_site_fract_y
_atom_site_fract_z
Si Si1 0.725730 0.674084 0.000000
Si Si2 0.147250 0.176887 0.526621
Si Si3 0.231156 0.176119 0.265172
Si Si4 0.401692 0.826720 0.575827
Si Si5 0.099103 0.673789 0.708412
Si Si6 0.326610 0.675534 0.701248
Si Si7 0.878026 0.328016 0.977957
Si Si8 0.575393 0.174436 0.249678
O O1 0.699573 0.500000 0.964529
O O2 0.737880 0.723215 0.141257
O O3 0.818127 0.706794 0.027758
O O4 0.645801 0.771092 0.868999
O O5 0.138240 0.231010 0.645105
O O6 0.241551 0.232425 0.573316
O O7 0.074494 0.246444 0.371149
O O8 0.141270 0.000000 0.516233
O O9 0.323771 0.223828 0.414061
O O10 0.148866 0.260818 0.238795
O O11 0.214165 0.000000 0.263015
O O12 0.494560 0.797753 0.606850
O O13 0.403091 0.725424 0.690216
O O14 0.392284 0.000000 0.602075
O O15 0.121634 0.500000 0.711158
O O16 0.307893 0.500000 0.674861
O O17 0.350364 0.716288 0.851980
O O18 0.864129 0.500000 0.924614
O O19 0.979568 0.294467 0.103936
O O20 0.593801 0.000000 0.286174
#
# Coordination Sequence:
#
# PCOD8053966 Si02
#       8
#     4   4   4   4   4   4   4   4
#     4  10  22  41  64  89 124 170 209 252 311 376
#     4  12  24  42  66  91 126 167 208 263 325 373
#     4  10  22  41  64  89 124 170 209 252 311 376
#     4  10  23  42  65  91 126 168 207 254 316 374
#     4  11  24  41  65  95 125 164 212 261 311 372
#     4  12  24  40  66  95 124 161 214 267 309 371
#     4  10  23  42  65  91 126 168 207 254 316 374
#     4  11  24  41  65  95 125 164 212 261 311 372
#
# _framework density 20.079964
#
# number of rings (size 3 to 8) (size 9 to 14) (size 15 to 20)
#    0.000    1.250    2.500    3.000    3.500    2.500 
#    0.000    0.000    0.000    0.000    0.000    0.000 
#    0.000    0.000    0.000    0.000    0.000    0.000 
#
# Total GULP energy -198488.014801 kJ/mol
# GULP energy per Si atom -12405.500925 kJ/mol
# Density = 2.003426 g / cm^3
# Si number density = 20.079964 Si / 1000 Ang^3
#
#
#
# Elastic Constant Matrix: (Units=GPa)
#
#
# Indices 1 2 3 4 5 6 
#
# 1 91.8838 43.9453 50.6028 0.0000 3.7847 0.0000
# 2 43.9453 105.8168 51.8000 0.0000 0.8601 0.0000
# 3 50.6028 51.8000 103.2488 0.0000 -3.4057 0.0000
# 4 0.0000 0.0000 0.0000 35.6567 0.0000 -1.3136
# 5 3.7847 0.8601 -3.4057 0.0000 38.9045 0.0000
# 6 0.0000 0.0000 0.0000 -1.3136 0.0000 27.2161
#
#
#
# Elastic Compliance Matrix: (Units=1/GPa)
#
#
# Indices 1 2 3 4 5 6 
#
# 1 0.016088 -0.003675 -0.006107 0.000000 -0.002018 0.000000
# 2 -0.003675 0.013393 -0.004930 0.000000 -0.000370 0.000000
# 3 -0.006107 -0.004930 0.015219 0.000000 0.002035 0.000000
# 4 0.000000 0.000000 0.000000 0.028095 0.000000 0.001356
# 5 -0.002018 -0.000370 0.002035 0.000000 0.026087 0.000000
# 6 0.000000 0.000000 0.000000 0.001356 0.000000 0.036808
#
#
# Mechanical properties :
#
#
# Convention : Reuss Voigt Hill
#
# Bulk Modulus (GPa) = 65.46911 65.96062 65.71487
# Shear Modulus (GPa) = 29.37590 30.66220 30.01905
#
# Velocity S-wave (km/s) = 3.82900 3.91193 3.87069
# Velocity P-wave (km/s) = 7.22657 7.30237 7.26457
#
# Compressibility (1/GPa) = 0.01527438
#
# Stress axis : x y z
#
# Youngs Moduli (GPa) = 62.15960 74.66555 65.70569
#
# Poissons Ratio (x) = 0.27439 0.40130
# Poissons Ratio (y) = 0.22843 0.32396
# Poissons Ratio (z) = 0.37964 0.36813
#
# Static dielectric constant tensor:
#      x y z
#    x 3.696880 0.000000 0.045880 
#    y 0.000000 3.621050 0.000000 
#    z 0.045880 0.000000 3.757590 
# 
# 
# High freq. dielectric constant tensor:
#      x y z
#    x 1.791210 0.000000 -0.002590 
#    y 0.000000 1.783380 0.000000 
#    z -0.002590 0.000000 1.793200 
# 
# From -- ./inp_files/23829.got.cif
#   From: 2010.03.12/outbox.cif.g09.slc.cpg/sg8_12_cif.got.tgz:23829.got - 2010.03.31 10:45:26.
