data_PCOD8053897
_publ_section_title
;
Structure prediction by ZEFSAII (Michael W. Deem and Ramdas Pophale) SiO2 
 PCOD8053897
Probable space group: C M
;
_chemical_formula_sum "Si O2"
_cell_formula_units_Z 26
_cell_length_a 10.547031
_cell_length_b 15.510684
_cell_length_c 7.495147
_cell_angle_alpha 90.000000
_cell_angle_beta 71.782380
_cell_angle_gamma 90.000000
_cell_volume 1164.684301
_symmetry_space_group_name_H-M "C M"
_symmetry_group_IT_number 8
_symmetry_cell_setting 'monoclinic'
loop_
_space_group_symop_operation_xyz
x,y,z
x,-y,z
1/2+x,1/2+y,z
1/2+x,1/2-y,z
loop_
_atom_site_type_symbol
_atom_site_label
_atom_site_fract_x
_atom_site_fract_y
_atom_site_fract_z
Si Si1 0.859840 0.337339 0.428490
Si Si2 0.165936 0.500000 0.080671
Si Si3 0.869435 0.853698 0.997080
Si Si4 0.437982 0.000000 0.898837
Si Si5 0.491748 0.336713 0.312811
Si Si6 0.791557 0.664598 0.062098
Si Si7 0.013940 0.500000 0.489045
Si Si8 0.085235 0.096376 0.623290
O O1 0.939324 0.249836 0.432584
O O2 0.863912 0.352688 0.216387
O O3 0.705899 0.334396 0.562877
O O4 0.930954 0.414553 0.493736
O O5 0.246816 0.414120 0.992968
O O6 0.142791 0.500000 0.305010
O O7 0.024942 0.500000 0.040690
O O8 0.890169 0.866005 0.201738
O O9 0.840170 0.754915 0.956751
O O10 0.999396 0.882782 0.833904
O O11 0.544018 0.000000 0.688127
O O12 0.339599 0.916748 0.923254
O O13 0.633247 0.327160 0.152086
O O14 0.501226 0.402372 0.474408
O O15 0.143650 0.000000 0.615715
#
# Coordination Sequence:
#
# PCOD8053897 Si02
#       8
#     4   2   4   2   4   4   2   4
#     4  10  21  45  67 101 139 175 226 285 340 406
#     4  12  26  50  66 100 150 178 232 292 348 420
#     4  11  26  44  71  99 144 183 225 290 355 405
#     4  12  28  43  73 103 133 192 240 281 356 412
#     4  10  25  42  71 102 135 178 231 280 352 405
#     4  10  23  46  70 104 137 181 233 292 337 420
#     4  12  24  41  73  95 131 186 230 277 344 408
#     4  11  24  42  69 103 138 179 228 285 340 413
#
# _framework density 22.323644999999999
#
# number of rings (size 3 to 8) (size 9 to 14) (size 15 to 20)
#    0.000    1.231    3.077    0.923   10.769    1.231 
#    0.000    0.000    0.000    0.000    0.000    0.000 
#    0.000    0.000    0.000    0.000    0.000    0.000 
#
# Total GULP energy -161178.521407 kJ/mol
# GULP energy per Si atom -12398.347801 kJ/mol
# Density = 2.227284 g / cm^3
# Si number density = 22.323645 Si / 1000 Ang^3
#
#
#
# Elastic Constant Matrix: (Units=GPa)
#
#
# Indices 1 2 3 4 5 6 
#
# 1 65.2198 49.0189 13.0656 0.0000 -14.1742 0.0000
# 2 49.0189 150.4078 48.8232 0.0000 -16.9937 0.0000
# 3 13.0656 48.8232 110.7738 0.0000 -19.9044 0.0000
# 4 0.0000 0.0000 0.0000 -7.8992 0.0000 -21.5250
# 5 -14.1742 -16.9937 -19.9044 0.0000 31.0552 0.0000
# 6 0.0000 0.0000 0.0000 -21.5250 0.0000 18.6771
#
#
#
# Elastic Compliance Matrix: (Units=1/GPa)
#
#
# Indices 1 2 3 4 5 6 
#
# 1 0.021688 -0.006814 0.001756 0.000000 0.007296 0.000000
# 2 -0.006814 0.010050 -0.003613 0.000000 0.000074 0.000000
# 3 0.001756 -0.003613 0.011529 0.000000 0.006214 0.000000
# 4 0.000000 0.000000 0.000000 -0.030575 0.000000 -0.035237
# 5 0.007296 0.000074 0.006214 0.000000 0.039554 0.000000
# 6 0.000000 0.000000 0.000000 -0.035237 0.000000 0.012931
#
#
# Mechanical properties :
#
#
# Convention : Reuss Voigt Hill
#
# Bulk Modulus (GPa) = 38.57078 60.91296 49.74187
# Shear Modulus (GPa) = 54.84820 22.73286 38.79053
#
# Velocity S-wave (km/s) = 4.96215 3.19459 4.17303
# Velocity P-wave (km/s) = 7.08139 6.39943 6.74903
#
# Compressibility (1/GPa) = 0.02592636
#
# Stress axis : x y z
#
# Youngs Moduli (GPa) = 46.10869 99.49881 86.73691
#
# Poissons Ratio (x) = 0.67798 -0.15232
# Poissons Ratio (y) = 0.31418 0.31335
# Poissons Ratio (z) = -0.08097 0.35945
#
# Static dielectric constant tensor:
#      x y z
#    x 3.858400 0.000000 -0.009890 
#    y 0.000000 4.792740 0.000000 
#    z -0.009890 0.000000 4.003780 
# 
# 
# High freq. dielectric constant tensor:
#      x y z
#    x 1.868990 0.000000 -0.002510 
#    y 0.000000 1.883250 0.000000 
#    z -0.002510 0.000000 1.883430 
# 
# From -- ./inp_files/10586.got.cif
#   From: 2010.03.12/outbox.cif.g09.slc.cpg/sg8_6_cif.got.tgz:10586.got - 2010.03.31 10:45:26.
