data_PCOD8053103
_publ_section_title
;
Structure prediction by ZEFSAII (Michael W. Deem and Ramdas Pophale) SiO2 
 PCOD8053103
Probable space group: C M
;
_chemical_formula_sum "Si O2"
_cell_formula_units_Z 32
_cell_length_a 20.253668
_cell_length_b 8.754284
_cell_length_c 12.296123
_cell_angle_alpha 90.000000
_cell_angle_beta 126.378607
_cell_angle_gamma 90.000000
_cell_volume 1755.296969
_symmetry_space_group_name_H-M "C M"
_symmetry_group_IT_number 8
_symmetry_cell_setting 'monoclinic'
loop_
_space_group_symop_operation_xyz
x,y,z
x,-y,z
1/2+x,1/2+y,z
1/2+x,1/2-y,z
loop_
_atom_site_type_symbol
_atom_site_label
_atom_site_fract_x
_atom_site_fract_y
_atom_site_fract_z
Si Si1 0.743060 0.321255 0.086470
Si Si2 0.493981 0.819293 0.306146
Si Si3 0.852409 0.680440 0.005066
Si Si4 0.880703 0.318289 0.379464
Si Si5 0.595477 0.679113 0.080222
Si Si6 0.411120 0.679562 0.851374
Si Si7 0.832233 0.318999 0.565119
Si Si8 0.157754 0.319192 0.360562
O O1 0.760045 0.500000 0.103800
O O2 0.771218 0.265852 0.993702
O O3 0.801873 0.252377 0.237741
O O4 0.648787 0.282896 0.023376
O O5 0.431887 0.764989 0.150932
O O6 0.462380 0.761767 0.394112
O O7 0.585150 0.759066 0.369630
O O8 0.493466 0.000000 0.304283
O O9 0.853403 0.500000 0.982619
O O10 0.851166 0.768736 0.889731
O O11 0.878383 0.500000 0.380501
O O12 0.876503 0.256240 0.498588
O O13 0.600301 0.500000 0.113237
O O14 0.635290 0.772519 0.216699
O O15 0.503369 0.733311 0.968553
O O16 0.405121 0.500000 0.828675
O O17 0.385759 0.760850 0.716534
O O18 0.828354 0.500000 0.562956
O O19 0.740119 0.257787 0.483186
O O20 0.167897 0.500000 0.376149
#
# Coordination Sequence:
#
# PCOD8053103 Si02
#       8
#     4   4   4   4   4   4   4   4
#     4   8  14  28  54  81 102 131 176 222 257 304
#     4   8  15  28  51  81 107 133 169 216 262 308
#     4   9  16  31  55  79 104 139 180 213 256 316
#     4   8  14  28  52  78 101 133 176 215 255 308
#     4  10  19  34  55  79 107 141 179 218 262 312
#     4  11  23  36  52  77 113 145 174 218 269 315
#     4  11  22  37  57  76 104 144 185 218 259 321
#     4  11  20  32  54  83 112 136 171 222 268 312
#
# _framework density 18.230533000000001
#
# number of rings (size 3 to 8) (size 9 to 14) (size 15 to 20)
#    0.000    2.500    2.500    2.625    0.000    0.500 
#    0.000    1.875    0.000    6.000    0.000    0.000 
#    0.000    0.000    0.000    0.000    0.000    0.000 
#
# Total GULP energy -198293.881482 kJ/mol
# GULP energy per Si atom -12393.367593 kJ/mol
# Density = 1.818904 g / cm^3
# Si number density = 18.230533 Si / 1000 Ang^3
#
#
#
# Elastic Constant Matrix: (Units=GPa)
#
#
# Indices 1 2 3 4 5 6 
#
# 1 142.0167 22.3061 40.1649 0.0000 -17.6076 0.0000
# 2 22.3061 38.7091 15.7419 0.0000 0.7470 0.0000
# 3 40.1649 15.7419 65.8679 0.0000 -9.5070 0.0000
# 4 0.0000 0.0000 0.0000 24.0585 0.0000 0.8876
# 5 -17.6076 0.7470 -9.5070 0.0000 27.7535 0.0000
# 6 0.0000 0.0000 0.0000 0.8876 0.0000 20.1501
#
#
#
# Elastic Compliance Matrix: (Units=1/GPa)
#
#
# Indices 1 2 3 4 5 6 
#
# 1 0.009387 -0.003814 -0.004143 0.000000 0.004639 0.000000
# 2 -0.003814 0.030450 -0.005701 0.000000 -0.005192 0.000000
# 3 -0.004143 -0.005701 0.019687 0.000000 0.004269 0.000000
# 4 0.000000 0.000000 0.000000 0.041633 0.000000 -0.001834
# 5 0.004639 -0.005192 0.004269 0.000000 0.040577 0.000000
# 6 0.000000 0.000000 0.000000 -0.001834 0.000000 0.049708
#
#
# Mechanical properties :
#
#
# Convention : Reuss Voigt Hill
#
# Bulk Modulus (GPa) = 31.04818 44.77996 37.91407
# Shear Modulus (GPa) = 21.78695 25.61780 23.70237
#
# Velocity S-wave (km/s) = 3.46074 3.75268 3.60967
# Velocity P-wave (km/s) = 5.74777 6.58736 6.18184
#
# Compressibility (1/GPa) = 0.03220801
#
# Stress axis : x y z
#
# Youngs Moduli (GPa) = 106.52569 32.84045 50.79521
#
# Poissons Ratio (x) = 0.12526 0.21045
# Poissons Ratio (y) = 0.40630 0.28959
# Poissons Ratio (z) = 0.44135 0.18722
#
# Static dielectric constant tensor:
#      x y z
#    x 3.996040 0.000000 -0.105730 
#    y 0.000000 3.025040 0.000000 
#    z -0.105730 0.000000 3.151450 
# 
# 
# High freq. dielectric constant tensor:
#      x y z
#    x 1.730010 0.000000 -0.009820 
#    y 0.000000 1.674310 0.000000 
#    z -0.009820 0.000000 1.675910 
# 
# From -- ./inp_files/23744.got.cif
#   From: 2010.03.12/outbox.cif.g09.slc.cpg/sg8_12_cif.got.tgz:23744.got - 2010.03.31 10:45:26.
