data_PCOD8053091
_publ_section_title
;
Structure prediction by ZEFSAII (Michael W. Deem and Ramdas Pophale) SiO2 
 PCOD8053091
Probable space group: C M
;
_chemical_formula_sum "Si O2"
_cell_formula_units_Z 32
_cell_length_a 24.856646
_cell_length_b 8.790747
_cell_length_c 16.577872
_cell_angle_alpha 90.000000
_cell_angle_beta 153.544931
_cell_angle_gamma 90.000000
_cell_volume 1613.766800
_symmetry_space_group_name_H-M "C M"
_symmetry_group_IT_number 8
_symmetry_cell_setting 'monoclinic'
loop_
_space_group_symop_operation_xyz
x,y,z
x,-y,z
1/2+x,1/2+y,z
1/2+x,1/2-y,z
loop_
_atom_site_type_symbol
_atom_site_label
_atom_site_fract_x
_atom_site_fract_y
_atom_site_fract_z
Si Si1 0.136690 0.825477 0.775870
Si Si2 0.551517 0.679570 0.133425
Si Si3 0.533967 0.175861 0.353343
Si Si4 0.854994 0.822134 0.996361
Si Si5 0.956237 0.824984 0.400941
Si Si6 0.182234 0.321786 0.006011
Si Si7 0.234114 0.676798 0.496192
Si Si8 0.500484 0.680586 0.886926
O O1 0.233050 0.775458 0.837084
O O2 0.005250 0.804171 0.558096
O O3 0.158160 0.000000 0.830209
O O4 0.148460 0.719314 0.869301
O O5 0.564141 0.500000 0.152178
O O6 0.671040 0.745668 0.335083
O O7 0.431009 0.729194 0.020037
O O8 0.540536 0.743859 0.028151
O O9 0.539632 0.221304 0.454656
O O10 0.662001 0.207765 0.482484
O O11 0.496919 0.000000 0.293155
O O12 0.431898 0.284385 0.179144
O O13 0.823431 0.000000 0.952467
O O14 0.817738 0.770460 0.210246
O O15 0.968088 0.000000 0.389790
O O16 0.164129 0.500000 0.994478
O O17 0.094382 0.232320 0.946695
O O18 0.239637 0.500000 0.483573
O O19 0.367975 0.745079 0.686890
O O20 0.495155 0.500000 0.883060
#
# Coordination Sequence:
#
# PCOD8053091 Si02
#       8
#     4   4   4   4   4   4   4   4
#     4  11  23  39  60  88 118 156 198 243 300 356
#     4   9  20  37  59  86 119 156 195 239 291 347
#     4  10  19  33  59  89 120 156 197 239 291 356
#     4  10  19  34  58  87 124 159 191 241 298 348
#     4  10  23  40  58  84 120 155 192 245 304 350
#     4  11  24  43  62  84 117 157 200 249 297 349
#     4   9  20  37  58  86 120 154 192 241 294 346
#     4  10  22  41  62  84 116 159 199 241 291 350
#
# _framework density 19.829381999999999
#
# number of rings (size 3 to 8) (size 9 to 14) (size 15 to 20)
#    0.000    2.000    1.250    1.500    1.750    4.500 
#    0.000    3.750    0.000    0.000    0.000    0.000 
#    0.000    0.000    0.000    0.000    0.000    0.000 
#
# Total GULP energy -198426.598422 kJ/mol
# GULP energy per Si atom -12401.662401 kJ/mol
# Density = 1.978425 g / cm^3
# Si number density = 19.829382 Si / 1000 Ang^3
#
#
#
# Elastic Constant Matrix: (Units=GPa)
#
#
# Indices 1 2 3 4 5 6 
#
# 1 103.1115 14.3299 68.2912 0.0000 4.1644 0.0000
# 2 14.3299 28.3803 24.5432 0.0000 2.4178 0.0000
# 3 68.2912 24.5432 138.9896 0.0000 -1.9400 0.0000
# 4 0.0000 0.0000 0.0000 28.5743 0.0000 0.3977
# 5 4.1644 2.4178 -1.9400 0.0000 23.7168 0.0000
# 6 0.0000 0.0000 0.0000 0.3977 0.0000 32.7607
#
#
#
# Elastic Compliance Matrix: (Units=1/GPa)
#
#
# Indices 1 2 3 4 5 6 
#
# 1 0.014634 -0.001033 -0.007050 0.000000 -0.003041 0.000000
# 2 -0.001033 0.042223 -0.007014 0.000000 -0.004697 0.000000
# 3 -0.007050 -0.007014 0.011938 0.000000 0.002930 0.000000
# 4 0.000000 0.000000 0.000000 0.035002 0.000000 -0.000425
# 5 -0.003041 -0.004697 0.002930 0.000000 0.043417 0.000000
# 6 0.000000 0.000000 0.000000 -0.000425 0.000000 0.030530
#
#
# Mechanical properties :
#
#
# Convention : Reuss Voigt Hill
#
# Bulk Modulus (GPa) = 25.90605 53.86776 39.88690
# Shear Modulus (GPa) = 22.64439 27.89818 25.27129
#
# Velocity S-wave (km/s) = 3.38296 3.75495 3.57380
# Velocity P-wave (km/s) = 5.32466 6.78411 6.09820
#
# Compressibility (1/GPa) = 0.03860103
#
# Stress axis : x y z
#
# Youngs Moduli (GPa) = 68.33361 23.68383 83.76380
#
# Poissons Ratio (x) = 0.02446 0.59057
# Poissons Ratio (y) = 0.07058 0.58751
# Poissons Ratio (z) = 0.48178 0.16612
#
# Static dielectric constant tensor:
#      x y z
#    x 3.598330 0.000000 0.024820 
#    y 0.000000 3.481810 0.000000 
#    z 0.024820 0.000000 3.723190 
# 
# 
# High freq. dielectric constant tensor:
#      x y z
#    x 1.768700 0.000000 -0.001300 
#    y 0.000000 1.767540 0.000000 
#    z -0.001300 0.000000 1.777620 
# 
# From -- ./inp_files/24360.got.cif
#   From: 2010.03.12/outbox.cif.g09.slc.cpg/sg8_13_cif.got.tgz:24360.got - 2010.03.31 10:45:26.
