data_PCOD8053931
_publ_section_title
;
Structure prediction by ZEFSAII (Michael W. Deem and Ramdas Pophale) SiO2 
 PCOD8053931
Probable space group: C M
;
_chemical_formula_sum "Si O2"
_cell_formula_units_Z 32
_cell_length_a 25.083843
_cell_length_b 13.761102
_cell_length_c 10.179592
_cell_angle_alpha 90.000000
_cell_angle_beta 152.614849
_cell_angle_gamma 90.000000
_cell_volume 1616.243771
_symmetry_space_group_name_H-M "C M"
_symmetry_group_IT_number 8
_symmetry_cell_setting 'monoclinic'
loop_
_space_group_symop_operation_xyz
x,y,z
x,-y,z
1/2+x,1/2+y,z
1/2+x,1/2-y,z
loop_
_atom_site_type_symbol
_atom_site_label
_atom_site_fract_x
_atom_site_fract_y
_atom_site_fract_z
Si Si1 0.230220 0.254074 0.404410
Si Si2 0.576742 0.609466 0.924950
Si Si3 0.389689 0.890820 0.880850
Si Si4 0.161102 0.608333 0.482252
Si Si5 0.155476 0.386361 0.771667
Si Si6 0.785706 0.607587 0.200349
Si Si7 0.329678 0.691145 0.365613
Si Si8 0.400008 0.111253 0.187571
O O1 0.332456 0.176177 0.645963
O O2 0.218618 0.314639 0.511353
O O3 0.266013 0.328244 0.365623
O O4 0.116513 0.190111 0.118392
O O5 0.587990 0.500000 0.007123
O O6 0.443425 0.627101 0.596289
O O7 0.652688 0.618131 0.957214
O O8 0.340283 0.000000 0.755183
O O9 0.525824 0.889322 0.157859
O O10 0.359301 0.845330 0.958865
O O11 0.209238 0.500000 0.558119
O O12 0.189643 0.635668 0.695381
O O13 0.167300 0.500000 0.831186
O O14 0.023929 0.346816 0.510040
O O15 0.242215 0.328219 0.054857
O O16 0.834894 0.500000 0.345790
O O17 0.860793 0.693053 0.431595
O O18 0.796755 0.621745 0.067004
O O19 0.430392 0.000000 0.219452
#
# Coordination Sequence:
#
# PCOD8053931 Si02
#       8
#     4   4   4   4   4   4   4   4
#     4  11  22  36  56  87 111 149 195 230 274 332
#     4  10  22  40  56  79 120 157 186 228 280 338
#     4   9  18  36  60  82 109 148 185 231 288 336
#     4   9  20  39  60  83 113 143 185 238 285 333
#     4   9  19  37  60  87 114 147 184 234 291 337
#     4   9  20  36  55  82 115 145 185 237 281 326
#     4  11  23  35  59  83 117 154 191 225 284 336
#     4   8  16  33  59  85 109 137 186 241 282 324
#
# _framework density 19.798992999999999
#
# number of rings (size 3 to 8) (size 9 to 14) (size 15 to 20)
#    0.000    2.500    0.000    3.000    5.250    1.500 
#    0.000    0.625    2.750    0.000    0.000    0.000 
#    0.000    0.000    0.000    0.000    0.000    0.000 
#
# Total GULP energy -198275.450890 kJ/mol
# GULP energy per Si atom -12392.215681 kJ/mol
# Density = 1.975393 g / cm^3
# Si number density = 19.798993 Si / 1000 Ang^3
#
#
#
# Elastic Constant Matrix: (Units=GPa)
#
#
# Indices 1 2 3 4 5 6 
#
# 1 101.8020 49.1866 33.7109 0.0000 -8.4190 0.0000
# 2 49.1866 83.4756 30.6958 0.0000 -3.2825 0.0000
# 3 33.7109 30.6958 97.0316 0.0000 -10.9922 0.0000
# 4 0.0000 0.0000 0.0000 25.4688 0.0000 -2.3766
# 5 -8.4190 -3.2825 -10.9922 0.0000 22.0169 0.0000
# 6 0.0000 0.0000 0.0000 -2.3766 0.0000 26.0979
#
#
#
# Elastic Compliance Matrix: (Units=1/GPa)
#
#
# Indices 1 2 3 4 5 6 
#
# 1 0.014512 -0.007587 -0.002269 0.000000 0.003285 0.000000
# 2 -0.007587 0.017524 -0.003117 0.000000 -0.001845 0.000000
# 3 -0.002269 -0.003117 0.012645 0.000000 0.004980 0.000000
# 4 0.000000 0.000000 0.000000 0.039600 0.000000 0.003606
# 5 0.003285 -0.001845 0.004980 0.000000 0.048887 0.000000
# 6 0.000000 0.000000 0.000000 0.003606 0.000000 0.038646
#
#
# Mechanical properties :
#
#
# Convention : Reuss Voigt Hill
#
# Bulk Modulus (GPa) = 53.37983 56.61064 54.99523
# Shear Modulus (GPa) = 24.50926 25.96447 25.23687
#
# Velocity S-wave (km/s) = 3.52220 3.62526 3.57410
# Velocity P-wave (km/s) = 6.60005 6.79545 6.69846
#
# Compressibility (1/GPa) = 0.01873367
#
# Stress axis : x y z
#
# Youngs Moduli (GPa) = 68.90839 57.06549 79.08567
#
# Poissons Ratio (x) = 0.43297 0.17948
# Poissons Ratio (y) = 0.52283 0.24648
# Poissons Ratio (z) = 0.15638 0.17785
#
# Static dielectric constant tensor:
#      x y z
#    x 3.627220 0.000000 -0.115320 
#    y 0.000000 3.673450 0.000000 
#    z -0.115320 0.000000 3.321980 
# 
# 
# High freq. dielectric constant tensor:
#      x y z
#    x 1.773670 0.000000 -0.009770 
#    y 0.000000 1.769990 0.000000 
#    z -0.009770 0.000000 1.749200 
# 
# From -- ./inp_files/17129.got.cif
#   From: 2010.03.12/outbox.cif.g09.slc.cpg/sg8_9_cif.got.tgz:17129.got - 2010.03.31 10:45:26.
