data_PCOD8053039
_publ_section_title
;
Structure prediction by ZEFSAII (Michael W. Deem and Ramdas Pophale) SiO2 
 PCOD8053039
Probable space group: C M
;
_chemical_formula_sum "Si O2"
_cell_formula_units_Z 32
_cell_length_a 14.194014
_cell_length_b 8.859148
_cell_length_c 19.730065
_cell_angle_alpha 90.000000
_cell_angle_beta 45.785286
_cell_angle_gamma 90.000000
_cell_volume 1778.206619
_symmetry_space_group_name_H-M "C M"
_symmetry_group_IT_number 8
_symmetry_cell_setting 'monoclinic'
loop_
_space_group_symop_operation_xyz
x,y,z
x,-y,z
1/2+x,1/2+y,z
1/2+x,1/2-y,z
loop_
_atom_site_type_symbol
_atom_site_label
_atom_site_fract_x
_atom_site_fract_y
_atom_site_fract_z
Si Si1 0.439130 0.823176 0.430610
Si Si2 0.721228 0.821246 0.632186
Si Si3 0.732076 0.177497 0.778943
Si Si4 0.944220 0.179996 0.777442
Si Si5 0.211255 0.178145 0.294922
Si Si6 0.448314 0.823979 0.269521
Si Si7 0.217826 0.176860 0.137021
Si Si8 0.438107 0.820918 0.923393
O O1 0.329029 0.733244 0.525690
O O2 0.580930 0.765150 0.384019
O O3 0.417540 0.784069 0.362661
O O4 0.426896 0.000000 0.451485
O O5 0.764762 0.770915 0.685878
O O6 0.583577 0.743783 0.683076
O O7 0.703088 0.000000 0.636524
O O8 0.837101 0.246388 0.778313
O O9 0.584444 0.229127 0.872654
O O10 0.742280 0.000000 0.779062
O O11 0.900587 0.239825 0.872494
O O12 0.950086 0.000000 0.775388
O O13 0.329178 0.236166 0.283194
O O14 0.246532 0.223031 0.200168
O O15 0.186808 0.000000 0.315206
O O16 0.582807 0.747626 0.177671
O O17 0.467451 0.000000 0.248958
O O18 0.202764 0.000000 0.137284
O O19 0.338233 0.236050 0.031154
O O20 0.431394 0.000000 0.915077
#
# Coordination Sequence:
#
# PCOD8053039 Si02
#       8
#     4   4   4   4   4   4   4   4
#     4  10  20  34  51  75 103 129 160 206 251 289
#     4  10  20  36  54  72  98 133 165 199 244 298
#     4   8  17  33  52  71  96 129 164 199 241 290
#     4  10  19  33  53  76  98 126 165 208 245 287
#     4   9  18  34  53  73  97 133 172 202 238 293
#     4   9  19  34  52  73 101 132 165 204 247 291
#     4   9  18  32  52  74  99 130 168 207 242 286
#     4   9  18  34  51  72 102 134 163 199 248 298
#
# _framework density 17.995660000000001
#
# number of rings (size 3 to 8) (size 9 to 14) (size 15 to 20)
#    0.000    2.750    0.000    1.875    0.000    3.500 
#    0.000   13.750    0.000    0.000    0.000    0.000 
#    0.000    0.000    0.000    0.000    0.000    0.000 
#
# Total GULP energy -198399.259925 kJ/mol
# GULP energy per Si atom -12399.953745 kJ/mol
# Density = 1.795470 g / cm^3
# Si number density = 17.995660 Si / 1000 Ang^3
#
#
#
# Elastic Constant Matrix: (Units=GPa)
#
#
# Indices 1 2 3 4 5 6 
#
# 1 165.4365 34.7485 69.6716 0.0000 -16.1556 0.0000
# 2 34.7485 42.7932 36.8542 0.0000 -3.6659 0.0000
# 3 69.6716 36.8542 147.7573 0.0000 -10.7167 0.0000
# 4 0.0000 0.0000 0.0000 31.1531 0.0000 -2.3141
# 5 -16.1556 -3.6659 -10.7167 0.0000 14.4796 0.0000
# 6 0.0000 0.0000 0.0000 -2.3141 0.0000 25.3084
#
#
#
# Elastic Compliance Matrix: (Units=1/GPa)
#
#
# Indices 1 2 3 4 5 6 
#
# 1 0.008665 -0.004281 -0.002531 0.000000 0.006711 0.000000
# 2 -0.004281 0.031940 -0.006032 0.000000 -0.001155 0.000000
# 3 -0.002531 -0.006032 0.009669 0.000000 0.002805 0.000000
# 4 0.000000 0.000000 0.000000 0.032319 0.000000 0.002955
# 5 0.006711 -0.001155 0.002805 0.000000 0.078334 0.000000
# 6 0.000000 0.000000 0.000000 0.002955 0.000000 0.039783
#
#
# Mechanical properties :
#
#
# Convention : Reuss Voigt Hill
#
# Bulk Modulus (GPa) = 40.67307 70.94838 55.81072
# Shear Modulus (GPa) = 21.31333 28.50242 24.90787
#
# Velocity S-wave (km/s) = 3.44519 3.98408 3.72439
# Velocity P-wave (km/s) = 6.20294 7.78940 7.04099
#
# Compressibility (1/GPa) = 0.02458629
#
# Stress axis : x y z
#
# Youngs Moduli (GPa) = 115.40361 31.30835 103.41995
#
# Poissons Ratio (x) = 0.13404 0.26179
# Poissons Ratio (y) = 0.49409 0.62379
# Poissons Ratio (z) = 0.29212 0.18884
#
# Static dielectric constant tensor:
#      x y z
#    x 3.584810 0.000000 -0.044690 
#    y 0.000000 3.190160 0.000000 
#    z -0.044690 0.000000 3.421940 
# 
# 
# High freq. dielectric constant tensor:
#      x y z
#    x 1.700200 0.000000 -0.004340 
#    y 0.000000 1.686380 0.000000 
#    z -0.004340 0.000000 1.700720 
# 
# From -- ./inp_files/26423.got.cif
#   From: 2010.03.12/outbox.cif.g09.slc.cpg/sg8_14_cif.got.tgz:26423.got - 2010.03.31 10:45:26.
