data_PCOD8053887
_publ_section_title
;
Structure prediction by ZEFSAII (Michael W. Deem and Ramdas Pophale) SiO2 
 PCOD8053887
Probable space group: C M
;
_chemical_formula_sum "Si O2"
_cell_formula_units_Z 32
_cell_length_a 23.825854
_cell_length_b 8.761214
_cell_length_c 19.274672
_cell_angle_alpha 90.000000
_cell_angle_beta 156.717649
_cell_angle_gamma 90.000000
_cell_volume 1590.323414
_symmetry_space_group_name_H-M "C M"
_symmetry_group_IT_number 8
_symmetry_cell_setting 'monoclinic'
loop_
_space_group_symop_operation_xyz
x,y,z
x,-y,z
1/2+x,1/2+y,z
1/2+x,1/2-y,z
loop_
_atom_site_type_symbol
_atom_site_label
_atom_site_fract_x
_atom_site_fract_y
_atom_site_fract_z
Si Si1 0.756570 0.818975 0.215620
Si Si2 0.451405 0.819955 0.171121
Si Si3 0.940771 0.680245 0.834884
Si Si4 0.221352 0.323543 0.675704
Si Si5 0.275452 0.320219 0.518317
Si Si6 0.201689 0.322030 0.811788
Si Si7 0.916070 0.180909 0.533543
Si Si8 0.452265 0.680309 0.312985
O O1 0.820980 0.758143 0.361275
O O2 0.851462 0.760177 0.259686
O O3 0.752769 0.000000 0.213314
O O4 0.599665 0.754165 0.023720
O O5 0.611437 0.766876 0.334869
O O6 0.389687 0.732182 0.168348
O O7 0.442563 0.000000 0.172341
O O8 0.346857 0.768289 0.991361
O O9 0.940792 0.500000 0.828702
O O10 0.862590 0.731102 0.816587
O O11 0.867214 0.745463 0.682947
O O12 0.250757 0.500000 0.695001
O O13 0.170789 0.290606 0.696038
O O14 0.101732 0.265682 0.487518
O O15 0.286085 0.500000 0.539623
O O16 0.338674 0.268333 0.516168
O O17 0.222293 0.500000 0.851368
O O18 0.070601 0.258255 0.707333
O O19 0.937183 0.000000 0.553264
O O20 0.474969 0.500000 0.342188
#
# Coordination Sequence:
#
# PCOD8053887 Si02
#       8
#     4   4   4   4   4   4   4   4
#     4   9  21  39  62  92 121 154 202 252 301 363
#     4  11  24  41  63  91 124 163 206 251 308 371
#     4  11  23  39  64  92 121 162 205 251 306 366
#     4  11  23  41  62  89 124 160 204 259 310 361
#     4  10  23  41  62  89 125 161 199 253 306 366
#     4  11  25  42  62  91 125 161 207 258 306 362
#     4  10  21  42  65  88 122 164 205 248 306 368
#     4  11  21  39  66  92 120 157 204 258 309 365
#
# _framework density 20.121691999999999
#
# number of rings (size 3 to 8) (size 9 to 14) (size 15 to 20)
#    0.000    1.500    2.500    1.875    3.500    2.500 
#    0.000    3.125    0.000    0.000    0.000    0.000 
#    0.000    0.000    0.000    0.000    0.000    0.000 
#
# Total GULP energy -198458.287577 kJ/mol
# GULP energy per Si atom -12403.642974 kJ/mol
# Density = 2.007589 g / cm^3
# Si number density = 20.121692 Si / 1000 Ang^3
#
#
#
# Elastic Constant Matrix: (Units=GPa)
#
#
# Indices 1 2 3 4 5 6 
#
# 1 125.4627 38.4118 39.9900 0.0000 11.4160 0.0000
# 2 38.4118 30.7296 39.0220 0.0000 3.1624 0.0000
# 3 39.9900 39.0220 128.3028 0.0000 14.7321 0.0000
# 4 0.0000 0.0000 0.0000 27.3978 0.0000 -2.0875
# 5 11.4160 3.1624 14.7321 0.0000 31.9668 0.0000
# 6 0.0000 0.0000 0.0000 -2.0875 0.0000 30.6405
#
#
#
# Elastic Compliance Matrix: (Units=1/GPa)
#
#
# Indices 1 2 3 4 5 6 
#
# 1 0.013516 -0.019082 0.002036 0.000000 -0.003878 0.000000
# 2 -0.019082 0.080118 -0.019314 0.000000 0.007790 0.000000
# 3 0.002036 -0.019314 0.013618 0.000000 -0.005092 0.000000
# 4 0.000000 0.000000 0.000000 0.036690 0.000000 0.002500
# 5 -0.003878 0.007790 -0.005092 0.000000 0.034244 0.000000
# 6 0.000000 0.000000 0.000000 0.002500 0.000000 0.032807
#
#
# Mechanical properties :
#
#
# Convention : Reuss Voigt Hill
#
# Bulk Modulus (GPa) = 28.95751 57.70475 43.33113
# Shear Modulus (GPa) = 16.93626 29.13910 23.03768
#
# Velocity S-wave (km/s) = 2.90434 3.80958 3.38733
# Velocity P-wave (km/s) = 5.06649 6.93474 6.07289
#
# Compressibility (1/GPa) = 0.03453336
#
# Stress axis : x y z
#
# Youngs Moduli (GPa) = 73.98371 12.48153 73.42986
#
# Poissons Ratio (x) = 0.23817 -0.14949
# Poissons Ratio (y) = 1.41174 1.41823
# Poissons Ratio (z) = -0.15062 0.24107
#
# Static dielectric constant tensor:
#      x y z
#    x 3.798430 0.000000 0.071770 
#    y 0.000000 3.470800 0.000000 
#    z 0.071770 0.000000 3.746310 
# 
# 
# High freq. dielectric constant tensor:
#      x y z
#    x 1.798310 0.000000 0.000740 
#    y 0.000000 1.774760 0.000000 
#    z 0.000740 0.000000 1.793320 
# 
# From -- ./inp_files/31659.got.cif
#   From: 2010.03.12/outbox.cif.g09.slc.cpg/sg8_16_cif.got.tgz:31659.got - 2010.03.31 10:45:26.
