data_PCOD8053245
_publ_section_title
;
Structure prediction by ZEFSAII (Michael W. Deem and Ramdas Pophale) SiO2 
 PCOD8053245
Probable space group: C M
;
_chemical_formula_sum "Si O2"
_cell_formula_units_Z 24
_cell_length_a 26.915446
_cell_length_b 8.487558
_cell_length_c 5.062566
_cell_angle_alpha 90.000000
_cell_angle_beta 100.465116
_cell_angle_gamma 90.000000
_cell_volume 1137.287013
_symmetry_space_group_name_H-M "C M"
_symmetry_group_IT_number 8
_symmetry_cell_setting 'monoclinic'
loop_
_space_group_symop_operation_xyz
x,y,z
x,-y,z
1/2+x,1/2+y,z
1/2+x,1/2-y,z
loop_
_atom_site_type_symbol
_atom_site_label
_atom_site_fract_x
_atom_site_fract_y
_atom_site_fract_z
Si Si1 0.817870 0.182730 0.240860
Si Si2 0.868938 0.682089 0.790074
Si Si3 0.203528 0.316518 0.013660
Si Si4 0.039127 0.185214 0.414985
Si Si5 0.152083 0.815140 0.463756
Si Si6 0.477143 0.686086 0.862389
O O1 0.831525 0.280769 0.513633
O O2 0.822473 0.000000 0.318202
O O3 0.855420 0.218751 0.036632
O O4 0.761722 0.231293 0.102256
O O5 0.864416 0.500000 0.858681
O O6 0.925317 0.724666 0.755266
O O7 0.195179 0.500000 0.061289
O O8 0.188494 0.275412 0.700558
O O9 0.169662 0.216758 0.182688
O O10 0.095529 0.253970 0.442984
O O11 0.016822 0.232305 0.674719
O O12 0.042630 0.000000 0.375499
O O13 0.001707 0.251808 0.154875
O O14 0.154261 0.000000 0.526771
O O15 0.466280 0.500000 0.856260
#
# Coordination Sequence:
#
# PCOD8053245 Si02
#       6
#     4   4   4   4   4   4
#     4  11  24  43  64  85 117 164 207 238 287 365
#     4  12  25  40  61  93 125 150 193 256 309 347
#     4  11  24  41  61  89 123 158 199 246 297 355
#     4   9  19  35  58  86 114 152 201 242 278 344
#     4  11  22  39  64  92 121 156 201 248 295 348
#     4  10  19  36  60  83 114 158 201 236 284 353
#
# _framework density 21.102854000000001
#
# number of rings (size 3 to 8) (size 9 to 14) (size 15 to 20)
#    0.000    1.333    0.000    6.000    0.000   10.667 
#    0.000    5.000    0.000    0.000    0.000    0.000 
#    0.000    0.000    0.000    0.000    0.000    0.000 
#
# Total GULP energy -148890.289995 kJ/mol
# GULP energy per Si atom -12407.524166 kJ/mol
# Density = 2.105482 g / cm^3
# Si number density = 21.102854 Si / 1000 Ang^3
#
#
#
# Elastic Constant Matrix: (Units=GPa)
#
#
# Indices 1 2 3 4 5 6 
#
# 1 93.9091 33.8774 3.3243 0.0000 4.6308 0.0000
# 2 33.8774 52.2526 12.8699 0.0000 5.3493 0.0000
# 3 3.3243 12.8699 91.0703 0.0000 7.0114 0.0000
# 4 0.0000 0.0000 0.0000 31.8354 0.0000 -0.6231
# 5 4.6308 5.3493 7.0114 0.0000 41.9289 0.0000
# 6 0.0000 0.0000 0.0000 -0.6231 0.0000 -13.2412
#
#
#
# Elastic Compliance Matrix: (Units=1/GPa)
#
#
# Indices 1 2 3 4 5 6 
#
# 1 0.013966 -0.009207 0.000830 0.000000 -0.000507 0.000000
# 2 -0.009207 0.026080 -0.003213 0.000000 -0.001773 0.000000
# 3 0.000830 -0.003213 0.011528 0.000000 -0.001610 0.000000
# 4 0.000000 0.000000 0.000000 0.031383 0.000000 -0.001477
# 5 -0.000507 -0.001773 -0.001610 0.000000 0.024401 0.000000
# 6 0.000000 0.000000 0.000000 -0.001477 0.000000 -0.075452
#
#
# Mechanical properties :
#
#
# Convention : Reuss Voigt Hill
#
# Bulk Modulus (GPa) = 35.21830 37.48615 36.35222
# Shear Modulus (GPa) = 77.45970 24.58198 51.02084
#
# Velocity S-wave (km/s) = 6.06510 3.41672 4.92237
# Velocity P-wave (km/s) = 8.11002 5.77645 7.04059
#
# Compressibility (1/GPa) = 0.02839433
#
# Stress axis : x y z
#
# Youngs Moduli (GPa) = 71.60434 38.34355 86.74395
#
# Poissons Ratio (x) = 0.35303 -0.07203
# Poissons Ratio (y) = 0.65927 0.27871
# Poissons Ratio (z) = -0.05946 0.12320
#
# Static dielectric constant tensor:
#      x y z
#    x 3.941220 0.000000 0.067740 
#    y 0.000000 3.591880 0.000000 
#    z 0.067740 0.000000 3.839890 
# 
# 
# High freq. dielectric constant tensor:
#      x y z
#    x 1.842460 0.000000 0.002000 
#    y 0.000000 1.807190 0.000000 
#    z 0.002000 0.000000 1.841300 
# 
# From -- ./inp_files/5816.got.cif
#   From: 2010.03.12/outbox.cif.g09.slc.cpg/sg8_3_cif.got.tgz:5816.got - 2010.03.31 10:45:26.
