data_PCOD8053486
_publ_section_title
;
Structure prediction by ZEFSAII (Michael W. Deem and Ramdas Pophale) SiO2 
 PCOD8053486
Probable space group: C M
;
_chemical_formula_sum "Si O2"
_cell_formula_units_Z 32
_cell_length_a 25.483826
_cell_length_b 8.693538
_cell_length_c 24.144814
_cell_angle_alpha 90.000000
_cell_angle_beta 162.317561
_cell_angle_gamma 90.000000
_cell_volume 1624.757514
_symmetry_space_group_name_H-M "C M"
_symmetry_group_IT_number 8
_symmetry_cell_setting 'monoclinic'
loop_
_space_group_symop_operation_xyz
x,y,z
x,-y,z
1/2+x,1/2+y,z
1/2+x,1/2-y,z
loop_
_atom_site_type_symbol
_atom_site_label
_atom_site_fract_x
_atom_site_fract_y
_atom_site_fract_z
Si Si1 0.483100 0.682041 0.540750
Si Si2 0.364161 0.328935 0.306889
Si Si3 0.170154 0.316540 0.299743
Si Si4 0.677414 0.681351 0.427082
Si Si5 0.356991 0.316918 0.179099
Si Si6 0.987494 0.180497 0.805754
Si Si7 0.961776 0.327818 0.895380
Si Si8 0.862742 0.681515 0.913230
O O1 0.456634 0.500000 0.508703
O O2 0.445270 0.756876 0.441935
O O3 0.349499 0.741078 0.452562
O O4 0.677971 0.726094 0.754423
O O5 0.443089 0.500000 0.383840
O O6 0.405600 0.249554 0.289256
O O7 0.160800 0.334097 0.111557
O O8 0.164131 0.500000 0.302410
O O9 0.149550 0.230572 0.336426
O O10 0.014041 0.254414 0.104312
O O11 0.701808 0.500000 0.456818
O O12 0.506246 0.736319 0.287634
O O13 0.846800 0.762777 0.620636
O O14 0.335866 0.500000 0.161069
O O15 0.171965 0.251758 0.974239
O O16 0.004645 0.000000 0.818403
O O17 0.926194 0.224845 0.805874
O O18 0.893343 0.500000 0.813083
O O19 0.868718 0.254952 0.855968
O O20 0.887518 0.500000 0.933342
#
# Coordination Sequence:
#
# PCOD8053486 Si02
#       8
#     4   4   4   4   4   4   4   4
#     4   9  16  27  50  83 111 141 185 232 281 332
#     4   8  13  26  50  80 110 137 177 234 281 323
#     4  10  20  36  54  80 115 148 188 241 288 335
#     4  11  24  41  62  85 112 157 205 244 286 345
#     4   9  20  38  61  87 114 151 199 245 287 339
#     4  11  23  38  58  87 122 156 188 238 299 353
#     4   9  16  31  55  82 114 149 188 236 281 336
#     4   9  17  29  52  82 110 145 190 236 281 333
#
# _framework density 19.695246999999998
#
# number of rings (size 3 to 8) (size 9 to 14) (size 15 to 20)
#    0.000    2.500    1.250    2.250    1.750    2.000 
#    0.000    1.875    0.000    0.750    0.000    0.000 
#    0.000    0.000    0.000    0.000    0.000    0.000 
#
# Total GULP energy -198320.900442 kJ/mol
# GULP energy per Si atom -12395.056278 kJ/mol
# Density = 1.965042 g / cm^3
# Si number density = 19.695247 Si / 1000 Ang^3
#
#
#
# Elastic Constant Matrix: (Units=GPa)
#
#
# Indices 1 2 3 4 5 6 
#
# 1 140.8560 20.4073 63.7846 -0.0120 15.6812 -0.0037
# 2 20.4073 42.0666 19.6911 -0.0198 2.3236 -0.0075
# 3 63.7846 19.6911 103.1564 -0.0195 14.2840 -0.0095
# 4 -0.0120 -0.0198 -0.0195 9.9660 -0.0065 -4.8294
# 5 15.6812 2.3236 14.2840 -0.0065 31.3106 -0.0011
# 6 -0.0037 -0.0075 -0.0095 -4.8294 -0.0011 24.7996
#
#
#
# Elastic Compliance Matrix: (Units=1/GPa)
#
#
# Indices 1 2 3 4 5 6 
#
# 1 0.010203 -0.002218 -0.005552 -0.000006 -0.002413 -0.000003
# 2 -0.002218 0.026590 -0.003827 0.000051 0.000883 0.000016
# 3 -0.005552 -0.003827 0.014339 0.000014 -0.003477 0.000006
# 4 -0.000006 0.000051 0.000014 0.110796 0.000016 0.021576
# 5 -0.002413 0.000883 -0.003477 0.000016 0.034667 0.000003
# 6 -0.000003 0.000016 0.000006 0.021576 0.000003 0.044525
#
#
# Mechanical properties :
#
#
# Convention : Reuss Voigt Hill
#
# Bulk Modulus (GPa) = 35.79090 54.87168 45.33129
# Shear Modulus (GPa) = 18.27314 25.36167 21.81740
#
# Velocity S-wave (km/s) = 3.04928 3.59235 3.33190
# Velocity P-wave (km/s) = 5.53256 6.71770 6.15373
#
# Compressibility (1/GPa) = 0.02794007
#
# Stress axis : x y z
#
# Youngs Moduli (GPa) = 98.00719 37.60787 69.74186
#
# Poissons Ratio (x) = 0.08341 0.38718
# Poissons Ratio (y) = 0.21737 0.26687
# Poissons Ratio (z) = 0.54409 0.14391
#
# Static dielectric constant tensor:
#      x y z
#    x 3.728320 0.000000 0.049180 
#    y 0.000000 3.087310 -0.000010 
#    z 0.049180 -0.000010 3.641920 
# 
# 
# High freq. dielectric constant tensor:
#      x y z
#    x 1.774860 0.000000 0.002880 
#    y 0.000000 1.711600 0.000000 
#    z 0.002880 0.000000 1.775470 
# 
# From -- ./inp_files/17256.got.cif
#   From: 2010.03.12/outbox.cif.g09.slc.cpg/sg8_9_cif.got.tgz:17256.got - 2010.03.31 10:45:26.
