data_PCOD8053227
_publ_section_title
;
Structure prediction by ZEFSAII (Michael W. Deem and Ramdas Pophale) SiO2 
 PCOD8053227
Probable space group: C M
;
_chemical_formula_sum "Si O2"
_cell_formula_units_Z 32
_cell_length_a 23.893301
_cell_length_b 8.417695
_cell_length_c 13.920175
_cell_angle_alpha 90.000000
_cell_angle_beta 146.673410
_cell_angle_gamma 90.000000
_cell_volume 1538.193966
_symmetry_space_group_name_H-M "C M"
_symmetry_group_IT_number 8
_symmetry_cell_setting 'monoclinic'
loop_
_space_group_symop_operation_xyz
x,y,z
x,-y,z
1/2+x,1/2+y,z
1/2+x,1/2-y,z
loop_
_atom_site_type_symbol
_atom_site_label
_atom_site_fract_x
_atom_site_fract_y
_atom_site_fract_z
Si Si1 0.043080 0.184508 0.171740
Si Si2 0.871618 0.313553 0.046922
Si Si3 0.594087 0.314854 0.028097
Si Si4 0.954730 0.187289 0.362765
Si Si5 0.388769 0.310783 0.640461
Si Si6 0.174684 0.688569 0.687925
Si Si7 0.313153 0.314302 0.329658
Si Si8 0.223728 0.684425 0.548565
O O1 0.055912 0.229593 0.079280
O O2 0.118829 0.290478 0.342389
O O3 0.065357 0.000000 0.222407
O O4 0.929121 0.227910 0.040884
O O5 0.868848 0.500000 0.025337
O O6 0.757163 0.242793 0.885618
O O7 0.929463 0.277481 0.228562
O O8 0.618605 0.500000 0.054784
O O9 0.694643 0.220226 0.143546
O O10 0.505414 0.262092 0.827347
O O11 0.877945 0.253709 0.333885
O O12 0.068130 0.228605 0.560206
O O13 0.942916 0.000000 0.329113
O O14 0.376807 0.500000 0.623839
O O15 0.352974 0.238228 0.487011
O O16 0.316223 0.238087 0.620119
O O17 0.159828 0.500000 0.667303
O O18 0.213911 0.756083 0.641198
O O19 0.331814 0.500000 0.361734
O O20 0.245518 0.500000 0.591245
#
# Coordination Sequence:
#
# PCOD8053227 Si02
#       8
#     4   4   4   4   4   4   4   4
#     4  11  21  35  59  91 127 159 197 251 305 360
#     4  12  25  41  63  90 121 165 209 252 309 365
#     4  10  21  37  60  90 122 159 198 243 299 358
#     4  11  24  42  62  89 123 161 210 261 307 360
#     4   9  18  36  60  85 118 157 193 234 292 364
#     4  11  23  40  64  94 124 159 201 251 312 370
#     4  10  22  40  62  86 117 158 202 251 301 353
#     4  10  19  35  62  89 120 158 196 239 305 374
#
# _framework density 20.803619000000001
#
# number of rings (size 3 to 8) (size 9 to 14) (size 15 to 20)
#    0.000    1.500    2.500    3.000    0.000    5.000 
#    0.000    2.500    0.000    0.000    0.000    0.000 
#    0.000    0.000    0.000    0.000    0.000    0.000 
#
# Total GULP energy -198449.673562 kJ/mol
# GULP energy per Si atom -12403.104598 kJ/mol
# Density = 2.075627 g / cm^3
# Si number density = 20.803619 Si / 1000 Ang^3
#
#
#
# Elastic Constant Matrix: (Units=GPa)
#
#
# Indices 1 2 3 4 5 6 
#
# 1 119.7643 23.0675 33.7508 0.0000 28.8121 0.0000
# 2 23.0675 31.3744 -0.0785 0.0000 -0.0338 0.0000
# 3 33.7508 -0.0785 120.1602 0.0000 20.4759 0.0000
# 4 0.0000 0.0000 0.0000 33.2791 0.0000 4.8286
# 5 28.8121 -0.0338 20.4759 0.0000 25.5675 0.0000
# 6 0.0000 0.0000 0.0000 4.8286 0.0000 17.8023
#
#
#
# Elastic Compliance Matrix: (Units=1/GPa)
#
#
# Indices 1 2 3 4 5 6 
#
# 1 0.014456 -0.010649 -0.001493 0.000000 -0.015110 0.000000
# 2 -0.010649 0.039717 0.001115 0.000000 0.011160 0.000000
# 3 -0.001493 0.001115 0.009792 0.000000 -0.006158 0.000000
# 4 0.000000 0.000000 0.000000 0.031280 0.000000 -0.008484
# 5 -0.015110 0.011160 -0.006158 0.000000 0.061086 0.000000
# 6 0.000000 0.000000 0.000000 -0.008484 0.000000 0.058474
#
#
# Mechanical properties :
#
#
# Convention : Reuss Voigt Hill
#
# Bulk Modulus (GPa) = 23.85901 42.75318 33.30609
# Shear Modulus (GPa) = 19.93398 29.63371 24.78385
#
# Velocity S-wave (km/s) = 3.09883 3.77828 3.45530
# Velocity P-wave (km/s) = 4.92923 6.29518 5.65361
#
# Compressibility (1/GPa) = 0.04191289
#
# Stress axis : x y z
#
# Youngs Moduli (GPa) = 69.17352 25.17789 102.12842
#
# Poissons Ratio (x) = 0.26812 0.15245
# Poissons Ratio (y) = 0.73662 -0.11391
# Poissons Ratio (z) = 0.10326 -0.02808
#
# Static dielectric constant tensor:
#      x y z
#    x 3.984980 0.000000 -0.012950 
#    y 0.000000 3.448970 0.000000 
#    z -0.012950 0.000000 3.814320 
# 
# 
# High freq. dielectric constant tensor:
#      x y z
#    x 1.814020 0.000000 0.005320 
#    y 0.000000 1.791710 0.000000 
#    z 0.005320 0.000000 1.826070 
# 
# From -- ./inp_files/26543.got.cif
#   From: 2010.03.12/outbox.cif.g09.slc.cpg/sg8_14_cif.got.tgz:26543.got - 2010.03.31 10:45:26.
