data_PCOD8053946
_publ_section_title
;
Structure prediction by ZEFSAII (Michael W. Deem and Ramdas Pophale) SiO2 
 PCOD8053946
Probable space group: C M
;
_chemical_formula_sum "Si O2"
_cell_formula_units_Z 32
_cell_length_a 19.198122
_cell_length_b 8.958790
_cell_length_c 11.920290
_cell_angle_alpha 90.000000
_cell_angle_beta 127.979289
_cell_angle_gamma 90.000000
_cell_volume 1616.030953
_symmetry_space_group_name_H-M "C M"
_symmetry_group_IT_number 8
_symmetry_cell_setting 'monoclinic'
loop_
_space_group_symop_operation_xyz
x,y,z
x,-y,z
1/2+x,1/2+y,z
1/2+x,1/2-y,z
loop_
_atom_site_type_symbol
_atom_site_label
_atom_site_fract_x
_atom_site_fract_y
_atom_site_fract_z
Si Si1 0.041040 0.169862 0.542880
Si Si2 0.313980 0.673027 0.538378
Si Si3 0.960606 0.823199 0.106571
Si Si4 0.297505 0.327817 0.090661
Si Si5 0.969387 0.174539 0.860614
Si Si6 0.099666 0.327614 0.825300
Si Si7 0.365678 0.824136 0.362051
Si Si8 0.634428 0.329853 0.410375
O O1 0.072530 0.235900 0.690340
O O2 0.117699 0.177964 0.526742
O O3 0.959701 0.263476 0.412771
O O4 0.010360 0.000000 0.533019
O O5 0.314529 0.500000 0.506445
O O6 0.376801 0.705695 0.706609
O O7 0.350172 0.767401 0.471471
O O8 0.214962 0.721111 0.466664
O O9 0.873826 0.761301 0.084869
O O10 0.049945 0.770413 0.257012
O O11 0.954959 0.000000 0.102300
O O12 0.960113 0.764775 0.978276
O O13 0.316467 0.500000 0.137996
O O14 0.293319 0.237250 0.203206
O O15 0.203962 0.306605 0.939199
O O16 0.049344 0.264542 0.883594
O O17 0.993570 0.000000 0.881927
O O18 0.073671 0.500000 0.783273
O O19 0.363344 0.000000 0.359978
O O20 0.657202 0.500000 0.397170
#
# Coordination Sequence:
#
# PCOD8053946 Si02
#       8
#     4   4   4   4   4   4   4   4
#     4  11  22  41  66  90 124 165 205 254 314 368
#     4  11  24  40  62  91 126 164 205 254 310 367
#     4   9  19  40  64  86 118 162 206 247 302 367
#     4  10  22  42  65  90 124 163 204 251 311 369
#     4  10  22  40  63  86 120 168 206 247 305 369
#     4  11  24  39  63  94 124 161 206 258 305 361
#     4  12  24  40  65  92 122 160 211 262 306 363
#     4  10  22  40  64  91 122 161 205 255 307 366
#
# _framework density 19.801601000000002
#
# number of rings (size 3 to 8) (size 9 to 14) (size 15 to 20)
#    0.000    1.500    2.500    2.250    3.500    2.500 
#    0.000    0.625    0.000    0.000    0.000    0.000 
#    0.000    0.000    0.000    0.000    0.000    0.000 
#
# Total GULP energy -198459.393318 kJ/mol
# GULP energy per Si atom -12403.712082 kJ/mol
# Density = 1.975653 g / cm^3
# Si number density = 19.801601 Si / 1000 Ang^3
#
#
#
# Elastic Constant Matrix: (Units=GPa)
#
#
# Indices 1 2 3 4 5 6 
#
# 1 98.3089 40.8749 48.8141 0.0000 6.5728 0.0000
# 2 40.8749 95.3423 36.2315 0.0000 -3.6431 0.0000
# 3 48.8141 36.2315 94.0446 0.0000 -15.3920 0.0000
# 4 0.0000 0.0000 0.0000 21.3389 0.0000 3.2309
# 5 6.5728 -3.6431 -15.3920 0.0000 33.8113 0.0000
# 6 0.0000 0.0000 0.0000 3.2309 0.0000 32.8181
#
#
#
# Elastic Compliance Matrix: (Units=1/GPa)
#
#
# Indices 1 2 3 4 5 6 
#
# 1 0.016457 -0.004256 -0.008105 0.000000 -0.007348 0.000000
# 2 -0.004256 0.013414 -0.002795 0.000000 0.001000 0.000000
# 3 -0.008105 -0.002795 0.017424 0.000000 0.009206 0.000000
# 4 0.000000 0.000000 0.000000 0.047572 0.000000 -0.004683
# 5 -0.007348 0.001000 0.009206 0.000000 0.035303 0.000000
# 6 0.000000 0.000000 0.000000 -0.004683 0.000000 0.030932
#
#
# Mechanical properties :
#
#
# Convention : Reuss Voigt Hill
#
# Bulk Modulus (GPa) = 58.88410 59.94854 59.41632
# Shear Modulus (GPa) = 25.37110 28.37866 26.87488
#
# Velocity S-wave (km/s) = 3.58336 3.78980 3.68803
# Velocity P-wave (km/s) = 6.84998 7.03495 6.94308
#
# Compressibility (1/GPa) = 0.01698251
#
# Stress axis : x y z
#
# Youngs Moduli (GPa) = 60.76287 74.55159 57.39325
#
# Poissons Ratio (x) = 0.31731 0.46518
# Poissons Ratio (y) = 0.25862 0.16040
# Poissons Ratio (z) = 0.49249 0.20835
#
# Static dielectric constant tensor:
#      x y z
#    x 3.877580 0.000000 -0.013470 
#    y 0.000000 3.536010 0.000000 
#    z -0.013470 0.000000 3.721450 
# 
# 
# High freq. dielectric constant tensor:
#      x y z
#    x 1.778700 0.000000 -0.003310 
#    y 0.000000 1.760580 0.000000 
#    z -0.003310 0.000000 1.783400 
# 
# From -- ./inp_files/23910.got.cif
#   From: 2010.03.12/outbox.cif.g09.slc.cpg/sg8_12_cif.got.tgz:23910.got - 2010.03.31 10:45:26.
