data_PCOD8053658
_publ_section_title
;
Structure prediction by ZEFSAII (Michael W. Deem and Ramdas Pophale) SiO2 
 PCOD8053658
Probable space group: C M
;
_chemical_formula_sum "Si O2"
_cell_formula_units_Z 32
_cell_length_a 12.399326
_cell_length_b 13.573908
_cell_length_c 19.137323
_cell_angle_alpha 90.000000
_cell_angle_beta 28.623614
_cell_angle_gamma 90.000000
_cell_volume 1543.008574
_symmetry_space_group_name_H-M "C M"
_symmetry_group_IT_number 8
_symmetry_cell_setting 'monoclinic'
loop_
_space_group_symop_operation_xyz
x,y,z
x,-y,z
1/2+x,1/2+y,z
1/2+x,1/2-y,z
loop_
_atom_site_type_symbol
_atom_site_label
_atom_site_fract_x
_atom_site_fract_y
_atom_site_fract_z
Si Si1 0.585300 0.613918 0.435240
Si Si2 0.982520 0.607676 0.318087
Si Si3 0.608195 0.110185 0.763153
Si Si4 0.595401 0.684184 0.277404
Si Si5 0.307262 0.891858 0.572689
Si Si6 0.083317 0.616440 0.551249
Si Si7 0.033813 0.608824 0.967675
Si Si8 0.405877 0.243498 0.778408
O O1 0.572068 0.500000 0.419730
O O2 0.766492 0.628727 0.392939
O O3 0.349740 0.652227 0.600899
O O4 0.641630 0.678131 0.334468
O O5 0.090233 0.500000 0.235455
O O6 0.924226 0.601974 0.431946
O O7 0.139839 0.704142 0.223064
O O8 0.579277 0.119499 0.860842
O O9 0.404348 0.167265 0.842867
O O10 0.590318 0.000000 0.746535
O O11 0.344335 0.646998 0.404467
O O12 0.771798 0.617177 0.135621
O O13 0.486210 0.858202 0.529929
O O14 0.102546 0.819457 0.681221
O O15 0.213991 0.000000 0.646314
O O16 0.061675 0.500000 0.581743
O O17 0.940788 0.683101 0.686709
O O18 0.115077 0.500000 0.946263
O O19 0.173781 0.697990 0.920842
#
# Coordination Sequence:
#
# PCOD8053658 Si02
#       8
#     4   4   4   4   4   4   4   4
#     4  10  20  38  66  95 127 166 214 263 305 375
#     4  10  22  38  60  92 127 164 210 260 314 373
#     4  10  21  38  61  92 126 163 211 258 311 375
#     4  12  24  40  68  95 130 167 214 260 324 376
#     4  10  21  37  59  95 129 157 205 267 321 364
#     4  11  23  39  65  98 130 163 210 268 318 375
#     4  11  26  44  62  92 131 170 211 261 320 381
#     4  12  21  38  65  91 124 172 217 255 311 377
#
# _framework density 20.738705
#
# number of rings (size 3 to 8) (size 9 to 14) (size 15 to 20)
#    0.000    1.250    2.500    3.375    3.500    3.000 
#    0.000    1.250    0.000    0.750    0.000    0.000 
#    0.000    0.000    0.000    0.000    0.000    0.000 
#
# Total GULP energy -198287.949286 kJ/mol
# GULP energy per Si atom -12392.996830 kJ/mol
# Density = 2.069150 g / cm^3
# Si number density = 20.738705 Si / 1000 Ang^3
#
#
#
# Elastic Constant Matrix: (Units=GPa)
#
#
# Indices 1 2 3 4 5 6 
#
# 1 -20.6078 59.0024 -71.1053 0.0943 -50.9940 0.0068
# 2 59.0024 110.4388 33.2730 -0.0183 -0.3556 0.0076
# 3 -71.1053 33.2730 20.3578 0.0236 -29.9321 0.0249
# 4 0.0943 -0.0183 0.0236 27.3979 0.0590 -3.6564
# 5 -50.9940 -0.3556 -29.9321 0.0590 -7.6531 -0.0007
# 6 0.0068 0.0076 0.0249 -3.6564 -0.0007 43.8092
#
#
#
# Elastic Compliance Matrix: (Units=1/GPa)
#
#
# Indices 1 2 3 4 5 6 
#
# 1 0.005234 -0.001492 -0.004512 0.000022 -0.017161 0.000004
# 2 -0.001492 0.010257 -0.001194 -0.000018 0.014135 -0.000002
# 3 -0.004512 -0.001194 0.011791 0.000039 -0.015999 -0.000003
# 4 0.000022 -0.000018 0.000039 0.036910 -0.000015 0.003081
# 5 -0.017161 0.014135 -0.015999 -0.000015 0.045599 0.000009
# 6 0.000004 -0.000002 -0.000003 0.003081 0.000009 0.023083
#
#
# Mechanical properties :
#
#
# Convention : Reuss Voigt Hill
#
# Bulk Modulus (GPa) = 77.59545 16.94766 47.27156
# Shear Modulus (GPa) = 32.98893 18.64538 25.81715
#
# Velocity S-wave (km/s) = 3.99268 3.00169 3.53211
# Velocity P-wave (km/s) = 7.66500 4.49480 6.28313
#
# Compressibility (1/GPa) = 0.01288735
#
# Stress axis : x y z
#
# Youngs Moduli (GPa) = 191.05399 97.49228 84.81042
#
# Poissons Ratio (x) = 0.14550 0.38262
# Poissons Ratio (y) = 0.28513 0.10123
# Poissons Ratio (z) = 0.86194 0.11637
#
# Static dielectric constant tensor:
#      x y z
#    x 3.932180 -0.000030 -0.015130 
#    y -0.000030 4.581740 -0.000030 
#    z -0.015130 -0.000030 3.495950 
# 
# 
# High freq. dielectric constant tensor:
#      x y z
#    x 1.821930 0.000000 0.008630 
#    y 0.000000 1.846310 0.000000 
#    z 0.008630 0.000000 1.766810 
# 
# From -- ./inp_files/28882.got.cif
#   From: 2010.03.12/outbox.cif.g09.slc.cpg/sg8_15_cif.got.tgz:28882.got - 2010.03.31 10:45:26.
