data_PCOD8053468
_publ_section_title
;
Structure prediction by ZEFSAII (Michael W. Deem and Ramdas Pophale) SiO2 
 PCOD8053468
Probable space group: C M
;
_chemical_formula_sum "Si O2"
_cell_formula_units_Z 32
_cell_length_a 24.892470
_cell_length_b 8.857030
_cell_length_c 16.636265
_cell_angle_alpha 90.000000
_cell_angle_beta 153.756412
_cell_angle_gamma 90.000000
_cell_volume 1621.881808
_symmetry_space_group_name_H-M "C M"
_symmetry_group_IT_number 8
_symmetry_cell_setting 'monoclinic'
loop_
_space_group_symop_operation_xyz
x,y,z
x,-y,z
1/2+x,1/2+y,z
1/2+x,1/2-y,z
loop_
_atom_site_type_symbol
_atom_site_label
_atom_site_fract_x
_atom_site_fract_y
_atom_site_fract_z
Si Si1 0.705480 0.177634 0.111190
Si Si2 0.112492 0.174152 0.137493
Si Si3 0.973203 0.178644 0.503678
Si Si4 0.672332 0.678740 0.642023
Si Si5 0.546807 0.673694 0.776024
Si Si6 0.611925 0.175451 0.392544
Si Si7 0.426764 0.321854 0.023982
Si Si8 0.787481 0.170436 0.486905
O O1 0.612860 0.232004 0.055941
O O2 0.839925 0.245564 0.306001
O O3 0.708088 0.000000 0.113482
O O4 0.659456 0.235217 0.963352
O O5 0.231161 0.212649 0.348686
O O6 0.993633 0.215862 0.029793
O O7 0.114588 0.000000 0.116726
O O8 0.064818 0.228306 0.557140
O O9 0.018352 0.241971 0.649994
O O10 0.962646 0.000000 0.495848
O O11 0.693975 0.500000 0.670573
O O12 0.633460 0.732347 0.502121
O O13 0.791537 0.760482 0.834967
O O14 0.585421 0.500000 0.821227
O O15 0.431650 0.694398 0.680912
O O16 0.494742 0.239950 0.188811
O O17 0.733950 0.197743 0.503695
O O18 0.589299 0.000000 0.381870
O O19 0.426479 0.500000 0.040714
O O20 0.755870 0.000000 0.415087
#
# Coordination Sequence:
#
# PCOD8053468 Si02
#       8
#     4   4   4   4   4   4   4   4
#     4  11  22  38  59  87 118 154 195 240 294 352
#     4  10  20  35  58  87 121 154 192 240 293 350
#     4   9  21  42  62  81 117 158 197 243 295 347
#     4  11  23  40  63  89 118 159 204 247 294 352
#     4  10  20  38  60  85 116 155 193 239 296 347
#     4  10  21  38  60  90 122 158 199 242 295 355
#     4  10  22  40  60  87 122 159 198 247 299 350
#     4   9  18  35  60  84 118 157 190 236 296 349
#
# _framework density 19.730167999999999
#
# number of rings (size 3 to 8) (size 9 to 14) (size 15 to 20)
#    0.000    2.000    1.250    1.875    1.750    3.500 
#    0.000    6.250    0.000    0.000    0.000    0.000 
#    0.000    0.000    0.000    0.000    0.000    0.000 
#
# Total GULP energy -198431.542477 kJ/mol
# GULP energy per Si atom -12401.971405 kJ/mol
# Density = 1.968526 g / cm^3
# Si number density = 19.730168 Si / 1000 Ang^3
#
#
#
# Elastic Constant Matrix: (Units=GPa)
#
#
# Indices 1 2 3 4 5 6 
#
# 1 111.3964 29.5626 59.5279 0.0000 -7.6918 0.0000
# 2 29.5626 57.1532 32.3377 0.0000 1.3640 0.0000
# 3 59.5279 32.3377 125.2398 0.0000 -10.4214 0.0000
# 4 0.0000 0.0000 0.0000 37.4035 0.0000 -5.0643
# 5 -7.6918 1.3640 -10.4214 0.0000 25.0322 0.0000
# 6 0.0000 0.0000 0.0000 -5.0643 0.0000 23.4644
#
#
#
# Elastic Compliance Matrix: (Units=1/GPa)
#
#
# Indices 1 2 3 4 5 6 
#
# 1 0.012766 -0.003887 -0.004890 0.000000 0.002099 0.000000
# 2 -0.003887 0.021963 -0.004167 0.000000 -0.004126 0.000000
# 3 -0.004890 -0.004167 0.011683 0.000000 0.003589 0.000000
# 4 0.000000 0.000000 0.000000 0.027540 0.000000 0.005944
# 5 0.002099 -0.004126 0.003589 0.000000 0.042312 0.000000
# 6 0.000000 0.000000 0.000000 0.005944 0.000000 0.043901
#
#
# Mechanical properties :
#
#
# Convention : Reuss Voigt Hill
#
# Bulk Modulus (GPa) = 48.71845 59.62730 54.17287
# Shear Modulus (GPa) = 25.92074 28.67075 27.29575
#
# Velocity S-wave (km/s) = 3.62852 3.81615 3.72351
# Velocity P-wave (km/s) = 6.50391 7.05013 6.78252
#
# Compressibility (1/GPa) = 0.02052611
#
# Stress axis : x y z
#
# Youngs Moduli (GPa) = 78.33103 45.53008 85.59170
#
# Poissons Ratio (x) = 0.17697 0.41852
# Poissons Ratio (y) = 0.30446 0.35666
# Poissons Ratio (z) = 0.38302 0.18972
#
# Static dielectric constant tensor:
#      x y z
#    x 3.678690 0.000000 0.025260 
#    y 0.000000 3.500310 0.000000 
#    z 0.025260 0.000000 3.612640 
# 
# 
# High freq. dielectric constant tensor:
#      x y z
#    x 1.768990 0.000000 -0.003050 
#    y 0.000000 1.761180 0.000000 
#    z -0.003050 0.000000 1.772050 
# 
# From -- ./inp_files/24830.got.cif
#   From: 2010.03.12/outbox.cif.g09.slc.cpg/sg8_13_cif.got.tgz:24830.got - 2010.03.31 10:45:26.
