data_PCOD8053059
_publ_section_title
;
Structure prediction by ZEFSAII (Michael W. Deem and Ramdas Pophale) SiO2 
 PCOD8053059
Probable space group: C M
;
_chemical_formula_sum "Si O2"
_cell_formula_units_Z 32
_cell_length_a 22.543592
_cell_length_b 8.389086
_cell_length_c 11.254581
_cell_angle_alpha 90.000000
_cell_angle_beta 49.048401
_cell_angle_gamma 90.000000
_cell_volume 1607.554119
_symmetry_space_group_name_H-M "C M"
_symmetry_group_IT_number 8
_symmetry_cell_setting 'monoclinic'
loop_
_space_group_symop_operation_xyz
x,y,z
x,-y,z
1/2+x,1/2+y,z
1/2+x,1/2-y,z
loop_
_atom_site_type_symbol
_atom_site_label
_atom_site_fract_x
_atom_site_fract_y
_atom_site_fract_z
Si Si1 0.790000 0.689398 0.170780
Si Si2 0.640318 0.813382 0.488957
Si Si3 0.682751 0.185228 0.916377
Si Si4 0.020037 0.309727 0.237636
Si Si5 0.868498 0.311720 0.304659
Si Si6 0.990253 0.310537 0.540728
Si Si7 0.330109 0.813226 0.858418
Si Si8 0.209007 0.814182 0.630472
O O1 0.775987 0.500000 0.189900
O O2 0.707913 0.774759 0.305323
O O3 0.854172 0.738938 0.186457
O O4 0.819455 0.755245 0.005427
O O5 0.558462 0.755933 0.540274
O O6 0.650992 0.715898 0.596401
O O7 0.639973 0.000000 0.518355
O O8 0.755564 0.278858 0.875183
O O9 0.678641 0.213212 0.781285
O O10 0.692938 0.000000 0.931346
O O11 0.602944 0.253232 0.079323
O O12 0.018808 0.500000 0.236547
O O13 0.007293 0.242481 0.386951
O O14 0.950115 0.239918 0.246158
O O15 0.871045 0.500000 0.310914
O O16 0.795922 0.251989 0.480946
O O17 0.986493 0.500000 0.537578
O O18 0.908012 0.238447 0.696385
O O19 0.342259 0.000000 0.852552
O O20 0.209274 0.000000 0.662948
#
# Coordination Sequence:
#
# PCOD8053059 Si02
#       8
#     4   4   4   4   4   4   4   4
#     4   9  18  32  52  79 107 137 174 215 263 314
#     4  10  19  33  55  80 107 138 175 219 262 307
#     4  11  22  34  52  79 107 135 172 220 272 317
#     4   9  17  30  50  76 104 133 170 217 262 304
#     4   8  15  30  53  76  98 131 174 214 251 301
#     4   9  18  32  52  78 104 137 181 220 255 303
#     4  10  20  35  55  76 103 141 183 221 257 307
#     4  10  20  36  57  78 104 138 175 214 260 317
#
# _framework density 19.906018
#
# number of rings (size 3 to 8) (size 9 to 14) (size 15 to 20)
#    0.000    2.500    0.000    3.375    0.000    4.500 
#    0.000    5.000    0.000   16.500    0.000    0.000 
#    0.000    0.000    0.000    0.000    0.000    0.000 
#
# Total GULP energy -198398.984003 kJ/mol
# GULP energy per Si atom -12399.936500 kJ/mol
# Density = 1.986071 g / cm^3
# Si number density = 19.906018 Si / 1000 Ang^3
#
#
#
# Elastic Constant Matrix: (Units=GPa)
#
#
# Indices 1 2 3 4 5 6 
#
# 1 153.6212 1.4786 89.3223 0.0000 -13.7192 0.0000
# 2 1.4786 15.3756 3.8211 0.0000 -1.0361 0.0000
# 3 89.3223 3.8211 166.6706 0.0000 4.6240 0.0000
# 4 0.0000 0.0000 0.0000 21.3552 0.0000 1.2688
# 5 -13.7192 -1.0361 4.6240 0.0000 37.3701 0.0000
# 6 0.0000 0.0000 0.0000 1.2688 0.0000 24.3097
#
#
#
# Elastic Compliance Matrix: (Units=1/GPa)
#
#
# Indices 1 2 3 4 5 6 
#
# 1 0.010139 0.000709 -0.005573 0.000000 0.004431 0.000000
# 2 0.000709 0.065611 -0.001948 0.000000 0.002320 0.000000
# 3 -0.005573 -0.001948 0.009121 0.000000 -0.003228 0.000000
# 4 0.000000 0.000000 0.000000 0.046973 0.000000 -0.002452
# 5 0.004431 0.002320 -0.003228 0.000000 0.028850 0.000000
# 6 0.000000 0.000000 0.000000 -0.002452 0.000000 0.041264
#
#
# Mechanical properties :
#
#
# Convention : Reuss Voigt Hill
#
# Bulk Modulus (GPa) = 14.03610 58.32348 36.17979
# Shear Modulus (GPa) = 20.89171 32.67669 26.78420
#
# Velocity S-wave (km/s) = 3.24314 4.05600 3.67213
# Velocity P-wave (km/s) = 4.59243 7.16225 6.01616
#
# Compressibility (1/GPa) = 0.07124486
#
# Stress axis : x y z
#
# Youngs Moduli (GPa) = 98.63243 15.24146 109.64167
#
# Poissons Ratio (x) = -0.01080 0.61100
# Poissons Ratio (y) = -0.06988 0.21361
# Poissons Ratio (z) = 0.54965 0.02969
#
# Static dielectric constant tensor:
#      x y z
#    x 3.834250 0.000000 -0.010590 
#    y 0.000000 3.160580 0.000000 
#    z -0.010590 0.000000 3.847040 
# 
# 
# High freq. dielectric constant tensor:
#      x y z
#    x 1.788780 0.000000 0.004850 
#    y 0.000000 1.735210 0.000000 
#    z 0.004850 0.000000 1.781310 
# 
# From -- ./inp_files/23867.got.cif
#   From: 2010.03.12/outbox.cif.g09.slc.cpg/sg8_12_cif.got.tgz:23867.got - 2010.03.31 10:45:26.
