data_PCOD8053813
_publ_section_title
;
Structure prediction by ZEFSAII (Michael W. Deem and Ramdas Pophale) SiO2 
 PCOD8053813
Probable space group: C M
;
_chemical_formula_sum "Si O2"
_cell_formula_units_Z 32
_cell_length_a 23.174571
_cell_length_b 8.431413
_cell_length_c 13.432986
_cell_angle_alpha 90.000000
_cell_angle_beta 145.759141
_cell_angle_gamma 90.000000
_cell_volume 1476.864802
_symmetry_space_group_name_H-M "C M"
_symmetry_group_IT_number 8
_symmetry_cell_setting 'monoclinic'
loop_
_space_group_symop_operation_xyz
x,y,z
x,-y,z
1/2+x,1/2+y,z
1/2+x,1/2-y,z
loop_
_atom_site_type_symbol
_atom_site_label
_atom_site_fract_x
_atom_site_fract_y
_atom_site_fract_z
Si Si1 0.348090 0.815920 0.903220
Si Si2 0.362734 0.683159 0.483730
Si Si3 0.182796 0.680552 0.371023
Si Si4 0.428665 0.317519 0.218500
Si Si5 0.511288 0.681300 0.994900
Si Si6 0.146702 0.685414 0.545886
Si Si7 0.060737 0.316581 0.857136
Si Si8 0.279799 0.183166 0.165296
O O1 0.405123 0.720744 0.897514
O O2 0.231508 0.753428 0.742683
O O3 0.351434 0.000000 0.882035
O O4 0.402803 0.789912 0.086675
O O5 0.376254 0.500000 0.473693
O O6 0.297080 0.702209 0.491190
O O7 0.472833 0.762279 0.655847
O O8 0.302365 0.773235 0.311248
O O9 0.144100 0.500000 0.300630
O O10 0.184794 0.726266 0.489214
O O11 0.104328 0.795924 0.204055
O O12 0.425762 0.500000 0.181481
O O13 0.540493 0.272051 0.418661
O O14 0.348290 0.290258 0.191512
O O15 0.508597 0.500000 0.954383
O O16 0.525516 0.792197 0.920074
O O17 0.132318 0.500000 0.543811
O O18 0.085972 0.500000 0.876250
O O19 0.160848 0.215065 0.973952
O O20 0.304530 0.000000 0.180580
#
# Coordination Sequence:
#
# PCOD8053813 Si02
#       8
#     4   4   4   4   4   4   4   4
#     4  12  25  43  67  98 135 174 217 268 326 387
#     4  11  23  42  68 100 135 172 215 266 324 387
#     4  10  21  38  65  96 134 172 211 260 323 388
#     4  12  26  46  69  96 129 171 221 272 327 386
#     4  12  23  38  65  98 134 174 217 264 323 390
#     4  11  23  42  68 100 135 172 215 266 324 387
#     4  12  25  43  67  98 135 174 217 268 326 387
#     4  12  26  46  69  96 129 171 221 272 327 386
#
# _framework density 21.66752
#
# number of rings (size 3 to 8) (size 9 to 14) (size 15 to 20)
#    0.000    0.500    2.500    7.125    0.000    3.000 
#    0.000    5.000    0.000    0.000    0.000    0.000 
#    0.000    0.000    0.000    0.000    0.000    0.000 
#
# Total GULP energy -198561.276524 kJ/mol
# GULP energy per Si atom -12410.079783 kJ/mol
# Density = 2.161820 g / cm^3
# Si number density = 21.667520 Si / 1000 Ang^3
#
#
#
# Elastic Constant Matrix: (Units=GPa)
#
#
# Indices 1 2 3 4 5 6 
#
# 1 73.3008 8.6232 12.6194 0.0000 22.7233 0.0000
# 2 8.6232 111.9691 28.3524 0.0000 1.4850 0.0000
# 3 12.6194 28.3524 112.0309 0.0000 24.2095 0.0000
# 4 0.0000 0.0000 0.0000 33.5604 0.0000 -2.3203
# 5 22.7233 1.4850 24.2095 0.0000 24.1897 0.0000
# 6 0.0000 0.0000 0.0000 -2.3203 0.0000 30.7196
#
#
#
# Elastic Compliance Matrix: (Units=1/GPa)
#
#
# Indices 1 2 3 4 5 6 
#
# 1 0.020097 -0.002002 0.002929 0.000000 -0.021687 0.000000
# 2 -0.002002 0.009847 -0.003244 0.000000 0.004522 0.000000
# 3 0.002929 -0.003244 0.012720 0.000000 -0.015283 0.000000
# 4 0.000000 0.000000 0.000000 0.029953 0.000000 0.002262
# 5 -0.021687 0.004522 -0.015283 0.000000 0.076731 0.000000
# 6 0.000000 0.000000 0.000000 0.002262 0.000000 0.032723
#
#
# Mechanical properties :
#
#
# Convention : Reuss Voigt Hill
#
# Bulk Modulus (GPa) = 26.29460 44.05455 35.17457
# Shear Modulus (GPa) = 25.07782 34.20767 29.64274
#
# Velocity S-wave (km/s) = 3.40574 3.97766 3.70276
# Velocity P-wave (km/s) = 5.25616 6.43987 5.87789
#
# Compressibility (1/GPa) = 0.03803062
#
# Stress axis : x y z
#
# Youngs Moduli (GPa) = 49.75940 101.55790 78.61878
#
# Poissons Ratio (x) = 0.20331 -0.23031
# Poissons Ratio (y) = 0.09961 0.25502
# Poissons Ratio (z) = -0.14577 0.32943
#
# Static dielectric constant tensor:
#      x y z
#    x 3.801360 0.000000 0.092180 
#    y 0.000000 3.898180 0.000000 
#    z 0.092180 0.000000 3.984850 
# 
# 
# High freq. dielectric constant tensor:
#      x y z
#    x 1.843830 0.000000 0.009040 
#    y 0.000000 1.859940 0.000000 
#    z 0.009040 0.000000 1.862970 
# 
# From -- ./inp_files/28209.got.cif
#   From: 2010.03.12/outbox.cif.g09.slc.cpg/sg8_15_cif.got.tgz:28209.got - 2010.03.31 10:45:26.
