data_PCOD8053311
_publ_section_title
;
Structure prediction by ZEFSAII (Michael W. Deem and Ramdas Pophale) SiO2 
 PCOD8053311
Probable space group: C M
;
_chemical_formula_sum "Si O2"
_cell_formula_units_Z 32
_cell_length_a 11.935780
_cell_length_b 14.227985
_cell_length_c 14.973766
_cell_angle_alpha 90.000000
_cell_angle_beta 41.749390
_cell_angle_gamma 90.000000
_cell_volume 1693.234555
_symmetry_space_group_name_H-M "C M"
_symmetry_group_IT_number 8
_symmetry_cell_setting 'monoclinic'
loop_
_space_group_symop_operation_xyz
x,y,z
x,-y,z
1/2+x,1/2+y,z
1/2+x,1/2-y,z
loop_
_atom_site_type_symbol
_atom_site_label
_atom_site_fract_x
_atom_site_fract_y
_atom_site_fract_z
Si Si1 0.952990 0.766211 0.309630
Si Si2 0.957093 0.107363 0.464360
Si Si3 0.186752 0.610450 0.982770
Si Si4 0.246087 0.393335 0.749986
Si Si5 0.379608 0.104655 0.951332
Si Si6 0.811180 0.789312 0.078240
Si Si7 0.528156 0.608313 0.094077
Si Si8 0.334368 0.894959 0.278162
O O1 0.878325 0.825610 0.435851
O O2 0.824414 0.682011 0.363139
O O3 0.126497 0.712175 0.232386
O O4 0.973071 0.837538 0.215348
O O5 0.892645 0.147730 0.598708
O O6 0.157774 0.111323 0.332031
O O7 0.892766 0.000000 0.490345
O O8 0.221842 0.500000 0.968964
O O9 0.304461 0.663383 0.984017
O O10 0.989739 0.632090 0.120746
O O11 0.231394 0.652644 0.857805
O O12 0.293164 0.500000 0.741650
O O13 0.069036 0.384602 0.800405
O O14 0.362638 0.000000 0.005767
O O15 0.364248 0.180672 0.038938
O O16 0.232654 0.116872 0.964276
O O17 0.944196 0.846178 0.057631
O O18 0.471320 0.500000 0.135008
O O19 0.358866 0.000000 0.303323
#
# Coordination Sequence:
#
# PCOD8053311 Si02
#       8
#     4   4   4   4   4   4   4   4
#     4  10  20  33  52  80 109 140 176 217 264 314
#     4  10  20  36  56  78 104 140 180 220 262 314
#     4   9  18  33  56  84 109 136 172 223 270 312
#     4   9  19  35  55  79 108 137 177 225 269 309
#     4   9  20  34  51  75 107 139 174 219 266 309
#     4  10  20  32  55  79 111 139 178 215 267 320
#     4  10  20  33  51  80 112 141 173 218 266 317
#     4   9  19  34  55  79 106 138 177 219 263 313
#
# _framework density 18.898741000000001
#
# number of rings (size 3 to 8) (size 9 to 14) (size 15 to 20)
#    0.000    2.500    0.000    1.500    8.750    1.000 
#    2.250    0.000    0.000    0.000    0.000    0.875 
#    0.000    0.000    0.000    0.000    0.000    0.000 
#
# Total GULP energy -198226.856592 kJ/mol
# GULP energy per Si atom -12389.178537 kJ/mol
# Density = 1.885573 g / cm^3
# Si number density = 18.898741 Si / 1000 Ang^3
#
#
#
# Elastic Constant Matrix: (Units=GPa)
#
#
# Indices 1 2 3 4 5 6 
#
# 1 109.0773 48.4546 47.1213 -0.0001 14.1539 0.0001
# 2 48.4546 103.4556 27.6977 -0.0001 10.1629 0.0001
# 3 47.1213 27.6977 83.4688 0.0002 21.0638 0.0000
# 4 -0.0001 -0.0001 0.0002 17.9957 0.0000 4.7141
# 5 14.1539 10.1629 21.0638 0.0000 23.3934 0.0000
# 6 0.0001 0.0001 0.0000 4.7141 0.0000 35.0743
#
#
#
# Elastic Compliance Matrix: (Units=1/GPa)
#
#
# Indices 1 2 3 4 5 6 
#
# 1 0.014089 -0.004875 -0.006107 0.000000 -0.000908 0.000000
# 2 -0.004875 0.012358 -0.000955 0.000000 -0.001559 0.000000
# 3 -0.006107 -0.000955 0.019033 0.000000 -0.013027 0.000000
# 4 0.000000 0.000000 0.000000 0.057597 0.000000 -0.007741
# 5 -0.000908 -0.001559 -0.013027 0.000000 0.055704 0.000000
# 6 0.000000 0.000000 0.000000 -0.007741 0.000000 0.029551
#
#
# Mechanical properties :
#
#
# Convention : Reuss Voigt Hill
#
# Bulk Modulus (GPa) = 46.28456 60.28320 53.28388
# Shear Modulus (GPa) = 22.78853 26.80788 24.79820
#
# Velocity S-wave (km/s) = 3.47626 3.77039 3.62631
# Velocity P-wave (km/s) = 6.37625 7.13594 6.76676
#
# Compressibility (1/GPa) = 0.02160547
#
# Stress axis : x y z
#
# Youngs Moduli (GPa) = 70.97531 80.91906 52.54063
#
# Poissons Ratio (x) = 0.39445 0.32088
# Poissons Ratio (y) = 0.34598 0.05020
# Poissons Ratio (z) = 0.43347 0.07731
#
# Static dielectric constant tensor:
#      x y z
#    x 3.478790 0.000000 -0.092830 
#    y 0.000000 3.708510 0.000000 
#    z -0.092830 0.000000 3.325700 
# 
# 
# High freq. dielectric constant tensor:
#      x y z
#    x 1.727230 0.000000 -0.008310 
#    y 0.000000 1.742340 0.000000 
#    z -0.008310 0.000000 1.696240 
# 
# From -- ./inp_files/10768.got.cif
#   From: 2010.03.12/outbox.cif.g09.slc.cpg/sg8_6_cif.got.tgz:10768.got - 2010.03.31 10:45:26.
