data_PCOD8053095
_publ_section_title
;
Structure prediction by ZEFSAII (Michael W. Deem and Ramdas Pophale) SiO2 
 PCOD8053095
Probable space group: C M
;
_chemical_formula_sum "Si O2"
_cell_formula_units_Z 32
_cell_length_a 11.863315
_cell_length_b 17.420604
_cell_length_c 16.148609
_cell_angle_alpha 90.000000
_cell_angle_beta 152.066643
_cell_angle_gamma 90.000000
_cell_volume 1563.371916
_symmetry_space_group_name_H-M "C M"
_symmetry_group_IT_number 8
_symmetry_cell_setting 'monoclinic'
loop_
_space_group_symop_operation_xyz
x,y,z
x,-y,z
1/2+x,1/2+y,z
1/2+x,1/2-y,z
loop_
_atom_site_type_symbol
_atom_site_label
_atom_site_fract_x
_atom_site_fract_y
_atom_site_fract_z
Si Si1 0.525340 0.169135 0.761830
Si Si2 0.137535 0.690919 0.012083
Si Si3 0.651482 0.665895 0.389453
Si Si4 0.480539 0.090936 0.470527
Si Si5 0.334965 0.416012 0.843732
Si Si6 0.179917 0.833119 0.825188
Si Si7 0.797913 0.363483 0.076634
Si Si8 0.198157 0.655520 0.447806
O O1 0.289735 0.133127 0.561725
O O2 0.765771 0.141634 0.871581
O O3 0.525683 0.261275 0.758986
O O4 0.546298 0.144555 0.871373
O O5 0.364483 0.648513 0.203830
O O6 0.229850 0.774908 0.048509
O O7 0.909102 0.693856 0.922876
O O8 0.752541 0.627262 0.370774
O O9 0.709170 0.755610 0.429496
O O10 0.713217 0.106939 0.677929
O O11 0.529026 0.137648 0.417599
O O12 0.439261 0.000000 0.427145
O O13 0.249590 0.500000 0.816419
O O14 0.619365 0.415695 0.014262
O O15 0.971504 0.877746 0.636986
O O16 0.275858 0.883092 0.964812
O O17 0.066241 0.383653 0.283128
#
# Coordination Sequence:
#
# PCOD8053095 Si02
#       8
#     4   4   4   4   4   4   4   4
#     4   9  19  33  52  79 111 148 188 235 291 335
#     4  10  20  33  55  81 115 151 189 238 284 349
#     4   9  21  34  54  86 115 151 198 246 289 341
#     4  10  21  39  61  87 122 154 193 248 302 348
#     4  10  19  35  58  82 114 147 189 241 291 346
#     4  10  19  34  53  79 116 147 185 242 290 338
#     4  10  20  33  52  83 112 148 194 234 287 337
#     4  10  21  33  57  85 114 156 198 242 289 348
#
# _framework density 20.468578000000001
#
# number of rings (size 3 to 8) (size 9 to 14) (size 15 to 20)
#    0.000    2.250    2.500    0.000    1.750    4.500 
#    0.000    0.000    0.000    3.000    0.000    7.875 
#    0.000    0.000    0.000    0.000    0.000    0.000 
#
# Total GULP energy -198222.627805 kJ/mol
# GULP energy per Si atom -12388.914238 kJ/mol
# Density = 2.042199 g / cm^3
# Si number density = 20.468578 Si / 1000 Ang^3
#
#
#
# Elastic Constant Matrix: (Units=GPa)
#
#
# Indices 1 2 3 4 5 6 
#
# 1 68.3922 14.5122 54.1892 -0.0248 1.3467 -0.0012
# 2 14.5122 45.7471 -0.2322 -0.0492 -2.1474 -0.0151
# 3 54.1892 -0.2322 180.2577 -0.2037 6.4024 -0.0911
# 4 -0.0248 -0.0492 -0.2037 6.2039 -0.0202 2.1621
# 5 1.3467 -2.1474 6.4024 -0.0202 28.5772 0.0258
# 6 -0.0012 -0.0151 -0.0911 2.1621 0.0258 14.3139
#
#
#
# Elastic Compliance Matrix: (Units=1/GPa)
#
#
# Indices 1 2 3 4 5 6 
#
# 1 0.021074 -0.006721 -0.006341 -0.000171 -0.000078 -0.000020
# 2 -0.006721 0.024081 0.001992 0.000235 0.001680 -0.000001
# 3 -0.006341 0.001992 0.007501 0.000227 -0.001232 0.000017
# 4 -0.000171 0.000235 0.000227 0.170154 0.000118 -0.025701
# 5 -0.000078 0.001680 -0.001232 0.000118 0.035399 -0.000088
# 6 -0.000020 -0.000001 0.000017 -0.025701 -0.000088 0.073744
#
#
# Mechanical properties :
#
#
# Convention : Reuss Voigt Hill
#
# Bulk Modulus (GPa) = 32.77161 47.92615 40.34888
# Shear Modulus (GPa) = 13.72631 24.88086 19.30358
#
# Velocity S-wave (km/s) = 2.59241 3.49028 3.07430
# Velocity P-wave (km/s) = 5.00062 6.30143 5.68833
#
# Compressibility (1/GPa) = 0.03051421
#
# Stress axis : x y z
#
# Youngs Moduli (GPa) = 47.45291 41.52715 133.32437
#
# Poissons Ratio (x) = 0.27911 0.84544
# Poissons Ratio (y) = 0.31894 -0.26560
# Poissons Ratio (z) = 0.30091 -0.08273
#
# Static dielectric constant tensor:
#      x y z
#    x 3.458390 -0.000050 -0.145090 
#    y -0.000050 3.265220 -0.000050 
#    z -0.145090 -0.000050 4.481570 
# 
# 
# High freq. dielectric constant tensor:
#      x y z
#    x 1.777400 0.000000 -0.006830 
#    y 0.000000 1.749610 0.000000 
#    z -0.006830 0.000000 1.826170 
# 
# From -- ./inp_files/20777.got.cif
#   From: 2010.03.12/outbox.cif.g09.slc.cpg/sg8_11_cif.got.tgz:20777.got - 2010.03.31 10:45:26.
