data_PCOD8053019
_publ_section_title
;
Structure prediction by ZEFSAII (Michael W. Deem and Ramdas Pophale) SiO2 
 PCOD8053019
Probable space group: C M
;
_chemical_formula_sum "Si O2"
_cell_formula_units_Z 32
_cell_length_a 19.896165
_cell_length_b 8.856743
_cell_length_c 24.642364
_cell_angle_alpha 90.000000
_cell_angle_beta 156.570653
_cell_angle_gamma 90.000000
_cell_volume 1726.599965
_symmetry_space_group_name_H-M "C M"
_symmetry_group_IT_number 8
_symmetry_cell_setting 'monoclinic'
loop_
_space_group_symop_operation_xyz
x,y,z
x,-y,z
1/2+x,1/2+y,z
1/2+x,1/2-y,z
loop_
_atom_site_type_symbol
_atom_site_label
_atom_site_fract_x
_atom_site_fract_y
_atom_site_fract_z
Si Si1 0.385520 0.675119 0.260060
Si Si2 0.310786 0.177634 0.978123
Si Si3 0.457675 0.176917 0.695738
Si Si4 0.649499 0.175131 0.178979
Si Si5 0.667857 0.178362 0.542467
Si Si6 0.443910 0.173097 0.194832
Si Si7 0.462257 0.676436 0.477841
Si Si8 0.332810 0.326900 0.496793
O O1 0.435304 0.500000 0.300076
O O2 0.208841 0.704722 0.161002
O O3 0.537664 0.767415 0.399877
O O4 0.359727 0.725511 0.179212
O O5 0.149523 0.269980 0.840065
O O6 0.277995 0.000000 0.945178
O O7 0.464046 0.241479 0.053900
O O8 0.353722 0.215459 0.072100
O O9 0.353177 0.259833 0.665584
O O10 0.380969 0.215096 0.580303
O O11 0.446039 0.000000 0.696736
O O12 0.791212 0.243308 0.324173
O O13 0.635532 0.000000 0.183160
O O14 0.619303 0.237704 0.566484
O O15 0.672625 0.000000 0.546121
O O16 0.642823 0.205824 0.336484
O O17 0.411723 0.000000 0.186379
O O18 0.480125 0.500000 0.477138
O O19 0.458169 0.705025 0.539142
O O20 0.351676 0.500000 0.530597
#
# Coordination Sequence:
#
# PCOD8053019 Si02
#       8
#     4   4   4   4   4   4   4   4
#     4  10  19  32  55  85 115 146 183 234 281 329
#     4  10  20  38  60  81 109 151 192 231 280 341
#     4  12  25  39  55  81 116 154 193 237 282 336
#     4   8  15  31  55  81 108 141 182 221 271 333
#     4  11  21  35  55  81 113 150 190 234 285 337
#     4  10  19  33  58  87 113 144 188 233 277 335
#     4   9  17  33  58  87 114 142 180 231 284 338
#     4  10  19  35  60  87 114 146 186 231 282 341
#
# _framework density 18.533535000000001
#
# number of rings (size 3 to 8) (size 9 to 14) (size 15 to 20)
#    0.000    2.000    2.500    3.375    0.000    1.000 
#    0.000    4.375    0.000    4.500    0.000    0.000 
#    0.000    0.000    0.000    0.000    0.000    0.000 
#
# Total GULP energy -198400.107921 kJ/mol
# GULP energy per Si atom -12400.006745 kJ/mol
# Density = 1.849135 g / cm^3
# Si number density = 18.533535 Si / 1000 Ang^3
#
#
#
# Elastic Constant Matrix: (Units=GPa)
#
#
# Indices 1 2 3 4 5 6 
#
# 1 106.9608 43.3624 22.0675 -0.0141 23.0678 0.0015
# 2 43.3624 94.1674 27.4896 -0.0102 11.5077 0.0003
# 3 22.0675 27.4896 62.4490 -0.0193 17.6611 0.0026
# 4 -0.0141 -0.0102 -0.0193 20.4473 0.0003 -1.6570
# 5 23.0678 11.5077 17.6611 0.0003 29.9900 0.0004
# 6 0.0015 0.0003 0.0026 -1.6570 0.0004 31.6534
#
#
#
# Elastic Compliance Matrix: (Units=1/GPa)
#
#
# Indices 1 2 3 4 5 6 
#
# 1 0.013168 -0.005030 -0.000144 0.000007 -0.008113 0.000000
# 2 -0.005030 0.014190 -0.004827 -0.000001 0.001267 0.000000
# 3 -0.000144 -0.004827 0.021157 0.000018 -0.010496 -0.000001
# 4 0.000007 -0.000001 0.000018 0.049115 -0.000015 0.002571
# 5 -0.008113 0.001267 -0.010496 -0.000015 0.045280 0.000000
# 6 0.000000 0.000000 -0.000001 0.002571 0.000000 0.031727
#
#
# Mechanical properties :
#
#
# Convention : Reuss Voigt Hill
#
# Bulk Modulus (GPa) = 35.07259 49.93512 42.50386
# Shear Modulus (GPa) = 24.49249 27.79532 26.14390
#
# Velocity S-wave (km/s) = 3.63922 3.87684 3.75991
# Velocity P-wave (km/s) = 6.05173 6.85868 6.46780
#
# Compressibility (1/GPa) = 0.02851230
#
# Stress axis : x y z
#
# Youngs Moduli (GPa) = 75.94169 70.47242 47.26479
#
# Poissons Ratio (x) = 0.35447 0.00683
# Poissons Ratio (y) = 0.38198 0.22815
# Poissons Ratio (z) = 0.01097 0.34018
#
# Static dielectric constant tensor:
#      x y z
#    x 3.624650 0.000000 0.231580 
#    y 0.000000 3.240240 0.000000 
#    z 0.231580 0.000000 3.214010 
# 
# 
# High freq. dielectric constant tensor:
#      x y z
#    x 1.733690 0.000000 0.015830 
#    y 0.000000 1.703670 0.000000 
#    z 0.015830 0.000000 1.691600 
# 
# From -- ./inp_files/24298.got.cif
#   From: 2010.03.12/outbox.cif.g09.slc.cpg/sg8_13_cif.got.tgz:24298.got - 2010.03.31 10:45:26.
