data_PCOD8053761
_publ_section_title
;
Structure prediction by ZEFSAII (Michael W. Deem and Ramdas Pophale) SiO2 
 PCOD8053761
Probable space group: C M
;
_chemical_formula_sum "Si O2"
_cell_formula_units_Z 32
_cell_length_a 12.978876
_cell_length_b 19.929336
_cell_length_c 9.292406
_cell_angle_alpha 90.000000
_cell_angle_beta 44.277837
_cell_angle_gamma 90.000000
_cell_volume 1678.029570
_symmetry_space_group_name_H-M "C M"
_symmetry_group_IT_number 8
_symmetry_cell_setting 'monoclinic'
loop_
_space_group_symop_operation_xyz
x,y,z
x,-y,z
1/2+x,1/2+y,z
1/2+x,1/2-y,z
loop_
_atom_site_type_symbol
_atom_site_label
_atom_site_fract_x
_atom_site_fract_y
_atom_site_fract_z
Si Si1 0.240640 0.696841 0.485030
Si Si2 0.741782 0.924067 0.684547
Si Si3 0.585269 0.313749 0.809675
Si Si4 0.081467 0.075933 0.344862
Si Si5 0.240068 0.077899 0.475653
Si Si6 0.083181 0.422101 0.132539
Si Si7 0.082609 0.803159 0.143062
Si Si8 0.237981 0.313749 0.156963
O O1 0.208322 0.623460 0.582829
O O2 0.141223 0.750829 0.663826
O O3 0.411624 0.716859 0.332521
O O4 0.193110 0.695880 0.367114
O O5 0.911624 0.919235 0.562732
O O6 0.700214 0.000000 0.680333
O O7 0.644776 0.899613 0.916001
O O8 0.659912 0.381974 0.681622
O O9 0.630139 0.304121 0.930086
O O10 0.411625 0.320726 0.963541
O O11 0.178473 0.100387 0.382305
O O12 0.114927 0.123460 0.176225
O O13 0.123035 0.000000 0.257512
O O14 0.411625 0.095359 0.306296
O O15 0.207939 0.000000 0.535516
O O16 0.115311 0.500000 0.128143
O O17 0.163338 0.381974 0.178196
O O18 0.182026 0.749171 0.123021
#
# Coordination Sequence:
#
# PCOD8053761 Si02
#       8
#     4   4   4   4   4   4   4   4
#     4  10  22  38  56  81 112 144 181 226 272 320
#     4   9  18  35  59  84 111 145 182 220 266 320
#     4  11  23  37  56  81 109 144 184 226 271 321
#     4   9  18  35  59  84 111 145 182 220 266 320
#     4  10  21  37  57  82 112 144 179 222 271 323
#     4  10  21  37  57  82 112 144 179 222 271 323
#     4  10  22  38  56  81 112 144 181 226 272 320
#     4  11  23  37  56  81 109 144 184 226 271 321
#
# _framework density 19.069986
#
# number of rings (size 3 to 8) (size 9 to 14) (size 15 to 20)
#    0.000    2.000    0.000    3.000    0.000    9.500 
#    0.000    2.500    0.000    3.000    0.000    0.000 
#    0.000    0.000    0.000    0.000    0.000    0.000 
#
# Total GULP energy -198481.864562 kJ/mol
# GULP energy per Si atom -12405.116535 kJ/mol
# Density = 1.902658 g / cm^3
# Si number density = 19.069986 Si / 1000 Ang^3
#
#
#
# Elastic Constant Matrix: (Units=GPa)
#
#
# Indices 1 2 3 4 5 6 
#
# 1 131.0416 65.9695 71.9598 0.0000 17.2583 0.0000
# 2 65.9695 103.4044 66.7293 0.0000 12.0254 0.0000
# 3 71.9598 66.7293 133.2051 0.0000 16.9709 0.0000
# 4 0.0000 0.0000 0.0000 36.0252 0.0000 2.5998
# 5 17.2583 12.0254 16.9709 0.0000 25.5419 0.0000
# 6 0.0000 0.0000 0.0000 2.5998 0.0000 35.8608
#
#
#
# Elastic Compliance Matrix: (Units=1/GPa)
#
#
# Indices 1 2 3 4 5 6 
#
# 1 0.012902 -0.005333 -0.003832 0.000000 -0.003661 0.000000
# 2 -0.005333 0.016604 -0.005353 0.000000 -0.000657 0.000000
# 3 -0.003832 -0.005353 0.012682 0.000000 -0.003316 0.000000
# 4 0.000000 0.000000 0.000000 0.027904 0.000000 -0.002023
# 5 -0.003661 -0.000657 -0.003316 0.000000 0.044138 0.000000
# 6 0.000000 0.000000 0.000000 -0.002023 0.000000 0.028032
#
#
# Mechanical properties :
#
#
# Convention : Reuss Voigt Hill
#
# Bulk Modulus (GPa) = 76.03572 86.32981 81.18276
# Shear Modulus (GPa) = 28.46048 30.35177 29.40612
#
# Velocity S-wave (km/s) = 3.86738 3.99381 3.93110
# Velocity P-wave (km/s) = 7.73955 8.16307 7.95413
#
# Compressibility (1/GPa) = 0.01315171
#
# Stress axis : x y z
#
# Youngs Moduli (GPa) = 77.50569 60.22720 78.85365
#
# Poissons Ratio (x) = 0.32116 0.30219
# Poissons Ratio (y) = 0.41330 0.42212
# Poissons Ratio (z) = 0.29702 0.32241
#
# Static dielectric constant tensor:
#      x y z
#    x 3.522860 0.000000 -0.017280 
#    y 0.000000 3.622360 0.000000 
#    z -0.017280 0.000000 3.521770 
# 
# 
# High freq. dielectric constant tensor:
#      x y z
#    x 1.743210 0.000000 -0.002310 
#    y 0.000000 1.753840 0.000000 
#    z -0.002310 0.000000 1.743070 
# 
# From -- ./inp_files/11432.got.cif
#   From: 2010.03.12/outbox.cif.g09.slc.cpg/sg8_6_cif.got.tgz:11432.got - 2010.03.31 10:45:26.
