data_PCOD8053754
_publ_section_title
;
Structure prediction by ZEFSAII (Michael W. Deem and Ramdas Pophale) SiO2 
 PCOD8053754
Probable space group: C M
;
_chemical_formula_sum "Si O2"
_cell_formula_units_Z 32
_cell_length_a 17.678898
_cell_length_b 15.256220
_cell_length_c 12.350677
_cell_angle_alpha 90.000000
_cell_angle_beta 29.277053
_cell_angle_gamma 90.000000
_cell_volume 1629.037924
_symmetry_space_group_name_H-M "C M"
_symmetry_group_IT_number 8
_symmetry_cell_setting 'monoclinic'
loop_
_space_group_symop_operation_xyz
x,y,z
x,-y,z
1/2+x,1/2+y,z
1/2+x,1/2-y,z
loop_
_atom_site_type_symbol
_atom_site_label
_atom_site_fract_x
_atom_site_fract_y
_atom_site_fract_z
Si Si1 0.082560 0.103812 0.679690
Si Si2 0.334620 0.165065 0.683731
Si Si3 0.423528 0.898846 0.344330
Si Si4 0.910870 0.213813 0.070546
Si Si5 0.629509 0.169412 0.900784
Si Si6 0.070191 0.780757 0.483196
Si Si7 0.019022 0.901682 0.128223
Si Si8 0.936560 0.902322 0.469020
O O1 0.255736 0.119433 0.503648
O O2 0.052732 0.155276 0.606381
O O3 0.046377 0.000000 0.711256
O O4 0.967516 0.146915 0.908848
O O5 0.430766 0.128496 0.460944
O O6 0.237246 0.246754 0.766499
O O7 0.451539 0.197539 0.632670
O O8 0.207141 0.095747 0.884193
O O9 0.466619 0.000000 0.280583
O O10 0.550342 0.846936 0.115866
O O11 0.736368 0.237863 0.264359
O O12 0.930624 0.164486 0.159801
O O13 0.002970 0.307340 0.965356
O O14 0.749534 0.092674 0.720527
O O15 0.032027 0.838213 0.426338
O O16 0.970472 0.868499 0.306521
O O17 0.959910 0.000000 0.178826
O O18 0.001889 0.000000 0.404375
#
# Coordination Sequence:
#
# PCOD8053754 Si02
#       8
#     4   4   4   4   4   4   4   4
#     4  11  23  41  63  90 126 165 206 254 315 374
#     4  10  23  37  63  89 124 159 208 248 307 366
#     4  11  21  39  66  93 121 161 214 261 299 360
#     4  11  23  37  64  92 123 158 207 256 311 363
#     4  10  21  36  63  90 119 156 210 255 297 359
#     4  11  25  38  60  92 129 161 196 254 317 371
#     4  10  21  41  66  86 119 162 207 251 300 371
#     4  10  23  41  61  88 125 162 202 249 310 376
#
# _framework density 19.643495999999999
#
# number of rings (size 3 to 8) (size 9 to 14) (size 15 to 20)
#    0.000    1.500    3.750    1.500   10.500    1.000 
#    0.000    5.000    0.000    3.000    0.000    0.000 
#    0.000    0.000    0.000    0.000    0.000    0.000 
#
# Total GULP energy -198305.438056 kJ/mol
# GULP energy per Si atom -12394.089878 kJ/mol
# Density = 1.959879 g / cm^3
# Si number density = 19.643496 Si / 1000 Ang^3
#
#
#
# Elastic Constant Matrix: (Units=GPa)
#
#
# Indices 1 2 3 4 5 6 
#
# 1 104.2306 49.0760 50.5228 0.0006 1.5888 0.0002
# 2 49.0760 71.7650 31.3648 0.0003 4.1103 0.0000
# 3 50.5228 31.3648 122.7406 0.0007 11.6114 0.0000
# 4 0.0006 0.0003 0.0007 26.5919 -0.0004 6.8118
# 5 1.5888 4.1103 11.6114 -0.0004 38.6323 0.0000
# 6 0.0002 0.0000 0.0000 6.8118 0.0000 8.2610
#
#
#
# Elastic Compliance Matrix: (Units=1/GPa)
#
#
# Indices 1 2 3 4 5 6 
#
# 1 0.015994 -0.009103 -0.004412 0.000000 0.001637 0.000000
# 2 -0.009103 0.020875 -0.001454 0.000000 -0.001410 0.000000
# 3 -0.004412 -0.001454 0.010605 0.000000 -0.002851 0.000000
# 4 0.000000 0.000000 0.000000 0.047676 0.000001 -0.039312
# 5 0.001637 -0.001410 -0.002851 0.000001 0.026825 0.000000
# 6 0.000000 0.000000 0.000000 -0.039312 0.000000 0.153467
#
#
# Mechanical properties :
#
#
# Convention : Reuss Voigt Hill
#
# Bulk Modulus (GPa) = 57.02608 62.29593 59.66100
# Shear Modulus (GPa) = 16.06556 25.88187 20.97372
#
# Velocity S-wave (km/s) = 2.86292 3.63379 3.27114
# Velocity P-wave (km/s) = 6.32629 7.02766 6.68618
#
# Compressibility (1/GPa) = 0.01753584
#
# Stress axis : x y z
#
# Youngs Moduli (GPa) = 62.52453 47.90311 94.29729
#
# Poissons Ratio (x) = 0.43604 0.41606
# Poissons Ratio (y) = 0.56914 0.13713
# Poissons Ratio (z) = 0.27587 0.06966
#
# Static dielectric constant tensor:
#      x y z
#    x 3.823530 0.000000 -0.254950 
#    y 0.000000 4.039370 -0.000010 
#    z -0.254950 -0.000010 4.023100 
# 
# 
# High freq. dielectric constant tensor:
#      x y z
#    x 1.751990 0.000000 0.003150 
#    y 0.000000 1.775050 0.000000 
#    z 0.003150 0.000000 1.772250 
# 
# From -- ./inp_files/23300.got.cif
#   From: 2010.03.12/outbox.cif.g09.slc.cpg/sg8_12_cif.got.tgz:23300.got - 2010.03.31 10:45:26.
