data_PCOD8053029
_publ_section_title
;
Structure prediction by ZEFSAII (Michael W. Deem and Ramdas Pophale) SiO2 
 PCOD8053029
Probable space group: C M
;
_chemical_formula_sum "Si O2"
_cell_formula_units_Z 32
_cell_length_a 14.264160
_cell_length_b 8.642253
_cell_length_c 25.704896
_cell_angle_alpha 90.000000
_cell_angle_beta 33.616790
_cell_angle_gamma 90.000000
_cell_volume 1754.337074
_symmetry_space_group_name_H-M "C M"
_symmetry_group_IT_number 8
_symmetry_cell_setting 'monoclinic'
loop_
_space_group_symop_operation_xyz
x,y,z
x,-y,z
1/2+x,1/2+y,z
1/2+x,1/2-y,z
loop_
_atom_site_type_symbol
_atom_site_label
_atom_site_fract_x
_atom_site_fract_y
_atom_site_fract_z
Si Si1 0.150920 0.182541 0.526940
Si Si2 0.194958 0.682031 0.028637
Si Si3 0.586702 0.682710 0.671357
Si Si4 0.402320 0.316107 0.030782
Si Si5 0.943342 0.183213 0.526037
Si Si6 0.019907 0.682182 0.382459
Si Si7 0.820890 0.317617 0.177890
Si Si8 0.256436 0.683800 0.885323
O O1 0.066782 0.234502 0.620472
O O2 0.346061 0.239078 0.435444
O O3 0.047205 0.254668 0.526865
O O4 0.144778 0.000000 0.524833
O O5 0.209790 0.500000 0.024171
O O6 0.299453 0.750676 0.028639
O O7 0.998191 0.731437 0.122666
O O8 0.273351 0.738510 0.937492
O O9 0.610534 0.500000 0.664857
O O10 0.751398 0.759953 0.620223
O O11 0.422791 0.740143 0.778295
O O12 0.386262 0.500000 0.044210
O O13 0.320318 0.233854 0.118387
O O14 0.596870 0.268036 0.932870
O O15 0.036683 0.240315 0.431031
O O16 0.945579 0.000000 0.525565
O O17 0.016296 0.500000 0.392791
O O18 0.174627 0.728620 0.275107
O O19 0.790125 0.500000 0.195422
O O20 0.228310 0.500000 0.894356
#
# Coordination Sequence:
#
# PCOD8053029 Si02
#       8
#     4   4   4   4   4   4   4   4
#     4   8  17  33  51  71 100 135 165 200 251 301
#     4   8  17  33  51  71 100 135 165 200 251 301
#     4   9  18  34  53  73 101 136 169 203 248 298
#     4  10  19  33  52  74 100 131 168 207 248 294
#     4  10  19  33  52  74 100 131 168 207 248 294
#     4  10  20  36  54  74 101 132 166 203 248 298
#     4  10  20  36  54  74 101 132 166 203 248 298
#     4   9  18  34  53  73 101 136 169 203 248 298
#
# _framework density 18.240507000000001
#
# number of rings (size 3 to 8) (size 9 to 14) (size 15 to 20)
#    0.000    2.750    0.000    3.000    0.000    2.500 
#    0.000   17.500    0.000    0.000    0.000    0.000 
#    0.000    0.000    0.000    0.000    0.000    0.000 
#
# Total GULP energy -198371.145040 kJ/mol
# GULP energy per Si atom -12398.196565 kJ/mol
# Density = 1.819899 g / cm^3
# Si number density = 18.240507 Si / 1000 Ang^3
#
#
#
# Elastic Constant Matrix: (Units=GPa)
#
#
# Indices 1 2 3 4 5 6 
#
# 1 178.4027 20.6559 69.1482 0.0000 -5.3993 0.0001
# 2 20.6559 30.0194 11.2877 0.0000 -4.2511 0.0001
# 3 69.1482 11.2877 138.8055 0.0000 -4.0729 -0.0001
# 4 0.0000 0.0000 0.0000 30.7606 0.0000 -1.5742
# 5 -5.3993 -4.2511 -4.0729 0.0000 11.5603 -0.0001
# 6 0.0001 0.0001 -0.0001 -1.5742 -0.0001 24.6780
#
#
#
# Elastic Compliance Matrix: (Units=1/GPa)
#
#
# Indices 1 2 3 4 5 6 
#
# 1 0.007352 -0.003675 -0.003337 0.000000 0.000906 0.000000
# 2 -0.003675 0.037863 -0.000899 0.000000 0.011890 0.000000
# 3 -0.003337 -0.000899 0.008977 0.000000 0.001274 0.000000
# 4 0.000000 0.000000 0.000000 0.032616 0.000000 0.002081
# 5 0.000906 0.011890 0.001274 0.000000 0.091747 0.000000
# 6 0.000000 0.000000 0.000000 0.002081 0.000000 0.040655
#
#
# Mechanical properties :
#
#
# Convention : Reuss Voigt Hill
#
# Bulk Modulus (GPa) = 26.06300 61.04569 43.55435
# Shear Modulus (GPa) = 20.17582 29.80883 24.99233
#
# Velocity S-wave (km/s) = 3.32942 4.04692 3.70558
# Velocity P-wave (km/s) = 5.39440 7.44154 6.49908
#
# Compressibility (1/GPa) = 0.03836857
#
# Stress axis : x y z
#
# Youngs Moduli (GPa) = 136.02415 26.41119 111.39424
#
# Poissons Ratio (x) = 0.09707 0.37171
# Poissons Ratio (y) = 0.49996 0.10016
# Poissons Ratio (z) = 0.45389 0.02375
#
# Static dielectric constant tensor:
#      x y z
#    x 3.749760 0.000000 0.014320 
#    y 0.000000 3.162210 0.000000 
#    z 0.014320 0.000000 3.433360 
# 
# 
# High freq. dielectric constant tensor:
#      x y z
#    x 1.712620 0.000000 0.000730 
#    y 0.000000 1.690720 0.000000 
#    z 0.000730 0.000000 1.710820 
# 
# From -- ./inp_files/26572.got.cif
#   From: 2010.03.12/outbox.cif.g09.slc.cpg/sg8_14_cif.got.tgz:26572.got - 2010.03.31 10:45:26.
