data_PCOD8053916
_publ_section_title
;
Structure prediction by ZEFSAII (Michael W. Deem and Ramdas Pophale) SiO2 
 PCOD8053916
Probable space group: C M
;
_chemical_formula_sum "Si O2"
_cell_formula_units_Z 32
_cell_length_a 14.813728
_cell_length_b 9.290653
_cell_length_c 12.119223
_cell_angle_alpha 90.000000
_cell_angle_beta 89.044388
_cell_angle_gamma 90.000000
_cell_volume 1667.727058
_symmetry_space_group_name_H-M "C M"
_symmetry_group_IT_number 8
_symmetry_cell_setting 'monoclinic'
loop_
_space_group_symop_operation_xyz
x,y,z
x,-y,z
1/2+x,1/2+y,z
1/2+x,1/2-y,z
loop_
_atom_site_type_symbol
_atom_site_label
_atom_site_fract_x
_atom_site_fract_y
_atom_site_fract_z
Si Si1 0.044240 0.331246 0.987810
Si Si2 0.370381 0.162969 0.345554
Si Si3 0.186286 0.666178 0.594864
Si Si4 0.514732 0.329532 0.214374
Si Si5 0.863419 0.662149 0.585633
Si Si6 0.393052 0.165049 0.823940
Si Si7 0.161602 0.832698 0.388284
Si Si8 0.709567 0.834430 0.835534
O O1 0.031561 0.500000 0.013678
O O2 0.143046 0.299896 0.937284
O O3 0.970992 0.274101 0.900881
O O4 0.034100 0.238440 0.096543
O O5 0.419687 0.270995 0.261961
O O6 0.415325 0.177676 0.467605
O O7 0.264526 0.204906 0.352985
O O8 0.381695 0.000000 0.301097
O O9 0.176826 0.500000 0.563875
O O10 0.290105 0.713146 0.589781
O O11 0.132016 0.754410 0.502765
O O12 0.155537 0.697929 0.721663
O O13 0.507892 0.500000 0.202776
O O14 0.595928 0.280397 0.292477
O O15 0.819444 0.500000 0.588554
O O16 0.924650 0.681853 0.694213
O O17 0.298992 0.242207 0.849923
O O18 0.376162 0.000000 0.853187
O O19 0.149185 0.000000 0.410612
O O20 0.739930 0.000000 0.834470
#
# Coordination Sequence:
#
# PCOD8053916 Si02
#       8
#     4   4   4   4   4   4   4   4
#     4  10  22  39  55  74 104 142 182 218 257 311
#     4   9  18  35  58  80 105 138 172 210 260 317
#     4   9  16  28  52  84 111 134 167 212 260 310
#     4  11  24  39  54  76 105 137 180 228 265 302
#     4   8  15  30  53  80 109 139 170 205 254 318
#     4   9  18  34  57  81 106 139 175 211 256 313
#     4   9  20  38  56  76 107 143 174 210 261 318
#     4   9  19  35  55  81 111 138 168 214 265 309
#
# _framework density 19.187792000000002
#
# number of rings (size 3 to 8) (size 9 to 14) (size 15 to 20)
#    0.000    2.750    0.000    1.500    0.000    6.500 
#    0.000    6.250    0.000    0.000    0.000    0.000 
#    0.000    0.000    0.000    0.000    0.000    0.000 
#
# Total GULP energy -198288.112734 kJ/mol
# GULP energy per Si atom -12393.007046 kJ/mol
# Density = 1.914412 g / cm^3
# Si number density = 19.187792 Si / 1000 Ang^3
#
#
#
# Elastic Constant Matrix: (Units=GPa)
#
#
# Indices 1 2 3 4 5 6 
#
# 1 38.7618 14.3744 6.7488 0.0000 4.8292 0.0000
# 2 14.3744 51.2769 29.0214 0.0000 -2.9088 0.0000
# 3 6.7488 29.0214 83.1285 0.0000 0.6447 0.0000
# 4 0.0000 0.0000 0.0000 33.9055 0.0000 1.3192
# 5 4.8292 -2.9088 0.6447 0.0000 32.7571 0.0000
# 6 0.0000 0.0000 0.0000 1.3192 0.0000 23.3131
#
#
#
# Elastic Compliance Matrix: (Units=1/GPa)
#
#
# Indices 1 2 3 4 5 6 
#
# 1 0.029668 -0.009061 0.000795 0.000000 -0.005194 0.000000
# 2 -0.009061 0.027250 -0.008808 0.000000 0.003929 0.000000
# 3 0.000795 -0.008808 0.015049 0.000000 -0.001196 0.000000
# 4 0.000000 0.000000 0.000000 0.029559 0.000000 -0.001673
# 5 -0.005194 0.003929 -0.001196 0.000000 0.031666 0.000000
# 6 0.000000 0.000000 0.000000 -0.001673 0.000000 0.042989
#
#
# Mechanical properties :
#
#
# Convention : Reuss Voigt Hill
#
# Bulk Modulus (GPa) = 26.44229 30.38406 28.41317
# Shear Modulus (GPa) = 22.42797 26.19666 24.31231
#
# Velocity S-wave (km/s) = 3.42258 3.69897 3.56346
# Velocity P-wave (km/s) = 5.42489 5.84061 5.63658
#
# Compressibility (1/GPa) = 0.03781821
#
# Stress axis : x y z
#
# Youngs Moduli (GPa) = 33.70683 36.69688 66.44791
#
# Poissons Ratio (x) = 0.33252 -0.05284
# Poissons Ratio (y) = 0.30543 0.58529
# Poissons Ratio (z) = -0.02680 0.32324
#
# Static dielectric constant tensor:
#      x y z
#    x 3.256330 0.000000 0.124240 
#    y 0.000000 3.445310 0.000000 
#    z 0.124240 0.000000 3.774860 
# 
# 
# High freq. dielectric constant tensor:
#      x y z
#    x 1.723070 0.000000 0.005780 
#    y 0.000000 1.742150 0.000000 
#    z 0.005780 0.000000 1.756170 
# 
# From -- ./inp_files/21538.got.cif
#   From: 2010.03.12/outbox.cif.g09.slc.cpg/sg8_11_cif.got.tgz:21538.got - 2010.03.31 10:45:26.
