data_PCOD8053764
_publ_section_title
;
Structure prediction by ZEFSAII (Michael W. Deem and Ramdas Pophale) SiO2 
 PCOD8053764
Probable space group: C M
;
_chemical_formula_sum "Si O2"
_cell_formula_units_Z 32
_cell_length_a 24.405769
_cell_length_b 13.680047
_cell_length_c 9.745947
_cell_angle_alpha 90.000000
_cell_angle_beta 150.544883
_cell_angle_gamma 90.000000
_cell_volume 1600.077766
_symmetry_space_group_name_H-M "C M"
_symmetry_group_IT_number 8
_symmetry_cell_setting 'monoclinic'
loop_
_space_group_symop_operation_xyz
x,y,z
x,-y,z
1/2+x,1/2+y,z
1/2+x,1/2-y,z
loop_
_atom_site_type_symbol
_atom_site_label
_atom_site_fract_x
_atom_site_fract_y
_atom_site_fract_z
Si Si1 0.978430 0.615105 0.782380
Si Si2 0.597477 0.607092 0.218950
Si Si3 0.902202 0.889547 0.222876
Si Si4 0.561464 0.247959 0.715834
Si Si5 0.640875 0.813104 0.368121
Si Si6 0.370319 0.610243 0.850050
Si Si7 0.219011 0.110151 0.198915
Si Si8 0.645536 0.891792 0.675290
O O1 0.005676 0.500000 0.824372
O O2 0.846728 0.632853 0.516137
O O3 0.023563 0.674065 0.751020
O O4 0.039483 0.658677 0.048274
O O5 0.634237 0.500000 0.358215
O O6 0.644967 0.696771 0.411096
O O7 0.637459 0.618417 0.151218
O O8 0.462888 0.615935 0.932889
O O9 0.965860 0.825122 0.472977
O O10 0.949084 0.000000 0.333639
O O11 0.915239 0.848468 0.094786
O O12 0.775008 0.884803 0.992315
O O13 0.579144 0.185742 0.618580
O O14 0.674076 0.308447 0.995899
O O15 0.760064 0.834687 0.557059
O O16 0.623720 0.872839 0.468237
O O17 0.332161 0.500000 0.797417
O O18 0.211267 0.000000 0.120489
O O19 0.600262 0.000000 0.610420
#
# Coordination Sequence:
#
# PCOD8053764 Si02
#       8
#     4   4   4   4   4   4   4   4
#     4  11  24  40  59  85 122 159 196 239 295 353
#     4  10  21  37  57  87 120 151 194 246 285 339
#     4   9  19  37  61  87 115 153 195 243 297 347
#     4  12  21  38  61  88 113 159 201 240 289 348
#     4  11  21  38  66  87 117 158 194 235 304 351
#     4   9  19  37  61  89 119 148 195 250 291 342
#     4  10  23  41  58  85 124 159 194 242 294 348
#     4  10  22  40  61  88 120 149 195 249 291 344
#
# _framework density 19.999027999999999
#
# number of rings (size 3 to 8) (size 9 to 14) (size 15 to 20)
#    0.000    1.750    1.250    4.125    1.750    0.000 
#    2.250    0.625    0.000    3.000    0.000    0.000 
#    0.000    0.000    0.000    0.000    0.000    0.000 
#
# Total GULP energy -198352.239888 kJ/mol
# GULP energy per Si atom -12397.014993 kJ/mol
# Density = 1.995351 g / cm^3
# Si number density = 19.999028 Si / 1000 Ang^3
#
#
#
# Elastic Constant Matrix: (Units=GPa)
#
#
# Indices 1 2 3 4 5 6 
#
# 1 81.5697 32.4101 35.1791 0.0000 9.1134 0.0000
# 2 32.4101 132.7983 57.2952 0.0000 4.5543 0.0000
# 3 35.1791 57.2952 107.1678 0.0000 0.8308 0.0000
# 4 0.0000 0.0000 0.0000 30.1042 0.0000 0.8863
# 5 9.1134 4.5543 0.8308 0.0000 21.5934 0.0000
# 6 0.0000 0.0000 0.0000 0.8863 0.0000 25.0824
#
#
#
# Elastic Compliance Matrix: (Units=1/GPa)
#
#
# Indices 1 2 3 4 5 6 
#
# 1 0.015385 -0.001809 -0.004037 0.000000 -0.005956 0.000000
# 2 -0.001809 0.010076 -0.004784 0.000000 -0.001178 0.000000
# 3 -0.004037 -0.004784 0.013197 0.000000 0.002205 0.000000
# 4 0.000000 0.000000 0.000000 0.033253 0.000000 -0.001175
# 5 -0.005956 -0.001178 0.002205 0.000000 0.048988 0.000000
# 6 0.000000 0.000000 0.000000 -0.001175 0.000000 0.039910
#
#
# Mechanical properties :
#
#
# Convention : Reuss Voigt Hill
#
# Bulk Modulus (GPa) = 57.47772 63.47830 60.47801
# Shear Modulus (GPa) = 26.61453 28.46610 27.54032
#
# Velocity S-wave (km/s) = 3.65196 3.77686 3.71493
# Velocity P-wave (km/s) = 6.82532 7.12945 6.97905
#
# Compressibility (1/GPa) = 0.01739805
#
# Stress axis : x y z
#
# Youngs Moduli (GPa) = 64.99989 99.24453 75.77464
#
# Poissons Ratio (x) = 0.17950 0.30591
# Poissons Ratio (y) = 0.11756 0.36252
# Poissons Ratio (z) = 0.26241 0.47480
#
# Static dielectric constant tensor:
#      x y z
#    x 3.510860 0.000000 0.129720 
#    y 0.000000 4.036750 0.000000 
#    z 0.129720 0.000000 3.467880 
# 
# 
# High freq. dielectric constant tensor:
#      x y z
#    x 1.774690 0.000000 0.011060 
#    y 0.000000 1.802040 0.000000 
#    z 0.011060 0.000000 1.763300 
# 
# From -- ./inp_files/17122.got.cif
#   From: 2010.03.12/outbox.cif.g09.slc.cpg/sg8_9_cif.got.tgz:17122.got - 2010.03.31 10:45:26.
