data_PCOD8053484
_publ_section_title
;
Structure prediction by ZEFSAII (Michael W. Deem and Ramdas Pophale) SiO2 
 PCOD8053484
Probable space group: C M
;
_chemical_formula_sum "Si O2"
_cell_formula_units_Z 32
_cell_length_a 23.736315
_cell_length_b 8.501031
_cell_length_c 14.088823
_cell_angle_alpha 90.000000
_cell_angle_beta 32.914801
_cell_angle_gamma 90.000000
_cell_volume 1544.800184
_symmetry_space_group_name_H-M "C M"
_symmetry_group_IT_number 8
_symmetry_cell_setting 'monoclinic'
loop_
_space_group_symop_operation_xyz
x,y,z
x,-y,z
1/2+x,1/2+y,z
1/2+x,1/2-y,z
loop_
_atom_site_type_symbol
_atom_site_label
_atom_site_fract_x
_atom_site_fract_y
_atom_site_fract_z
Si Si1 0.663070 0.317103 0.774630
Si Si2 0.728286 0.314360 0.886161
Si Si3 0.496688 0.819301 0.877197
Si Si4 0.960727 0.316504 0.577651
Si Si5 0.850432 0.819972 0.404610
Si Si6 0.093301 0.818974 0.556267
Si Si7 0.037360 0.818233 0.277977
Si Si8 0.317610 0.680547 0.237140
O O1 0.631801 0.500000 0.822348
O O2 0.686846 0.245762 0.845028
O O3 0.568184 0.220376 0.865875
O O4 0.764715 0.297250 0.566607
O O5 0.734377 0.500000 0.864498
O O6 0.843096 0.250200 0.745851
O O7 0.651370 0.267867 0.080334
O O8 0.528560 0.715960 0.742227
O O9 0.508035 0.000000 0.832107
O O10 0.378002 0.783723 0.073640
O O11 0.965443 0.500000 0.597521
O O12 0.023687 0.216344 0.563901
O O13 0.008852 0.292353 0.405687
O O14 0.864908 0.781807 0.273559
O O15 0.959340 0.789378 0.301424
O O16 0.812765 0.000000 0.471987
O O17 0.196107 0.715237 0.406591
O O18 0.126151 0.000000 0.509581
O O19 0.035410 0.000000 0.313117
O O20 0.334872 0.500000 0.185847
#
# Coordination Sequence:
#
# PCOD8053484 Si02
#       8
#     4   4   4   4   4   4   4   4
#     4  11  20  36  63  93 127 167 208 254 311 375
#     4   9  20  38  62  90 123 164 205 250 308 368
#     4  12  25  42  64  95 130 168 209 257 313 378
#     4  11  23  42  63  88 121 161 210 264 314 371
#     4  10  20  35  61  93 129 164 201 253 316 376
#     4  12  26  45  66  91 122 165 215 267 318 373
#     4  10  20  38  62  90 124 163 204 251 310 377
#     4  11  23  42  67  96 128 166 208 258 316 378
#
# _framework density 20.714652999999998
#
# number of rings (size 3 to 8) (size 9 to 14) (size 15 to 20)
#    0.000    1.250    2.500    4.125    0.000    3.500 
#    0.000    7.500    0.000    0.000    0.000    0.000 
#    0.000    0.000    0.000    0.000    0.000    0.000 
#
# Total GULP energy -198494.107796 kJ/mol
# GULP energy per Si atom -12405.881737 kJ/mol
# Density = 2.066751 g / cm^3
# Si number density = 20.714653 Si / 1000 Ang^3
#
#
#
# Elastic Constant Matrix: (Units=GPa)
#
#
# Indices 1 2 3 4 5 6 
#
# 1 112.4768 12.6899 41.0920 -0.0018 -10.1015 -0.0008
# 2 12.6899 53.1712 12.8634 -0.0046 -3.4582 -0.0020
# 3 41.0920 12.8634 129.5719 -0.0035 4.6363 -0.0016
# 4 -0.0018 -0.0046 -0.0035 33.9607 -0.0008 2.6884
# 5 -10.1015 -3.4582 4.6363 -0.0008 9.5151 -0.0009
# 6 -0.0008 -0.0020 -0.0016 2.6884 -0.0009 21.2742
#
#
#
# Elastic Compliance Matrix: (Units=1/GPa)
#
#
# Indices 1 2 3 4 5 6 
#
# 1 0.011787 -0.000882 -0.004159 0.000000 0.014219 0.000001
# 2 -0.000882 0.019966 -0.001963 0.000003 0.007277 0.000002
# 3 -0.004159 -0.001963 0.009582 0.000000 -0.009798 0.000000
# 4 0.000000 0.000003 0.000000 0.029743 0.000003 -0.003759
# 5 0.014219 0.007277 -0.009798 0.000003 0.127611 0.000006
# 6 0.000001 0.000002 0.000000 -0.003759 0.000006 0.047480
#
#
# Mechanical properties :
#
#
# Convention : Reuss Voigt Hill
#
# Bulk Modulus (GPa) = 36.59421 47.61227 42.10324
# Shear Modulus (GPa) = 18.56762 28.18833 23.37797
#
# Velocity S-wave (km/s) = 2.99716 3.69289 3.36307
# Velocity P-wave (km/s) = 5.44807 6.42012 5.95397
#
# Compressibility (1/GPa) = 0.02732673
#
# Stress axis : x y z
#
# Youngs Moduli (GPa) = 84.84077 50.08570 104.35995
#
# Poissons Ratio (x) = 0.04418 0.43406
# Poissons Ratio (y) = 0.07483 0.20484
# Poissons Ratio (z) = 0.35287 0.09831
#
# Static dielectric constant tensor:
#      x y z
#    x 3.784630 0.000000 -0.065900 
#    y 0.000000 3.647500 0.000000 
#    z -0.065900 0.000000 3.811550 
# 
# 
# High freq. dielectric constant tensor:
#      x y z
#    x 1.810180 0.000000 -0.001020 
#    y 0.000000 1.797850 0.000000 
#    z -0.001020 0.000000 1.821310 
# 
# From -- ./inp_files/26558.got.cif
#   From: 2010.03.12/outbox.cif.g09.slc.cpg/sg8_14_cif.got.tgz:26558.got - 2010.03.31 10:45:26.
