data_PCOD8053997
_publ_section_title
;
Structure prediction by ZEFSAII (Michael W. Deem and Ramdas Pophale) SiO2 
 PCOD8053997
Probable space group: C M
;
_chemical_formula_sum "Si O2"
_cell_formula_units_Z 32
_cell_length_a 19.415654
_cell_length_b 8.903746
_cell_length_c 23.707035
_cell_angle_alpha 90.000000
_cell_angle_beta 23.307132
_cell_angle_gamma 90.000000
_cell_volume 1621.526242
_symmetry_space_group_name_H-M "C M"
_symmetry_group_IT_number 8
_symmetry_cell_setting 'monoclinic'
loop_
_space_group_symop_operation_xyz
x,y,z
x,-y,z
1/2+x,1/2+y,z
1/2+x,1/2-y,z
loop_
_atom_site_type_symbol
_atom_site_label
_atom_site_fract_x
_atom_site_fract_y
_atom_site_fract_z
Si Si1 0.664730 0.328392 0.803440
Si Si2 0.311099 0.823999 0.814673
Si Si3 0.696559 0.330590 0.279774
Si Si4 0.257652 0.330119 0.121418
Si Si5 0.674454 0.322146 0.572737
Si Si6 0.476130 0.328278 0.138508
Si Si7 0.797403 0.829980 0.594171
Si Si8 0.464157 0.328587 0.280118
O O1 0.717880 0.500000 0.751100
O O2 0.749458 0.274869 0.798586
O O3 0.722822 0.224211 0.709216
O O4 0.459846 0.308858 0.960318
O O5 0.482814 0.734369 0.701891
O O6 0.353088 0.000000 0.785006
O O7 0.161036 0.781882 0.972468
O O8 0.739027 0.500000 0.227233
O O9 0.714880 0.209809 0.217280
O O10 0.502672 0.319942 0.448569
O O11 0.827324 0.284483 0.230589
O O12 0.197479 0.500000 0.155149
O O13 0.152833 0.220437 0.159644
O O14 0.673433 0.500000 0.573607
O O15 0.730531 0.268292 0.592423
O O16 0.810086 0.267516 0.423475
O O17 0.432989 0.500000 0.153530
O O18 0.476356 0.307709 0.204732
O O19 0.736152 0.000000 0.628870
O O20 0.430279 0.500000 0.323409
#
# Coordination Sequence:
#
# PCOD8053997 Si02
#       8
#     4   4   4   4   4   4   4   4
#     4  10  23  42  66  95 127 165 210 255 313 377
#     4  10  22  44  66  91 128 167 206 257 313 375
#     4  11  23  40  65  94 125 162 210 264 313 369
#     4  11  22  41  67  94 125 163 209 262 314 373
#     4  12  26  43  64  92 127 169 212 259 313 372
#     4  10  23  43  67  93 125 166 209 255 316 377
#     4  11  25  43  64  93 128 166 211 260 313 373
#     4  11  24  42  65  96 127 166 211 256 315 376
#
# _framework density 19.734494999999999
#
# number of rings (size 3 to 8) (size 9 to 14) (size 15 to 20)
#    0.000    1.250    2.500    2.625    3.500    4.500 
#    0.000    0.000    0.000    0.000    0.000    0.000 
#    0.000    0.000    0.000    0.000    0.000    0.000 
#
# Total GULP energy -198452.019257 kJ/mol
# GULP energy per Si atom -12403.251204 kJ/mol
# Density = 1.968958 g / cm^3
# Si number density = 19.734495 Si / 1000 Ang^3
#
#
#
# Elastic Constant Matrix: (Units=GPa)
#
#
# Indices 1 2 3 4 5 6 
#
# 1 122.2691 70.0223 67.2207 0.0009 -1.5733 0.0004
# 2 70.0223 125.3399 84.6982 -0.0273 -1.5069 -0.0012
# 3 67.2207 84.6982 120.3911 0.0213 -0.9593 0.0040
# 4 0.0009 -0.0273 0.0213 36.2449 -0.0067 -3.1235
# 5 -1.5733 -1.5069 -0.9593 -0.0067 41.5632 0.0011
# 6 0.0004 -0.0012 0.0040 -3.1235 0.0011 35.9724
#
#
#
# Elastic Compliance Matrix: (Units=1/GPa)
#
#
# Indices 1 2 3 4 5 6 
#
# 1 0.013010 -0.004495 -0.004100 -0.000001 0.000235 0.000000
# 2 -0.004495 0.016765 -0.009283 0.000019 0.000223 0.000003
# 3 -0.004100 -0.009283 0.017126 -0.000017 -0.000097 -0.000004
# 4 -0.000001 0.000019 -0.000017 0.027798 0.000005 0.002414
# 5 0.000235 0.000223 -0.000097 0.000005 0.024075 0.000000
# 6 0.000000 0.000003 -0.000004 0.002414 0.000000 0.028009
#
#
# Mechanical properties :
#
#
# Convention : Reuss Voigt Hill
#
# Bulk Modulus (GPa) = 89.72874 90.20918 89.96896
# Shear Modulus (GPa) = 30.07455 32.49335 31.28395
#
# Velocity S-wave (km/s) = 3.90803 4.06214 3.98583
# Velocity P-wave (km/s) = 8.11974 8.23480 8.17748
#
# Compressibility (1/GPa) = 0.01114470
#
# Stress axis : x y z
#
# Youngs Moduli (GPa) = 76.86455 59.64755 58.39092
#
# Poissons Ratio (x) = 0.26809 0.23941
# Poissons Ratio (y) = 0.34547 0.54206
# Poissons Ratio (z) = 0.31516 0.55373
#
# Static dielectric constant tensor:
#      x y z
#    x 3.586740 0.000010 -0.017110 
#    y 0.000010 3.776060 0.000020 
#    z -0.017110 0.000020 3.621280 
# 
# 
# High freq. dielectric constant tensor:
#      x y z
#    x 1.779870 0.000000 -0.002460 
#    y 0.000000 1.775680 0.000000 
#    z -0.002460 0.000000 1.780860 
# 
# From -- ./inp_files/29731.got.cif
#   From: 2010.03.12/outbox.cif.g09.slc.cpg/sg8_15_cif.got.tgz:29731.got - 2010.03.31 10:45:26.
