data_PCOD8053102
_publ_section_title
;
Structure prediction by ZEFSAII (Michael W. Deem and Ramdas Pophale) SiO2 
 PCOD8053102
Probable space group: C M
;
_chemical_formula_sum "Si O2"
_cell_formula_units_Z 32
_cell_length_a 20.242298
_cell_length_b 8.987766
_cell_length_c 24.900741
_cell_angle_alpha 90.000000
_cell_angle_beta 22.591463
_cell_angle_gamma 90.000000
_cell_volume 1740.337402
_symmetry_space_group_name_H-M "C M"
_symmetry_group_IT_number 8
_symmetry_cell_setting 'monoclinic'
loop_
_space_group_symop_operation_xyz
x,y,z
x,-y,z
1/2+x,1/2+y,z
1/2+x,1/2-y,z
loop_
_atom_site_type_symbol
_atom_site_label
_atom_site_fract_x
_atom_site_fract_y
_atom_site_fract_z
Si Si1 0.913350 0.673536 0.552490
Si Si2 0.468330 0.828487 0.109384
Si Si3 0.674306 0.175086 0.265477
Si Si4 0.280182 0.330039 0.805389
Si Si5 0.211602 0.176998 0.125760
Si Si6 0.589993 0.175193 0.529547
Si Si7 0.440325 0.175014 0.254792
Si Si8 0.600726 0.827801 0.829387
O O1 0.883825 0.500000 0.579698
O O2 0.725575 0.747860 0.693068
O O3 0.012069 0.717861 0.424368
O O4 0.025372 0.728346 0.519381
O O5 0.348332 0.723976 0.163985
O O6 0.448024 0.785479 0.186353
O O7 0.417387 0.000000 0.136450
O O8 0.666875 0.800998 0.943584
O O9 0.644718 0.260261 0.232372
O O10 0.684049 0.000000 0.247441
O O11 0.344484 0.500000 0.754073
O O12 0.447152 0.223954 0.680555
O O13 0.158583 0.291262 0.846345
O O14 0.100543 0.244277 0.161411
O O15 0.196143 0.000000 0.138616
O O16 0.406622 0.230201 0.968651
O O17 0.765798 0.260009 0.410933
O O18 0.622224 0.000000 0.508777
O O19 0.449842 0.000000 0.258589
O O20 0.611429 0.000000 0.808152
#
# Coordination Sequence:
#
# PCOD8053102 Si02
#       8
#     4   4   4   4   4   4   4   4
#     4   9  19  33  53  83 115 143 181 231 278 324
#     4  10  20  36  58  84 114 146 188 234 281 331
#     4  11  21  35  57  86 115 145 188 235 279 330
#     4   9  17  33  55  82 111 142 185 234 279 329
#     4  11  23  40  58  81 115 152 188 232 282 337
#     4  10  19  34  54  82 115 149 186 228 279 331
#     4  11  23  38  58  84 113 152 191 229 281 338
#     4   9  18  33  55  80 108 145 187 227 277 332
#
# _framework density 18.387238
#
# number of rings (size 3 to 8) (size 9 to 14) (size 15 to 20)
#    0.000    2.000    2.500    1.500    0.000    3.500 
#    0.000    1.250    0.000    4.500    0.000    0.000 
#    0.000    0.000    0.000    0.000    0.000    0.000 
#
# Total GULP energy -198447.190817 kJ/mol
# GULP energy per Si atom -12402.949426 kJ/mol
# Density = 1.834539 g / cm^3
# Si number density = 18.387238 Si / 1000 Ang^3
#
#
#
# Elastic Constant Matrix: (Units=GPa)
#
#
# Indices 1 2 3 4 5 6 
#
# 1 41.9460 19.4680 23.8681 -0.0035 1.0560 0.0002
# 2 19.4680 60.4693 39.3432 -0.0012 2.7675 -0.0004
# 3 23.8681 39.3432 124.2816 -0.0129 1.3489 -0.0005
# 4 -0.0035 -0.0012 -0.0129 35.4835 -0.0030 -2.5966
# 5 1.0560 2.7675 1.3489 -0.0030 24.3201 0.0002
# 6 0.0002 -0.0004 -0.0005 -2.5966 0.0002 27.5923
#
#
#
# Elastic Compliance Matrix: (Units=1/GPa)
#
#
# Indices 1 2 3 4 5 6 
#
# 1 0.029066 -0.007198 -0.003300 0.000001 -0.000260 0.000000
# 2 -0.007198 0.022708 -0.005785 -0.000002 -0.001951 0.000000
# 3 -0.003300 -0.005785 0.010509 0.000003 0.000219 0.000000
# 4 0.000001 -0.000002 0.000003 0.028378 0.000004 0.002671
# 5 -0.000260 -0.001951 0.000219 0.000004 0.041339 0.000000
# 6 0.000000 0.000000 0.000000 0.002671 0.000000 0.036493
#
#
# Mechanical properties :
#
#
# Convention : Reuss Voigt Hill
#
# Bulk Modulus (GPa) = 33.65292 43.56175 38.60733
# Shear Modulus (GPa) = 23.70058 27.08036 25.39047
#
# Velocity S-wave (km/s) = 3.59412 3.84185 3.72004
# Velocity P-wave (km/s) = 5.96369 6.58957 6.28443
#
# Compressibility (1/GPa) = 0.02971511
#
# Stress axis : x y z
#
# Youngs Moduli (GPa) = 34.40488 44.03742 95.15630
#
# Poissons Ratio (x) = 0.31700 0.31406
# Poissons Ratio (y) = 0.24766 0.55047
# Poissons Ratio (z) = 0.11355 0.25475
#
# Static dielectric constant tensor:
#      x y z
#    x 3.185410 0.000000 0.111580 
#    y 0.000000 3.378080 0.000010 
#    z 0.111580 0.000010 3.574280 
# 
# 
# High freq. dielectric constant tensor:
#      x y z
#    x 1.682440 0.000000 0.008460 
#    y 0.000000 1.717080 0.000000 
#    z 0.008460 0.000000 1.726960 
# 
# From -- ./inp_files/31359.got.cif
#   From: 2010.03.12/outbox.cif.g09.slc.cpg/sg8_16_cif.got.tgz:31359.got - 2010.03.31 10:45:26.
