data_PCOD8053959
_publ_section_title
;
Structure prediction by ZEFSAII (Michael W. Deem and Ramdas Pophale) SiO2 
 PCOD8053959
Probable space group: C M
;
_chemical_formula_sum "Si O2"
_cell_formula_units_Z 28
_cell_length_a 5.634601
_cell_length_b 28.389772
_cell_length_c 7.326752
_cell_angle_alpha 90.000000
_cell_angle_beta 69.720765
_cell_angle_gamma 90.000000
_cell_volume 1099.375784
_symmetry_space_group_name_H-M "C M"
_symmetry_group_IT_number 8
_symmetry_cell_setting 'monoclinic'
loop_
_space_group_symop_operation_xyz
x,y,z
x,-y,z
1/2+x,1/2+y,z
1/2+x,1/2-y,z
loop_
_atom_site_type_symbol
_atom_site_label
_atom_site_fract_x
_atom_site_fract_y
_atom_site_fract_z
Si Si1 0.712080 0.947530 0.695920
Si Si2 0.929808 0.106731 0.955880
Si Si3 0.422384 0.858931 0.694213
Si Si4 0.939217 0.365873 0.274509
Si Si5 0.704296 0.271703 0.349086
Si Si6 0.095306 0.946446 0.270801
Si Si7 0.056068 0.262330 0.782018
O O1 0.892578 0.933595 0.814288
O O2 0.484303 0.910548 0.756095
O O3 0.854901 0.944834 0.466058
O O4 0.604298 0.000000 0.756391
O O5 0.123605 0.145390 0.818995
O O6 0.679530 0.135875 0.076926
O O7 0.032926 0.079458 0.102030
O O8 0.508918 0.853358 0.462984
O O9 0.584702 0.818494 0.749355
O O10 0.737312 0.325618 0.268929
O O11 0.824859 0.418324 0.302699
O O12 0.490776 0.250471 0.269090
O O13 0.618464 0.268140 0.583103
O O14 0.185105 0.000000 0.213866
O O15 0.752431 0.252102 0.892615
#
# Coordination Sequence:
#
# PCOD8053959 Si02
#       7
#     4   4   4   4   4   4   4
#     4  11  26  47  76 109 149 198 250 312 388 459
#     4  12  27  46  74 110 150 196 252 312 383 458
#     4  12  25  45  76 105 152 197 253 314 385 454
#     4  12  25  45  76 105 152 197 253 314 385 454
#     4  10  22  40  74 109 148 205 251 311 389 448
#     4  11  26  47  76 109 149 198 250 312 388 459
#     4  10  22  40  74 109 148 205 251 311 389 448
#
# _framework density 25.468997999999999
#
# number of rings (size 3 to 8) (size 9 to 14) (size 15 to 20)
#    0.000    0.857    5.714    1.286    8.000    4.000 
#    0.000    1.429    0.000    0.000    0.000    0.000 
#    0.000    0.000    0.000    0.000    0.000    0.000 
#
# Total GULP energy -173535.313374 kJ/mol
# GULP energy per Si atom -12395.379527 kJ/mol
# Density = 2.541103 g / cm^3
# Si number density = 25.468998 Si / 1000 Ang^3
#
#
#
# Elastic Constant Matrix: (Units=GPa)
#
#
# Indices 1 2 3 4 5 6 
#
# 1 128.7900 33.9825 0.9384 0.0000 -19.4314 0.0000
# 2 33.9825 129.8747 16.0716 0.0000 -19.7763 0.0000
# 3 0.9384 16.0716 98.9248 0.0000 -16.3885 0.0000
# 4 0.0000 0.0000 0.0000 -4.2335 0.0000 -11.1606
# 5 -19.4314 -19.7763 -16.3885 0.0000 27.7871 0.0000
# 6 0.0000 0.0000 0.0000 -11.1606 0.0000 43.8128
#
#
#
# Elastic Compliance Matrix: (Units=1/GPa)
#
#
# Indices 1 2 3 4 5 6 
#
# 1 0.009069 -0.001622 0.001149 0.000000 0.005865 0.000000
# 2 -0.001622 0.008942 -0.000633 0.000000 0.004857 0.000000
# 3 0.001149 -0.000633 0.011370 0.000000 0.007059 0.000000
# 4 0.000000 0.000000 0.000000 -0.141313 0.000000 -0.035997
# 5 0.005865 0.004857 0.007059 0.000000 0.047709 0.000000
# 6 0.000000 0.000000 0.000000 -0.035997 0.000000 0.013655
#
#
# Mechanical properties :
#
#
# Convention : Reuss Voigt Hill
#
# Bulk Modulus (GPa) = 36.80549 51.06382 43.93466
# Shear Modulus (GPa) = -127.22762 33.91308 -46.65727
#
# Velocity S-wave (km/s) = -7.07548 3.65299 -4.28474
# Velocity P-wave (km/s) = 7.22962 6.15511 2.68160
#
# Compressibility (1/GPa) = 0.02716986
#
# Stress axis : x y z
#
# Youngs Moduli (GPa) = 110.26393 111.83199 87.95025
#
# Poissons Ratio (x) = 0.18140 -0.10107
# Poissons Ratio (y) = 0.17886 0.05565
# Poissons Ratio (z) = -0.12671 0.07077
#
# Static dielectric constant tensor:
#      x y z
#    x 4.894850 0.000000 -0.130390 
#    y 0.000000 4.746630 0.000000 
#    z -0.130390 0.000000 4.509050 
# 
# 
# High freq. dielectric constant tensor:
#      x y z
#    x 2.011960 0.000000 -0.004130 
#    y 0.000000 2.024920 0.000000 
#    z -0.004130 0.000000 2.019720 
# 
# From -- ./inp_files/7165.got.cif
#   From: 2010.03.12/outbox.cif.g09.slc.cpg/sg8_4_cif.got.tgz:7165.got - 2010.03.31 10:45:26.
