data_PCOD8053694
_publ_section_title
;
Structure prediction by ZEFSAII (Michael W. Deem and Ramdas Pophale) SiO2 
 PCOD8053694
Probable space group: C M
;
_chemical_formula_sum "Si O2"
_cell_formula_units_Z 32
_cell_length_a 15.465759
_cell_length_b 16.950040
_cell_length_c 11.840610
_cell_angle_alpha 90.000000
_cell_angle_beta 27.660378
_cell_angle_gamma 90.000000
_cell_volume 1440.950035
_symmetry_space_group_name_H-M "C M"
_symmetry_group_IT_number 8
_symmetry_cell_setting 'monoclinic'
loop_
_space_group_symop_operation_xyz
x,y,z
x,-y,z
1/2+x,1/2+y,z
1/2+x,1/2-y,z
loop_
_atom_site_type_symbol
_atom_site_label
_atom_site_fract_x
_atom_site_fract_y
_atom_site_fract_z
Si Si1 0.260600 0.677144 0.329710
Si Si2 0.159116 0.838511 0.768833
Si Si3 0.244771 0.145788 0.420146
Si Si4 0.587040 0.090113 0.735084
Si Si5 0.639633 0.089834 0.045559
Si Si6 0.172529 0.089653 0.269343
Si Si7 0.024961 0.589434 0.423956
Si Si8 0.310216 0.667963 0.656451
O O1 0.271924 0.770495 0.327222
O O2 0.209503 0.642185 0.509582
O O3 0.097849 0.651237 0.432058
O O4 0.462863 0.646750 0.056522
O O5 0.123058 0.848905 0.675905
O O6 0.305265 0.900461 0.651977
O O7 0.252714 0.753825 0.682569
O O8 0.436547 0.106873 0.233125
O O9 0.155236 0.091621 0.426339
O O10 0.678542 0.102363 0.751213
O O11 0.597869 0.000000 0.684430
O O12 0.372941 0.117958 0.991119
O O13 0.645146 0.104836 0.172750
O O14 0.696601 0.000000 0.952135
O O15 0.781605 0.152062 0.823675
O O16 0.026213 0.149360 0.379455
O O17 0.131987 0.000000 0.278410
O O18 0.053303 0.500000 0.435407
#
# Coordination Sequence:
#
# PCOD8053694 Si02
#       8
#     4   4   4   4   4   4   4   4
#     4  12  24  45  68  97 138 182 222 274 339 408
#     4  11  25  44  69 101 134 179 226 278 340 403
#     4  11  22  42  65  98 137 173 225 276 335 397
#     4  11  24  43  67  99 141 180 224 279 336 407
#     4  10  20  40  69  96 135 173 215 282 339 392
#     4  11  24  41  69 103 134 176 227 282 339 396
#     4  10  25  45  65  97 135 177 227 277 333 403
#     4  12  22  42  68 103 136 172 226 280 341 400
#
# _framework density 22.207571000000002
#
# number of rings (size 3 to 8) (size 9 to 14) (size 15 to 20)
#    0.000    1.000    3.750    2.625    1.750    2.500 
#    0.000    0.000    0.000    0.000    0.000    0.000 
#    0.000    0.000    0.000    0.000    0.000    0.000 
#
# Total GULP energy -198401.833583 kJ/mol
# GULP energy per Si atom -12400.114599 kJ/mol
# Density = 2.215703 g / cm^3
# Si number density = 22.207571 Si / 1000 Ang^3
#
#
#
# Elastic Constant Matrix: (Units=GPa)
#
#
# Indices 1 2 3 4 5 6 
#
# 1 54.9459 13.3005 18.2443 0.0115 1.3593 -0.0054
# 2 13.3005 53.3417 18.5640 0.0070 5.3530 0.0037
# 3 18.2443 18.5640 130.1994 0.0148 1.9589 -0.0172
# 4 0.0115 0.0070 0.0148 25.0107 -0.0064 2.1267
# 5 1.3593 5.3530 1.9589 -0.0064 35.9867 0.0046
# 6 -0.0054 0.0037 -0.0172 2.1267 0.0046 28.7760
#
#
#
# Elastic Compliance Matrix: (Units=1/GPa)
#
#
# Indices 1 2 3 4 5 6 
#
# 1 0.019948 -0.004209 -0.002195 -0.000007 -0.000008 0.000003
# 2 -0.004209 0.020897 -0.002347 -0.000003 -0.002822 -0.000004
# 3 -0.002195 -0.002347 0.008323 -0.000004 -0.000021 0.000005
# 4 -0.000007 -0.000003 -0.000004 0.040236 0.000008 -0.002974
# 5 -0.000008 -0.002822 -0.000021 0.000008 0.028209 -0.000005
# 6 0.000003 -0.000004 0.000005 -0.002974 -0.000005 0.034971
#
#
# Mechanical properties :
#
#
# Convention : Reuss Voigt Hill
#
# Bulk Modulus (GPa) = 31.58087 37.63385 34.60736
# Shear Modulus (GPa) = 27.67925 30.51322 29.09623
#
# Velocity S-wave (km/s) = 3.53425 3.71077 3.62359
# Velocity P-wave (km/s) = 5.55934 5.94500 5.75540
#
# Compressibility (1/GPa) = 0.03166474
#
# Stress axis : x y z
#
# Youngs Moduli (GPa) = 50.13130 47.85456 120.14788
#
# Poissons Ratio (x) = 0.20143 0.26371
# Poissons Ratio (y) = 0.21101 0.28201
# Poissons Ratio (z) = 0.11003 0.11232
#
# Static dielectric constant tensor:
#      x y z
#    x 4.052170 -0.000020 0.112450 
#    y -0.000020 3.900350 0.000030 
#    z 0.112450 0.000030 4.037890 
# 
# 
# High freq. dielectric constant tensor:
#      x y z
#    x 1.875120 0.000000 0.001690 
#    y 0.000000 1.873330 0.000000 
#    z 0.001690 0.000000 1.876690 
# 
# From -- ./inp_files/22397.got.cif
#   From: 2010.03.12/outbox.cif.g09.slc.cpg/sg8_12_cif.got.tgz:22397.got - 2010.03.31 10:45:26.
