data_PCOD8053197
_publ_section_title
;
Structure prediction by ZEFSAII (Michael W. Deem and Ramdas Pophale) SiO2 
 PCOD8053197
Probable space group: C M
;
_chemical_formula_sum "Si O2"
_cell_formula_units_Z 32
_cell_length_a 20.417391
_cell_length_b 8.504040
_cell_length_c 25.083095
_cell_angle_alpha 90.000000
_cell_angle_beta 22.602883
_cell_angle_gamma 90.000000
_cell_volume 1673.879751
_symmetry_space_group_name_H-M "C M"
_symmetry_group_IT_number 8
_symmetry_cell_setting 'monoclinic'
loop_
_space_group_symop_operation_xyz
x,y,z
x,-y,z
1/2+x,1/2+y,z
1/2+x,1/2-y,z
loop_
_atom_site_type_symbol
_atom_site_label
_atom_site_fract_x
_atom_site_fract_y
_atom_site_fract_z
Si Si1 0.956830 0.817250 0.044560
Si Si2 0.365609 0.318622 0.619669
Si Si3 0.348735 0.314712 0.311953
Si Si4 0.756525 0.181014 0.886976
Si Si5 0.673769 0.184108 0.337264
Si Si6 0.509812 0.318261 0.884026
Si Si7 0.724239 0.683435 0.025579
Si Si8 0.509079 0.183461 0.618488
O O1 0.772169 0.777578 0.208554
O O2 0.002430 0.000000 0.019351
O O3 0.945759 0.771750 0.991068
O O4 0.102592 0.714810 0.962396
O O5 0.384376 0.500000 0.620713
O O6 0.493263 0.274500 0.475232
O O7 0.407319 0.215162 0.640308
O O8 0.174611 0.282653 0.744006
O O9 0.360391 0.500000 0.298067
O O10 0.290599 0.250577 0.297915
O O11 0.207951 0.266561 0.461989
O O12 0.537339 0.252250 0.184292
O O13 0.744253 0.290972 0.947598
O O14 0.933825 0.217024 0.723673
O O15 0.753469 0.000000 0.906800
O O16 0.636221 0.000000 0.371885
O O17 0.559350 0.500000 0.843655
O O18 0.361160 0.283693 0.954345
O O19 0.748128 0.500000 0.020524
O O20 0.490360 0.000000 0.645661
#
# Coordination Sequence:
#
# PCOD8053197 Si02
#       8
#     4   4   4   4   4   4   4   4
#     4  10  20  37  61  84 113 153 197 238 288 345
#     4  11  21  34  54  86 118 151 191 238 290 342
#     4   8  16  32  57  83 108 145 192 233 281 340
#     4  12  23  35  56  89 120 148 193 245 288 341
#     4   9  17  34  58  84 111 148 192 236 286 344
#     4  11  23  39  59  85 117 156 195 238 289 347
#     4  11  22  40  61  83 116 156 193 237 291 352
#     4  10  19  35  58  84 113 151 193 239 287 341
#
# _framework density 19.117263000000001
#
# number of rings (size 3 to 8) (size 9 to 14) (size 15 to 20)
#    0.000    1.750    2.500    4.125    0.000    1.000 
#    0.000    3.125    0.000    3.000    0.000    0.000 
#    0.000    0.000    0.000    0.000    0.000    0.000 
#
# Total GULP energy -198421.859558 kJ/mol
# GULP energy per Si atom -12401.366222 kJ/mol
# Density = 1.907375 g / cm^3
# Si number density = 19.117263 Si / 1000 Ang^3
#
#
#
# Elastic Constant Matrix: (Units=GPa)
#
#
# Indices 1 2 3 4 5 6 
#
# 1 60.3177 7.0898 38.9867 0.0117 -1.6097 -0.0025
# 2 7.0898 57.9539 24.9560 0.0464 3.3759 0.0027
# 3 38.9867 24.9560 154.6557 0.0623 2.0042 0.0096
# 4 0.0117 0.0464 0.0623 25.4266 0.0188 -3.1247
# 5 -1.6097 3.3759 2.0042 0.0188 26.6874 0.0002
# 6 -0.0025 0.0027 0.0096 -3.1247 0.0002 22.6286
#
#
#
# Elastic Compliance Matrix: (Units=1/GPa)
#
#
# Indices 1 2 3 4 5 6 
#
# 1 0.019880 -0.000386 -0.004970 0.000003 0.001621 0.000005
# 2 -0.000386 0.018672 -0.002888 -0.000026 -0.002168 -0.000005
# 3 -0.004970 -0.002888 0.008192 -0.000013 -0.000550 -0.000005
# 4 0.000003 -0.000026 -0.000013 0.040008 -0.000024 0.005525
# 5 0.001621 -0.002168 -0.000550 -0.000024 0.037884 -0.000003
# 6 0.000005 -0.000005 -0.000005 0.005525 -0.000003 0.044955
#
#
# Mechanical properties :
#
#
# Convention : Reuss Voigt Hill
#
# Bulk Modulus (GPa) = 33.05108 46.11027 39.58068
# Shear Modulus (GPa) = 25.48883 28.40818 26.94851
#
# Velocity S-wave (km/s) = 3.65538 3.85904 3.75859
# Velocity P-wave (km/s) = 5.92806 6.63539 6.29167
#
# Compressibility (1/GPa) = 0.03025619
#
# Stress axis : x y z
#
# Youngs Moduli (GPa) = 50.30173 53.55581 122.07071
#
# Poissons Ratio (x) = 0.02068 0.60671
# Poissons Ratio (y) = 0.01943 0.35249
# Poissons Ratio (z) = 0.25001 0.15465
#
# Static dielectric constant tensor:
#      x y z
#    x 3.185500 0.000010 0.124740 
#    y 0.000010 3.297080 0.000020 
#    z 0.124740 0.000020 3.917060 
# 
# 
# High freq. dielectric constant tensor:
#      x y z
#    x 1.706400 0.000000 0.010820 
#    y 0.000000 1.735030 0.000000 
#    z 0.010820 0.000000 1.762450 
# 
# From -- ./inp_files/31654.got.cif
#   From: 2010.03.12/outbox.cif.g09.slc.cpg/sg8_16_cif.got.tgz:31654.got - 2010.03.31 10:45:26.
