data_PCOD8053309
_publ_section_title
;
Structure prediction by ZEFSAII (Michael W. Deem and Ramdas Pophale) SiO2 
 PCOD8053309
Probable space group: C M
;
_chemical_formula_sum "Si O2"
_cell_formula_units_Z 32
_cell_length_a 20.809652
_cell_length_b 9.314139
_cell_length_c 13.978932
_cell_angle_alpha 90.000000
_cell_angle_beta 42.008377
_cell_angle_gamma 90.000000
_cell_volume 1813.271892
_symmetry_space_group_name_H-M "C M"
_symmetry_group_IT_number 8
_symmetry_cell_setting 'monoclinic'
loop_
_space_group_symop_operation_xyz
x,y,z
x,-y,z
1/2+x,1/2+y,z
1/2+x,1/2-y,z
loop_
_atom_site_type_symbol
_atom_site_label
_atom_site_fract_x
_atom_site_fract_y
_atom_site_fract_z
Si Si1 0.419090 0.662046 0.144170
Si Si2 0.485929 0.667484 0.469203
Si Si3 0.274899 0.329474 0.659142
Si Si4 0.259826 0.661562 0.186331
Si Si5 0.124753 0.664730 0.175700
Si Si6 0.129637 0.834169 0.465835
Si Si7 0.244118 0.332732 0.479590
Si Si8 0.107302 0.670543 0.980182
O O1 0.456321 0.500000 0.119505
O O2 0.372537 0.678409 0.088571
O O3 0.338213 0.700828 0.312332
O O4 0.506128 0.770739 0.055839
O O5 0.492721 0.500000 0.434988
O O6 0.377001 0.724297 0.586673
O O7 0.546299 0.749817 0.322509
O O8 0.524852 0.694148 0.534473
O O9 0.272254 0.500000 0.662297
O O10 0.260897 0.271021 0.567090
O O11 0.191048 0.267821 0.819524
O O12 0.228078 0.500000 0.256138
O O13 0.231654 0.678938 0.105515
O O14 0.204471 0.785307 0.302943
O O15 0.091295 0.500000 0.211228
O O16 0.129583 0.725200 0.062848
O O17 0.149600 0.744912 0.540407
O O18 0.145687 0.000000 0.471993
O O19 0.220837 0.500000 0.507750
O O20 0.103100 0.500000 0.979604
#
# Coordination Sequence:
#
# PCOD8053309 Si02
#       8
#     4   4   4   4   4   4   4   4
#     4   9  17  30  49  70  90 117 154 191 227 271
#     4   9  17  31  51  71  91 119 154 189 226 271
#     4   9  18  33  49  65  90 126 162 187 217 271
#     4   8  15  29  47  67  92 122 153 182 221 276
#     4   9  17  30  49  72  94 117 150 191 231 269
#     4   9  16  26  45  74  98 113 141 192 240 267
#     4   9  17  31  51  69  89 123 158 185 220 273
#     4  10  20  32  47  68  94 123 154 191 230 266
#
# _framework density 17.647656999999999
#
# number of rings (size 3 to 8) (size 9 to 14) (size 15 to 20)
#    0.000    3.000    0.000    1.875    0.000    4.000 
#    0.000    3.125    0.000    3.000    0.000    0.000 
#    0.000    0.000    0.000    0.000    0.000    0.000 
#
# Total GULP energy -198263.411568 kJ/mol
# GULP energy per Si atom -12391.463223 kJ/mol
# Density = 1.760749 g / cm^3
# Si number density = 17.647657 Si / 1000 Ang^3
#
#
#
# Elastic Constant Matrix: (Units=GPa)
#
#
# Indices 1 2 3 4 5 6 
#
# 1 169.5875 41.7849 68.1917 0.0000 -14.0422 0.0000
# 2 41.7849 39.9435 26.6449 -0.0001 -5.4647 0.0001
# 3 68.1917 26.6449 83.4028 -0.0001 -4.9618 0.0000
# 4 0.0000 -0.0001 -0.0001 15.3080 0.0000 -4.4345
# 5 -14.0422 -5.4647 -4.9618 0.0000 7.5272 0.0000
# 6 0.0000 0.0001 0.0000 -4.4345 0.0000 26.5492
#
#
#
# Elastic Compliance Matrix: (Units=1/GPa)
#
#
# Indices 1 2 3 4 5 6 
#
# 1 0.010783 -0.005380 -0.006384 0.000000 0.012002 0.000000
# 2 -0.005380 0.036755 -0.006613 0.000000 0.012289 0.000000
# 3 -0.006384 -0.006613 0.019076 0.000000 -0.004135 0.000000
# 4 0.000000 0.000000 0.000000 0.068647 0.000000 0.011466
# 5 0.012002 0.012289 -0.004135 0.000000 0.161439 0.000000
# 6 0.000000 0.000000 0.000000 0.011466 0.000000 0.039581
#
#
# Mechanical properties :
#
#
# Convention : Reuss Voigt Hill
#
# Bulk Modulus (GPa) = 33.48703 62.90853 48.19778
# Shear Modulus (GPa) = 13.05528 20.29771 16.67650
#
# Velocity S-wave (km/s) = 2.72283 3.39509 3.07737
# Velocity P-wave (km/s) = 5.37602 7.14795 6.32435
#
# Compressibility (1/GPa) = 0.02986230
#
# Stress axis : x y z
#
# Youngs Moduli (GPa) = 92.74025 27.20689 52.42219
#
# Poissons Ratio (x) = 0.14636 0.33464
# Poissons Ratio (y) = 0.49891 0.34665
# Poissons Ratio (z) = 0.59201 0.17991
#
# Static dielectric constant tensor:
#      x y z
#    x 3.816240 0.000000 0.025680 
#    y 0.000000 3.123020 0.000000 
#    z 0.025680 0.000000 3.004700 
# 
# 
# High freq. dielectric constant tensor:
#      x y z
#    x 1.709160 0.000000 -0.001240 
#    y 0.000000 1.667000 0.000000 
#    z -0.001240 0.000000 1.634960 
# 
# From -- ./inp_files/23837.got.cif
#   From: 2010.03.12/outbox.cif.g09.slc.cpg/sg8_12_cif.got.tgz:23837.got - 2010.03.31 10:45:26.
