data_PCOD8054383
_publ_section_title
;
Structure prediction by ZEFSAII (Michael W. Deem and Ramdas Pophale) SiO2 
 PCOD8054383
Probable space group: C C
;
_chemical_formula_sum "Si O2"
_cell_formula_units_Z 32
_cell_length_a 17.492759
_cell_length_b 9.945606
_cell_length_c 8.816321
_cell_angle_alpha 90.000000
_cell_angle_beta 120.316124
_cell_angle_gamma 90.000000
_cell_volume 1324.083344
_symmetry_space_group_name_H-M "C C"
_symmetry_group_IT_number 9
_symmetry_cell_setting 'monoclinic'
loop_
_space_group_symop_operation_xyz
x,y,z
x,-y,1/2+z
1/2+x,1/2+y,z
1/2+x,1/2-y,1/2+z
loop_
_atom_site_type_symbol
_atom_site_label
_atom_site_fract_x
_atom_site_fract_y
_atom_site_fract_z
Si Si1 0.919970 0.073923 0.917550
Si Si2 0.630518 0.162327 0.460446
Si Si3 0.367334 0.323992 0.691851
Si Si4 0.918212 0.337870 0.747662
Si Si5 0.681297 0.324016 0.006148
Si Si6 0.925942 0.411673 0.432205
Si Si7 0.123003 0.411950 0.629777
Si Si8 0.128357 0.926255 0.626335
O O1 0.885443 0.194981 0.776735
O O2 0.864508 0.941737 0.815613
O O3 0.903022 0.111344 0.074133
O O4 0.024154 0.045038 0.998384
O O5 0.524368 0.159148 0.352045
O O6 0.670566 0.137988 0.331972
O O7 0.663065 0.305402 0.554711
O O8 0.670042 0.044628 0.608051
O O9 0.274510 0.249344 0.579428
O O10 0.432380 0.207241 0.815260
O O11 0.878257 0.361928 0.538972
O O12 0.878775 0.455911 0.815767
O O13 0.616821 0.206515 0.999675
O O14 0.683722 0.441444 0.135568
O O15 0.645170 0.388689 0.816763
O O16 0.024429 0.455822 0.575484
#
# Coordination Sequence:
#
# PCOD8054383 Si02
#       8
#     4   4   4   4   4   4   4   4
#     4  11  23  45  72  98 133 189 245 287 345 436
#     4   9  19  35  64  97 126 166 228 289 336 399
#     4  12  27  43  65 100 138 178 229 298 360 414
#     4   9  19  35  64  97 126 166 228 289 336 399
#     4  12  27  43  65 100 138 178 229 298 360 414
#     4  10  19  37  63  95 131 175 228 286 348 419
#     4  10  19  37  63  95 131 175 228 286 348 419
#     4  11  23  45  72  98 133 189 245 287 345 436
#
# _framework density 24.167662
#
# number of rings (size 3 to 8) (size 9 to 14) (size 15 to 20)
#    0.000    1.500    0.000    5.250    0.000   10.000 
#    0.000    2.500    0.000    0.000    0.000    0.000 
#    0.000    0.000    0.000    0.000    0.000    0.000 
#
# Total GULP energy -198377.123984 kJ/mol
# GULP energy per Si atom -12398.570249 kJ/mol
# Density = 2.411266 g / cm^3
# Si number density = 24.167662 Si / 1000 Ang^3
#
#
#
# Elastic Constant Matrix: (Units=GPa)
#
#
# Indices 1 2 3 4 5 6 
#
# 1 32.1874 22.7270 27.2135 0.0000 -2.7339 0.0000
# 2 22.7270 162.8881 27.0963 0.0000 -3.3157 0.0000
# 3 27.2135 27.0963 76.4578 0.0000 -25.2187 0.0000
# 4 0.0000 0.0000 0.0000 49.7055 0.0000 -12.5840
# 5 -2.7339 -3.3157 -25.2187 0.0000 17.9932 0.0000
# 6 0.0000 0.0000 0.0000 -12.5840 0.0000 29.2497
#
#
#
# Elastic Compliance Matrix: (Units=1/GPa)
#
#
# Indices 1 2 3 4 5 6 
#
# 1 0.055934 -0.003526 -0.029887 0.000000 -0.034039 0.000000
# 2 -0.003526 0.006888 -0.001756 0.000000 -0.001728 0.000000
# 3 -0.029887 -0.001756 0.042280 0.000000 0.054394 0.000000
# 4 0.000000 0.000000 0.000000 0.022578 0.000000 0.009714
# 5 -0.034039 -0.001728 0.054394 0.000000 0.126323 0.000000
# 6 0.000000 0.000000 0.000000 0.009714 0.000000 0.038367
#
#
# Mechanical properties :
#
#
# Convention : Reuss Voigt Hill
#
# Bulk Modulus (GPa) = 28.76360 47.28965 38.02663
# Shear Modulus (GPa) = 13.35840 32.35612 22.85726
#
# Velocity S-wave (km/s) = 2.35359 3.66296 3.07869
# Velocity P-wave (km/s) = 4.39470 6.12368 5.32977
#
# Compressibility (1/GPa) = 0.03476617
#
# Stress axis : x y z
#
# Youngs Moduli (GPa) = 17.87810 145.17912 23.65171
#
# Poissons Ratio (x) = 0.51183 0.70687
# Poissons Ratio (y) = 0.06303 0.04154
# Poissons Ratio (z) = 0.53432 0.25495
#
# Static dielectric constant tensor:
#      x y z
#    x 3.947380 0.000000 -0.285110 
#    y 0.000000 4.604290 0.000000 
#    z -0.285110 0.000000 4.417290 
# 
# 
# High freq. dielectric constant tensor:
#      x y z
#    x 1.932400 0.000000 -0.017870 
#    y 0.000000 1.977740 0.000000 
#    z -0.017870 0.000000 1.961710 
# 
# From -- ./inp_files/12073.got.cif
#   From: 2010.06.25/outbox.cif.g09.slc.cpg/sg9_7_cif.got.tgz:12073.got - 2010.06.27 21:40:51.
