data_PCOD8054473
_publ_section_title
;
Structure prediction by ZEFSAII (Michael W. Deem and Ramdas Pophale) SiO2 
 PCOD8054473
Probable space group: C C
;
_chemical_formula_sum "Si O2"
_cell_formula_units_Z 28
_cell_length_a 11.321351
_cell_length_b 22.742963
_cell_length_c 5.227440
_cell_angle_alpha 90.000000
_cell_angle_beta 95.644251
_cell_angle_gamma 90.000000
_cell_volume 1339.441228
_symmetry_space_group_name_H-M "C C"
_symmetry_group_IT_number 9
_symmetry_cell_setting 'monoclinic'
loop_
_space_group_symop_operation_xyz
x,y,z
x,-y,1/2+z
1/2+x,1/2+y,z
1/2+x,1/2-y,1/2+z
loop_
_atom_site_type_symbol
_atom_site_label
_atom_site_fract_x
_atom_site_fract_y
_atom_site_fract_z
Si Si1 0.969360 0.687590 0.172300
Si Si2 0.083322 0.346942 0.201126
Si Si3 0.277735 0.253668 0.379587
Si Si4 0.678806 0.972401 0.168311
Si Si5 0.440117 0.477660 0.652122
Si Si6 0.476286 0.344681 0.600301
Si Si7 0.599514 0.305585 0.142239
O O1 0.836718 0.714749 0.165207
O O2 0.001900 0.650837 0.432661
O O3 0.060326 0.740289 0.191353
O O4 0.991772 0.649667 0.921191
O O5 0.167122 0.289080 0.233968
O O6 0.168745 0.403108 0.213939
O O7 0.373704 0.297158 0.526350
O O8 0.235800 0.205448 0.583450
O O9 0.616990 0.007094 0.391486
O O10 0.817170 0.988983 0.192537
O O11 0.510487 0.509850 0.433585
O O12 0.419009 0.409171 0.592776
O O13 0.577315 0.342983 0.397562
O O14 0.529349 0.333999 0.890278
#
# Coordination Sequence:
#
# PCOD8054473 Si02
#       7
#     4   4   4   4   4   4   4
#     4  10  22  35  52  81 112 150 185 215 264 325
#     4  11  22  36  54  83 116 142 179 228 268 322
#     4  10  20  36  56  78 116 152 178 216 266 328
#     4  10  20  34  53  80 106 138 175 216 278 327
#     4  10  20  34  53  80 106 138 175 216 278 327
#     4  11  22  36  54  83 116 142 179 228 268 322
#     4  10  22  35  52  81 112 150 185 215 264 325
#
# _framework density 20.904240999999999
#
# number of rings (size 3 to 8) (size 9 to 14) (size 15 to 20)
#    0.000    1.714    0.000    6.857    0.000   17.143 
#    0.000    0.000    0.000    0.000    0.000   20.000 
#    0.000    0.000    0.000    0.000    0.000    0.000 
#
# Total GULP energy -173440.936375 kJ/mol
# GULP energy per Si atom -12388.638312 kJ/mol
# Density = 2.085666 g / cm^3
# Si number density = 20.904241 Si / 1000 Ang^3
#
#
#
# Elastic Constant Matrix: (Units=GPa)
#
#
# Indices 1 2 3 4 5 6 
#
# 1 56.4951 24.2271 17.2187 0.0000 -19.4987 0.0000
# 2 24.2271 89.4644 32.8549 0.0000 -11.0761 0.0000
# 3 17.2187 32.8549 169.8929 0.0000 -19.0198 0.0000
# 4 0.0000 0.0000 0.0000 28.3742 0.0000 -6.0004
# 5 -19.4987 -11.0761 -19.0198 0.0000 21.9870 0.0000
# 6 0.0000 0.0000 0.0000 -6.0004 0.0000 26.3590
#
#
#
# Elastic Compliance Matrix: (Units=1/GPa)
#
#
# Indices 1 2 3 4 5 6 
#
# 1 0.027293 -0.004875 0.000677 0.000000 0.022334 0.000000
# 2 -0.004875 0.013315 -0.002008 0.000000 0.000647 0.000000
# 3 0.000677 -0.002008 0.006820 0.000000 0.005488 0.000000
# 4 0.000000 0.000000 0.000000 0.037026 0.000000 0.008429
# 5 0.022334 0.000647 0.005488 0.000000 0.070362 0.000000
# 6 0.000000 0.000000 0.000000 0.008429 0.000000 0.039856
#
#
# Mechanical properties :
#
#
# Convention : Reuss Voigt Hill
#
# Bulk Modulus (GPa) = 28.55784 51.60596 40.08190
# Shear Modulus (GPa) = 22.85636 31.44750 27.15193
#
# Velocity S-wave (km/s) = 3.31022 3.88282 3.60790
# Velocity P-wave (km/s) = 5.31987 6.69642 6.04744
#
# Compressibility (1/GPa) = 0.03501665
#
# Stress axis : x y z
#
# Youngs Moduli (GPa) = 36.63911 75.10091 146.62094
#
# Poissons Ratio (x) = 0.36608 -0.09924
# Poissons Ratio (y) = 0.17860 0.29449
# Poissons Ratio (z) = -0.02480 0.15084
#
# Static dielectric constant tensor:
#      x y z
#    x 3.702230 0.000000 -0.616000 
#    y 0.000000 3.651990 0.000000 
#    z -0.616000 0.000000 5.275150 
# 
# 
# High freq. dielectric constant tensor:
#      x y z
#    x 1.770490 0.000000 -0.020960 
#    y 0.000000 1.798560 0.000000 
#    z -0.020960 0.000000 1.852730 
# 
# From -- ./inp_files/1743.got.cif
#   From: 2010.06.25/outbox.cif.g09.slc.cpg/sg9_1_cif.got.tgz:1743.got - 2010.06.27 21:40:51.
