data_PCOD8054821
_publ_section_title
;
Structure prediction by ZEFSAII (Michael W. Deem and Ramdas Pophale) SiO2 
 PCOD8054821
Probable space group: C C
;
_chemical_formula_sum "Si O2"
_cell_formula_units_Z 32
_cell_length_a 8.760135
_cell_length_b 18.838800
_cell_length_c 9.676338
_cell_angle_alpha 90.000000
_cell_angle_beta 91.790586
_cell_angle_gamma 90.000000
_cell_volume 1596.110484
_symmetry_space_group_name_H-M "C C"
_symmetry_group_IT_number 9
_symmetry_cell_setting 'monoclinic'
loop_
_space_group_symop_operation_xyz
x,y,z
x,-y,1/2+z
1/2+x,1/2+y,z
1/2+x,1/2-y,1/2+z
loop_
_atom_site_type_symbol
_atom_site_label
_atom_site_fract_x
_atom_site_fract_y
_atom_site_fract_z
Si Si1 0.888980 0.790442 0.229480
Si Si2 0.571154 0.984343 0.605888
Si Si3 0.381630 0.330646 0.924984
Si Si4 0.923212 0.429281 0.336439
Si Si5 0.415711 0.515686 0.528797
Si Si6 0.597860 0.790444 0.405136
Si Si7 0.605200 0.169344 0.209638
Si Si8 0.563601 0.429285 0.298236
O O1 0.743425 0.804786 0.317313
O O2 0.958534 0.712763 0.261790
O O3 0.018107 0.848621 0.265399
O O4 0.832909 0.797123 0.070143
O O5 0.473002 0.979964 0.463630
O O6 0.559589 0.912618 0.694892
O O7 0.505839 0.047599 0.697207
O O8 0.743477 0.000070 0.567581
O O9 0.427224 0.412610 0.939730
O O10 0.528312 0.287236 0.872838
O O11 0.243420 0.320886 0.817303
O O12 0.743381 0.435062 0.317597
O O13 0.968725 0.348611 0.369177
O O14 0.480591 0.452401 0.437292
O O15 0.514247 0.520052 0.670865
O O16 0.653921 0.797143 0.564472
#
# Coordination Sequence:
#
# PCOD8054821 Si02
#       8
#     4   4   4   4   4   4   4   4
#     4  10  22  39  59  83 116 156 193 237 295 350
#     4  11  22  39  62  87 118 156 196 240 294 351
#     4  10  21  38  58  85 116 147 194 243 284 346
#     4  11  22  38  60  87 119 154 196 245 293 346
#     4  11  22  39  62  87 118 156 196 240 294 351
#     4  10  22  39  59  83 116 156 193 237 295 350
#     4  10  21  38  58  85 116 147 194 243 284 346
#     4  11  22  38  60  87 119 154 196 245 293 346
#
# _framework density 20.048738
#
# number of rings (size 3 to 8) (size 9 to 14) (size 15 to 20)
#    0.000    1.500    0.000    6.750    0.000    2.000 
#    0.000   10.000    0.000    0.000    0.000    0.000 
#    0.000    0.000    0.000    0.000    0.000    0.000 
#
# Total GULP energy -198474.214713 kJ/mol
# GULP energy per Si atom -12404.638420 kJ/mol
# Density = 2.000311 g / cm^3
# Si number density = 20.048738 Si / 1000 Ang^3
#
#
#
# Elastic Constant Matrix: (Units=GPa)
#
#
# Indices 1 2 3 4 5 6 
#
# 1 149.7387 33.6847 72.4713 0.0000 13.4301 0.0000
# 2 33.6847 91.6547 28.6927 0.0000 1.4179 0.0000
# 3 72.4713 28.6927 105.1477 0.0000 11.5265 0.0000
# 4 0.0000 0.0000 0.0000 26.4363 0.0000 -6.6898
# 5 13.4301 1.4179 11.5265 0.0000 37.4561 0.0000
# 6 0.0000 0.0000 0.0000 -6.6898 0.0000 25.4584
#
#
#
# Elastic Compliance Matrix: (Units=1/GPa)
#
#
# Indices 1 2 3 4 5 6 
#
# 1 0.010356 -0.001752 -0.006478 0.000000 -0.001653 0.000000
# 2 -0.001752 0.012238 -0.002225 0.000000 0.000850 0.000000
# 3 -0.006478 -0.002225 0.014819 0.000000 -0.002153 0.000000
# 4 0.000000 0.000000 0.000000 0.040521 0.000000 0.010648
# 5 -0.001653 0.000850 -0.002153 0.000000 0.027921 0.000000
# 6 0.000000 0.000000 0.000000 0.010648 0.000000 0.042078
#
#
# Mechanical properties :
#
#
# Convention : Reuss Voigt Hill
#
# Bulk Modulus (GPa) = 60.60035 68.47094 64.53565
# Shear Modulus (GPa) = 28.67878 31.98298 30.33088
#
# Velocity S-wave (km/s) = 3.78624 3.99841 3.89377
# Velocity P-wave (km/s) = 7.02896 7.45270 7.24393
#
# Compressibility (1/GPa) = 0.01650155
#
# Stress axis : x y z
#
# Youngs Moduli (GPa) = 96.55976 81.71334 67.48230
#
# Poissons Ratio (x) = 0.14320 0.43718
# Poissons Ratio (y) = 0.16922 0.15013
# Poissons Ratio (z) = 0.62556 0.18179
#
# Static dielectric constant tensor:
#      x y z
#    x 3.481010 0.000000 0.107580 
#    y 0.000000 3.780000 0.000000 
#    z 0.107580 0.000000 3.879560 
# 
# 
# High freq. dielectric constant tensor:
#      x y z
#    x 1.779380 0.000000 0.008750 
#    y 0.000000 1.788820 0.000000 
#    z 0.008750 0.000000 1.795400 
# 
# From -- ./inp_files/5779.got.cif
#   From: 2010.06.25/outbox.cif.g09.slc.cpg/sg9_3_cif.got.tgz:5779.got - 2010.06.27 21:40:51.
