data_PCOD8054850
_publ_section_title
;
Structure prediction by ZEFSAII (Michael W. Deem and Ramdas Pophale) SiO2 
 PCOD8054850
Probable space group: C C
;
_chemical_formula_sum "Si O2"
_cell_formula_units_Z 32
_cell_length_a 8.709553
_cell_length_b 19.907052
_cell_length_c 13.893391
_cell_angle_alpha 90.000000
_cell_angle_beta 32.884827
_cell_angle_gamma 90.000000
_cell_volume 1307.894097
_symmetry_space_group_name_H-M "C C"
_symmetry_group_IT_number 9
_symmetry_cell_setting 'monoclinic'
loop_
_space_group_symop_operation_xyz
x,y,z
x,-y,1/2+z
1/2+x,1/2+y,z
1/2+x,1/2-y,1/2+z
loop_
_atom_site_type_symbol
_atom_site_label
_atom_site_fract_x
_atom_site_fract_y
_atom_site_fract_z
Si Si1 0.153950 0.942542 0.865350
Si Si2 0.759097 0.839515 0.985644
Si Si3 0.290102 0.204813 0.592643
Si Si4 0.693624 0.233813 0.714206
Si Si5 0.584366 0.847717 0.751685
Si Si6 0.923982 0.967197 0.659604
Si Si7 0.928364 0.533871 0.039779
Si Si8 0.664166 0.175147 0.929279
O O1 0.370654 0.884590 0.789672
O O2 0.306076 0.993793 0.707779
O O3 0.899103 0.911455 0.934840
O O4 0.012965 0.980398 0.029710
O O5 0.985821 0.795816 0.808389
O O6 0.486139 0.837172 0.062556
O O7 0.669883 0.810424 0.133868
O O8 0.385106 0.183798 0.437121
O O9 0.270128 0.286477 0.608506
O O10 0.992040 0.173626 0.778591
O O11 0.602671 0.187136 0.849273
O O12 0.007016 0.264515 0.569732
O O13 0.819577 0.898870 0.666452
O O14 0.193783 0.954031 0.582602
O O15 0.675195 0.991384 0.861450
O O16 0.040882 0.604005 0.020876
#
# Coordination Sequence:
#
# PCOD8054850 Si02
#       8
#     4   4   4   4   4   4   4   4
#     4  12  27  54  83 114 161 215 273 331 405 481
#     4  11  22  42  71 113 152 205 255 321 397 476
#     4  12  26  45  77 116 165 200 260 334 407 479
#     4  10  21  38  68 107 155 198 251 314 399 465
#     4  12  28  52  75 121 160 210 268 335 403 486
#     4  12  29  56  79 118 161 209 279 337 396 484
#     4  12  28  51  83 112 152 214 268 337 402 470
#     4  11  23  44  72 109 152 203 252 327 391 485
#
# _framework density 24.466812000000001
#
# number of rings (size 3 to 8) (size 9 to 14) (size 15 to 20)
#    0.000    0.500    2.500    6.000    7.000    0.000 
#    4.500    0.000    0.000    0.000    0.000    0.000 
#    0.000    0.000    0.000    0.000    0.000    0.000 
#
# Total GULP energy -198303.000458 kJ/mol
# GULP energy per Si atom -12393.937529 kJ/mol
# Density = 2.441112 g / cm^3
# Si number density = 24.466812 Si / 1000 Ang^3
#
#
#
# Elastic Constant Matrix: (Units=GPa)
#
#
# Indices 1 2 3 4 5 6 
#
# 1 372.0047 44.5057 147.3723 -0.0538 83.7405 0.0798
# 2 44.5057 83.0206 34.3801 0.0235 10.8814 -0.0159
# 3 147.3723 34.3801 160.7285 -0.1287 46.8517 0.0783
# 4 -0.0538 0.0235 -0.1287 40.2871 0.0066 0.0927
# 5 83.7405 10.8814 46.8517 0.0066 82.0435 0.0003
# 6 0.0798 -0.0159 0.0783 0.0927 0.0003 30.2983
#
#
#
# Elastic Compliance Matrix: (Units=1/GPa)
#
#
# Indices 1 2 3 4 5 6 
#
# 1 0.004751 -0.000783 -0.003365 -0.000003 -0.002823 -0.000004
# 2 -0.000783 0.013347 -0.002224 -0.000016 0.000299 0.000015
# 3 -0.003365 -0.002224 0.010433 0.000031 -0.002228 -0.000019
# 4 -0.000003 -0.000016 0.000031 0.024822 -0.000014 -0.000076
# 5 -0.002823 0.000299 -0.002228 -0.000014 0.016303 0.000013
# 6 -0.000004 0.000015 -0.000019 -0.000076 0.000013 0.033005
#
#
# Mechanical properties :
#
#
# Convention : Reuss Voigt Hill
#
# Bulk Modulus (GPa) = 63.35225 118.69668 91.02446
# Shear Modulus (GPa) = 41.43646 56.49216 48.96431
#
# Velocity S-wave (km/s) = 4.11977 4.81035 4.47839
# Velocity P-wave (km/s) = 6.96989 8.91466 8.00158
#
# Compressibility (1/GPa) = 0.01578476
#
# Stress axis : x y z
#
# Youngs Moduli (GPa) = 210.50307 74.92417 95.85420
#
# Poissons Ratio (x) = 0.05867 0.32258
# Poissons Ratio (y) = 0.16482 0.21320
# Poissons Ratio (z) = 0.70842 0.16665
#
# Static dielectric constant tensor:
#      x y z
#    x 4.186990 -0.000150 0.032600 
#    y -0.000150 4.522600 -0.000010 
#    z 0.032600 -0.000010 4.859160 
# 
# 
# High freq. dielectric constant tensor:
#      x y z
#    x 1.989340 0.000000 0.009520 
#    y 0.000000 1.959520 0.000010 
#    z 0.009520 0.000010 1.997030 
# 
# From -- ./inp_files/23793.got.cif
#   From: 2010.06.25/outbox.cif.g09.slc.cpg/sg9_12_cif.got.tgz:23793.got - 2010.06.27 21:40:51.
