data_PCOD8054673
_publ_section_title
;
Structure prediction by ZEFSAII (Michael W. Deem and Ramdas Pophale) SiO2 
 PCOD8054673
Probable space group: C C
;
_chemical_formula_sum "Si O2"
_cell_formula_units_Z 32
_cell_length_a 8.116064
_cell_length_b 11.393576
_cell_length_c 15.942348
_cell_angle_alpha 90.000000
_cell_angle_beta 104.792221
_cell_angle_gamma 90.000000
_cell_volume 1425.346732
_symmetry_space_group_name_H-M "C C"
_symmetry_group_IT_number 9
_symmetry_cell_setting 'monoclinic'
loop_
_space_group_symop_operation_xyz
x,y,z
x,-y,1/2+z
1/2+x,1/2+y,z
1/2+x,1/2-y,1/2+z
loop_
_atom_site_type_symbol
_atom_site_label
_atom_site_fract_x
_atom_site_fract_y
_atom_site_fract_z
Si Si1 0.307980 0.155078 0.820950
Si Si2 0.199905 0.504764 0.633309
Si Si3 0.046388 0.678245 0.998896
Si Si4 0.123966 0.701323 0.740430
Si Si5 0.744995 0.445188 0.707563
Si Si6 0.509791 0.446993 0.048423
Si Si7 0.787954 0.079772 0.901597
Si Si8 0.128819 0.387930 0.780973
O O1 0.457206 0.182150 0.774403
O O2 0.161550 0.252728 0.802887
O O3 0.219925 0.034421 0.781907
O O4 0.377800 0.148752 0.924149
O O5 0.059684 0.420837 0.571630
O O6 0.110467 0.625012 0.653462
O O7 0.356036 0.537454 0.594127
O O8 0.257869 0.433553 0.724595
O O9 0.037776 0.809952 0.033536
O O10 0.214411 0.665775 0.963308
O O11 0.128541 0.835251 0.714977
O O12 0.291761 0.659147 0.816950
O O13 0.681343 0.502294 0.612081
O O14 0.938520 0.404623 0.722211
O O15 0.465631 0.522171 0.957767
O O16 0.660790 0.968273 0.867686
#
# Coordination Sequence:
#
# PCOD8054673 Si02
#       8
#     4   4   4   4   4   4   4   4
#     4  11  22  44  72  91 136 180 220 281 332 405
#     4  10  22  40  66  96 136 176 222 279 335 393
#     4  10  20  40  70 100 132 177 222 275 339 392
#     4  10  23  44  67  95 137 178 229 274 337 406
#     4  12  25  41  67 108 127 177 230 271 333 415
#     4  11  23  40  70  99 137 176 228 278 341 398
#     4   9  20  45  66  94 136 178 217 279 335 393
#     4  11  21  44  72  93 135 176 222 279 336 398
#
# _framework density 22.450679000000001
#
# number of rings (size 3 to 8) (size 9 to 14) (size 15 to 20)
#    0.000    1.500    5.000    1.500    3.500    1.000 
#    2.250    2.500    0.000    0.000    0.000    0.000 
#    0.000    0.000    0.000    0.000    0.000    0.000 
#
# Total GULP energy -198284.676119 kJ/mol
# GULP energy per Si atom -12392.792257 kJ/mol
# Density = 2.239958 g / cm^3
# Si number density = 22.450679 Si / 1000 Ang^3
#
#
#
# Elastic Constant Matrix: (Units=GPa)
#
#
# Indices 1 2 3 4 5 6 
#
# 1 55.8563 31.8638 32.6195 0.0000 15.5933 0.0000
# 2 31.8638 181.6341 67.8694 0.0000 14.8782 0.0000
# 3 32.6195 67.8694 119.8369 0.0000 24.7895 0.0000
# 4 0.0000 0.0000 0.0000 35.9301 0.0000 4.5679
# 5 15.5933 14.8782 24.7895 0.0000 38.2016 0.0000
# 6 0.0000 0.0000 0.0000 4.5679 0.0000 33.6342
#
#
#
# Elastic Compliance Matrix: (Units=1/GPa)
#
#
# Indices 1 2 3 4 5 6 
#
# 1 0.023041 -0.002119 -0.003808 0.000000 -0.006109 0.000000
# 2 -0.002119 0.007179 -0.003569 0.000000 0.000385 0.000000
# 3 -0.003808 -0.003569 0.012467 0.000000 -0.005146 0.000000
# 4 0.000000 0.000000 0.000000 0.028321 0.000000 -0.003846
# 5 -0.006109 0.000385 -0.005146 0.000000 0.031860 0.000000
# 6 0.000000 0.000000 0.000000 -0.003846 0.000000 0.030254
#
#
# Mechanical properties :
#
#
# Convention : Reuss Voigt Hill
#
# Bulk Modulus (GPa) = 42.20167 69.11474 55.65821
# Shear Modulus (GPa) = 31.24774 36.55147 33.89961
#
# Velocity S-wave (km/s) = 3.73478 4.03932 3.89003
# Velocity P-wave (km/s) = 6.11853 7.25306 6.70982
#
# Compressibility (1/GPa) = 0.02369574
#
# Stress axis : x y z
#
# Youngs Moduli (GPa) = 43.40092 139.28974 80.21263
#
# Poissons Ratio (x) = 0.29511 0.30546
# Poissons Ratio (y) = 0.09195 0.28626
# Poissons Ratio (z) = 0.16528 0.49710
#
# Static dielectric constant tensor:
#      x y z
#    x 3.606040 0.000000 0.122310 
#    y 0.000000 4.299510 0.000000 
#    z 0.122310 0.000000 4.386740 
# 
# 
# High freq. dielectric constant tensor:
#      x y z
#    x 1.849640 0.000000 0.005870 
#    y 0.000000 1.899010 0.000000 
#    z 0.005870 0.000000 1.894500 
# 
# From -- ./inp_files/22799.got.cif
#   From: 2010.06.25/outbox.cif.g09.slc.cpg/sg9_12_cif.got.tgz:22799.got - 2010.06.27 21:40:51.
