data_PCOD8054439
_publ_section_title
;
Structure prediction by ZEFSAII (Michael W. Deem and Ramdas Pophale) SiO2 
 PCOD8054439
Probable space group: C C
;
_chemical_formula_sum "Si O2"
_cell_formula_units_Z 32
_cell_length_a 11.029190
_cell_length_b 12.169768
_cell_length_c 11.207526
_cell_angle_alpha 90.000000
_cell_angle_beta 76.508110
_cell_angle_gamma 90.000000
_cell_volume 1462.789863
_symmetry_space_group_name_H-M "C C"
_symmetry_group_IT_number 9
_symmetry_cell_setting 'monoclinic'
loop_
_space_group_symop_operation_xyz
x,y,z
x,-y,1/2+z
1/2+x,1/2+y,z
1/2+x,1/2-y,1/2+z
loop_
_atom_site_type_symbol
_atom_site_label
_atom_site_fract_x
_atom_site_fract_y
_atom_site_fract_z
Si Si1 0.221610 0.357465 0.233860
Si Si2 0.161779 0.602292 0.259862
Si Si3 0.150291 0.946710 0.510620
Si Si4 0.459158 0.732794 0.812678
Si Si5 0.902327 0.834142 0.576728
Si Si6 0.257777 0.711806 0.475097
Si Si7 0.000408 0.796912 0.796141
Si Si8 0.121156 0.023341 0.763331
O O1 0.167616 0.473501 0.292819
O O2 0.354601 0.315151 0.249596
O O3 0.126747 0.264264 0.298887
O O4 0.232388 0.371049 0.089143
O O5 0.261921 0.622865 0.131576
O O6 0.195620 0.666995 0.371090
O O7 0.023245 0.650397 0.257204
O O8 0.198858 0.826085 0.527955
O O9 0.193291 0.017299 0.618085
O O10 0.997983 0.937753 0.536979
O O11 0.200329 0.994179 0.370560
O O12 0.570639 0.645469 0.785794
O O13 0.402558 0.742308 0.959092
O O14 0.945539 0.759730 0.679850
O O15 0.404791 0.729964 0.423323
O O16 0.016468 0.928809 0.784972
#
# Coordination Sequence:
#
# PCOD8054439 Si02
#       8
#     4   4   4   4   4   4   4   4
#     4  12  25  42  67  99 139 176 231 289 349 429
#     4  11  24  43  70  98 131 185 232 284 354 421
#     4  10  19  40  68  94 131 174 224 280 348 420
#     4  11  23  42  66 100 135 171 234 288 344 424
#     4   9  19  41  66  90 127 174 222 281 343 415
#     4  11  22  45  66  89 136 184 222 276 362 423
#     4  10  22  41  67  94 129 178 226 279 354 419
#     4  10  20  40  66  98 124 168 229 279 338 413
#
# _framework density 21.876006
#
# number of rings (size 3 to 8) (size 9 to 14) (size 15 to 20)
#    0.000    1.500    5.000    2.250    7.000    1.000 
#    2.250    0.000    0.000    0.000    0.000    0.000 
#    0.000    0.000    0.000    0.000    0.000    0.000 
#
# Total GULP energy -198230.700988 kJ/mol
# GULP energy per Si atom -12389.418812 kJ/mol
# Density = 2.182622 g / cm^3
# Si number density = 21.876006 Si / 1000 Ang^3
#
#
#
# Elastic Constant Matrix: (Units=GPa)
#
#
# Indices 1 2 3 4 5 6 
#
# 1 53.6142 38.7131 13.3410 0.0000 -1.1129 0.0000
# 2 38.7131 80.9759 24.4446 0.0000 1.3638 0.0000
# 3 13.3410 24.4446 97.4093 0.0000 14.8430 0.0000
# 4 0.0000 0.0000 0.0000 28.1412 0.0000 1.1751
# 5 -1.1129 1.3638 14.8430 0.0000 23.8988 0.0000
# 6 0.0000 0.0000 0.0000 1.1751 0.0000 21.1235
#
#
#
# Elastic Compliance Matrix: (Units=1/GPa)
#
#
# Indices 1 2 3 4 5 6 
#
# 1 0.028666 -0.013461 -0.000959 0.000000 0.002699 0.000000
# 2 -0.013461 0.019728 -0.003137 0.000000 0.000196 0.000000
# 3 -0.000959 -0.003137 0.012331 0.000000 -0.007524 0.000000
# 4 0.000000 0.000000 0.000000 0.035618 0.000000 -0.001981
# 5 0.002699 0.000196 -0.007524 0.000000 0.046631 0.000000
# 6 0.000000 0.000000 0.000000 -0.001981 0.000000 0.047451
#
#
# Mechanical properties :
#
#
# Convention : Reuss Voigt Hill
#
# Bulk Modulus (GPa) = 39.04511 42.77743 40.91127
# Shear Modulus (GPa) = 21.36059 24.99941 23.18000
#
# Velocity S-wave (km/s) = 3.12819 3.38417 3.25869
# Velocity P-wave (km/s) = 5.56189 5.90483 5.73592
#
# Compressibility (1/GPa) = 0.02561140
#
# Stress axis : x y z
#
# Youngs Moduli (GPa) = 34.88462 50.68862 81.09564
#
# Poissons Ratio (x) = 0.68229 0.07780
# Poissons Ratio (y) = 0.46956 0.25440
# Poissons Ratio (z) = 0.03347 0.15901
#
# Static dielectric constant tensor:
#      x y z
#    x 3.804430 0.000000 -0.027380 
#    y 0.000000 3.715920 0.000000 
#    z -0.027380 0.000000 4.403070 
# 
# 
# High freq. dielectric constant tensor:
#      x y z
#    x 1.829830 0.000000 0.002830 
#    y 0.000000 1.836030 0.000000 
#    z 0.002830 0.000000 1.879310 
# 
# From -- ./inp_files/16181.got.cif
#   From: 2010.06.25/outbox.cif.g09.slc.cpg/sg9_9_cif.got.tgz:16181.got - 2010.06.27 21:40:51.
