data_PCOD8054936
_publ_section_title
;
Structure prediction by ZEFSAII (Michael W. Deem and Ramdas Pophale) SiO2 
 PCOD8054936
Probable space group: C C
;
_chemical_formula_sum "Si O2"
_cell_formula_units_Z 24
_cell_length_a 9.236504
_cell_length_b 5.229345
_cell_length_c 17.810220
_cell_angle_alpha 90.000000
_cell_angle_beta 92.503934
_cell_angle_gamma 90.000000
_cell_volume 859.427705
_symmetry_space_group_name_H-M "C C"
_symmetry_group_IT_number 9
_symmetry_cell_setting 'monoclinic'
loop_
_space_group_symop_operation_xyz
x,y,z
x,-y,1/2+z
1/2+x,1/2+y,z
1/2+x,1/2-y,1/2+z
loop_
_atom_site_type_symbol
_atom_site_label
_atom_site_fract_x
_atom_site_fract_y
_atom_site_fract_z
Si Si1 0.820200 0.644163 0.619240
Si Si2 0.382218 0.153014 0.982374
Si Si3 0.180486 0.437466 0.455184
Si Si4 0.095010 0.653031 0.307099
Si Si5 0.796737 0.437447 0.834287
Si Si6 0.156984 0.644161 0.670230
O O1 0.813917 0.590479 0.527635
O O2 0.724901 0.892574 0.633067
O O3 0.988591 0.679516 0.644738
O O4 0.752281 0.392570 0.656399
O O5 0.300567 0.412444 0.008144
O O6 0.553738 0.173230 0.006517
O O7 0.371790 0.150131 0.891348
O O8 0.105465 0.650196 0.398126
O O9 0.238573 0.249994 0.394728
O O10 0.163276 0.409514 0.261835
O O11 0.176690 0.912416 0.281317
O O12 0.923487 0.326697 0.782964
#
# Coordination Sequence:
#
# PCOD8054936 Si02
#       6
#     4   4   4   4   4   4
#     4  12  28  49  73 106 144 197 240 293 351 428
#     4  10  23  39  65  97 132 173 232 282 352 414
#     4  10  21  40  66  97 128 172 221 295 351 406
#     4  10  23  39  65  97 132 173 232 282 352 414
#     4  10  21  40  66  97 128 172 221 295 351 406
#     4  12  28  49  73 106 144 197 240 293 351 428
#
# _framework density 27.925560999999998
#
# number of rings (size 3 to 8) (size 9 to 14) (size 15 to 20)
#    0.000    1.333    0.000    4.000    9.333    0.000 
#    0.000    0.000    0.000    0.000    0.000    0.000 
#    0.000    0.000    0.000    0.000    0.000    0.000 
#
# Total GULP energy -148679.273871 kJ/mol
# GULP energy per Si atom -12389.939489 kJ/mol
# Density = 2.786200 g / cm^3
# Si number density = 27.925561 Si / 1000 Ang^3
#
#
#
# Elastic Constant Matrix: (Units=GPa)
#
#
# Indices 1 2 3 4 5 6 
#
# 1 208.7396 60.3095 12.7676 0.0000 -37.6775 0.0000
# 2 60.3095 105.2523 -13.8196 0.0000 -13.0419 0.0000
# 3 12.7676 -13.8196 100.7951 0.0000 11.2034 0.0000
# 4 0.0000 0.0000 0.0000 41.0718 0.0000 -1.9562
# 5 -37.6775 -13.0419 11.2034 0.0000 41.9076 0.0000
# 6 0.0000 0.0000 0.0000 -1.9562 0.0000 59.7633
#
#
#
# Elastic Compliance Matrix: (Units=1/GPa)
#
#
# Indices 1 2 3 4 5 6 
#
# 1 0.006966 -0.003549 -0.002002 0.000000 0.005694 0.000000
# 2 -0.003549 0.011798 0.002075 0.000000 -0.000074 0.000000
# 3 -0.002002 0.002075 0.010912 0.000000 -0.004071 0.000000
# 4 0.000000 0.000000 0.000000 0.024386 0.000000 0.000798
# 5 0.005694 -0.000074 -0.004071 0.000000 0.030046 0.000000
# 6 0.000000 0.000000 0.000000 0.000798 0.000000 0.016759
#
#
# Mechanical properties :
#
#
# Convention : Reuss Voigt Hill
#
# Bulk Modulus (GPa) = 44.00474 59.25576 51.63025
# Shear Modulus (GPa) = 43.33037 52.25048 47.79043
#
# Velocity S-wave (km/s) = 3.94336 4.33027 4.14134
# Velocity P-wave (km/s) = 6.04363 6.80198 6.43399
#
# Compressibility (1/GPa) = 0.02272482
#
# Stress axis : x y z
#
# Youngs Moduli (GPa) = 143.55044 84.76118 91.64456
#
# Poissons Ratio (x) = 0.30081 0.18346
# Poissons Ratio (y) = 0.50945 -0.19019
# Poissons Ratio (z) = 0.28737 -0.17591
#
# Static dielectric constant tensor:
#      x y z
#    x 6.884550 0.000000 0.596740 
#    y 0.000000 5.478220 0.000000 
#    z 0.596740 0.000000 8.176930 
# 
# 
# High freq. dielectric constant tensor:
#      x y z
#    x 2.147200 0.000000 -0.005850 
#    y 0.000000 2.128640 0.000000 
#    z -0.005850 0.000000 2.141240 
# 
# From -- ./inp_files/29614.got.cif
#   From: 2010.06.25/outbox.cif.g09.slc.cpg/sg9_15_cif.got.tgz:29614.got - 2010.06.27 21:40:51.
