data_PCOD8054263
_publ_section_title
;
Structure prediction by ZEFSAII (Michael W. Deem and Ramdas Pophale) SiO2 
 PCOD8054263
Probable space group: C C
;
_chemical_formula_sum "Si O2"
_cell_formula_units_Z 32
_cell_length_a 9.714171
_cell_length_b 17.967519
_cell_length_c 10.836956
_cell_angle_alpha 90.000000
_cell_angle_beta 55.562124
_cell_angle_gamma 90.000000
_cell_volume 1559.976806
_symmetry_space_group_name_H-M "C C"
_symmetry_group_IT_number 9
_symmetry_cell_setting 'monoclinic'
loop_
_space_group_symop_operation_xyz
x,y,z
x,-y,1/2+z
1/2+x,1/2+y,z
1/2+x,1/2-y,1/2+z
loop_
_atom_site_type_symbol
_atom_site_label
_atom_site_fract_x
_atom_site_fract_y
_atom_site_fract_z
Si Si1 0.135480 0.410011 0.327800
Si Si2 0.631147 0.648787 0.542657
Si Si3 0.963121 0.411220 0.781373
Si Si4 0.132008 0.437905 0.936958
Si Si5 0.896885 0.064148 0.488860
Si Si6 0.023685 0.901254 0.360909
Si Si7 0.877038 0.577139 0.769367
Si Si8 0.197217 0.682009 0.007268
O O1 0.123368 0.471530 0.443592
O O2 0.251782 0.445097 0.163114
O O3 0.209684 0.335144 0.353075
O O4 0.959074 0.389742 0.352711
O O5 0.823314 0.635002 0.421514
O O6 0.528721 0.625069 0.471322
O O7 0.558669 0.603220 0.696016
O O8 0.631845 0.736328 0.570541
O O9 0.877057 0.487962 0.784631
O O10 0.114528 0.415929 0.803309
O O11 0.041651 0.368379 0.627643
O O12 0.308087 0.409654 0.905911
O O13 0.981156 0.403422 0.093811
O O14 0.978167 0.984757 0.421195
O O15 0.194750 0.885340 0.348619
O O16 0.878119 0.842027 0.472792
#
# Coordination Sequence:
#
# PCOD8054263 Si02
#       8
#     4   4   4   4   4   4   4   4
#     4  10  20  38  63  95 131 168 210 275 337 388
#     4  12  25  40  64  98 134 172 224 268 329 406
#     4  11  22  39  62  93 131 167 213 271 335 389
#     4  10  18  37  62  93 123 159 214 281 323 368
#     4  11  21  39  67  98 123 166 230 283 314 381
#     4  12  22  42  65  97 131 169 230 271 324 395
#     4  10  20  35  65  93 120 161 222 278 314 371
#     4  12  24  42  62  93 139 184 203 263 354 408
#
# _framework density 20.513126
#
# number of rings (size 3 to 8) (size 9 to 14) (size 15 to 20)
#    0.000    1.000    6.250    2.250    0.000    0.000 
#    0.000    2.500    0.000    0.000    0.000    0.000 
#    0.000    0.000    0.000    0.000    0.000    0.000 
#
# Total GULP energy -198249.550692 kJ/mol
# GULP energy per Si atom -12390.596918 kJ/mol
# Density = 2.046644 g / cm^3
# Si number density = 20.513126 Si / 1000 Ang^3
#
#
#
# Elastic Constant Matrix: (Units=GPa)
#
#
# Indices 1 2 3 4 5 6 
#
# 1 118.1397 54.0209 11.7847 0.0000 -2.2556 0.0000
# 2 54.0209 76.2539 22.6156 0.0000 -1.7755 0.0000
# 3 11.7847 22.6156 56.7073 0.0000 -4.6728 0.0000
# 4 0.0000 0.0000 0.0000 20.4306 0.0000 -2.4747
# 5 -2.2556 -1.7755 -4.6728 0.0000 29.9658 0.0000
# 6 0.0000 0.0000 0.0000 -2.4747 0.0000 27.7357
#
#
#
# Elastic Compliance Matrix: (Units=1/GPa)
#
#
# Indices 1 2 3 4 5 6 
#
# 1 0.012587 -0.009234 0.001114 0.000000 0.000574 0.000000
# 2 -0.009234 0.021648 -0.006753 0.000000 -0.000465 0.000000
# 3 0.001114 -0.006753 0.020331 0.000000 0.002854 0.000000
# 4 0.000000 0.000000 0.000000 0.049481 0.000000 0.004415
# 5 0.000574 -0.000465 0.002854 0.000000 0.033832 0.000000
# 6 0.000000 0.000000 0.000000 0.004415 0.000000 0.036449
#
#
# Mechanical properties :
#
#
# Convention : Reuss Voigt Hill
#
# Bulk Modulus (GPa) = 40.28927 47.54924 43.91926
# Shear Modulus (GPa) = 23.54654 26.47174 25.00914
#
# Velocity S-wave (km/s) = 3.39171 3.59622 3.49546
# Velocity P-wave (km/s) = 5.91791 6.36191 6.14392
#
# Compressibility (1/GPa) = 0.02482050
#
# Stress axis : x y z
#
# Youngs Moduli (GPa) = 79.44892 46.19450 49.18567
#
# Poissons Ratio (x) = 0.42656 -0.05480
# Poissons Ratio (y) = 0.73363 0.33214
# Poissons Ratio (z) = -0.08852 0.31194
#
# Static dielectric constant tensor:
#      x y z
#    x 4.045420 0.000000 -0.007930 
#    y 0.000000 3.373390 0.000000 
#    z -0.007930 0.000000 3.687700 
# 
# 
# High freq. dielectric constant tensor:
#      x y z
#    x 1.817400 0.000000 -0.003290 
#    y 0.000000 1.760190 0.000000 
#    z -0.003290 0.000000 1.802700 
# 
# From -- ./inp_files/15172.got.cif
#   From: 2010.06.25/outbox.cif.g09.slc.cpg/sg9_8_cif.got.tgz:15172.got - 2010.06.27 21:40:51.
