data_PCOD8054757
_publ_section_title
;
Structure prediction by ZEFSAII (Michael W. Deem and Ramdas Pophale) SiO2 
 PCOD8054757
Probable space group: C C
;
_chemical_formula_sum "Si O2"
_cell_formula_units_Z 28
_cell_length_a 7.509538
_cell_length_b 11.246887
_cell_length_c 17.225377
_cell_angle_alpha 90.000000
_cell_angle_beta 128.265278
_cell_angle_gamma 90.000000
_cell_volume 1142.267785
_symmetry_space_group_name_H-M "C C"
_symmetry_group_IT_number 9
_symmetry_cell_setting 'monoclinic'
loop_
_space_group_symop_operation_xyz
x,y,z
x,-y,1/2+z
1/2+x,1/2+y,z
1/2+x,1/2-y,1/2+z
loop_
_atom_site_type_symbol
_atom_site_label
_atom_site_fract_x
_atom_site_fract_y
_atom_site_fract_z
Si Si1 0.508360 0.582846 0.608080
Si Si2 0.731806 0.098908 0.758073
Si Si3 0.535856 0.016180 0.556858
Si Si4 0.074565 0.832387 0.676961
Si Si5 0.410235 0.134750 0.811669
Si Si6 0.586220 0.238832 0.005282
Si Si7 0.165659 0.955739 0.851114
O O1 0.265485 0.569971 0.582123
O O2 0.623631 0.450064 0.638869
O O3 0.678879 0.668528 0.703104
O O4 0.486153 0.641031 0.517367
O O5 0.561494 0.024760 0.656280
O O6 0.767989 0.231062 0.729110
O O7 0.617362 0.103217 0.811090
O O8 0.980073 0.045914 0.834006
O O9 0.315294 0.091217 0.465254
O O10 0.492751 0.878871 0.523410
O O11 0.857136 0.764164 0.584216
O O12 0.039615 0.861416 0.760547
O O13 0.356786 0.018820 0.848997
O O14 0.494813 0.241424 0.891423
#
# Coordination Sequence:
#
# PCOD8054757 Si02
#       7
#     4   4   4   4   4   4   4
#     4  10  20  47  70 100 151 191 231 311 362 414
#     4  12  22  45  73 107 145 190 240 302 372 426
#     4  10  23  45  72 105 145 189 246 307 360 436
#     4  10  22  42  69 105 149 180 248 308 346 449
#     4  10  22  41  73 102 138 195 239 286 373 426
#     4  10  20  44  70 104 149 185 245 310 351 436
#     4  10  23  48  67 105 149 182 247 310 352 441
#
# _framework density 24.512640999999999
#
# number of rings (size 3 to 8) (size 9 to 14) (size 15 to 20)
#    0.000    1.714    5.714    0.000    0.000    3.429 
#   15.429    5.714    0.000    0.000    0.000    0.000 
#    0.000    0.000    0.000    0.000    0.000    0.000 
#
# Total GULP energy -173482.813061 kJ/mol
# GULP energy per Si atom -12391.629504 kJ/mol
# Density = 2.445685 g / cm^3
# Si number density = 24.512641 Si / 1000 Ang^3
#
#
#
# Elastic Constant Matrix: (Units=GPa)
#
#
# Indices 1 2 3 4 5 6 
#
# 1 94.3124 42.5859 50.7199 0.0000 -3.4963 0.0000
# 2 42.5859 70.4534 41.1437 0.0000 4.5236 0.0000
# 3 50.7199 41.1437 151.7634 0.0000 0.1807 0.0000
# 4 0.0000 0.0000 0.0000 38.0847 0.0000 2.5681
# 5 -3.4963 4.5236 0.1807 0.0000 44.2026 0.0000
# 6 0.0000 0.0000 0.0000 2.5681 0.0000 20.3750
#
#
#
# Elastic Compliance Matrix: (Units=1/GPa)
#
#
# Indices 1 2 3 4 5 6 
#
# 1 0.015977 -0.007927 -0.003193 0.000000 0.002088 0.000000
# 2 -0.007927 0.020926 -0.003021 0.000000 -0.002756 0.000000
# 3 -0.003193 -0.003021 0.008475 0.000000 0.000022 0.000000
# 4 0.000000 0.000000 0.000000 0.026482 0.000000 -0.003338
# 5 0.002088 -0.002756 0.000022 0.000000 0.023070 0.000000
# 6 0.000000 0.000000 0.000000 -0.003338 0.000000 0.049500
#
#
# Mechanical properties :
#
#
# Convention : Reuss Voigt Hill
#
# Bulk Modulus (GPa) = 58.48882 65.04758 61.76820
# Shear Modulus (GPa) = 28.02514 32.67112 30.34813
#
# Velocity S-wave (km/s) = 3.38493 3.65475 3.52243
# Velocity P-wave (km/s) = 6.26015 6.66360 6.46502
#
# Compressibility (1/GPa) = 0.01709728
#
# Stress axis : x y z
#
# Youngs Moduli (GPa) = 62.59049 47.78711 117.99056
#
# Poissons Ratio (x) = 0.37879 0.37675
# Poissons Ratio (y) = 0.49613 0.35642
# Poissons Ratio (z) = 0.19986 0.14435
#
# Static dielectric constant tensor:
#      x y z
#    x 4.014820 0.000000 -0.101690 
#    y 0.000000 4.430820 0.000000 
#    z -0.101690 0.000000 5.006650 
# 
# 
# High freq. dielectric constant tensor:
#      x y z
#    x 1.946890 0.000000 -0.002880 
#    y 0.000000 1.966210 0.000000 
#    z -0.002880 0.000000 1.998360 
# 
# From -- ./inp_files/32584.got.cif
#   From: 2010.06.25/outbox.cif.g09.slc.cpg/sg9_17_cif.got.tgz:32584.got - 2010.06.27 21:40:51.
