data_PCOD8054604
_publ_section_title
;
Structure prediction by ZEFSAII (Michael W. Deem and Ramdas Pophale) SiO2 
 PCOD8054604
Probable space group: C C
;
_chemical_formula_sum "Si O2"
_cell_formula_units_Z 32
_cell_length_a 14.691469
_cell_length_b 8.440523
_cell_length_c 23.515415
_cell_angle_alpha 90.000000
_cell_angle_beta 147.702430
_cell_angle_gamma 90.000000
_cell_volume 1558.065869
_symmetry_space_group_name_H-M "C C"
_symmetry_group_IT_number 9
_symmetry_cell_setting 'monoclinic'
loop_
_space_group_symop_operation_xyz
x,y,z
x,-y,1/2+z
1/2+x,1/2+y,z
1/2+x,1/2-y,1/2+z
loop_
_atom_site_type_symbol
_atom_site_label
_atom_site_fract_x
_atom_site_fract_y
_atom_site_fract_z
Si Si1 0.119190 0.573875 0.847020
Si Si2 0.545393 0.396223 0.462068
Si Si3 0.517036 0.117037 0.066873
Si Si4 0.774552 0.183978 0.505495
Si Si5 0.123786 0.071665 0.725255
Si Si6 0.729958 0.090868 0.289472
Si Si7 0.724104 0.403966 0.151032
Si Si8 0.316474 0.844411 0.904146
O O1 0.157126 0.493952 0.806655
O O2 0.229985 0.736713 0.907704
O O3 0.923892 0.617262 0.750230
O O4 0.164587 0.462348 0.924204
O O5 0.663986 0.320132 0.476922
O O6 0.420484 0.534426 0.372842
O O7 0.660309 0.466083 0.572891
O O8 0.422194 0.258429 0.416581
O O9 0.356242 0.229512 0.994495
O O10 0.602643 0.056005 0.170298
O O11 0.646552 0.227975 0.099290
O O12 0.456187 0.964215 0.001697
O O13 0.923175 0.115703 0.625196
O O14 0.239018 0.220948 0.805380
O O15 0.168129 0.030319 0.683257
O O16 0.165081 0.927600 0.788771
#
# Coordination Sequence:
#
# PCOD8054604 Si02
#       8
#     4   4   4   4   4   4   4   4
#     4  11  22  37  58  86 116 152 194 239 287 346
#     4  11  22  37  60  87 114 152 193 237 291 346
#     4  10  22  39  59  84 116 153 192 239 290 341
#     4  10  22  39  59  84 116 155 192 235 290 347
#     4  10  20  39  59  83 117 153 191 241 290 341
#     4   9  20  39  59  83 116 155 193 236 289 345
#     4  10  21  39  59  84 117 152 190 238 291 348
#     4  11  23  37  59  87 114 150 195 241 288 340
#
# _framework density 20.538283
#
# number of rings (size 3 to 8) (size 9 to 14) (size 15 to 20)
#    0.000    2.000    0.000    6.750    0.000    8.000 
#    0.000    5.000    0.000    0.000    0.000    0.000 
#    0.000    0.000    0.000    0.000    0.000    0.000 
#
# Total GULP energy -198363.129597 kJ/mol
# GULP energy per Si atom -12397.695600 kJ/mol
# Density = 2.049154 g / cm^3
# Si number density = 20.538283 Si / 1000 Ang^3
#
#
#
# Elastic Constant Matrix: (Units=GPa)
#
#
# Indices 1 2 3 4 5 6 
#
# 1 77.9407 41.0429 41.1060 0.0000 19.0084 0.0000
# 2 41.0429 121.3452 62.0395 -0.0001 3.3004 0.0000
# 3 41.1060 62.0395 96.6659 -0.0001 16.7710 0.0000
# 4 0.0000 -0.0001 -0.0001 29.5094 0.0000 0.0355
# 5 19.0084 3.3004 16.7710 0.0000 36.5398 0.0000
# 6 0.0000 0.0000 0.0000 0.0355 0.0000 33.0683
#
#
#
# Elastic Compliance Matrix: (Units=1/GPa)
#
#
# Indices 1 2 3 4 5 6 
#
# 1 0.019040 -0.004123 -0.004125 0.000000 -0.007639 0.000000
# 2 -0.004123 0.013413 -0.007624 0.000000 0.004433 0.000000
# 3 -0.004125 -0.007624 0.017928 0.000000 -0.005394 0.000000
# 4 0.000000 0.000000 0.000000 0.033888 0.000000 -0.000036
# 5 -0.007639 0.004433 -0.005394 0.000000 0.033417 0.000000
# 6 0.000000 0.000000 0.000000 -0.000036 0.000000 0.030240
#
#
# Mechanical properties :
#
#
# Convention : Reuss Voigt Hill
#
# Bulk Modulus (GPa) = 53.65824 64.92541 59.29183
# Shear Modulus (GPa) = 26.89877 29.94106 28.41991
#
# Velocity S-wave (km/s) = 3.62289 3.82228 3.72392
# Velocity P-wave (km/s) = 6.60932 7.15264 6.88634
#
# Compressibility (1/GPa) = 0.01863647
#
# Stress axis : x y z
#
# Youngs Moduli (GPa) = 52.52068 74.55522 55.77920
#
# Poissons Ratio (x) = 0.30741 0.23009
# Poissons Ratio (y) = 0.21656 0.42526
# Poissons Ratio (z) = 0.21664 0.56841
#
# Static dielectric constant tensor:
#      x y z
#    x 3.590900 0.000000 0.194060 
#    y 0.000000 3.949460 0.000000 
#    z 0.194060 0.000000 3.868860 
# 
# 
# High freq. dielectric constant tensor:
#      x y z
#    x 1.787150 0.000000 0.008610 
#    y 0.000000 1.811110 0.000000 
#    z 0.008610 0.000000 1.814140 
# 
# From -- ./inp_files/27746.got.cif
#   From: 2010.06.25/outbox.cif.g09.slc.cpg/sg9_14_cif.got.tgz:27746.got - 2010.06.27 21:40:51.
