data_PCOD8054149
_publ_section_title
;
Structure prediction by ZEFSAII (Michael W. Deem and Ramdas Pophale) SiO2 
 PCOD8054149
Probable space group: C M
;
_chemical_formula_sum "Si O2"
_cell_formula_units_Z 32
_cell_length_a 24.789747
_cell_length_b 8.805382
_cell_length_c 25.946866
_cell_angle_alpha 90.000000
_cell_angle_beta 162.944534
_cell_angle_gamma 90.000000
_cell_volume 1661.167086
_symmetry_space_group_name_H-M "C M"
_symmetry_group_IT_number 8
_symmetry_cell_setting 'monoclinic'
loop_
_space_group_symop_operation_xyz
x,y,z
x,-y,z
1/2+x,1/2+y,z
1/2+x,1/2-y,z
loop_
_atom_site_type_symbol
_atom_site_label
_atom_site_fract_x
_atom_site_fract_y
_atom_site_fract_z
Si Si1 0.114050 0.679931 0.183030
Si Si2 0.796444 0.320419 0.586596
Si Si3 0.020619 0.318455 0.888283
Si Si4 0.902358 0.823835 0.584739
Si Si5 0.016625 0.179682 0.581210
Si Si6 0.394999 0.819536 0.883647
Si Si7 0.899886 0.824263 0.193077
Si Si8 0.040363 0.175885 0.215062
O O1 0.096873 0.500000 0.175281
O O2 0.324916 0.739349 0.381373
O O3 0.983769 0.763225 0.106768
O O4 0.041363 0.730045 0.060696
O O5 0.792577 0.500000 0.580167
O O6 0.935315 0.266601 0.667967
O O7 0.590476 0.253139 0.389432
O O8 0.872126 0.262542 0.710497
O O9 0.027769 0.500000 0.895156
O O10 0.221068 0.250007 0.056534
O O11 0.961253 0.252574 0.889469
O O12 0.038819 0.777269 0.662328
O O13 0.702655 0.785891 0.380608
O O14 0.918111 0.000000 0.612154
O O15 0.192485 0.247616 0.711702
O O16 0.015104 0.000000 0.574429
O O17 0.383981 0.000000 0.870501
O O18 0.883687 0.804088 0.115941
O O19 0.902156 0.000000 0.209863
O O20 0.103230 0.000000 0.270187
#
# Coordination Sequence:
#
# PCOD8054149 Si02
#       8
#     4   4   4   4   4   4   4   4
#     4   9  17  29  46  68  93 119 147 183 225 266
#     4   9  17  29  46  68  93 119 147 183 225 266
#     4   9  17  28  43  65  91 119 153 189 223 261
#     4   9  16  28  47  70  95 119 145 181 224 270
#     4   8  15  27  42  64  92 116 144 185 225 263
#     4   9  17  28  43  65  91 119 153 189 223 261
#     4   8  15  27  42  64  92 116 144 185 225 263
#     4   9  16  28  47  70  95 119 145 181 224 270
#
# _framework density 19.263565
#
# number of rings (size 3 to 8) (size 9 to 14) (size 15 to 20)
#    0.000    3.250    0.000    2.250    0.000    2.000 
#    0.000    5.000    0.000    6.750    0.000    7.000 
#    0.000    0.000    0.000    0.000    0.000    0.000 
#
# Total GULP energy -198213.285538 kJ/mol
# GULP energy per Si atom -12388.330346 kJ/mol
# Density = 1.921972 g / cm^3
# Si number density = 19.263565 Si / 1000 Ang^3
#
#
#
# Elastic Constant Matrix: (Units=GPa)
#
#
# Indices 1 2 3 4 5 6 
#
# 1 199.0662 20.5459 91.1568 -0.0010 -7.0207 0.0005
# 2 20.5459 9.0293 14.4932 -0.0275 -0.7293 -0.0064
# 3 91.1568 14.4932 113.1682 -0.0326 -5.9350 -0.0098
# 4 -0.0010 -0.0275 -0.0326 9.1032 -0.0085 -3.1348
# 5 -7.0207 -0.7293 -5.9350 -0.0085 36.7606 -0.0010
# 6 0.0005 -0.0064 -0.0098 -3.1348 -0.0010 22.0173
#
#
#
# Elastic Compliance Matrix: (Units=1/GPa)
#
#
# Indices 1 2 3 4 5 6 
#
# 1 0.008732 -0.010802 -0.005621 -0.000056 0.000546 -0.000014
# 2 -0.010802 0.152773 -0.010906 0.000458 -0.000793 0.000105
# 3 -0.005621 -0.010906 0.014819 0.000023 0.001103 0.000007
# 4 -0.000056 0.000458 0.000023 0.115516 0.000029 0.016447
# 5 0.000546 -0.000793 0.001103 0.000029 0.027470 0.000006
# 6 -0.000014 0.000105 0.000007 0.016447 0.000006 0.047761
#
#
# Mechanical properties :
#
#
# Convention : Reuss Voigt Hill
#
# Bulk Modulus (GPa) = 8.21924 63.73952 35.97938
# Shear Modulus (GPa) = 10.81586 26.58073 18.69829
#
# Velocity S-wave (km/s) = 2.37210 3.71866 3.11892
# Velocity P-wave (km/s) = 3.43198 7.18316 5.62922
#
# Compressibility (1/GPa) = 0.12166574
#
# Stress axis : x y z
#
# Youngs Moduli (GPa) = 114.52435 6.54564 67.48095
#
# Poissons Ratio (x) = 0.07071 0.37934
# Poissons Ratio (y) = 1.23708 0.73594
# Poissons Ratio (z) = 0.64379 0.07139
#
# Static dielectric constant tensor:
#      x y z
#    x 4.037810 -0.000010 0.041200 
#    y -0.000010 3.025530 -0.000020 
#    z 0.041200 -0.000020 3.619000 
# 
# 
# High freq. dielectric constant tensor:
#      x y z
#    x 1.758550 0.000000 -0.002630 
#    y 0.000000 1.689500 0.000000 
#    z -0.002630 0.000000 1.736640 
# 
# From -- ./inp_files/16760.got.cif
#   From: 2010.03.12/outbox.cif.g09.slc.cpg/sg8_9_cif.got.tgz:16760.got - 2010.03.31 10:45:26.
