data_PCOD8054778
_publ_section_title
;
Structure prediction by ZEFSAII (Michael W. Deem and Ramdas Pophale) SiO2 
 PCOD8054778
Probable space group: C C
;
_chemical_formula_sum "Si O2"
_cell_formula_units_Z 28
_cell_length_a 18.129967
_cell_length_b 8.263478
_cell_length_c 9.562332
_cell_angle_alpha 90.000000
_cell_angle_beta 101.161045
_cell_angle_gamma 90.000000
_cell_volume 1405.501205
_symmetry_space_group_name_H-M "C C"
_symmetry_group_IT_number 9
_symmetry_cell_setting 'monoclinic'
loop_
_space_group_symop_operation_xyz
x,y,z
x,-y,1/2+z
1/2+x,1/2+y,z
1/2+x,1/2-y,1/2+z
loop_
_atom_site_type_symbol
_atom_site_label
_atom_site_fract_x
_atom_site_fract_y
_atom_site_fract_z
Si Si1 0.592570 0.693238 0.319170
Si Si2 0.404504 0.151723 0.091391
Si Si3 0.120926 0.078684 0.030242
Si Si4 0.955367 0.401644 0.313624
Si Si5 0.685742 0.004364 0.282567
Si Si6 0.545811 0.807549 0.797571
Si Si7 0.252668 0.675334 0.554299
O O1 0.620393 0.602494 0.469690
O O2 0.504469 0.744063 0.291196
O O3 0.648753 0.842904 0.330127
O O4 0.600584 0.575626 0.186873
O O5 0.481958 0.244699 0.161840
O O6 0.336041 0.262511 0.117629
O O7 0.404744 0.973435 0.166587
O O8 0.400125 0.132517 0.922856
O O9 0.057891 0.170571 0.916536
O O10 0.200451 0.166178 0.036322
O O11 0.015992 0.539770 0.378659
O O12 0.726620 0.960446 0.154392
O O13 0.620358 0.139326 0.239164
O O14 0.748867 0.081231 0.406136
#
# Coordination Sequence:
#
# PCOD8054778 Si02
#       7
#     4   4   4   4   4   4   4
#     4  10  21  35  61  90 114 155 202 251 288 351
#     4  10  21  37  62  87 120 155 201 245 306 354
#     4  10  21  36  59  90 120 149 204 255 288 348
#     4   9  20  37  61  82 115 159 196 240 303 360
#     4   9  20  38  64  84 115 160 204 237 301 360
#     4   8  19  36  64  84 115 155 206 246 287 360
#     4  10  22  41  59  87 119 159 195 252 301 359
#
# _framework density 19.921720000000001
#
# number of rings (size 3 to 8) (size 9 to 14) (size 15 to 20)
#    0.857    1.714    0.000    0.857    8.000    3.429 
#    2.571    1.429    0.000    0.000    0.000    0.000 
#    0.000    0.000    0.000    0.000    0.000    0.000 
#
# Total GULP energy -173489.955809 kJ/mol
# GULP energy per Si atom -12392.139701 kJ/mol
# Density = 1.987638 g / cm^3
# Si number density = 19.921720 Si / 1000 Ang^3
#
#
#
# Elastic Constant Matrix: (Units=GPa)
#
#
# Indices 1 2 3 4 5 6 
#
# 1 99.1763 27.7775 47.6251 0.0000 6.1601 0.0000
# 2 27.7775 40.7712 25.9063 0.0000 8.9678 0.0000
# 3 47.6251 25.9063 85.6924 0.0000 0.4191 0.0000
# 4 0.0000 0.0000 0.0000 39.7093 0.0000 10.0681
# 5 6.1601 8.9678 0.4191 0.0000 26.5904 0.0000
# 6 0.0000 0.0000 0.0000 10.0681 0.0000 27.8197
#
#
#
# Elastic Compliance Matrix: (Units=1/GPa)
#
#
# Indices 1 2 3 4 5 6 
#
# 1 0.014915 -0.005672 -0.006567 0.000000 -0.001439 0.000000
# 2 -0.005672 0.035491 -0.007526 0.000000 -0.010537 0.000000
# 3 -0.006567 -0.007526 0.017576 0.000000 0.003783 0.000000
# 4 0.000000 0.000000 0.000000 0.027727 0.000000 -0.010035
# 5 -0.001439 -0.010537 0.003783 0.000000 0.041435 0.000000
# 6 0.000000 0.000000 0.000000 -0.010035 0.000000 0.039577
#
#
# Mechanical properties :
#
#
# Convention : Reuss Voigt Hill
#
# Bulk Modulus (GPa) = 35.14713 47.58419 41.36566
# Shear Modulus (GPa) = 22.14983 27.11263 24.63123
#
# Velocity S-wave (km/s) = 3.33805 3.69312 3.52006
# Velocity P-wave (km/s) = 5.70418 6.49022 6.10985
#
# Compressibility (1/GPa) = 0.02845183
#
# Stress axis : x y z
#
# Youngs Moduli (GPa) = 67.04780 28.17617 56.89507
#
# Poissons Ratio (x) = 0.15982 0.37365
# Poissons Ratio (y) = 0.38030 0.42817
# Poissons Ratio (z) = 0.44033 0.21205
#
# Static dielectric constant tensor:
#      x y z
#    x 3.352610 0.000000 -0.027850 
#    y 0.000000 3.464610 0.000000 
#    z -0.027850 0.000000 3.545600 
# 
# 
# High freq. dielectric constant tensor:
#      x y z
#    x 1.754590 0.000000 -0.004760 
#    y 0.000000 1.765460 0.000000 
#    z -0.004760 0.000000 1.774860 
# 
# From -- ./inp_files/11219.got.cif
#   From: 2010.06.25/outbox.cif.g09.slc.cpg/sg9_6_cif.got.tgz:11219.got - 2010.06.27 21:40:51.
