data_PCOD8054834
_publ_section_title
;
Structure prediction by ZEFSAII (Michael W. Deem and Ramdas Pophale) SiO2 
 PCOD8054834
Probable space group: C C
;
_chemical_formula_sum "Si O2"
_cell_formula_units_Z 32
_cell_length_a 15.533986
_cell_length_b 7.111631
_cell_length_c 26.553649
_cell_angle_alpha 90.000000
_cell_angle_beta 30.463028
_cell_angle_gamma 90.000000
_cell_volume 1487.199050
_symmetry_space_group_name_H-M "C C"
_symmetry_group_IT_number 9
_symmetry_cell_setting 'monoclinic'
loop_
_space_group_symop_operation_xyz
x,y,z
x,-y,1/2+z
1/2+x,1/2+y,z
1/2+x,1/2-y,1/2+z
loop_
_atom_site_type_symbol
_atom_site_label
_atom_site_fract_x
_atom_site_fract_y
_atom_site_fract_z
Si Si1 0.628250 0.521973 0.779820
Si Si2 0.801190 0.592978 0.344325
Si Si3 0.967026 0.056518 0.961138
Si Si4 0.727464 0.279269 0.560654
Si Si5 0.975023 0.478039 0.661814
Si Si6 0.136248 0.443476 0.480494
Si Si7 0.375834 0.220742 0.880965
Si Si8 0.802075 0.593002 0.597311
O O1 0.497373 0.611909 0.886487
O O2 0.801642 0.500052 0.720814
O O3 0.558750 0.318065 0.797339
O O4 0.667620 0.645772 0.709880
O O5 0.641840 0.478408 0.402214
O O6 0.935624 0.645780 0.231764
O O7 0.743510 0.780339 0.400800
O O8 0.899495 0.457562 0.333183
O O9 0.859711 0.219609 0.040862
O O10 0.856363 0.869191 0.020497
O O11 0.801627 0.355152 0.470817
O O12 0.703797 0.457583 0.608435
O O13 0.544560 0.181917 0.644285
O O14 0.105885 0.388090 0.555153
O O15 0.246978 0.630753 0.421100
O O16 0.961447 0.478466 0.539410
#
# Coordination Sequence:
#
# PCOD8054834 Si02
#       8
#     4   4   4   4   4   4   4   4
#     4   9  21  39  61  90 124 158 200 254 296 353
#     4  11  20  39  64  86 122 164 201 245 308 358
#     4  10  21  38  61  90 123 156 201 253 300 357
#     4  10  21  38  62  89 122 159 200 246 301 359
#     4   9  21  39  61  90 124 158 200 254 296 353
#     4  10  21  38  61  90 123 156 201 253 300 357
#     4  10  21  38  62  89 122 159 200 246 301 359
#     4  11  20  39  64  86 122 164 201 245 308 358
#
# _framework density 21.516959
#
# number of rings (size 3 to 8) (size 9 to 14) (size 15 to 20)
#    0.000    2.000    2.500    0.750    0.000    4.000 
#    0.000    6.250    0.000    0.000    0.000    0.000 
#    0.000    0.000    0.000    0.000    0.000    0.000 
#
# Total GULP energy -198302.144149 kJ/mol
# GULP energy per Si atom -12393.884009 kJ/mol
# Density = 2.146799 g / cm^3
# Si number density = 21.516959 Si / 1000 Ang^3
#
#
#
# Elastic Constant Matrix: (Units=GPa)
#
#
# Indices 1 2 3 4 5 6 
#
# 1 79.3396 19.1214 11.8345 0.0011 13.5302 -0.0070
# 2 19.1214 56.8068 13.3514 0.0066 30.0780 0.0028
# 3 11.8345 13.3514 72.8290 -0.0015 35.1372 0.0034
# 4 0.0011 0.0066 -0.0015 24.6302 -0.0004 4.9891
# 5 13.5302 30.0780 35.1372 -0.0004 57.6604 0.0011
# 6 -0.0070 0.0028 0.0034 4.9891 0.0011 25.8199
#
#
#
# Elastic Compliance Matrix: (Units=1/GPa)
#
#
# Indices 1 2 3 4 5 6 
#
# 1 0.013865 -0.004235 -0.001378 0.000000 -0.000205 0.000004
# 2 -0.004235 0.025903 0.002803 -0.000006 -0.014226 -0.000003
# 3 -0.001378 0.002803 0.019816 0.000001 -0.013215 -0.000003
# 4 0.000000 -0.000006 0.000001 0.042254 0.000003 -0.008165
# 5 -0.000205 -0.014226 -0.013215 0.000003 0.032865 0.000001
# 6 0.000004 -0.000003 -0.000003 -0.008165 0.000001 0.040308
#
#
# Mechanical properties :
#
#
# Convention : Reuss Voigt Hill
#
# Bulk Modulus (GPa) = 18.53038 33.06555 25.79796
# Shear Modulus (GPa) = 25.17389 32.59996 28.88693
#
# Velocity S-wave (km/s) = 3.42417 3.89663 3.66802
# Velocity P-wave (km/s) = 4.92585 5.97039 5.47309
#
# Compressibility (1/GPa) = 0.05396545
#
# Stress axis : x y z
#
# Youngs Moduli (GPa) = 72.12351 38.60595 50.46325
#
# Poissons Ratio (x) = 0.16349 0.06953
# Poissons Ratio (y) = 0.30543 -0.14146
# Poissons Ratio (z) = 0.09938 -0.10822
#
# Static dielectric constant tensor:
#      x y z
#    x 4.337740 0.000000 0.330470 
#    y 0.000000 3.418310 0.000000 
#    z 0.330470 0.000000 4.447860 
# 
# 
# High freq. dielectric constant tensor:
#      x y z
#    x 1.866180 0.000000 0.008390 
#    y 0.000000 1.803720 0.000000 
#    z 0.008390 0.000000 1.860320 
# 
# From -- ./inp_files/26395.got.cif
#   From: 2010.06.25/outbox.cif.g09.slc.cpg/sg9_14_cif.got.tgz:26395.got - 2010.06.27 21:40:51.
