data_PCOD8054840
_publ_section_title
;
Structure prediction by ZEFSAII (Michael W. Deem and Ramdas Pophale) SiO2 
 PCOD8054840
Probable space group: C C
;
_chemical_formula_sum "Si O2"
_cell_formula_units_Z 28
_cell_length_a 13.292428
_cell_length_b 5.025239
_cell_length_c 19.215509
_cell_angle_alpha 90.000000
_cell_angle_beta 67.614559
_cell_angle_gamma 90.000000
_cell_volume 1186.825693
_symmetry_space_group_name_H-M "C C"
_symmetry_group_IT_number 9
_symmetry_cell_setting 'monoclinic'
loop_
_space_group_symop_operation_xyz
x,y,z
x,-y,1/2+z
1/2+x,1/2+y,z
1/2+x,1/2-y,1/2+z
loop_
_atom_site_type_symbol
_atom_site_label
_atom_site_fract_x
_atom_site_fract_y
_atom_site_fract_z
Si Si1 0.453230 0.486671 0.805750
Si Si2 0.584411 0.035468 0.624621
Si Si3 0.574881 0.923368 0.965932
Si Si4 0.201710 0.059369 0.394899
Si Si5 0.905450 0.505097 0.405396
Si Si6 0.346400 0.122189 0.733972
Si Si7 0.167022 0.050886 0.672026
O O1 0.471714 0.212958 0.843772
O O2 0.372572 0.414225 0.761192
O O3 0.571642 0.590869 0.753206
O O4 0.402086 0.708376 0.868117
O O5 0.568499 0.117039 0.549293
O O6 0.465506 0.994141 0.690374
O O7 0.658961 0.254290 0.643656
O O8 0.648687 0.758402 0.613745
O O9 0.602922 0.649605 0.918035
O O10 0.660129 0.145269 0.919636
O O11 0.453545 0.989954 0.970303
O O12 0.276027 0.944279 0.439915
O O13 0.275642 0.056459 0.305734
O O14 0.281414 0.126985 0.678286
#
# Coordination Sequence:
#
# PCOD8054840 Si02
#       7
#     4   4   4   4   4   4   4
#     4  10  21  38  65 100 125 155 213 265 311 372
#     4  11  27  42  61  95 130 165 214 253 308 384
#     4  12  25  43  63  93 131 167 205 261 315 369
#     4  11  24  41  68  95 120 163 218 256 309 380
#     4  11  22  40  64  93 129 163 204 264 316 365
#     4  10  23  43  68  94 125 166 210 262 314 367
#     4  11  22  41  65  90 128 169 206 259 313 367
#
# _framework density 23.592345000000002
#
# number of rings (size 3 to 8) (size 9 to 14) (size 15 to 20)
#    0.000    1.143    0.000    7.714    0.000    9.143 
#    0.000    0.000    0.000    0.000    0.000    0.000 
#    0.000    0.000    0.000    0.000    0.000    0.000 
#
# Total GULP energy -173541.589624 kJ/mol
# GULP energy per Si atom -12395.827830 kJ/mol
# Density = 2.353865 g / cm^3
# Si number density = 23.592345 Si / 1000 Ang^3
#
#
#
# Elastic Constant Matrix: (Units=GPa)
#
#
# Indices 1 2 3 4 5 6 
#
# 1 117.9558 8.2895 10.6938 -0.0022 33.9085 -0.0021
# 2 8.2895 104.4804 17.6290 -0.0073 3.4410 -0.0055
# 3 10.6938 17.6290 65.9318 -0.0017 13.4354 0.0005
# 4 -0.0022 -0.0073 -0.0017 23.0145 0.0000 4.1434
# 5 33.9085 3.4410 13.4354 0.0000 33.1856 -0.0015
# 6 -0.0021 -0.0055 0.0005 4.1434 -0.0015 25.2513
#
#
#
# Elastic Compliance Matrix: (Units=1/GPa)
#
#
# Indices 1 2 3 4 5 6 
#
# 1 0.012071 -0.000676 0.000787 0.000001 -0.012582 0.000000
# 2 -0.000676 0.010061 -0.002734 0.000003 0.000755 0.000002
# 3 0.000787 -0.002734 0.017304 0.000001 -0.007526 -0.000001
# 4 0.000001 0.000003 0.000001 0.044774 -0.000002 -0.007347
# 5 -0.012582 0.000755 -0.007526 -0.000002 0.045959 0.000002
# 6 0.000000 0.000002 -0.000001 -0.007347 0.000002 0.040807
#
#
# Mechanical properties :
#
#
# Convention : Reuss Voigt Hill
#
# Bulk Modulus (GPa) = 29.24861 40.17695 34.71278
# Shear Modulus (GPa) = 26.64962 33.07401 29.86182
#
# Velocity S-wave (km/s) = 3.36458 3.74825 3.56159
# Velocity P-wave (km/s) = 5.24579 5.98324 5.62661
#
# Compressibility (1/GPa) = 0.03418966
#
# Stress axis : x y z
#
# Youngs Moduli (GPa) = 82.84347 99.39044 57.78895
#
# Poissons Ratio (x) = 0.06720 -0.04548
# Poissons Ratio (y) = 0.05601 0.15801
# Poissons Ratio (z) = -0.06519 0.27177
#
# Static dielectric constant tensor:
#      x y z
#    x 4.578850 0.000000 0.116650 
#    y 0.000000 4.211420 0.000000 
#    z 0.116650 0.000000 3.859760 
# 
# 
# High freq. dielectric constant tensor:
#      x y z
#    x 1.948020 0.000000 0.010180 
#    y 0.000000 1.939880 0.000000 
#    z 0.010180 0.000000 1.906520 
# 
# From -- ./inp_files/32953.got.cif
#   From: 2010.06.25/outbox.cif.g09.slc.cpg/sg9_17_cif.got.tgz:32953.got - 2010.06.27 21:40:51.
