data_PCOD8054177
_publ_section_title
;
Structure prediction by ZEFSAII (Michael W. Deem and Ramdas Pophale) SiO2 
 PCOD8054177
Probable space group: C C
;
_chemical_formula_sum "Si O2"
_cell_formula_units_Z 32
_cell_length_a 23.898324
_cell_length_b 14.521066
_cell_length_c 12.752026
_cell_angle_alpha 90.000000
_cell_angle_beta 158.961923
_cell_angle_gamma 90.000000
_cell_volume 1588.639757
_symmetry_space_group_name_H-M "C C"
_symmetry_group_IT_number 9
_symmetry_cell_setting 'monoclinic'
loop_
_space_group_symop_operation_xyz
x,y,z
x,-y,1/2+z
1/2+x,1/2+y,z
1/2+x,1/2-y,1/2+z
loop_
_atom_site_type_symbol
_atom_site_label
_atom_site_fract_x
_atom_site_fract_y
_atom_site_fract_z
Si Si1 0.251400 0.050938 0.366560
Si Si2 0.045093 0.568978 0.644154
Si Si3 0.494285 0.911369 0.688332
Si Si4 0.488498 0.410880 0.242295
Si Si5 0.724857 0.398347 0.476040
Si Si6 0.782893 0.738781 0.887637
Si Si7 0.043432 0.356023 0.367139
Si Si8 0.710500 0.031199 0.734929
O O1 0.355087 0.145200 0.559619
O O2 0.370133 0.983629 0.516254
O O3 0.202585 0.001077 0.389146
O O4 0.098850 0.068859 0.032759
O O5 0.089506 0.626569 0.825718
O O6 0.176166 0.583309 0.784639
O O7 0.041957 0.457673 0.661462
O O8 0.880887 0.606397 0.316359
O O9 0.404511 0.814853 0.523977
O O10 0.648796 0.902704 0.032725
O O11 0.580255 0.378580 0.299294
O O12 0.370586 0.331857 0.074493
O O13 0.393015 0.504651 0.047110
O O14 0.733476 0.319787 0.402473
O O15 0.625156 0.761088 0.546421
O O16 0.110342 0.437997 0.555430
#
# Coordination Sequence:
#
# PCOD8054177 Si02
#       8
#     4   4   4   4   4   4   4   4
#     4   9  18  36  62  83 114 158 206 248 288 361
#     4  10  16  35  69  79 110 170 204 238 308 365
#     4   9  18  36  61  83 113 159 204 237 301 372
#     4  11  22  36  59  93 125 146 206 267 295 359
#     4  11  20  40  64  81 121 172 197 247 317 353
#     4  10  22  37  56  87 128 158 194 255 313 358
#     4   9  18  34  59  89 117 156 200 244 296 375
#     4   9  18  34  60  87 112 153 205 246 288 361
#
# _framework density 20.143018000000001
#
# number of rings (size 3 to 8) (size 9 to 14) (size 15 to 20)
#    0.000    2.500    6.250    0.000    0.000    5.000 
#    0.000    3.750    5.500    0.000    0.000    0.000 
#    0.000    0.000    0.000    0.000    0.000    0.000 
#
# Total GULP energy -198216.612908 kJ/mol
# GULP energy per Si atom -12388.538307 kJ/mol
# Density = 2.009717 g / cm^3
# Si number density = 20.143018 Si / 1000 Ang^3
#
#
#
# Elastic Constant Matrix: (Units=GPa)
#
#
# Indices 1 2 3 4 5 6 
#
# 1 92.9229 24.3175 34.2841 0.0000 -7.3064 0.0000
# 2 24.3175 62.5017 52.9137 0.0000 -6.7593 0.0000
# 3 34.2841 52.9137 146.0648 0.0000 -4.1423 0.0000
# 4 0.0000 0.0000 0.0000 28.8798 0.0000 3.9305
# 5 -7.3064 -6.7593 -4.1423 0.0000 30.6167 0.0000
# 6 0.0000 0.0000 0.0000 3.9305 0.0000 22.3066
#
#
#
# Elastic Compliance Matrix: (Units=1/GPa)
#
#
# Indices 1 2 3 4 5 6 
#
# 1 0.012375 -0.003152 -0.001705 0.000000 0.002027 0.000000
# 2 -0.003152 0.024373 -0.007989 0.000000 0.003548 0.000000
# 3 -0.001705 -0.007989 0.010118 0.000000 -0.000802 0.000000
# 4 0.000000 0.000000 0.000000 0.035477 0.000000 -0.006251
# 5 0.002027 0.003548 -0.000802 0.000000 0.033820 0.000000
# 6 0.000000 0.000000 0.000000 -0.006251 0.000000 0.045931
#
#
# Mechanical properties :
#
#
# Convention : Reuss Voigt Hill
#
# Bulk Modulus (GPa) = 47.22878 58.28001 52.75440
# Shear Modulus (GPa) = 25.66145 29.02555 27.34350
#
# Velocity S-wave (km/s) = 3.57313 3.80013 3.68838
# Velocity P-wave (km/s) = 6.36558 6.94627 6.66225
#
# Compressibility (1/GPa) = 0.02117353
#
# Stress axis : x y z
#
# Youngs Moduli (GPa) = 80.80826 41.02908 98.83446
#
# Poissons Ratio (x) = 0.12931 0.16855
# Poissons Ratio (y) = 0.25469 0.78959
# Poissons Ratio (z) = 0.13781 0.32778
#
# Static dielectric constant tensor:
#      x y z
#    x 3.731030 0.000000 -0.012950 
#    y 0.000000 3.741900 0.000000 
#    z -0.012950 0.000000 4.022000 
# 
# 
# High freq. dielectric constant tensor:
#      x y z
#    x 1.775320 0.000000 -0.007380 
#    y 0.000000 1.750850 0.000000 
#    z -0.007380 0.000000 1.794260 
# 
# From -- ./inp_files/21017.got.cif
#   From: 2010.06.25/outbox.cif.g09.slc.cpg/sg9_11_cif.got.tgz:21017.got - 2010.06.27 21:40:51.
