data_PCOD8054790
_publ_section_title
;
Structure prediction by ZEFSAII (Michael W. Deem and Ramdas Pophale) SiO2 
 PCOD8054790
Probable space group: C C
;
_chemical_formula_sum "Si O2"
_cell_formula_units_Z 28
_cell_length_a 5.182247
_cell_length_b 31.809385
_cell_length_c 9.370135
_cell_angle_alpha 90.000000
_cell_angle_beta 123.349554
_cell_angle_gamma 90.000000
_cell_volume 1290.263635
_symmetry_space_group_name_H-M "C C"
_symmetry_group_IT_number 9
_symmetry_cell_setting 'monoclinic'
loop_
_space_group_symop_operation_xyz
x,y,z
x,-y,1/2+z
1/2+x,1/2+y,z
1/2+x,1/2-y,1/2+z
loop_
_atom_site_type_symbol
_atom_site_label
_atom_site_fract_x
_atom_site_fract_y
_atom_site_fract_z
Si Si1 0.653110 0.973835 0.252000
Si Si2 0.991012 0.354585 0.521471
Si Si3 0.865849 0.281327 0.675535
Si Si4 0.763887 0.708861 0.745172
Si Si5 0.810057 0.734823 0.462250
Si Si6 0.248553 0.974722 0.846355
Si Si7 0.015359 0.091471 0.049503
O O1 0.803133 0.933175 0.371566
O O2 0.420211 0.991786 0.299089
O O3 0.464119 0.962853 0.048811
O O4 0.924586 0.006776 0.302442
O O5 0.063409 0.315461 0.648791
O O6 0.313489 0.372587 0.563501
O O7 0.790360 0.336271 0.328756
O O8 0.796918 0.389734 0.544587
O O9 0.935995 0.231413 0.668044
O O10 0.506673 0.278848 0.520283
O O11 0.877810 0.293477 0.844904
O O12 0.861609 0.703337 0.610427
O O13 0.967625 0.746685 0.874858
O O14 0.169654 0.935021 0.723719
#
# Coordination Sequence:
#
# PCOD8054790 Si02
#       7
#     4   4   4   4   4   4   4
#     4  12  23  46  81 110 140 189 237 281 338 450
#     4  12  26  44  68  96 152 182 225 321 368 396
#     4  11  21  40  64  93 124 187 241 290 342 425
#     4  11  21  40  64  93 124 187 241 290 342 425
#     4  10  21  36  66  90 119 164 266 279 332 412
#     4  12  23  46  81 110 140 189 237 281 338 450
#     4  12  27  46  70 112 151 180 233 300 378 410
#
# _framework density 21.700990000000001
#
# number of rings (size 3 to 8) (size 9 to 14) (size 15 to 20)
#    0.000    0.571    5.714    2.571    4.000    0.000 
#    2.571    0.000    0.000    0.000    0.000    0.000 
#    0.000    0.000    0.000    0.000    0.000    0.000 
#
# Total GULP energy -173486.668236 kJ/mol
# GULP energy per Si atom -12391.904874 kJ/mol
# Density = 2.165160 g / cm^3
# Si number density = 21.700990 Si / 1000 Ang^3
#
#
#
# Elastic Constant Matrix: (Units=GPa)
#
#
# Indices 1 2 3 4 5 6 
#
# 1 62.4013 3.2974 15.2498 0.0000 -13.6716 0.0000
# 2 3.2974 53.9870 29.1023 0.0000 -8.5269 0.0000
# 3 15.2498 29.1023 158.7921 0.0000 -10.5645 0.0000
# 4 0.0000 0.0000 0.0000 44.9970 0.0000 -10.6475
# 5 -13.6716 -8.5269 -10.5645 0.0000 28.1468 0.0000
# 6 0.0000 0.0000 0.0000 -10.6475 0.0000 46.0737
#
#
#
# Elastic Compliance Matrix: (Units=1/GPa)
#
#
# Indices 1 2 3 4 5 6 
#
# 1 0.018194 0.000981 -0.001353 0.000000 0.008627 0.000000
# 2 0.000981 0.021298 -0.003627 0.000000 0.005567 0.000000
# 3 -0.001353 -0.003627 0.007154 0.000000 0.000929 0.000000
# 4 0.000000 0.000000 0.000000 0.023509 0.000000 0.005433
# 5 0.008627 0.005567 0.000929 0.000000 0.041753 0.000000
# 6 0.000000 0.000000 0.000000 0.005433 0.000000 0.022960
#
#
# Mechanical properties :
#
#
# Convention : Reuss Voigt Hill
#
# Bulk Modulus (GPa) = 25.87539 41.16437 33.51988
# Shear Modulus (GPa) = 32.10283 39.01224 35.55754
#
# Velocity S-wave (km/s) = 3.85037 4.24455 4.05226
# Velocity P-wave (km/s) = 5.63175 6.55985 6.11344
#
# Compressibility (1/GPa) = 0.03864676
#
# Stress axis : x y z
#
# Youngs Moduli (GPa) = 54.96265 46.95375 139.78107
#
# Poissons Ratio (x) = -0.04605 0.18914
# Poissons Ratio (y) = -0.05390 0.50700
# Poissons Ratio (z) = 0.07437 0.17030
#
# Static dielectric constant tensor:
#      x y z
#    x 4.157970 0.000000 -0.075160 
#    y 0.000000 3.637230 0.000000 
#    z -0.075160 0.000000 4.399540 
# 
# 
# High freq. dielectric constant tensor:
#      x y z
#    x 1.883720 0.000000 -0.009660 
#    y 0.000000 1.814560 0.000000 
#    z -0.009660 0.000000 1.871730 
# 
# From -- ./inp_files/4163.got.cif
#   From: 2010.06.25/outbox.cif.g09.slc.cpg/sg9_3_cif.got.tgz:4163.got - 2010.06.27 21:40:51.
