data_PCOD8054942
_publ_section_title
;
Structure prediction by ZEFSAII (Michael W. Deem and Ramdas Pophale) SiO2 
 PCOD8054942
Probable space group: C C
;
_chemical_formula_sum "Si O2"
_cell_formula_units_Z 32
_cell_length_a 12.775572
_cell_length_b 8.506438
_cell_length_c 21.530372
_cell_angle_alpha 90.000000
_cell_angle_beta 138.038377
_cell_angle_gamma 90.000000
_cell_volume 1564.469990
_symmetry_space_group_name_H-M "C C"
_symmetry_group_IT_number 9
_symmetry_cell_setting 'monoclinic'
loop_
_space_group_symop_operation_xyz
x,y,z
x,-y,1/2+z
1/2+x,1/2+y,z
1/2+x,1/2-y,1/2+z
loop_
_atom_site_type_symbol
_atom_site_label
_atom_site_fract_x
_atom_site_fract_y
_atom_site_fract_z
Si Si1 0.991600 0.352268 0.209800
Si Si2 0.197911 0.279769 0.527656
Si Si3 0.770183 0.124378 0.524352
Si Si4 0.030440 0.804387 0.349542
Si Si5 0.306557 0.153735 0.156353
Si Si6 0.521540 0.564311 0.542431
Si Si7 0.330148 0.348154 0.377243
Si Si8 0.629093 0.352176 0.867710
O O1 0.878605 0.278575 0.107906
O O2 0.936001 0.523103 0.203523
O O3 0.171261 0.376596 0.266790
O O4 0.988671 0.233819 0.268110
O O5 0.197632 0.467587 0.522992
O O6 0.114724 0.203994 0.431887
O O7 0.105557 0.215900 0.547810
O O8 0.665765 0.174083 0.417996
O O9 0.772845 0.256800 0.577791
O O10 0.947749 0.106652 0.576887
O O11 0.882057 0.765229 0.241442
O O12 0.972026 0.817086 0.394307
O O13 0.109950 0.960869 0.357123
O O14 0.145779 0.075598 0.108876
O O15 0.376849 0.501074 0.437495
O O16 0.294809 0.201620 0.409219
#
# Coordination Sequence:
#
# PCOD8054942 Si02
#       8
#     4   4   4   4   4   4   4   4
#     4   9  22  43  62  92 129 172 215 273 329 383
#     4  11  21  41  68  91 129 175 219 269 327 396
#     4  12  25  44  66  99 136 170 223 277 331 397
#     4  12  23  41  66 100 133 174 223 277 330 407
#     4  11  24  43  63  96 135 166 228 278 323 404
#     4  11  23  45  66  95 133 180 219 273 334 394
#     4  10  21  41  66  95 128 175 216 270 333 387
#     4  10  21  40  67  90 133 170 215 271 335 384
#
# _framework density 20.45421
#
# number of rings (size 3 to 8) (size 9 to 14) (size 15 to 20)
#    0.750    0.500    3.750    3.000    1.750    1.000 
#    6.750    0.000    0.000    0.000    0.000    0.000 
#    0.000    0.000    0.000    0.000    0.000    0.000 
#
# Total GULP energy -198288.156800 kJ/mol
# GULP energy per Si atom -12393.009800 kJ/mol
# Density = 2.040766 g / cm^3
# Si number density = 20.454210 Si / 1000 Ang^3
#
#
#
# Elastic Constant Matrix: (Units=GPa)
#
#
# Indices 1 2 3 4 5 6 
#
# 1 86.8425 45.4063 26.5425 0.0000 8.5614 0.0000
# 2 45.4063 126.1088 30.0736 0.0000 8.0608 0.0000
# 3 26.5425 30.0736 79.5936 0.0000 5.4479 0.0000
# 4 0.0000 0.0000 0.0000 35.1653 0.0000 5.2592
# 5 8.5614 8.0608 5.4479 0.0000 29.1297 0.0000
# 6 0.0000 0.0000 0.0000 5.2592 0.0000 32.3407
#
#
#
# Elastic Compliance Matrix: (Units=1/GPa)
#
#
# Indices 1 2 3 4 5 6 
#
# 1 0.015096 -0.004518 -0.003149 0.000000 -0.002598 0.000000
# 2 -0.004518 0.010164 -0.002261 0.000000 -0.001062 0.000000
# 3 -0.003149 -0.002261 0.014548 0.000000 -0.001170 0.000000
# 4 0.000000 0.000000 0.000000 0.029146 0.000000 -0.004740
# 5 -0.002598 -0.001062 -0.001170 0.000000 0.035605 0.000000
# 6 0.000000 0.000000 0.000000 -0.004740 0.000000 0.031692
#
#
# Mechanical properties :
#
#
# Convention : Reuss Voigt Hill
#
# Bulk Modulus (GPa) = 50.12207 55.17664 52.64935
# Shear Modulus (GPa) = 30.72049 32.02864 31.37457
#
# Velocity S-wave (km/s) = 3.87966 3.96140 3.92074
# Velocity P-wave (km/s) = 6.68032 6.92516 6.80384
#
# Compressibility (1/GPa) = 0.01995129
#
# Stress axis : x y z
#
# Youngs Moduli (GPa) = 66.24185 98.39080 68.73681
#
# Poissons Ratio (x) = 0.44458 0.21646
# Poissons Ratio (y) = 0.29931 0.15540
# Poissons Ratio (z) = 0.20861 0.22244
#
# Static dielectric constant tensor:
#      x y z
#    x 3.562130 0.000000 0.104740 
#    y 0.000000 3.671310 0.000000 
#    z 0.104740 0.000000 3.811280 
# 
# 
# High freq. dielectric constant tensor:
#      x y z
#    x 1.785120 0.000000 0.008000 
#    y 0.000000 1.799910 0.000000 
#    z 0.008000 0.000000 1.807740 
# 
# From -- ./inp_files/33214.got.cif
#   From: 2010.06.25/outbox.cif.g09.slc.cpg/sg9_17_cif.got.tgz:33214.got - 2010.06.27 21:40:51.
