data_PCOD8054070
_publ_section_title
;
Structure prediction by ZEFSAII (Michael W. Deem and Ramdas Pophale) SiO2 
 PCOD8054070
Probable space group: C M
;
_chemical_formula_sum "Si O2"
_cell_formula_units_Z 32
_cell_length_a 17.734850
_cell_length_b 14.658964
_cell_length_c 12.632722
_cell_angle_alpha 90.000000
_cell_angle_beta 154.377490
_cell_angle_gamma 90.000000
_cell_volume 1420.213437
_symmetry_space_group_name_H-M "C M"
_symmetry_group_IT_number 8
_symmetry_cell_setting 'monoclinic'
loop_
_space_group_symop_operation_xyz
x,y,z
x,-y,z
1/2+x,1/2+y,z
1/2+x,1/2-y,z
loop_
_atom_site_type_symbol
_atom_site_label
_atom_site_fract_x
_atom_site_fract_y
_atom_site_fract_z
Si Si1 0.504960 0.601778 0.605120
Si Si2 0.949630 0.708620 0.917172
Si Si3 0.111195 0.395335 0.735926
Si Si4 0.927863 0.848670 0.276204
Si Si5 0.128301 0.330811 0.531781
Si Si6 0.727289 0.398425 0.497278
Si Si7 0.303110 0.772404 0.404208
Si Si8 0.401097 0.897915 0.064099
O O1 0.476004 0.500000 0.616380
O O2 0.429232 0.599494 0.389682
O O3 0.407851 0.677171 0.555379
O O4 0.709095 0.627722 0.863215
O O5 0.953923 0.677000 0.044621
O O6 0.137616 0.747585 0.120468
O O7 0.805462 0.785993 0.713021
O O8 0.902757 0.620536 0.786953
O O9 0.089480 0.500000 0.739464
O O10 0.179029 0.386100 0.701765
O O11 0.923846 0.347238 0.502526
O O12 0.238514 0.349007 0.982495
O O13 0.984389 0.746087 0.374629
O O14 0.060077 0.895933 0.361691
O O15 0.044656 0.397005 0.338750
O O16 0.739713 0.500000 0.462924
O O17 0.717071 0.317574 0.398949
O O18 0.397907 0.000000 0.011947
#
# Coordination Sequence:
#
# PCOD8054070 Si02
#       8
#     4   4   4   4   4   4   4   4
#     4  11  23  43  71 102 133 176 228 285 337 395
#     4  11  23  41  66  94 132 179 224 274 332 394
#     4  12  25  42  66  98 136 179 225 275 335 404
#     4  11  22  43  73  99 131 172 236 285 328 386
#     4  11  21  41  68 100 131 176 219 275 336 398
#     4  11  23  42  70 100 132 174 226 282 333 391
#     4  12  26  42  59 101 142 177 210 277 344 401
#     4  11  22  42  69  98 129 169 228 281 329 397
#
# _framework density 22.531825000000001
#
# number of rings (size 3 to 8) (size 9 to 14) (size 15 to 20)
#    0.000    0.750    3.750    6.000    1.750    2.000 
#    0.000    1.875    0.000    0.750    0.000    0.000 
#    0.000    0.000    0.000    0.000    0.000    0.000 
#
# Total GULP energy -198385.468666 kJ/mol
# GULP energy per Si atom -12399.091792 kJ/mol
# Density = 2.248054 g / cm^3
# Si number density = 22.531825 Si / 1000 Ang^3
#
#
#
# Elastic Constant Matrix: (Units=GPa)
#
#
# Indices 1 2 3 4 5 6 
#
# 1 38.4210 22.4078 14.9854 0.0000 -3.7919 0.0000
# 2 22.4078 119.5238 35.2148 0.0000 12.4715 0.0000
# 3 14.9854 35.2148 136.7842 0.0000 7.0551 0.0000
# 4 0.0000 0.0000 0.0000 26.3462 0.0000 -7.0490
# 5 -3.7919 12.4715 7.0551 0.0000 34.2436 0.0000
# 6 0.0000 0.0000 0.0000 -7.0490 0.0000 32.2387
#
#
#
# Elastic Compliance Matrix: (Units=1/GPa)
#
#
# Indices 1 2 3 4 5 6 
#
# 1 0.030831 -0.005753 -0.002204 0.000000 0.005963 0.000000
# 2 -0.005753 0.010410 -0.001841 0.000000 -0.004049 0.000000
# 3 -0.002204 -0.001841 0.008090 0.000000 -0.001240 0.000000
# 4 0.000000 0.000000 0.000000 0.040314 0.000000 0.008815
# 5 0.005963 -0.004049 -0.001240 0.000000 0.031593 0.000000
# 6 0.000000 0.000000 0.000000 0.008815 0.000000 0.032946
#
#
# Mechanical properties :
#
#
# Convention : Reuss Voigt Hill
#
# Bulk Modulus (GPa) = 33.63033 48.88276 41.25654
# Shear Modulus (GPa) = 27.21945 33.37378 30.29661
#
# Velocity S-wave (km/s) = 3.47946 3.85279 3.67088
# Velocity P-wave (km/s) = 5.57677 6.44469 6.02638
#
# Compressibility (1/GPa) = 0.02973506
#
# Stress axis : x y z
#
# Youngs Moduli (GPa) = 32.43500 96.06210 123.60658
#
# Poissons Ratio (x) = 0.55263 0.27245
# Poissons Ratio (y) = 0.18659 0.22755
# Poissons Ratio (z) = 0.07149 0.17684
#
# Static dielectric constant tensor:
#      x y z
#    x 3.820710 0.000000 -0.068460 
#    y 0.000000 4.093270 0.000000 
#    z -0.068460 0.000000 4.190390 
# 
# 
# High freq. dielectric constant tensor:
#      x y z
#    x 1.863820 0.000000 -0.000200 
#    y 0.000000 1.893660 0.000000 
#    z -0.000200 0.000000 1.893870 
# 
# From -- ./inp_files/27991.got.cif
#   From: 2010.03.12/outbox.cif.g09.slc.cpg/sg8_14_cif.got.tgz:27991.got - 2010.03.31 10:45:26.
