data_PCOD8054331
_publ_section_title
;
Structure prediction by ZEFSAII (Michael W. Deem and Ramdas Pophale) SiO2 
 PCOD8054331
Probable space group: C C
;
_chemical_formula_sum "Si O2"
_cell_formula_units_Z 32
_cell_length_a 22.394018
_cell_length_b 7.615860
_cell_length_c 11.711555
_cell_angle_alpha 90.000000
_cell_angle_beta 52.191776
_cell_angle_gamma 90.000000
_cell_volume 1578.081672
_symmetry_space_group_name_H-M "C C"
_symmetry_group_IT_number 9
_symmetry_cell_setting 'monoclinic'
loop_
_space_group_symop_operation_xyz
x,y,z
x,-y,1/2+z
1/2+x,1/2+y,z
1/2+x,1/2-y,1/2+z
loop_
_atom_site_type_symbol
_atom_site_label
_atom_site_fract_x
_atom_site_fract_y
_atom_site_fract_z
Si Si1 0.878660 0.130178 0.640580
Si Si2 0.251311 0.222583 0.149065
Si Si3 0.759281 0.369825 0.996526
Si Si4 0.657547 0.158667 0.961676
Si Si5 0.364261 0.919889 0.228892
Si Si6 0.980394 0.658670 0.175430
Si Si7 0.273682 0.419893 0.908212
Si Si8 0.386630 0.277415 0.488042
O O1 0.832183 0.269797 0.618294
O O2 0.954583 0.224573 0.595805
O O3 0.830099 0.081585 0.812123
O O4 0.897932 0.958775 0.542846
O O5 0.180924 0.245561 0.317060
O O6 0.240006 0.041228 0.094263
O O7 0.250590 0.392318 0.066243
O O8 0.683360 0.275425 0.041298
O O9 0.807840 0.418430 0.824987
O O10 0.805757 0.230214 0.018815
O O11 0.568971 0.131547 0.068556
O O12 0.697703 0.966050 0.924724
O O13 0.318978 0.749989 0.318544
O O14 0.440239 0.966054 0.212382
O O15 0.387354 0.892319 0.070859
O O16 0.957016 0.754444 0.320047
#
# Coordination Sequence:
#
# PCOD8054331 Si02
#       8
#     4   4   4   4   4   4   4   4
#     4  10  19  35  59  83 108 146 196 235 274 331
#     4  10  19  36  59  80 108 149 195 240 275 322
#     4  10  19  35  59  83 108 146 196 235 274 331
#     4  11  23  36  53  85 122 149 182 231 287 341
#     4   9  19  37  60  81 103 145 198 235 274 333
#     4  11  23  36  53  85 122 149 182 231 287 341
#     4   9  19  37  60  81 103 145 198 235 274 333
#     4  10  19  36  59  80 108 149 195 240 275 322
#
# _framework density 20.277785000000002
#
# number of rings (size 3 to 8) (size 9 to 14) (size 15 to 20)
#    0.000    2.000    0.000    6.000    0.000    2.000 
#    0.000    5.000    0.000    0.000    0.000    0.000 
#    0.000    0.000    0.000    0.000    0.000    0.000 
#
# Total GULP energy -198219.234723 kJ/mol
# GULP energy per Si atom -12388.702170 kJ/mol
# Density = 2.023163 g / cm^3
# Si number density = 20.277785 Si / 1000 Ang^3
#
#
#
# Elastic Constant Matrix: (Units=GPa)
#
#
# Indices 1 2 3 4 5 6 
#
# 1 126.6921 60.8478 68.1024 0.0000 -22.6783 -0.0001
# 2 60.8478 113.6832 46.8185 0.0001 -4.2514 -0.0004
# 3 68.1024 46.8185 113.1680 0.0000 -5.0367 0.0000
# 4 0.0000 0.0001 0.0000 30.5687 0.0000 9.7536
# 5 -22.6783 -4.2514 -5.0367 0.0000 41.9475 0.0000
# 6 -0.0001 -0.0004 0.0000 9.7536 0.0000 34.8062
#
#
#
# Elastic Compliance Matrix: (Units=1/GPa)
#
#
# Indices 1 2 3 4 5 6 
#
# 1 0.015192 -0.005105 -0.006724 0.000000 0.006889 0.000000
# 2 -0.005105 0.012331 -0.002108 0.000000 -0.001763 0.000000
# 3 -0.006724 -0.002108 0.013657 0.000000 -0.002209 0.000000
# 4 0.000000 0.000000 0.000000 0.035925 0.000000 -0.010067
# 5 0.006889 -0.001763 -0.002209 0.000000 0.027120 0.000000
# 6 0.000000 0.000000 0.000000 -0.010067 0.000000 0.031552
#
#
# Mechanical properties :
#
#
# Convention : Reuss Voigt Hill
#
# Bulk Modulus (GPa) = 75.15172 78.34227 76.74700
# Shear Modulus (GPa) = 29.74677 33.31611 31.53144
#
# Velocity S-wave (km/s) = 3.83425 4.05777 3.94759
# Velocity P-wave (km/s) = 7.53283 7.78925 7.66211
#
# Compressibility (1/GPa) = 0.01330642
#
# Stress axis : x y z
#
# Youngs Moduli (GPa) = 65.82198 81.09761 73.22497
#
# Poissons Ratio (x) = 0.41399 0.49237
# Poissons Ratio (y) = 0.33601 0.15435
# Poissons Ratio (z) = 0.44259 0.17094
#
# Static dielectric constant tensor:
#      x y z
#    x 3.632290 0.000000 0.479440 
#    y 0.000000 4.025310 0.000000 
#    z 0.479440 0.000000 3.849560 
# 
# 
# High freq. dielectric constant tensor:
#      x y z
#    x 1.771360 0.000000 0.034130 
#    y 0.000000 1.808600 0.000000 
#    z 0.034130 0.000000 1.786730 
# 
# From -- ./inp_files/19954.got.cif
#   From: 2010.06.25/outbox.cif.g09.slc.cpg/sg9_10_cif.got.tgz:19954.got - 2010.06.27 21:40:51.
