data_PCOD8054943
_publ_section_title
;
Structure prediction by ZEFSAII (Michael W. Deem and Ramdas Pophale) SiO2 
 PCOD8054943
Probable space group: C C
;
_chemical_formula_sum "Si O2"
_cell_formula_units_Z 24
_cell_length_a 10.564280
_cell_length_b 12.683268
_cell_length_c 8.211417
_cell_angle_alpha 90.000000
_cell_angle_beta 55.979434
_cell_angle_gamma 90.000000
_cell_volume 911.923076
_symmetry_space_group_name_H-M "C C"
_symmetry_group_IT_number 9
_symmetry_cell_setting 'monoclinic'
loop_
_space_group_symop_operation_xyz
x,y,z
x,-y,1/2+z
1/2+x,1/2+y,z
1/2+x,1/2-y,1/2+z
loop_
_atom_site_type_symbol
_atom_site_label
_atom_site_fract_x
_atom_site_fract_y
_atom_site_fract_z
Si Si1 0.628270 0.187982 0.673850
Si Si2 0.302197 0.851509 0.349699
Si Si3 0.315311 0.058701 0.504002
Si Si4 0.386378 0.532773 0.851895
Si Si5 0.576991 0.381054 0.930676
Si Si6 0.171946 0.460543 0.761017
O O1 0.479591 0.156327 0.679169
O O2 0.733292 0.242062 0.460030
O O3 0.572841 0.265514 0.857969
O O4 0.700601 0.085937 0.705715
O O5 0.279091 0.933082 0.517638
O O6 0.234644 0.893278 0.224805
O O7 0.247094 0.103916 0.384189
O O8 0.498604 0.077403 0.372018
O O9 0.525774 0.467966 0.833278
O O10 0.458963 0.610393 0.667023
O O11 0.255025 0.449808 0.876492
O O12 0.286115 0.601095 0.053638
#
# Coordination Sequence:
#
# PCOD8054943 Si02
#       6
#     4   4   4   4   4   4
#     4  11  24  42  64  95 133 164 207 271 324 362
#     4  11  23  43  66  94 128 169 212 263 317 378
#     4  11  23  42  70  95 125 172 220 255 312 392
#     4  10  21  40  67  92 124 170 215 252 311 386
#     4  11  23  42  67  97 129 168 213 265 318 378
#     4  10  22  43  68  93 125 171 217 262 312 378
#
# _framework density 26.318007999999999
#
# number of rings (size 3 to 8) (size 9 to 14) (size 15 to 20)
#    0.000    1.333    0.000    7.000    0.000    2.667 
#    0.000   18.333    0.000    0.000    0.000    0.000 
#    0.000    0.000    0.000    0.000    0.000    0.000 
#
# Total GULP energy -148672.631442 kJ/mol
# GULP energy per Si atom -12389.385954 kJ/mol
# Density = 2.625811 g / cm^3
# Si number density = 26.318008 Si / 1000 Ang^3
#
#
#
# Elastic Constant Matrix: (Units=GPa)
#
#
# Indices 1 2 3 4 5 6 
#
# 1 185.1588 10.8299 39.0694 0.0000 5.9386 0.0000
# 2 10.8299 70.0824 14.5726 0.0000 9.9468 0.0000
# 3 39.0694 14.5726 94.5734 0.0000 9.0512 0.0000
# 4 0.0000 0.0000 0.0000 27.7442 0.0000 -5.7047
# 5 5.9386 9.9468 9.0512 0.0000 46.3831 0.0000
# 6 0.0000 0.0000 0.0000 -5.7047 0.0000 23.3019
#
#
#
# Elastic Compliance Matrix: (Units=1/GPa)
#
#
# Indices 1 2 3 4 5 6 
#
# 1 0.005930 -0.000394 -0.002369 0.000000 -0.000213 0.000000
# 2 -0.000394 0.015125 -0.001898 0.000000 -0.002823 0.000000
# 3 -0.002369 -0.001898 0.012001 0.000000 -0.001632 0.000000
# 4 0.000000 0.000000 0.000000 0.037954 0.000000 0.009292
# 5 -0.000213 -0.002823 -0.001632 0.000000 0.022511 0.000000
# 6 0.000000 0.000000 0.000000 0.009292 0.000000 0.045190
#
#
# Mechanical properties :
#
#
# Convention : Reuss Voigt Hill
#
# Bulk Modulus (GPa) = 42.13064 53.19538 47.66301
# Shear Modulus (GPa) = 32.06286 38.50869 35.28577
#
# Velocity S-wave (km/s) = 3.49418 3.82934 3.66559
# Velocity P-wave (km/s) = 5.68525 6.30937 6.00543
#
# Compressibility (1/GPa) = 0.02373569
#
# Stress axis : x y z
#
# Youngs Moduli (GPa) = 168.62065 66.11564 83.32635
#
# Poissons Ratio (x) = 0.02603 0.19740
# Poissons Ratio (y) = 0.06638 0.15813
# Poissons Ratio (z) = 0.39945 0.12547
#
# Static dielectric constant tensor:
#      x y z
#    x 5.131650 0.000000 0.056020 
#    y 0.000000 4.368360 0.000000 
#    z 0.056020 0.000000 4.759670 
# 
# 
# High freq. dielectric constant tensor:
#      x y z
#    x 2.082620 0.000000 -0.000420 
#    y 0.000000 2.012920 0.000000 
#    z -0.000420 0.000000 2.078090 
# 
# From -- ./inp_files/7152.got.cif
#   From: 2010.06.25/outbox.cif.g09.slc.cpg/sg9_4_cif.got.tgz:7152.got - 2010.06.27 21:40:51.
