data_PCOD8054475
_publ_section_title
;
Structure prediction by ZEFSAII (Michael W. Deem and Ramdas Pophale) SiO2 
 PCOD8054475
Probable space group: C C
;
_chemical_formula_sum "Si O2"
_cell_formula_units_Z 32
_cell_length_a 19.842493
_cell_length_b 8.349902
_cell_length_c 14.943935
_cell_angle_alpha 90.000000
_cell_angle_beta 138.862067
_cell_angle_gamma 90.000000
_cell_volume 1628.865814
_symmetry_space_group_name_H-M "C C"
_symmetry_group_IT_number 9
_symmetry_cell_setting 'monoclinic'
loop_
_space_group_symop_operation_xyz
x,y,z
x,-y,1/2+z
1/2+x,1/2+y,z
1/2+x,1/2-y,1/2+z
loop_
_atom_site_type_symbol
_atom_site_label
_atom_site_fract_x
_atom_site_fract_y
_atom_site_fract_z
Si Si1 0.680160 0.538269 0.270250
Si Si2 0.051263 0.250000 0.006930
Si Si3 0.922365 0.461731 0.012455
Si Si4 0.051263 0.250000 0.588379
Si Si5 0.914749 0.329531 0.197491
Si Si6 0.606851 0.946010 0.485493
Si Si7 0.687776 0.329531 0.970517
Si Si8 0.495674 0.553990 0.374315
O O1 0.629300 0.641995 0.141077
O O2 0.801263 0.515985 0.373824
O O3 0.624692 0.364300 0.221781
O O4 0.658758 0.636063 0.339403
O O5 0.122101 0.364073 0.014251
O O6 0.973226 0.358005 0.985003
O O7 0.980424 0.135927 0.872573
O O8 0.943767 0.363937 0.124411
O O9 0.977833 0.635700 0.074922
O O10 0.124606 0.359688 0.599086
O O11 0.977919 0.140312 0.452399
O O12 0.988127 0.421424 0.338871
O O13 0.924605 0.136533 0.227109
O O14 0.801263 0.389631 0.105081
O O15 0.677920 0.863467 0.480424
O O16 0.614398 0.421424 0.965142
#
# Coordination Sequence:
#
# PCOD8054475 Si02
#       8
#     4   4   4   4   4   4   4   4
#     4  10  20  36  58  81 109 144 179 222 273 321
#     4  10  20  34  54  82 110 142 182 222 264 318
#     4  10  20  36  58  81 109 144 179 222 273 321
#     4   8  18  34  54  78 104 138 180 224 264 312
#     4   9  18  34  54  75 104 142 179 218 268 320
#     4   9  19  33  52  76 106 142 175 218 265 310
#     4   9  18  34  54  75 104 142 179 218 268 320
#     4   9  19  33  52  76 106 142 175 218 265 310
#
# _framework density 19.645571
#
# number of rings (size 3 to 8) (size 9 to 14) (size 15 to 20)
#    0.000    3.000    0.000    1.500    0.000   11.000 
#    0.000    3.750    0.000   21.000    0.000    0.000 
#    0.000    0.000    0.000    0.000    0.000    0.000 
#
# Total GULP energy -198212.258432 kJ/mol
# GULP energy per Si atom -12388.266152 kJ/mol
# Density = 1.960086 g / cm^3
# Si number density = 19.645571 Si / 1000 Ang^3
#
#
#
# Elastic Constant Matrix: (Units=GPa)
#
#
# Indices 1 2 3 4 5 6 
#
# 1 81.8943 42.2859 38.6070 0.0000 1.1568 0.0000
# 2 42.2859 140.6657 39.9957 0.0000 -12.2963 0.0000
# 3 38.6070 39.9957 82.5615 0.0000 2.4255 0.0000
# 4 0.0000 0.0000 0.0000 26.7077 0.0000 -5.2573
# 5 1.1568 -12.2963 2.4255 0.0000 28.5631 0.0000
# 6 0.0000 0.0000 0.0000 -5.2573 0.0000 27.6869
#
#
#
# Elastic Compliance Matrix: (Units=1/GPa)
#
#
# Indices 1 2 3 4 5 6 
#
# 1 0.016950 -0.003480 -0.006192 0.000000 -0.001659 0.000000
# 2 -0.003480 0.009416 -0.003065 0.000000 0.004455 0.000000
# 3 -0.006192 -0.003065 0.016565 0.000000 -0.002475 0.000000
# 4 0.000000 0.000000 0.000000 0.038896 0.000000 0.007386
# 5 -0.001659 0.004455 -0.002475 0.000000 0.037205 0.000000
# 6 0.000000 0.000000 0.000000 0.007386 0.000000 0.037521
#
#
# Mechanical properties :
#
#
# Convention : Reuss Voigt Hill
#
# Bulk Modulus (GPa) = 57.28045 60.76651 59.02348
# Shear Modulus (GPa) = 26.61760 28.87373 27.74567
#
# Velocity S-wave (km/s) = 3.68488 3.83787 3.76215
# Velocity P-wave (km/s) = 6.87929 7.11601 6.99865
#
# Compressibility (1/GPa) = 0.01745796
#
# Stress axis : x y z
#
# Youngs Moduli (GPa) = 58.99708 106.20120 60.36826
#
# Poissons Ratio (x) = 0.36957 0.37377
# Poissons Ratio (y) = 0.20531 0.18503
# Poissons Ratio (z) = 0.36528 0.32552
#
# Static dielectric constant tensor:
#      x y z
#    x 3.500260 0.000000 -0.097390 
#    y 0.000000 3.847070 0.000000 
#    z -0.097390 0.000000 3.482120 
# 
# 
# High freq. dielectric constant tensor:
#      x y z
#    x 1.752770 0.000000 -0.007640 
#    y 0.000000 1.763590 0.000000 
#    z -0.007640 0.000000 1.751350 
# 
# From -- ./inp_files/27306.got.cif
#   From: 2010.06.25/outbox.cif.g09.slc.cpg/sg9_14_cif.got.tgz:27306.got - 2010.06.27 21:40:51.
