data_PCOD8054901
_publ_section_title
;
Structure prediction by ZEFSAII (Michael W. Deem and Ramdas Pophale) SiO2 
 PCOD8054901
Probable space group: C C
;
_chemical_formula_sum "Si O2"
_cell_formula_units_Z 32
_cell_length_a 9.586740
_cell_length_b 20.057836
_cell_length_c 15.130543
_cell_angle_alpha 90.000000
_cell_angle_beta 149.180240
_cell_angle_gamma 90.000000
_cell_volume 1490.620243
_symmetry_space_group_name_H-M "C C"
_symmetry_group_IT_number 9
_symmetry_cell_setting 'monoclinic'
loop_
_space_group_symop_operation_xyz
x,y,z
x,-y,1/2+z
1/2+x,1/2+y,z
1/2+x,1/2-y,1/2+z
loop_
_atom_site_type_symbol
_atom_site_label
_atom_site_fract_x
_atom_site_fract_y
_atom_site_fract_z
Si Si1 0.501580 0.450328 0.789250
Si Si2 0.526639 0.052655 0.312905
Si Si3 0.446752 0.936958 0.574897
Si Si4 0.784567 0.184052 0.863641
Si Si5 0.338279 0.179409 0.469693
Si Si6 0.171528 0.194156 0.913686
Si Si7 0.934843 0.943543 0.553934
Si Si8 0.229836 0.672658 0.525251
O O1 0.617935 0.376857 0.870734
O O2 0.368794 0.450010 0.620985
O O3 0.246392 0.463691 0.714766
O O4 0.721636 0.509060 0.921821
O O5 0.411816 0.078730 0.158570
O O6 0.729797 0.103351 0.473102
O O7 0.252096 0.035480 0.217597
O O8 0.716672 0.991293 0.389203
O O9 0.395097 0.861865 0.510483
O O10 0.538718 0.172531 0.662100
O O11 0.719543 0.246052 0.894323
O O12 0.051413 0.189309 0.947842
O O13 0.855125 0.127429 0.971986
O O14 0.455179 0.168724 0.434154
O O15 0.962303 0.182741 0.722098
O O16 0.265800 0.271234 0.967458
#
# Coordination Sequence:
#
# PCOD8054901 Si02
#       8
#     4   4   4   4   4   4   4   4
#     4  12  26  43  65  98 137 176 220 275 333 391
#     4  12  24  42  64  96 130 173 224 268 327 394
#     4  12  26  43  65  98 137 176 220 275 333 391
#     4  10  21  39  69  96 128 173 220 270 325 398
#     4  10  21  40  66  98 130 170 222 268 327 392
#     4  10  21  40  66  98 130 170 222 268 327 392
#     4  12  24  42  64  96 130 173 224 268 327 394
#     4  10  21  39  69  96 128 173 220 270 325 398
#
# _framework density 21.467573000000002
#
# number of rings (size 3 to 8) (size 9 to 14) (size 15 to 20)
#    0.000    1.000    2.500    4.500    7.000    0.000 
#    0.000    6.250    0.000    0.000    0.000    0.000 
#    0.000    0.000    0.000    0.000    0.000    0.000 
#
# Total GULP energy -198215.487645 kJ/mol
# GULP energy per Si atom -12388.467978 kJ/mol
# Density = 2.141871 g / cm^3
# Si number density = 21.467573 Si / 1000 Ang^3
#
#
#
# Elastic Constant Matrix: (Units=GPa)
#
#
# Indices 1 2 3 4 5 6 
#
# 1 56.4095 23.5869 27.4484 -0.0178 -7.1093 -0.0127
# 2 23.5869 98.6783 43.2110 -0.0504 13.9176 -0.0190
# 3 27.4484 43.2110 79.8456 -0.0262 2.5385 0.0156
# 4 -0.0178 -0.0504 -0.0262 42.0416 -0.0013 0.1329
# 5 -7.1093 13.9176 2.5385 -0.0013 38.9540 -0.0074
# 6 -0.0127 -0.0190 0.0156 0.1329 -0.0074 28.5113
#
#
#
# Elastic Compliance Matrix: (Units=1/GPa)
#
#
# Indices 1 2 3 4 5 6 
#
# 1 0.022968 -0.003645 -0.006110 0.000002 0.005892 0.000013
# 2 -0.003645 0.014615 -0.006482 0.000012 -0.005464 0.000010
# 3 -0.006110 -0.006482 0.018132 0.000001 0.000019 -0.000017
# 4 0.000002 0.000012 0.000001 0.023786 -0.000003 -0.000111
# 5 0.005892 -0.005464 0.000019 -0.000003 0.028698 0.000006
# 6 0.000013 0.000010 -0.000017 -0.000111 0.000006 0.035074
#
#
# Mechanical properties :
#
#
# Convention : Reuss Voigt Hill
#
# Bulk Modulus (GPa) = 43.03140 47.04733 45.03936
# Shear Modulus (GPa) = 27.24882 31.28051 29.26467
#
# Velocity S-wave (km/s) = 3.56659 3.82135 3.69616
# Velocity P-wave (km/s) = 6.08680 6.43687 6.26428
#
# Compressibility (1/GPa) = 0.02323885
#
# Stress axis : x y z
#
# Youngs Moduli (GPa) = 43.53978 68.42494 55.15087
#
# Poissons Ratio (x) = 0.24943 0.33697
# Poissons Ratio (y) = 0.15872 0.35750
# Poissons Ratio (z) = 0.26603 0.44355
#
# Static dielectric constant tensor:
#      x y z
#    x 3.689520 -0.000020 -0.142640 
#    y -0.000020 4.068290 0.000000 
#    z -0.142640 0.000000 3.828130 
# 
# 
# High freq. dielectric constant tensor:
#      x y z
#    x 1.819690 0.000000 -0.025070 
#    y 0.000000 1.857080 0.000000 
#    z -0.025070 0.000000 1.851580 
# 
# From -- ./inp_files/23804.got.cif
#   From: 2010.06.25/outbox.cif.g09.slc.cpg/sg9_12_cif.got.tgz:23804.got - 2010.06.27 21:40:51.
