data_PCOD8054906
_publ_section_title
;
Structure prediction by ZEFSAII (Michael W. Deem and Ramdas Pophale) SiO2 
 PCOD8054906
Probable space group: C C
;
_chemical_formula_sum "Si O2"
_cell_formula_units_Z 32
_cell_length_a 7.986678
_cell_length_b 23.012208
_cell_length_c 13.249551
_cell_angle_alpha 90.000000
_cell_angle_beta 39.805204
_cell_angle_gamma 90.000000
_cell_volume 1558.932729
_symmetry_space_group_name_H-M "C C"
_symmetry_group_IT_number 9
_symmetry_cell_setting 'monoclinic'
loop_
_space_group_symop_operation_xyz
x,y,z
x,-y,1/2+z
1/2+x,1/2+y,z
1/2+x,1/2-y,1/2+z
loop_
_atom_site_type_symbol
_atom_site_label
_atom_site_fract_x
_atom_site_fract_y
_atom_site_fract_z
Si Si1 0.347710 0.511155 0.514080
Si Si2 0.507962 0.791532 0.052687
Si Si3 0.376881 0.594680 0.876656
Si Si4 0.874430 0.607126 0.992730
Si Si5 0.863077 0.501024 0.380641
Si Si6 0.396277 0.384469 0.861386
Si Si7 0.664630 0.672681 0.897662
Si Si8 0.368894 0.100890 0.515444
O O1 0.259721 0.466883 0.467254
O O2 0.598877 0.481358 0.448602
O O3 0.452413 0.574744 0.431422
O O4 0.109638 0.517312 0.700479
O O5 0.356582 0.799193 0.227295
O O6 0.368248 0.828028 0.024467
O O7 0.798040 0.819362 0.936251
O O8 0.510834 0.724136 0.025469
O O9 0.448153 0.634055 0.940863
O O10 0.632910 0.578578 0.693918
O O11 0.152730 0.626142 0.912891
O O12 0.878885 0.537575 0.974834
O O13 0.830897 0.637754 0.904328
O O14 0.644351 0.623707 0.175504
O O15 0.847342 0.570112 0.416053
O O16 0.153443 0.419616 0.923242
#
# Coordination Sequence:
#
# PCOD8054906 Si02
#       8
#     4   4   4   4   4   4   4   4
#     4  12  22  36  59  93 130 163 214 258 315 378
#     4   9  22  40  70  85 128 172 205 270 311 377
#     4  11  23  41  62  93 129 166 208 265 311 379
#     4  12  23  39  65  92 129 167 210 259 319 375
#     4  12  22  35  60  95 125 170 211 256 316 381
#     4  10  21  40  59  88 125 169 203 260 316 367
#     4  11  22  45  66  94 124 169 217 254 326 371
#     4   9  21  40  59  86 126 166 206 254 320 366
#
# _framework density 20.526864
#
# number of rings (size 3 to 8) (size 9 to 14) (size 15 to 20)
#    0.750    0.500    1.250    6.000    0.000    0.000 
#    0.000    6.250    0.000    0.000    0.000    0.000 
#    0.000    0.000    0.000    0.000    0.000    0.000 
#
# Total GULP energy -198247.792717 kJ/mol
# GULP energy per Si atom -12390.487045 kJ/mol
# Density = 2.048014 g / cm^3
# Si number density = 20.526864 Si / 1000 Ang^3
#
#
#
# Elastic Constant Matrix: (Units=GPa)
#
#
# Indices 1 2 3 4 5 6 
#
# 1 116.4405 32.6913 25.1125 0.0000 -6.6270 0.0000
# 2 32.6913 81.6318 9.1528 0.0000 8.0888 0.0000
# 3 25.1125 9.1528 97.1892 0.0000 -8.5354 0.0000
# 4 0.0000 0.0000 0.0000 31.3825 0.0000 11.4820
# 5 -6.6270 8.0888 -8.5354 0.0000 27.9473 0.0000
# 6 0.0000 0.0000 0.0000 11.4820 0.0000 26.4693
#
#
#
# Elastic Compliance Matrix: (Units=1/GPa)
#
#
# Indices 1 2 3 4 5 6 
#
# 1 0.010388 -0.004239 -0.002015 0.000000 0.003075 0.000000
# 2 -0.004239 0.014573 -0.000756 0.000000 -0.005454 0.000000
# 3 -0.002015 -0.000756 0.011158 0.000000 0.003149 0.000000
# 4 0.000000 0.000000 0.000000 0.037876 0.000000 -0.016430
# 5 0.003075 -0.005454 0.003149 0.000000 0.039051 0.000000
# 6 0.000000 0.000000 0.000000 -0.016430 0.000000 0.044907
#
#
# Mechanical properties :
#
#
# Convention : Reuss Voigt Hill
#
# Bulk Modulus (GPa) = 45.25166 47.68607 46.46887
# Shear Modulus (GPa) = 27.88035 32.38013 30.13024
#
# Velocity S-wave (km/s) = 3.68943 3.97602 3.83540
# Velocity P-wave (km/s) = 6.34367 6.66032 6.50392
#
# Compressibility (1/GPa) = 0.02209864
#
# Stress axis : x y z
#
# Youngs Moduli (GPa) = 96.26816 68.62089 89.62535
#
# Poissons Ratio (x) = 0.29087 0.18058
# Poissons Ratio (y) = 0.40805 0.06777
# Poissons Ratio (z) = 0.19396 0.05189
#
# Static dielectric constant tensor:
#      x y z
#    x 3.614340 0.000000 -0.008140 
#    y 0.000000 3.537160 0.000000 
#    z -0.008140 0.000000 3.605430 
# 
# 
# High freq. dielectric constant tensor:
#      x y z
#    x 1.788150 0.000000 -0.002560 
#    y 0.000000 1.791350 0.000000 
#    z -0.002560 0.000000 1.812420 
# 
# From -- ./inp_files/23742.got.cif
#   From: 2010.06.25/outbox.cif.g09.slc.cpg/sg9_12_cif.got.tgz:23742.got - 2010.06.27 21:40:51.
