data_PCOD8054224
_publ_section_title
;
Structure prediction by ZEFSAII (Michael W. Deem and Ramdas Pophale) SiO2 
 PCOD8054224
Probable space group: C C
;
_chemical_formula_sum "Si O2"
_cell_formula_units_Z 32
_cell_length_a 20.382713
_cell_length_b 14.239478
_cell_length_c 13.974561
_cell_angle_alpha 90.000000
_cell_angle_beta 157.030262
_cell_angle_gamma 90.000000
_cell_volume 1582.819735
_symmetry_space_group_name_H-M "C C"
_symmetry_group_IT_number 9
_symmetry_cell_setting 'monoclinic'
loop_
_space_group_symop_operation_xyz
x,y,z
x,-y,1/2+z
1/2+x,1/2+y,z
1/2+x,1/2-y,1/2+z
loop_
_atom_site_type_symbol
_atom_site_label
_atom_site_fract_x
_atom_site_fract_y
_atom_site_fract_z
Si Si1 0.661370 0.168648 0.439040
Si Si2 0.605049 0.642351 0.199383
Si Si3 0.810135 0.275292 0.808330
Si Si4 0.439736 0.478481 0.321541
Si Si5 0.033914 0.818113 0.957791
Si Si6 0.285835 0.852685 0.135672
Si Si7 0.278215 0.830827 0.462484
Si Si8 0.254234 0.944854 0.616135
O O1 0.684390 0.215091 0.573638
O O2 0.756548 0.068412 0.561911
O O3 0.749764 0.231509 0.476490
O O4 0.461116 0.159544 0.157619
O O5 0.722268 0.701002 0.287940
O O6 0.710675 0.613716 0.433357
O O7 0.467829 0.715327 0.051383
O O8 0.522996 0.553846 0.034308
O O9 0.863558 0.369412 0.822374
O O10 0.412357 0.590994 0.284594
O O11 0.563177 0.447758 0.400654
O O12 0.936669 0.720264 0.833300
O O13 0.146381 0.806225 0.015143
O O14 0.144633 0.837837 0.199115
O O15 0.344486 0.954289 0.255339
O O16 0.249207 0.915731 0.497869
#
# Coordination Sequence:
#
# PCOD8054224 Si02
#       8
#     4   4   4   4   4   4   4   4
#     4  10  19  34  61  91 112 139 186 236 282 333
#     4  10  18  34  57  80 105 142 179 223 278 326
#     4   9  17  32  57  84 107 131 177 235 277 321
#     4   9  20  38  59  82 111 142 186 240 284 326
#     4  11  24  40  54  79 118 154 188 229 274 332
#     4  11  23  38  54  77 113 154 189 225 272 330
#     4  11  20  36  60  85 113 151 185 226 281 335
#     4   9  19  36  58  82 109 143 184 232 280 327
#
# _framework density 20.217084
#
# number of rings (size 3 to 8) (size 9 to 14) (size 15 to 20)
#    0.000    2.000    0.000    6.000    0.000    1.000 
#    0.000    5.000    0.000    6.000    0.000    0.000 
#    0.000    0.000    0.000    0.000    0.000    0.000 
#
# Total GULP energy -198343.489169 kJ/mol
# GULP energy per Si atom -12396.468073 kJ/mol
# Density = 2.017107 g / cm^3
# Si number density = 20.217084 Si / 1000 Ang^3
#
#
#
# Elastic Constant Matrix: (Units=GPa)
#
#
# Indices 1 2 3 4 5 6 
#
# 1 229.6408 134.1273 78.8624 0.0000 -0.0404 0.0000
# 2 134.1273 203.6716 82.0428 0.0000 6.5729 0.0000
# 3 78.8624 82.0428 95.8697 0.0000 3.9799 0.0000
# 4 0.0000 0.0000 0.0000 -43.1331 0.0000 -0.7783
# 5 -0.0404 6.5729 3.9799 0.0000 21.9079 0.0000
# 6 0.0000 0.0000 0.0000 -0.7783 0.0000 22.5809
#
#
#
# Elastic Compliance Matrix: (Units=1/GPa)
#
#
# Indices 1 2 3 4 5 6 
#
# 1 0.007669 -0.003871 -0.003068 0.000000 0.001733 0.000000
# 2 -0.003871 0.009472 -0.004840 0.000000 -0.001970 0.000000
# 3 -0.003068 -0.004840 0.017167 0.000000 -0.001672 0.000000
# 4 0.000000 0.000000 0.000000 -0.023170 0.000000 -0.000799
# 5 0.001733 -0.001970 -0.001672 0.000000 0.046544 0.000000
# 6 0.000000 0.000000 0.000000 -0.000799 0.000000 0.044258
#
#
# Mechanical properties :
#
#
# Convention : Reuss Voigt Hill
#
# Bulk Modulus (GPa) = 93.02815 124.36078 108.69446
# Shear Modulus (GPa) = 38.73522 15.88112 27.30817
#
# Velocity S-wave (km/s) = 4.38192 2.80577 3.67924
# Velocity P-wave (km/s) = 8.46854 8.49369 8.48112
#
# Compressibility (1/GPa) = 0.01074943
#
# Stress axis : x y z
#
# Youngs Moduli (GPa) = 130.38894 105.57291 58.25266
#
# Poissons Ratio (x) = 0.40862 0.17875
# Poissons Ratio (y) = 0.50467 0.28196
# Poissons Ratio (z) = 0.40009 0.51101
#
# Static dielectric constant tensor:
#      x y z
#    x 3.769680 0.000000 -0.045760 
#    y 0.000000 3.838390 0.000000 
#    z -0.045760 0.000000 3.011390 
# 
# 
# High freq. dielectric constant tensor:
#      x y z
#    x 1.800740 0.000000 0.000850 
#    y 0.000000 1.798220 0.000000 
#    z 0.000850 0.000000 1.759730 
# 
# From -- ./inp_files/7432.got.cif
#   From: 2010.06.25/outbox.cif.g09.slc.cpg/sg9_4_cif.got.tgz:7432.got - 2010.06.27 21:40:51.
