data_PCOD8054325
_publ_section_title
;
Structure prediction by ZEFSAII (Michael W. Deem and Ramdas Pophale) SiO2 
 PCOD8054325
Probable space group: C C
;
_chemical_formula_sum "Si O2"
_cell_formula_units_Z 32
_cell_length_a 17.667439
_cell_length_b 17.028349
_cell_length_c 5.255384
_cell_angle_alpha 90.000000
_cell_angle_beta 70.961436
_cell_angle_gamma 90.000000
_cell_volume 1494.582533
_symmetry_space_group_name_H-M "C C"
_symmetry_group_IT_number 9
_symmetry_cell_setting 'monoclinic'
loop_
_space_group_symop_operation_xyz
x,y,z
x,-y,1/2+z
1/2+x,1/2+y,z
1/2+x,1/2-y,1/2+z
loop_
_atom_site_type_symbol
_atom_site_label
_atom_site_fract_x
_atom_site_fract_y
_atom_site_fract_z
Si Si1 0.840330 0.034365 0.881580
Si Si2 0.642284 0.785963 0.858430
Si Si3 0.159919 0.535073 0.190430
Si Si4 0.378261 0.707573 0.717582
Si Si5 0.980444 0.207989 0.102882
Si Si6 0.190961 0.964100 0.736448
Si Si7 0.215721 0.782822 0.779952
Si Si8 0.514247 0.532183 0.973757
O O1 0.839066 0.121646 0.771219
O O2 0.879075 0.973210 0.626144
O O3 0.750666 0.005270 0.044274
O O4 0.657110 0.874103 0.757307
O O5 0.549127 0.773152 0.018816
O O6 0.666235 0.732657 0.591444
O O7 0.692203 0.770047 0.061761
O O8 0.117591 0.485748 0.466365
O O9 0.418368 0.725959 0.945342
O O10 0.308901 0.770428 0.741116
O O11 0.441289 0.713559 0.421897
O O12 0.022548 0.123084 0.031710
O O13 0.197957 0.871302 0.719968
O O14 0.233824 0.999507 0.437951
O O15 0.098853 0.991692 0.810893
O O16 0.471374 0.521591 0.742265
#
# Coordination Sequence:
#
# PCOD8054325 Si02
#       8
#     4   4   4   4   4   4   4   4
#     4  10  21  37  59  88 126 168 212 254 311 395
#     4  12  23  42  68  96 123 174 227 281 326 388
#     4  10  21  37  63  93 120 157 218 281 320 373
#     4  12  26  42  59  95 136 179 208 265 338 407
#     4  12  26  40  62  93 137 170 213 266 344 407
#     4  10  20  37  62  93 122 157 218 276 320 369
#     4  12  24  42  70  95 130 179 229 277 325 399
#     4  10  19  35  57  85 124 162 205 252 312 392
#
# _framework density 21.410661999999999
#
# number of rings (size 3 to 8) (size 9 to 14) (size 15 to 20)
#    0.000    1.000    1.250    7.500    3.500    3.000 
#    0.000    0.000    0.000    4.500    0.000    0.000 
#    0.000    0.000    0.000    0.000    0.000    0.000 
#
# Total GULP energy -198422.860161 kJ/mol
# GULP energy per Si atom -12401.428760 kJ/mol
# Density = 2.136193 g / cm^3
# Si number density = 21.410662 Si / 1000 Ang^3
#
#
#
# Elastic Constant Matrix: (Units=GPa)
#
#
# Indices 1 2 3 4 5 6 
#
# 1 65.7383 29.2630 32.7291 0.0000 5.5087 0.0000
# 2 29.2630 86.7264 38.5279 0.0000 -2.8062 0.0000
# 3 32.7291 38.5279 156.7280 0.0000 29.3804 0.0000
# 4 0.0000 0.0000 0.0000 36.9554 0.0000 -0.6576
# 5 5.5087 -2.8062 29.3804 0.0000 33.4458 0.0000
# 6 0.0000 0.0000 0.0000 -0.6576 0.0000 34.0030
#
#
#
# Elastic Compliance Matrix: (Units=1/GPa)
#
#
# Indices 1 2 3 4 5 6 
#
# 1 0.018901 -0.005387 -0.002340 0.000000 -0.001510 0.000000
# 2 -0.005387 0.015112 -0.003584 0.000000 0.005304 0.000000
# 3 -0.002340 -0.003584 0.009259 0.000000 -0.008049 0.000000
# 4 0.000000 0.000000 0.000000 0.027069 0.000000 0.000524
# 5 -0.001510 0.005304 -0.008049 0.000000 0.037663 0.000000
# 6 0.000000 0.000000 0.000000 0.000524 0.000000 0.029419
#
#
# Mechanical properties :
#
#
# Convention : Reuss Voigt Hill
#
# Bulk Modulus (GPa) = 48.42552 56.69250 52.55901
# Shear Modulus (GPa) = 29.95272 34.79233 32.37253
#
# Velocity S-wave (km/s) = 3.74433 4.03550 3.89264
# Velocity P-wave (km/s) = 6.43117 6.94621 6.69364
#
# Compressibility (1/GPa) = 0.02065027
#
# Stress axis : x y z
#
# Youngs Moduli (GPa) = 52.90647 66.17216 108.00226
#
# Poissons Ratio (x) = 0.35647 0.25271
# Poissons Ratio (y) = 0.28501 0.38711
# Poissons Ratio (z) = 0.12379 0.23718
#
# Static dielectric constant tensor:
#      x y z
#    x 4.012010 0.000000 0.564240 
#    y 0.000000 3.589530 0.000000 
#    z 0.564240 0.000000 4.750860 
# 
# 
# High freq. dielectric constant tensor:
#      x y z
#    x 1.833440 0.000000 0.026590 
#    y 0.000000 1.819060 0.000000 
#    z 0.026590 0.000000 1.884990 
# 
# From -- ./inp_files/3202.got.cif
#   From: 2010.06.25/outbox.cif.g09.slc.cpg/sg9_2_cif.got.tgz:3202.got - 2010.06.27 21:40:51.
