data_PCOD8054602
_publ_section_title
;
Structure prediction by ZEFSAII (Michael W. Deem and Ramdas Pophale) SiO2 
 PCOD8054602
Probable space group: C C
;
_chemical_formula_sum "Si O2"
_cell_formula_units_Z 32
_cell_length_a 28.104444
_cell_length_b 7.847829
_cell_length_c 16.972872
_cell_angle_alpha 90.000000
_cell_angle_beta 156.944188
_cell_angle_gamma 90.000000
_cell_volume 1466.064802
_symmetry_space_group_name_H-M "C C"
_symmetry_group_IT_number 9
_symmetry_cell_setting 'monoclinic'
loop_
_space_group_symop_operation_xyz
x,y,z
x,-y,1/2+z
1/2+x,1/2+y,z
1/2+x,1/2-y,1/2+z
loop_
_atom_site_type_symbol
_atom_site_label
_atom_site_fract_x
_atom_site_fract_y
_atom_site_fract_z
Si Si1 0.346540 0.966555 0.581090
Si Si2 0.113393 0.782955 0.230689
Si Si3 0.544034 0.144976 0.962665
Si Si4 0.976256 0.874611 0.474768
Si Si5 0.212738 0.308345 0.341799
Si Si6 0.927324 0.996020 0.736134
Si Si7 0.958672 0.227396 0.639672
Si Si8 0.276809 0.513866 0.783714
O O1 0.258075 0.806555 0.463632
O O2 0.427467 0.909015 0.630252
O O3 0.429135 0.016799 0.782128
O O4 0.265957 0.123092 0.433995
O O5 0.069197 0.727927 0.249720
O O6 0.090622 0.644960 0.125327
O O7 0.046355 0.953347 0.102347
O O8 0.507577 0.328871 0.874367
O O9 0.648035 0.070404 0.062369
O O10 0.849200 0.875288 0.329062
O O11 0.065811 0.713144 0.631234
O O12 0.940329 0.872769 0.328028
O O13 0.283469 0.444014 0.506040
O O14 0.244314 0.351569 0.300954
O O15 0.986560 0.086212 0.749864
O O16 0.851116 0.152068 0.423186
#
# Coordination Sequence:
#
# PCOD8054602 Si02
#       8
#     4   4   4   4   4   4   4   4
#     4  10  20  39  58  86 121 155 206 254 299 374
#     4   9  19  40  62  85 121 163 197 255 315 360
#     4  10  20  39  60  86 123 159 203 253 305 367
#     4   9  19  38  63  85 119 160 204 248 309 367
#     4   9  20  39  59  82 122 159 196 255 307 361
#     4   9  20  39  59  87 121 162 201 251 305 367
#     4  10  20  39  61  85 121 161 201 253 314 362
#     4  10  20  39  60  86 118 161 200 251 314 366
#
# _framework density 21.827138999999999
#
# number of rings (size 3 to 8) (size 9 to 14) (size 15 to 20)
#    0.000    2.500    1.250    0.000    1.750    0.000 
#   22.500    0.000    0.000    0.000    0.000    0.000 
#    0.000    0.000    0.000    0.000    0.000    0.000 
#
# Total GULP energy -198228.758449 kJ/mol
# GULP energy per Si atom -12389.297403 kJ/mol
# Density = 2.177746 g / cm^3
# Si number density = 21.827139 Si / 1000 Ang^3
#
#
#
# Elastic Constant Matrix: (Units=GPa)
#
#
# Indices 1 2 3 4 5 6 
#
# 1 125.0594 20.7735 53.6849 0.0000 13.4875 0.0000
# 2 20.7735 40.1402 36.3137 0.0000 1.9141 0.0000
# 3 53.6849 36.3137 117.0418 0.0000 2.8775 0.0000
# 4 0.0000 0.0000 0.0000 15.4293 0.0000 3.0290
# 5 13.4875 1.9141 2.8775 0.0000 28.4428 0.0000
# 6 0.0000 0.0000 0.0000 3.0290 0.0000 27.7099
#
#
#
# Elastic Compliance Matrix: (Units=1/GPa)
#
#
# Indices 1 2 3 4 5 6 
#
# 1 0.010554 -0.001347 -0.004313 0.000000 -0.004478 0.000000
# 2 -0.001347 0.034850 -0.010178 0.000000 -0.000677 0.000000
# 3 -0.004313 -0.010178 0.013647 0.000000 0.001350 0.000000
# 4 0.000000 0.000000 0.000000 0.066233 0.000000 -0.007240
# 5 -0.004478 -0.000677 0.001350 0.000000 0.037191 0.000000
# 6 0.000000 0.000000 0.000000 -0.007240 0.000000 0.036880
#
#
# Mechanical properties :
#
#
# Convention : Reuss Voigt Hill
#
# Bulk Modulus (GPa) = 36.52944 55.97618 46.25281
# Shear Modulus (GPa) = 20.81980 25.74769 23.28374
#
# Velocity S-wave (km/s) = 3.09180 3.43828 3.26963
# Velocity P-wave (km/s) = 5.43302 6.43920 5.95739
#
# Compressibility (1/GPa) = 0.02737518
#
# Stress axis : x y z
#
# Youngs Moduli (GPa) = 94.74753 28.69448 73.27546
#
# Poissons Ratio (x) = 0.03864 0.31605
# Poissons Ratio (y) = 0.12758 0.74582
# Poissons Ratio (z) = 0.40867 0.29206
#
# Static dielectric constant tensor:
#      x y z
#    x 3.927170 0.000000 0.115370 
#    y 0.000000 3.934330 0.000000 
#    z 0.115370 0.000000 4.341600 
# 
# 
# High freq. dielectric constant tensor:
#      x y z
#    x 1.831580 0.000000 0.000970 
#    y 0.000000 1.860960 0.000000 
#    z 0.000970 0.000000 1.869620 
# 
# From -- ./inp_files/17845.got.cif
#   From: 2010.06.25/outbox.cif.g09.slc.cpg/sg9_9_cif.got.tgz:17845.got - 2010.06.27 21:40:51.
