data_PCOD8054372
_publ_section_title
;
Structure prediction by ZEFSAII (Michael W. Deem and Ramdas Pophale) SiO2 
 PCOD8054372
Probable space group: C C
;
_chemical_formula_sum "Si O2"
_cell_formula_units_Z 28
_cell_length_a 12.545681
_cell_length_b 8.839410
_cell_length_c 18.224008
_cell_angle_alpha 90.000000
_cell_angle_beta 132.885854
_cell_angle_gamma 90.000000
_cell_volume 1480.792117
_symmetry_space_group_name_H-M "C C"
_symmetry_group_IT_number 9
_symmetry_cell_setting 'monoclinic'
loop_
_space_group_symop_operation_xyz
x,y,z
x,-y,1/2+z
1/2+x,1/2+y,z
1/2+x,1/2-y,1/2+z
loop_
_atom_site_type_symbol
_atom_site_label
_atom_site_fract_x
_atom_site_fract_y
_atom_site_fract_z
Si Si1 0.666840 0.176009 0.578700
Si Si2 0.458391 0.982992 0.566477
Si Si3 0.649386 0.513824 0.992272
Si Si4 0.459057 0.686762 0.792991
Si Si5 0.066811 0.521490 0.397299
Si Si6 0.148477 0.624633 0.287495
Si Si7 0.458427 0.753311 0.436527
O O1 0.666531 0.353677 0.560267
O O2 0.800466 0.134024 0.694110
O O3 0.516608 0.127269 0.547996
O O4 0.685206 0.075306 0.513524
O O5 0.304995 0.024745 0.530203
O O6 0.577001 0.949406 0.683597
O O7 0.440572 0.837847 0.505532
O O8 0.534913 0.554779 0.874938
O O9 0.591561 0.364619 0.006140
O O10 0.559316 0.723849 0.768679
O O11 0.448244 0.840943 0.836853
O O12 0.144720 0.504992 0.354344
O O13 0.989607 0.367146 0.383981
O O14 0.313532 0.664531 0.346970
#
# Coordination Sequence:
#
# PCOD8054372 Si02
#       7
#     4   4   4   4   4   4   4
#     4  10  19  37  61  85 115 155 193 234 292 341
#     4  11  22  38  59  87 118 154 194 242 285 342
#     4  11  21  38  60  86 118 152 193 241 288 343
#     4   9  18  37  62  79 116 155 186 235 287 337
#     4   8  20  36  60  83 120 145 191 241 282 341
#     4  10  20  36  63  80 117 153 192 234 291 335
#     4  11  22  38  63  86 114 156 195 235 293 343
#
# _framework density 18.908798000000001
#
# number of rings (size 3 to 8) (size 9 to 14) (size 15 to 20)
#    0.857    1.143    2.857    0.857    0.000    3.429 
#    0.000    1.429    9.429    0.000    0.000    0.000 
#    0.000    0.000    0.000    0.000    0.000    0.000 
#
# Total GULP energy -173540.721531 kJ/mol
# GULP energy per Si atom -12395.765824 kJ/mol
# Density = 1.886576 g / cm^3
# Si number density = 18.908798 Si / 1000 Ang^3
#
#
#
# Elastic Constant Matrix: (Units=GPa)
#
#
# Indices 1 2 3 4 5 6 
#
# 1 78.8192 52.6176 36.6094 0.0000 22.5365 0.0000
# 2 52.6176 43.4602 23.7139 0.0000 9.0364 0.0000
# 3 36.6094 23.7139 123.2720 0.0000 7.8359 0.0000
# 4 0.0000 0.0000 0.0000 13.7247 0.0000 3.3758
# 5 22.5365 9.0364 7.8359 0.0000 31.5208 0.0000
# 6 0.0000 0.0000 0.0000 3.3758 0.0000 35.2718
#
#
#
# Elastic Compliance Matrix: (Units=1/GPa)
#
#
# Indices 1 2 3 4 5 6 
#
# 1 0.098399 -0.107952 -0.006047 0.000000 -0.037901 0.000000
# 2 -0.107952 0.145409 0.001860 0.000000 0.035035 0.000000
# 3 -0.006047 0.001860 0.009459 0.000000 0.001438 0.000000
# 4 0.000000 0.000000 0.000000 0.074618 0.000000 -0.007142
# 5 -0.037901 0.035035 0.001438 0.000000 0.048422 0.000000
# 6 0.000000 0.000000 0.000000 -0.007142 0.000000 0.029035
#
#
# Mechanical properties :
#
#
# Convention : Reuss Voigt Hill
#
# Bulk Modulus (GPa) = 34.49559 52.38145 43.43852
# Shear Modulus (GPa) = 7.82129 24.94416 16.38272
#
# Velocity S-wave (km/s) = 2.03600 3.63600 2.94667
# Velocity P-wave (km/s) = 4.87953 6.73718 5.88215
#
# Compressibility (1/GPa) = 0.02898922
#
# Stress axis : x y z
#
# Youngs Moduli (GPa) = 10.16272 6.87717 105.72488
#
# Poissons Ratio (x) = 0.74241 0.63927
# Poissons Ratio (y) = 1.09709 -0.19670
# Poissons Ratio (z) = 0.06145 -0.01279
#
# Static dielectric constant tensor:
#      x y z
#    x 3.434580 0.000000 -0.085320 
#    y 0.000000 3.253440 0.000000 
#    z -0.085320 0.000000 3.396050 
# 
# 
# High freq. dielectric constant tensor:
#      x y z
#    x 1.730060 0.000000 -0.006410 
#    y 0.000000 1.714960 0.000000 
#    z -0.006410 0.000000 1.738280 
# 
# From -- ./inp_files/24067.got.cif
#   From: 2010.06.25/outbox.cif.g09.slc.cpg/sg9_13_cif.got.tgz:24067.got - 2010.06.27 21:40:51.
