data_PCOD8054231
_publ_section_title
;
Structure prediction by ZEFSAII (Michael W. Deem and Ramdas Pophale) SiO2 
 PCOD8054231
Probable space group: C C
;
_chemical_formula_sum "Si O2"
_cell_formula_units_Z 32
_cell_length_a 22.384999
_cell_length_b 9.954410
_cell_length_c 8.946605
_cell_angle_alpha 90.000000
_cell_angle_beta 130.957185
_cell_angle_gamma 90.000000
_cell_volume 1505.541144
_symmetry_space_group_name_H-M "C C"
_symmetry_group_IT_number 9
_symmetry_cell_setting 'monoclinic'
loop_
_space_group_symop_operation_xyz
x,y,z
x,-y,1/2+z
1/2+x,1/2+y,z
1/2+x,1/2-y,1/2+z
loop_
_atom_site_type_symbol
_atom_site_label
_atom_site_fract_x
_atom_site_fract_y
_atom_site_fract_z
Si Si1 0.536720 0.907862 0.288480
Si Si2 0.785808 0.506928 0.659678
Si Si3 0.892726 0.390892 0.584805
Si Si4 0.515270 0.677859 0.801742
Si Si5 0.467745 0.495162 0.972675
Si Si6 0.118274 0.389736 0.105754
Si Si7 0.751001 0.311418 0.847745
Si Si8 0.917328 0.185429 0.140096
O O1 0.569526 0.884705 0.177465
O O2 0.500417 0.767127 0.285739
O O3 0.466743 0.014851 0.168682
O O4 0.608287 0.961754 0.514967
O O5 0.851785 0.428168 0.673240
O O6 0.733843 0.398289 0.669001
O O7 0.729922 0.598038 0.459893
O O8 0.829979 0.605565 0.847750
O O9 0.926532 0.240477 0.656550
O O10 0.524605 0.580782 0.959242
O O11 0.526829 0.595430 0.668477
O O12 0.582661 0.788807 0.924188
O O13 0.409574 0.403010 0.777206
O O14 0.414481 0.589353 0.991060
O O15 0.207113 0.333513 0.277179
O O16 0.845258 0.289199 0.010994
#
# Coordination Sequence:
#
# PCOD8054231 Si02
#       8
#     4   4   4   4   4   4   4   4
#     4  11  22  41  70  92 126 167 231 274 317 393
#     4  10  19  36  64  92 124 167 217 271 320 378
#     4  10  18  34  67  98 110 158 230 282 294 368
#     4  10  20  35  56  85 127 153 214 257 323 374
#     4  10  22  35  59  94 119 169 200 279 320 370
#     4  11  26  41  61  96 129 169 206 281 339 390
#     4  11  24  40  61  97 138 170 214 272 338 400
#     4  11  21  40  66  94 127 167 228 272 317 393
#
# _framework density 21.254816000000002
#
# number of rings (size 3 to 8) (size 9 to 14) (size 15 to 20)
#    0.000    1.500    3.750    3.000    3.500    2.000 
#    0.000    2.500    0.000    0.000    0.000    0.000 
#    0.000    0.000    0.000    0.000    0.000    0.000 
#
# Total GULP energy -198343.275074 kJ/mol
# GULP energy per Si atom -12396.454692 kJ/mol
# Density = 2.120644 g / cm^3
# Si number density = 21.254816 Si / 1000 Ang^3
#
#
#
# Elastic Constant Matrix: (Units=GPa)
#
#
# Indices 1 2 3 4 5 6 
#
# 1 62.6500 30.5477 41.5070 0.0000 -17.7848 0.0000
# 2 30.5477 99.4593 44.6407 0.0000 -11.7701 0.0000
# 3 41.5070 44.6407 89.3582 0.0000 -22.3384 0.0000
# 4 0.0000 0.0000 0.0000 41.8577 0.0000 5.1497
# 5 -17.7848 -11.7701 -22.3384 0.0000 31.6749 0.0000
# 6 0.0000 0.0000 0.0000 5.1497 0.0000 23.6036
#
#
#
# Elastic Compliance Matrix: (Units=1/GPa)
#
#
# Indices 1 2 3 4 5 6 
#
# 1 0.024961 -0.003119 -0.008283 0.000000 0.007015 0.000000
# 2 -0.003119 0.013352 -0.005365 0.000000 -0.000573 0.000000
# 3 -0.008283 -0.005365 0.019494 0.000000 0.007104 0.000000
# 4 0.000000 0.000000 0.000000 0.024549 0.000000 -0.005356
# 5 0.007015 -0.000573 0.007104 0.000000 0.040307 0.000000
# 6 0.000000 0.000000 0.000000 -0.005356 0.000000 0.043535
#
#
# Mechanical properties :
#
#
# Convention : Reuss Voigt Hill
#
# Bulk Modulus (GPa) = 41.19505 53.87315 47.53410
# Shear Modulus (GPa) = 24.05879 28.41204 26.23542
#
# Velocity S-wave (km/s) = 3.36805 3.66010 3.51711
# Velocity P-wave (km/s) = 5.87781 6.57747 6.23746
#
# Compressibility (1/GPa) = 0.02427476
#
# Stress axis : x y z
#
# Youngs Moduli (GPa) = 40.06192 74.89257 51.29655
#
# Poissons Ratio (x) = 0.23357 0.42489
# Poissons Ratio (y) = 0.12494 0.27521
# Poissons Ratio (z) = 0.33183 0.40181
#
# Static dielectric constant tensor:
#      x y z
#    x 3.582720 0.000000 -0.278070 
#    y 0.000000 4.186530 0.000000 
#    z -0.278070 0.000000 3.937460 
# 
# 
# High freq. dielectric constant tensor:
#      x y z
#    x 1.806670 0.000000 -0.031570 
#    y 0.000000 1.841810 0.000000 
#    z -0.031570 0.000000 1.828170 
# 
# From -- ./inp_files/10549.got.cif
#   From: 2010.06.25/outbox.cif.g09.slc.cpg/sg9_6_cif.got.tgz:10549.got - 2010.06.27 21:40:51.
