data_PCOD8054032
_publ_section_title
;
Structure prediction by ZEFSAII (Michael W. Deem and Ramdas Pophale) SiO2 
 PCOD8054032
Probable space group: C M
;
_chemical_formula_sum "Si O2"
_cell_formula_units_Z 20
_cell_length_a 10.200928
_cell_length_b 18.837520
_cell_length_c 9.788323
_cell_angle_alpha 90.000000
_cell_angle_beta 150.179417
_cell_angle_gamma 90.000000
_cell_volume 935.357519
_symmetry_space_group_name_H-M "C M"
_symmetry_group_IT_number 8
_symmetry_cell_setting 'monoclinic'
loop_
_space_group_symop_operation_xyz
x,y,z
x,-y,z
1/2+x,1/2+y,z
1/2+x,1/2-y,z
loop_
_atom_site_type_symbol
_atom_site_label
_atom_site_fract_x
_atom_site_fract_y
_atom_site_fract_z
Si Si1 0.735850 0.706433 0.293350
Si Si2 0.207026 0.653319 0.876429
Si Si3 0.586697 0.580414 0.701455
Si Si4 0.535247 0.419695 0.965123
Si Si5 0.631667 0.139740 0.108814
O O1 0.723629 0.778626 0.197277
O O2 0.980023 0.706193 0.617704
O O3 0.467866 0.700495 0.140055
O O4 0.756452 0.637985 0.210551
O O5 0.272192 0.593989 0.819071
O O6 0.122490 0.616303 0.941504
O O7 0.684912 0.500000 0.771304
O O8 0.471058 0.593170 0.748270
O O9 0.346441 0.593252 0.381503
O O10 0.839418 0.630069 0.904794
O O11 0.637782 0.500000 0.082869
#
# Coordination Sequence:
#
# PCOD8054032 Si02
#       5
#     4   4   4   4   4
#     4  10  24  39  70  95 132 167 225 266 332 376
#     4  10  24  43  63 100 126 177 218 266 330 381
#     4  11  26  45  68  98 135 177 216 272 334 389
#     4   9  24  44  67  95 133 176 221 265 325 395
#     4  12  25  43  70  98 137 169 222 277 326 391
#
# _framework density 21.382197000000001
#
# number of rings (size 3 to 8) (size 9 to 14) (size 15 to 20)
#    1.200    0.400    0.000    3.000    8.400    2.400 
#    0.000    0.000    0.000    0.000    0.000    0.000 
#    0.000    0.000    0.000    0.000    0.000    0.000 
#
# Total GULP energy -123940.015759 kJ/mol
# GULP energy per Si atom -12394.001576 kJ/mol
# Density = 2.133353 g / cm^3
# Si number density = 21.382197 Si / 1000 Ang^3
#
#
#
# Elastic Constant Matrix: (Units=GPa)
#
#
# Indices 1 2 3 4 5 6 
#
# 1 153.9644 51.0312 55.8198 -0.0002 -18.5771 -0.0003
# 2 51.0312 99.3275 24.6353 -0.0001 -9.4884 -0.0005
# 3 55.8198 24.6353 124.9996 0.0003 0.8028 -0.0014
# 4 -0.0002 -0.0001 0.0003 33.1159 -0.0002 -2.9257
# 5 -18.5771 -9.4884 0.8028 -0.0002 31.3165 -0.0006
# 6 -0.0003 -0.0005 -0.0014 -2.9257 -0.0006 21.0032
#
#
#
# Elastic Compliance Matrix: (Units=1/GPa)
#
#
# Indices 1 2 3 4 5 6 
#
# 1 0.009541 -0.003566 -0.003588 0.000000 0.004672 0.000000
# 2 -0.003566 0.012262 -0.000835 0.000000 0.001621 0.000000
# 3 -0.003588 -0.000835 0.009784 0.000000 -0.002632 0.000000
# 4 0.000000 0.000000 0.000000 0.030573 0.000000 0.004259
# 5 0.004672 0.001621 -0.002632 0.000000 0.035262 0.000001
# 6 0.000000 0.000000 0.000000 0.004259 0.000001 0.048205
#
#
# Mechanical properties :
#
#
# Convention : Reuss Voigt Hill
#
# Bulk Modulus (GPa) = 64.06282 71.25156 67.65719
# Shear Modulus (GPa) = 29.97471 33.54079 31.75775
#
# Velocity S-wave (km/s) = 3.74820 3.96489 3.85807
# Velocity P-wave (km/s) = 6.98268 7.37263 7.18030
#
# Compressibility (1/GPa) = 0.01560968
#
# Stress axis : x y z
#
# Youngs Moduli (GPa) = 104.80609 81.55538 102.21096
#
# Poissons Ratio (x) = 0.29082 0.36674
# Poissons Ratio (y) = 0.37373 0.08530
# Poissons Ratio (z) = 0.37605 0.06806
#
# Static dielectric constant tensor:
#      x y z
#    x 3.775600 0.000000 -0.048730 
#    y 0.000000 3.687160 0.000000 
#    z -0.048730 0.000000 3.688980 
# 
# 
# High freq. dielectric constant tensor:
#      x y z
#    x 1.838870 0.000000 -0.003590 
#    y 0.000000 1.831270 0.000000 
#    z -0.003590 0.000000 1.834720 
# 
# From -- ./inp_files/9052.got.cif
#   From: 2010.03.12/outbox.cif.g09.slc.cpg/sg8_5_cif.got.tgz:9052.got - 2010.03.31 10:45:26.
