data_PCOD8054252
_publ_section_title
;
Structure prediction by ZEFSAII (Michael W. Deem and Ramdas Pophale) SiO2 
 PCOD8054252
Probable space group: C C
;
_chemical_formula_sum "Si O2"
_cell_formula_units_Z 28
_cell_length_a 22.979846
_cell_length_b 8.559224
_cell_length_c 17.265678
_cell_angle_alpha 90.000000
_cell_angle_beta 157.993384
_cell_angle_gamma 90.000000
_cell_volume 1272.520131
_symmetry_space_group_name_H-M "C C"
_symmetry_group_IT_number 9
_symmetry_cell_setting 'monoclinic'
loop_
_space_group_symop_operation_xyz
x,y,z
x,-y,1/2+z
1/2+x,1/2+y,z
1/2+x,1/2-y,1/2+z
loop_
_atom_site_type_symbol
_atom_site_label
_atom_site_fract_x
_atom_site_fract_y
_atom_site_fract_z
Si Si1 0.762190 0.275009 0.504870
Si Si2 0.736697 0.242327 0.737945
Si Si3 0.564242 0.613854 0.889111
Si Si4 0.788734 0.102088 0.246753
Si Si5 0.053914 0.377644 0.151442
Si Si6 0.099204 0.722078 0.152955
Si Si7 0.268554 0.439163 0.549602
O O1 0.676285 0.405093 0.451949
O O2 0.722773 0.296527 0.365549
O O3 0.950266 0.267984 0.744011
O O4 0.693680 0.112277 0.454919
O O5 0.673560 0.368897 0.598710
O O6 0.604770 0.215064 0.637940
O O7 0.782857 0.082848 0.751990
O O8 0.884986 0.313794 0.965279
O O9 0.454238 0.459252 0.758931
O O10 0.675202 0.196801 0.162900
O O11 0.743267 0.140703 0.101864
O O12 0.963184 0.154300 0.477771
O O13 0.039722 0.559788 0.114433
O O14 0.177774 0.339654 0.372449
#
# Coordination Sequence:
#
# PCOD8054252 Si02
#       7
#     4   4   4   4   4   4   4
#     4   9  18  35  61  91 119 162 213 257 294 375
#     4  11  21  39  66  91 124 163 211 260 312 373
#     4  10  18  36  64  91 120 165 211 258 296 378
#     4  11  22  41  61  91 126 165 209 258 314 378
#     4  10  23  41  61  92 124 166 208 260 313 377
#     4  10  23  38  64  89 129 162 208 261 315 371
#     4   9  21  38  63  87 130 161 206 258 314 378
#
# _framework density 22.003578999999998
#
# number of rings (size 3 to 8) (size 9 to 14) (size 15 to 20)
#    0.857    1.143    1.429    2.571    2.000    3.429 
#    0.000    0.000    6.286    0.000    0.000    0.000 
#    0.000    0.000    0.000    0.000    0.000    0.000 
#
# Total GULP energy -173512.304154 kJ/mol
# GULP energy per Si atom -12393.736011 kJ/mol
# Density = 2.195350 g / cm^3
# Si number density = 22.003579 Si / 1000 Ang^3
#
#
#
# Elastic Constant Matrix: (Units=GPa)
#
#
# Indices 1 2 3 4 5 6 
#
# 1 89.1280 6.8496 18.9850 0.0000 -17.2424 0.0000
# 2 6.8496 11.4420 16.7207 0.0000 -3.1934 0.0000
# 3 18.9850 16.7207 116.2075 0.0000 -9.5481 0.0000
# 4 0.0000 0.0000 0.0000 40.4872 0.0000 5.6591
# 5 -17.2424 -3.1934 -9.5481 0.0000 39.9338 0.0000
# 6 0.0000 0.0000 0.0000 5.6591 0.0000 11.2276
#
#
#
# Elastic Compliance Matrix: (Units=1/GPa)
#
#
# Indices 1 2 3 4 5 6 
#
# 1 0.012745 -0.004825 -0.000987 0.000000 0.004881 0.000000
# 2 -0.004825 0.113540 -0.015274 0.000000 0.003344 0.000000
# 3 -0.000987 -0.015274 0.011046 0.000000 0.000994 0.000000
# 4 0.000000 0.000000 0.000000 0.026571 0.000000 -0.013393
# 5 0.004881 0.003344 0.000994 0.000000 0.027654 0.000000
# 6 0.000000 0.000000 0.000000 -0.013393 0.000000 0.095817
#
#
# Mechanical properties :
#
#
# Convention : Reuss Voigt Hill
#
# Bulk Modulus (GPa) = 10.50876 33.54313 22.02594
# Shear Modulus (GPa) = 13.84030 29.94452 21.89241
#
# Velocity S-wave (km/s) = 2.51071 3.69303 3.15770
# Velocity P-wave (km/s) = 3.63197 5.78465 4.82977
#
# Compressibility (1/GPa) = 0.09515875
#
# Stress axis : x y z
#
# Youngs Moduli (GPa) = 78.46109 8.80751 90.53192
#
# Poissons Ratio (x) = 0.04250 0.08934
# Poissons Ratio (y) = 0.37860 1.38276
# Poissons Ratio (z) = 0.07743 0.13452
#
# Static dielectric constant tensor:
#      x y z
#    x 3.989150 0.000000 -0.113640 
#    y 0.000000 3.450890 0.000000 
#    z -0.113640 0.000000 3.878330 
# 
# 
# High freq. dielectric constant tensor:
#      x y z
#    x 1.870320 0.000000 -0.005840 
#    y 0.000000 1.817440 0.000000 
#    z -0.005840 0.000000 1.871740 
# 
# From -- ./inp_files/20697.got.cif
#   From: 2010.06.25/outbox.cif.g09.slc.cpg/sg9_11_cif.got.tgz:20697.got - 2010.06.27 21:40:51.
