data_PCOD8054152
_publ_section_title
;
Structure prediction by ZEFSAII (Michael W. Deem and Ramdas Pophale) SiO2 
 PCOD8054152
Probable space group: C M
;
_chemical_formula_sum "Si O2"
_cell_formula_units_Z 32
_cell_length_a 22.647440
_cell_length_b 9.489513
_cell_length_c 27.714228
_cell_angle_alpha 90.000000
_cell_angle_beta 17.690463
_cell_angle_gamma 90.000000
_cell_volume 1809.922851
_symmetry_space_group_name_H-M "C M"
_symmetry_group_IT_number 8
_symmetry_cell_setting 'monoclinic'
loop_
_space_group_symop_operation_xyz
x,y,z
x,-y,z
1/2+x,1/2+y,z
1/2+x,1/2-y,z
loop_
_atom_site_type_symbol
_atom_site_label
_atom_site_fract_x
_atom_site_fract_y
_atom_site_fract_z
Si Si1 0.584520 0.663373 0.808740
Si Si2 0.917548 0.832167 0.726257
Si Si3 0.837020 0.332173 0.430210
Si Si4 0.921134 0.663378 0.472113
Si Si5 0.670081 0.663361 0.347694
Si Si6 0.333520 0.336626 0.684277
Si Si7 0.090159 0.667824 0.053658
Si Si8 0.664450 0.832174 0.102777
O O1 0.579762 0.500000 0.827110
O O2 0.721946 0.689368 0.655875
O O3 0.657559 0.749999 0.797959
O O4 0.372349 0.720638 0.960002
O O5 0.865003 0.779354 0.713694
O O6 0.127286 0.771225 0.578235
O O7 0.923374 0.000000 0.722697
O O8 0.756988 0.773753 0.888388
O O9 0.831153 0.500000 0.433819
O O10 0.889661 0.279321 0.442691
O O11 0.997580 0.273789 0.268072
O O12 0.980326 0.500000 0.426515
O O13 0.097096 0.749983 0.358435
O O14 0.674697 0.500000 0.329428
O O15 0.532698 0.689390 0.500529
O O16 0.882257 0.720591 0.196430
O O17 0.274312 0.500000 0.729876
O O18 0.093457 0.500000 0.052655
O O19 0.127298 0.728806 0.078222
O O20 0.661203 0.000000 0.103737
#
# Coordination Sequence:
#
# PCOD8054152 Si02
#       8
#     4   4   4   4   4   4   4   4
#     4   9  17  29  45  65  89 116 144 175 213 256
#     4   9  16  26  42  64  88 113 143 180 218 254
#     4   9  16  26  42  64  88 113 143 180 218 254
#     4   9  17  29  45  65  89 116 144 175 213 256
#     4   9  17  29  45  65  89 116 144 175 213 256
#     4   9  17  29  45  65  89 116 144 175 213 256
#     4   9  16  26  42  64  88 113 143 180 218 254
#     4   9  16  26  42  64  88 113 143 180 218 254
#
# _framework density 17.680311
#
# number of rings (size 3 to 8) (size 9 to 14) (size 15 to 20)
#    0.000    3.000    0.000    1.500    0.000    7.000 
#    0.000    0.000    0.000    1.500    0.000    0.000 
#    0.000    0.000    0.000    0.000    0.000    0.000 
#
# Total GULP energy -198401.285042 kJ/mol
# GULP energy per Si atom -12400.080315 kJ/mol
# Density = 1.764007 g / cm^3
# Si number density = 17.680311 Si / 1000 Ang^3
#
#
#
# Elastic Constant Matrix: (Units=GPa)
#
#
# Indices 1 2 3 4 5 6 
#
# 1 196.0972 37.2606 99.0621 -0.0295 -9.5175 0.0000
# 2 37.2606 23.7474 27.7245 -0.0745 -6.5043 0.0026
# 3 99.0621 27.7245 151.6242 0.1712 -20.5951 0.0468
# 4 -0.0295 -0.0745 0.1712 14.2746 -0.0227 -6.0442
# 5 -9.5175 -6.5043 -20.5951 -0.0227 33.8749 0.0004
# 6 0.0000 0.0026 0.0468 -6.0442 0.0004 23.0216
#
#
#
# Elastic Compliance Matrix: (Units=1/GPa)
#
#
# Indices 1 2 3 4 5 6 
#
# 1 0.009069 -0.009589 -0.004443 0.000026 -0.001994 0.000017
# 2 -0.009589 0.064382 -0.004572 0.000431 0.006888 0.000115
# 3 -0.004443 -0.004572 0.010950 -0.000187 0.004531 -0.000071
# 4 0.000026 0.000431 -0.000187 0.078821 0.000029 0.020694
# 5 -0.001994 0.006888 0.004531 0.000029 0.033037 -0.000003
# 6 0.000017 0.000115 -0.000071 0.020694 -0.000003 0.048871
#
#
# Mechanical properties :
#
#
# Convention : Reuss Voigt Hill
#
# Bulk Modulus (GPa) = 21.18991 77.72924 49.45957
# Shear Modulus (GPa) = 16.77468 28.06233 22.41850
#
# Velocity S-wave (km/s) = 3.08356 3.98830 3.56475
# Velocity P-wave (km/s) = 4.96879 8.07885 6.70659
#
# Compressibility (1/GPa) = 0.04719227
#
# Stress axis : x y z
#
# Youngs Moduli (GPa) = 110.26445 15.53240 91.32811
#
# Poissons Ratio (x) = 0.14894 0.40575
# Poissons Ratio (y) = 1.05734 0.41756
# Poissons Ratio (z) = 0.48988 0.07102
#
# Static dielectric constant tensor:
#      x y z
#    x 3.461930 -0.000010 -0.027750 
#    y -0.000010 2.734100 0.000040 
#    z -0.027750 0.000040 3.420920 
# 
# 
# High freq. dielectric constant tensor:
#      x y z
#    x 1.697860 0.000000 -0.003780 
#    y 0.000000 1.618130 0.000010 
#    z -0.003780 0.000010 1.692290 
# 
# From -- ./inp_files/16112.got.cif
#   From: 2010.03.12/outbox.cif.g09.slc.cpg/sg8_9_cif.got.tgz:16112.got - 2010.03.31 10:45:26.
