data_PCOD8054666
_publ_section_title
;
Structure prediction by ZEFSAII (Michael W. Deem and Ramdas Pophale) SiO2 
 PCOD8054666
Probable space group: C C
;
_chemical_formula_sum "Si O2"
_cell_formula_units_Z 32
_cell_length_a 16.505167
_cell_length_b 8.165786
_cell_length_c 27.029294
_cell_angle_alpha 90.000000
_cell_angle_beta 23.136734
_cell_angle_gamma 90.000000
_cell_volume 1431.410593
_symmetry_space_group_name_H-M "C C"
_symmetry_group_IT_number 9
_symmetry_cell_setting 'monoclinic'
loop_
_space_group_symop_operation_xyz
x,y,z
x,-y,1/2+z
1/2+x,1/2+y,z
1/2+x,1/2-y,1/2+z
loop_
_atom_site_type_symbol
_atom_site_label
_atom_site_fract_x
_atom_site_fract_y
_atom_site_fract_z
Si Si1 0.145210 0.151319 0.453760
Si Si2 0.005641 0.659515 0.317049
Si Si3 0.925886 0.898444 0.241979
Si Si4 0.253231 0.084914 0.630629
Si Si5 0.706701 0.114310 0.038506
Si Si6 0.550372 0.509970 0.908595
Si Si7 0.867446 0.388805 0.662335
Si Si8 0.140873 0.377852 0.844644
O O1 0.331690 0.066597 0.381169
O O2 0.232410 0.310678 0.376515
O O3 0.055092 0.023505 0.464661
O O4 0.958311 0.212164 0.594135
O O5 0.895947 0.823772 0.399144
O O6 0.194619 0.725268 0.176925
O O7 0.089549 0.558869 0.317363
O O8 0.062646 0.992484 0.206650
O O9 0.078245 0.767878 0.131442
O O10 0.847669 0.032158 0.246419
O O11 0.455837 0.076574 0.484438
O O12 0.288496 0.987675 0.660498
O O13 0.549369 0.015214 0.091144
O O14 0.811020 0.009399 0.024305
O O15 0.676550 0.367791 0.808029
O O16 0.666934 0.681300 0.831429
#
# Coordination Sequence:
#
# PCOD8054666 Si02
#       8
#     4   4   4   4   4   4   4   4
#     4  10  22  39  68  94 128 176 223 270 335 395
#     4   9  20  39  62  93 125 175 210 268 336 386
#     4  11  21  39  66  90 133 172 219 272 333 388
#     4  11  20  39  64  91 129 178 218 257 338 396
#     4  10  20  40  67  87 129 179 210 269 338 388
#     4  11  22  44  68  97 134 177 223 272 336 394
#     4  11  21  40  67  96 128 177 222 264 336 400
#     4  11  22  40  66  96 130 176 221 272 328 401
#
# _framework density 22.35557
#
# number of rings (size 3 to 8) (size 9 to 14) (size 15 to 20)
#    0.000    1.500    7.500    0.000    0.000    0.000 
#    6.750    1.250    2.750    0.000    0.000    0.000 
#    0.000    0.000    0.000    0.000    0.000    0.000 
#
# Total GULP energy -198223.760714 kJ/mol
# GULP energy per Si atom -12388.985045 kJ/mol
# Density = 2.230469 g / cm^3
# Si number density = 22.355570 Si / 1000 Ang^3
#
#
#
# Elastic Constant Matrix: (Units=GPa)
#
#
# Indices 1 2 3 4 5 6 
#
# 1 238.7674 43.1577 50.5947 -0.0411 -37.4733 0.0300
# 2 43.1577 34.0847 25.1804 -0.0318 -11.7813 0.0316
# 3 50.5947 25.1804 78.7644 -0.1403 -15.0631 -0.0492
# 4 -0.0411 -0.0318 -0.1403 27.2109 -0.0369 -4.1134
# 5 -37.4733 -11.7813 -15.0631 -0.0369 40.8614 -0.0239
# 6 0.0300 0.0316 -0.0492 -4.1134 -0.0239 42.3874
#
#
#
# Elastic Compliance Matrix: (Units=1/GPa)
#
#
# Indices 1 2 3 4 5 6 
#
# 1 0.006003 -0.005307 -0.001506 0.000000 0.003420 0.000000
# 2 -0.005307 0.045083 -0.010166 -0.000008 0.004384 -0.000040
# 3 -0.001506 -0.010166 0.017309 0.000084 0.002069 0.000038
# 4 0.000000 -0.000008 0.000084 0.037298 0.000064 0.003620
# 5 0.003420 0.004384 0.002069 0.000064 0.029637 0.000020
# 6 0.000000 -0.000040 0.000038 0.003620 0.000020 0.023943
#
#
# Mechanical properties :
#
#
# Convention : Reuss Voigt Hill
#
# Bulk Modulus (GPa) = 29.03617 65.49802 47.26710
# Shear Modulus (GPa) = 24.42494 37.60420 31.01457
#
# Velocity S-wave (km/s) = 3.30898 4.10578 3.72873
# Velocity P-wave (km/s) = 5.25507 7.19990 6.30295
#
# Compressibility (1/GPa) = 0.03443980
#
# Stress axis : x y z
#
# Youngs Moduli (GPa) = 166.57757 22.18113 57.77361
#
# Poissons Ratio (x) = 0.11771 0.08698
# Poissons Ratio (y) = 0.88398 0.58730
# Poissons Ratio (z) = 0.25079 0.22548
#
# Static dielectric constant tensor:
#      x y z
#    x 4.938220 0.000000 -0.147580 
#    y 0.000000 3.399740 0.000070 
#    z -0.147580 0.000070 4.168100 
# 
# 
# High freq. dielectric constant tensor:
#      x y z
#    x 1.924050 0.000000 0.000510 
#    y 0.000000 1.799380 0.000010 
#    z 0.000510 0.000010 1.887140 
# 
# From -- ./inp_files/26693.got.cif
#   From: 2010.06.25/outbox.cif.g09.slc.cpg/sg9_14_cif.got.tgz:26693.got - 2010.06.27 21:40:51.
