data_PCOD8054584
_publ_section_title
;
Structure prediction by ZEFSAII (Michael W. Deem and Ramdas Pophale) SiO2 
 PCOD8054584
Probable space group: C C
;
_chemical_formula_sum "Si O2"
_cell_formula_units_Z 28
_cell_length_a 7.513466
_cell_length_b 21.374147
_cell_length_c 13.608580
_cell_angle_alpha 90.000000
_cell_angle_beta 142.756002
_cell_angle_gamma 90.000000
_cell_volume 1322.660713
_symmetry_space_group_name_H-M "C C"
_symmetry_group_IT_number 9
_symmetry_cell_setting 'monoclinic'
loop_
_space_group_symop_operation_xyz
x,y,z
x,-y,1/2+z
1/2+x,1/2+y,z
1/2+x,1/2-y,1/2+z
loop_
_atom_site_type_symbol
_atom_site_label
_atom_site_fract_x
_atom_site_fract_y
_atom_site_fract_z
Si Si1 0.577000 0.179418 0.266710
Si Si2 0.610385 0.691126 0.226977
Si Si3 0.789633 0.052583 0.404651
Si Si4 0.090199 0.686651 0.852546
Si Si5 0.552242 0.893694 0.996711
Si Si6 0.490345 0.068099 0.687006
Si Si7 0.458664 0.708476 0.599725
O O1 0.340864 0.202007 0.241870
O O2 0.614189 0.105532 0.263499
O O3 0.489571 0.216640 0.130783
O O4 0.886630 0.200896 0.452228
O O5 0.615937 0.747973 0.306215
O O6 0.711400 0.626951 0.327098
O O7 0.298436 0.682153 0.038425
O O8 0.688584 0.060906 0.473508
O O9 0.142562 0.059030 0.552889
O O10 0.680386 0.987126 0.317016
O O11 0.134705 0.630172 0.796019
O O12 0.770251 0.677279 0.758367
O O13 0.563894 0.929898 0.103875
O O14 0.730758 0.827421 0.071474
#
# Coordination Sequence:
#
# PCOD8054584 Si02
#       7
#     4   4   4   4   4   4   4
#     4  10  20  41  59  92 134 165 214 269 330 391
#     4  10  22  36  67 102 132 173 215 278 337 394
#     4  10  26  46  66  97 130 177 229 283 316 412
#     4  12  21  38  66 103 133 173 221 275 335 398
#     4  10  24  48  67  98 137 173 228 278 336 405
#     4  12  25  47  70  91 137 180 230 273 341 394
#     4  10  20  38  63  93 135 163 207 280 325 392
#
# _framework density 21.169450000000001
#
# number of rings (size 3 to 8) (size 9 to 14) (size 15 to 20)
#    0.000    1.714    2.857    4.286    6.000    1.143 
#    0.000    0.000    0.000    0.000    0.000    0.000 
#    0.000    0.000    0.000    0.000    0.000    0.000 
#
# Total GULP energy -173455.852002 kJ/mol
# GULP energy per Si atom -12389.703714 kJ/mol
# Density = 2.112127 g / cm^3
# Si number density = 21.169450 Si / 1000 Ang^3
#
#
#
# Elastic Constant Matrix: (Units=GPa)
#
#
# Indices 1 2 3 4 5 6 
#
# 1 49.8039 28.2773 13.6531 0.0000 -4.0157 -0.0001
# 2 28.2773 81.0724 20.7858 0.0000 -15.6659 0.0000
# 3 13.6531 20.7858 86.3718 0.0002 8.4934 -0.0002
# 4 0.0000 0.0000 0.0002 44.9721 0.0002 -9.5874
# 5 -4.0157 -15.6659 8.4934 0.0002 31.8105 -0.0002
# 6 -0.0001 0.0000 -0.0002 -9.5874 -0.0002 28.8186
#
#
#
# Elastic Compliance Matrix: (Units=1/GPa)
#
#
# Indices 1 2 3 4 5 6 
#
# 1 0.025363 -0.008434 -0.001937 0.000000 -0.000434 0.000000
# 2 -0.008434 0.017969 -0.003858 0.000000 0.008815 0.000000
# 3 -0.001937 -0.003858 0.013374 0.000000 -0.005715 0.000000
# 4 0.000000 0.000000 0.000000 0.023933 0.000000 0.007962
# 5 -0.000434 0.008815 -0.005715 0.000000 0.037248 0.000000
# 6 0.000000 0.000000 0.000000 0.007962 0.000000 0.037349
#
#
# Mechanical properties :
#
#
# Convention : Reuss Voigt Hill
#
# Bulk Modulus (GPa) = 35.39925 38.07561 36.73743
# Shear Modulus (GPa) = 25.89194 31.42235 28.65715
#
# Velocity S-wave (km/s) = 3.50105 3.85687 3.68326
# Velocity P-wave (km/s) = 5.75337 6.15298 5.95653
#
# Compressibility (1/GPa) = 0.02824919
#
# Stress axis : x y z
#
# Youngs Moduli (GPa) = 39.42721 55.65247 74.76933
#
# Poissons Ratio (x) = 0.46936 0.14482
# Poissons Ratio (y) = 0.33252 0.28845
# Poissons Ratio (z) = 0.07637 0.21470
#
# Static dielectric constant tensor:
#      x y z
#    x 3.820340 0.000000 0.019000 
#    y 0.000000 3.894500 -0.000010 
#    z 0.019000 -0.000010 4.506980 
# 
# 
# High freq. dielectric constant tensor:
#      x y z
#    x 1.826870 0.000000 0.011080 
#    y 0.000000 1.819320 0.000000 
#    z 0.011080 0.000000 1.837940 
# 
# From -- ./inp_files/23778.got.cif
#   From: 2010.06.25/outbox.cif.g09.slc.cpg/sg9_12_cif.got.tgz:23778.got - 2010.06.27 21:40:51.
