data_PCOD8054746
_publ_section_title
;
Structure prediction by ZEFSAII (Michael W. Deem and Ramdas Pophale) SiO2 
 PCOD8054746
Probable space group: C C
;
_chemical_formula_sum "Si O2"
_cell_formula_units_Z 28
_cell_length_a 10.895825
_cell_length_b 9.581700
_cell_length_c 14.478912
_cell_angle_alpha 90.000000
_cell_angle_beta 118.847718
_cell_angle_gamma 90.000000
_cell_volume 1324.023517
_symmetry_space_group_name_H-M "C C"
_symmetry_group_IT_number 9
_symmetry_cell_setting 'monoclinic'
loop_
_space_group_symop_operation_xyz
x,y,z
x,-y,1/2+z
1/2+x,1/2+y,z
1/2+x,1/2-y,1/2+z
loop_
_atom_site_type_symbol
_atom_site_label
_atom_site_fract_x
_atom_site_fract_y
_atom_site_fract_z
Si Si1 0.304000 0.331927 0.261840
Si Si2 0.256899 0.367355 0.675817
Si Si3 0.535565 0.293087 0.490845
Si Si4 0.328492 0.110258 0.121104
Si Si5 0.996572 0.535193 0.002246
Si Si6 0.264036 0.912330 0.266446
Si Si7 0.053405 0.863074 0.699650
O O1 0.246653 0.483498 0.219404
O O2 0.425070 0.349504 0.379221
O O3 0.365472 0.248367 0.195382
O O4 0.171357 0.254036 0.258736
O O5 0.215536 0.246133 0.732294
O O6 0.415922 0.332651 0.707483
O O7 0.142810 0.376045 0.550358
O O8 0.687681 0.348070 0.513981
O O9 0.503492 0.367594 0.575970
O O10 0.530013 0.126879 0.500218
O O11 0.440843 0.065457 0.085875
O O12 0.309739 0.982410 0.185855
O O13 0.891322 0.585691 0.885296
O O14 0.126620 0.991197 0.256166
#
# Coordination Sequence:
#
# PCOD8054746 Si02
#       7
#     4   4   4   4   4   4   4
#     4  10  22  43  67  95 131 175 225 268 334 389
#     4  12  26  41  66 104 131 171 232 267 325 412
#     4  10  20  43  71  95 125 186 220 263 341 389
#     4  10  23  42  70  96 133 173 218 276 323 394
#     4  12  23  43  69  99 134 178 221 271 339 392
#     4  10  25  45  66 100 137 171 220 280 335 379
#     4  10  23  45  65  95 137 170 220 281 315 397
#
# _framework density 21.147662
#
# number of rings (size 3 to 8) (size 9 to 14) (size 15 to 20)
#    0.000    1.714    5.714    0.857    4.000    3.429 
#    0.000    0.000    0.000    0.000    0.000    0.000 
#    0.000    0.000    0.000    0.000    0.000    0.000 
#
# Total GULP energy -173508.638702 kJ/mol
# GULP energy per Si atom -12393.474193 kJ/mol
# Density = 2.109953 g / cm^3
# Si number density = 21.147662 Si / 1000 Ang^3
#
#
#
# Elastic Constant Matrix: (Units=GPa)
#
#
# Indices 1 2 3 4 5 6 
#
# 1 47.1239 -10.5422 7.2508 0.0000 11.3684 0.0000
# 2 -10.5422 108.1435 20.0042 0.0000 1.3933 0.0000
# 3 7.2508 20.0042 135.3228 0.0000 41.3714 0.0000
# 4 0.0000 0.0000 0.0000 25.8353 0.0000 8.2781
# 5 11.3684 1.3933 41.3714 0.0000 27.6532 0.0000
# 6 0.0000 0.0000 0.0000 8.2781 0.0000 15.5823
#
#
#
# Elastic Compliance Matrix: (Units=1/GPa)
#
#
# Indices 1 2 3 4 5 6 
#
# 1 0.024741 0.002084 0.002779 0.000000 -0.014434 0.000000
# 2 0.002084 0.009819 -0.002119 0.000000 0.001819 0.000000
# 3 0.002779 -0.002119 0.014505 0.000000 -0.022737 0.000000
# 4 0.000000 0.000000 0.000000 0.046647 0.000000 -0.024781
# 5 -0.014434 0.001819 -0.022737 0.000000 0.076020 0.000000
# 6 0.000000 0.000000 0.000000 -0.024781 0.000000 0.077340
#
#
# Mechanical properties :
#
#
# Convention : Reuss Voigt Hill
#
# Bulk Modulus (GPa) = 18.33096 36.00176 27.16636
# Shear Modulus (GPa) = 19.10072 32.07265 25.58668
#
# Velocity S-wave (km/s) = 3.00860 3.89859 3.48214
# Velocity P-wave (km/s) = 4.55585 6.10952 5.38897
#
# Compressibility (1/GPa) = 0.05455253
#
# Stress axis : x y z
#
# Youngs Moduli (GPa) = 40.41812 101.84658 68.94048
#
# Poissons Ratio (x) = -0.21222 -0.19160
# Poissons Ratio (y) = -0.08422 0.14611
# Poissons Ratio (z) = -0.11233 0.21584
#
# Static dielectric constant tensor:
#      x y z
#    x 3.788730 0.000000 0.430900 
#    y 0.000000 3.913330 0.000000 
#    z 0.430900 0.000000 4.227000 
# 
# 
# High freq. dielectric constant tensor:
#      x y z
#    x 1.818060 0.000000 0.027230 
#    y 0.000000 1.835660 0.000000 
#    z 0.027230 0.000000 1.833350 
# 
# From -- ./inp_files/24026.got.cif
#   From: 2010.06.25/outbox.cif.g09.slc.cpg/sg9_13_cif.got.tgz:24026.got - 2010.06.27 21:40:51.
