data_PCOD8054792
_publ_section_title
;
Structure prediction by ZEFSAII (Michael W. Deem and Ramdas Pophale) SiO2 
 PCOD8054792
Probable space group: C C
;
_chemical_formula_sum "Si O2"
_cell_formula_units_Z 32
_cell_length_a 20.335323
_cell_length_b 7.848498
_cell_length_c 13.272747
_cell_angle_alpha 90.000000
_cell_angle_beta 130.745174
_cell_angle_gamma 90.000000
_cell_volume 1604.906932
_symmetry_space_group_name_H-M "C C"
_symmetry_group_IT_number 9
_symmetry_cell_setting 'monoclinic'
loop_
_space_group_symop_operation_xyz
x,y,z
x,-y,1/2+z
1/2+x,1/2+y,z
1/2+x,1/2-y,1/2+z
loop_
_atom_site_type_symbol
_atom_site_label
_atom_site_fract_x
_atom_site_fract_y
_atom_site_fract_z
Si Si1 0.260210 1.000000 0.626320
Si Si2 0.114407 0.769115 0.035167
Si Si3 0.579197 0.082528 0.805220
Si Si4 0.390878 0.788052 0.123951
Si Si5 0.390878 0.211948 0.390025
Si Si6 0.114406 0.230884 0.925866
Si Si7 0.464497 0.500000 0.330607
Si Si8 0.579197 0.082528 0.585395
O O1 0.199614 0.116836 0.638307
O O2 0.315536 0.112301 0.605289
O O3 0.315536 0.887697 0.758002
O O4 0.199612 0.883166 0.493139
O O5 0.125986 0.700870 0.932576
O O6 0.109086 0.613258 0.106910
O O7 0.026328 0.877906 0.959251
O O8 0.475841 0.093652 0.717640
O O9 0.609086 0.886741 0.843482
O O10 0.606145 0.150101 0.722255
O O11 0.405064 0.606681 0.193859
O O12 0.366396 0.754297 0.982506
O O13 0.405064 0.393321 0.348491
O O14 0.475841 0.093652 0.466263
O O15 0.026327 0.122094 0.825624
O O16 0.125986 0.299128 0.051616
#
# Coordination Sequence:
#
# PCOD8054792 Si02
#       8
#     4   4   4   4   4   4   4   4
#     4  11  22  36  52  79 118 144 174 225 276 322
#     4   9  19  34  55  80 107 142 177 221 271 316
#     4   9  18  36  59  79 102 138 184 223 262 321
#     4  10  21  37  58  82 110 144 180 224 274 321
#     4  10  21  37  58  82 110 144 180 224 274 321
#     4   9  19  34  55  80 107 142 177 221 271 316
#     4   9  18  36  56  77 108 144 188 223 258 322
#     4   9  18  36  59  79 102 138 184 223 262 321
#
# _framework density 19.938849000000001
#
# number of rings (size 3 to 8) (size 9 to 14) (size 15 to 20)
#    0.000    2.500    0.000    3.000    0.000    5.000 
#    0.000    6.250    0.000    0.000    0.000    0.000 
#    0.000    0.000    0.000    0.000    0.000    0.000 
#
# Total GULP energy -198356.355324 kJ/mol
# GULP energy per Si atom -12397.272208 kJ/mol
# Density = 1.989347 g / cm^3
# Si number density = 19.938849 Si / 1000 Ang^3
#
#
#
# Elastic Constant Matrix: (Units=GPa)
#
#
# Indices 1 2 3 4 5 6 
#
# 1 87.7957 47.1570 52.5033 0.0000 -8.4025 0.0000
# 2 47.1570 124.7138 47.5744 0.0000 4.7035 0.0000
# 3 52.5033 47.5744 86.3770 0.0000 -7.5275 0.0000
# 4 0.0000 0.0000 0.0000 31.5816 0.0000 7.3195
# 5 -8.4025 4.7035 -7.5275 0.0000 27.1091 0.0000
# 6 0.0000 0.0000 0.0000 7.3195 0.0000 30.9306
#
#
#
# Elastic Compliance Matrix: (Units=1/GPa)
#
#
# Indices 1 2 3 4 5 6 
#
# 1 0.019478 -0.003979 -0.009286 0.000000 0.004149 0.000000
# 2 -0.003979 0.011279 -0.004172 0.000000 -0.004349 0.000000
# 3 -0.009286 -0.004172 0.019811 0.000000 0.003347 0.000000
# 4 0.000000 0.000000 0.000000 0.033501 0.000000 -0.007928
# 5 0.004149 -0.004349 0.003347 0.000000 0.039858 0.000000
# 6 0.000000 0.000000 0.000000 -0.007928 0.000000 0.034207
#
#
# Mechanical properties :
#
#
# Convention : Reuss Voigt Hill
#
# Bulk Modulus (GPa) = 63.72467 65.92844 64.82655
# Shear Modulus (GPa) = 25.22207 28.03438 26.62822
#
# Velocity S-wave (km/s) = 3.56050 3.75376 3.65841
# Velocity P-wave (km/s) = 6.99517 7.20588 7.10130
#
# Compressibility (1/GPa) = 0.01569251
#
# Stress axis : x y z
#
# Youngs Moduli (GPa) = 51.34089 88.66403 50.47621
#
# Poissons Ratio (x) = 0.35280 0.46873
# Poissons Ratio (y) = 0.20429 0.21060
# Poissons Ratio (z) = 0.47676 0.36993
#
# Static dielectric constant tensor:
#      x y z
#    x 3.506860 0.000000 -0.015110 
#    y 0.000000 3.841270 0.000000 
#    z -0.015110 0.000000 3.505510 
# 
# 
# High freq. dielectric constant tensor:
#      x y z
#    x 1.764860 0.000000 0.002640 
#    y 0.000000 1.787440 0.000000 
#    z 0.002640 0.000000 1.765090 
# 
# From -- ./inp_files/26696.got.cif
#   From: 2010.06.25/outbox.cif.g09.slc.cpg/sg9_14_cif.got.tgz:26696.got - 2010.06.27 21:40:51.
