data_PCOD8054220
_publ_section_title
;
Structure prediction by ZEFSAII (Michael W. Deem and Ramdas Pophale) SiO2 
 PCOD8054220
Probable space group: C C
;
_chemical_formula_sum "Si O2"
_cell_formula_units_Z 24
_cell_length_a 14.643453
_cell_length_b 18.606743
_cell_length_c 5.128985
_cell_angle_alpha 90.000000
_cell_angle_beta 62.173250
_cell_angle_gamma 90.000000
_cell_volume 1235.878895
_symmetry_space_group_name_H-M "C C"
_symmetry_group_IT_number 9
_symmetry_cell_setting 'monoclinic'
loop_
_space_group_symop_operation_xyz
x,y,z
x,-y,1/2+z
1/2+x,1/2+y,z
1/2+x,1/2-y,1/2+z
loop_
_atom_site_type_symbol
_atom_site_label
_atom_site_fract_x
_atom_site_fract_y
_atom_site_fract_z
Si Si1 0.817480 0.801425 0.861690
Si Si2 0.022707 0.741313 0.425322
Si Si3 0.021115 0.406094 0.150890
Si Si4 0.744342 0.041472 0.406308
Si Si5 0.238415 0.777725 0.975750
Si Si6 0.912604 0.623681 0.300885
O O1 0.794458 0.884815 0.935804
O O2 0.773923 0.780313 0.639181
O O3 0.941642 0.790571 0.692617
O O4 0.764455 0.752426 0.154084
O O5 0.061245 0.676667 0.566434
O O6 0.966453 0.702440 0.254998
O O7 0.115789 0.788456 0.183108
O O8 0.947604 0.416599 0.496149
O O9 0.948307 0.426080 0.997982
O O10 0.119814 0.456018 0.059896
O O11 0.780679 0.982634 0.571041
O O12 0.290580 0.856526 0.950845
#
# Coordination Sequence:
#
# PCOD8054220 Si02
#       6
#     4   4   4   4   4   4
#     4  11  21  35  51  80 114 138 184 225 266 337
#     4   9  20  29  55  76 108 141 168 225 286 315
#     4  10  18  34  50  74 105 138 181 217 266 324
#     4  12  24  37  54  78 111 157 183 217 266 325
#     4  11  18  31  53  81 110 137 167 224 289 332
#     4   9  17  30  47  77 104 137 165 222 279 317
#
# _framework density 19.419378999999999
#
# number of rings (size 3 to 8) (size 9 to 14) (size 15 to 20)
#    1.000    0.667    3.333    3.000    0.000    0.000 
#    0.000    0.000    0.000    0.000    0.000    7.000 
#    0.000    0.000    0.000    0.000    0.000    0.000 
#
# Total GULP energy -148685.846830 kJ/mol
# GULP energy per Si atom -12390.487236 kJ/mol
# Density = 1.937518 g / cm^3
# Si number density = 19.419379 Si / 1000 Ang^3
#
#
#
# Elastic Constant Matrix: (Units=GPa)
#
#
# Indices 1 2 3 4 5 6 
#
# 1 51.3336 5.4876 36.0706 0.0000 2.6975 0.0000
# 2 5.4876 30.2550 4.1325 0.0000 2.4130 0.0000
# 3 36.0706 4.1325 118.2665 0.0000 3.7540 0.0000
# 4 0.0000 0.0000 0.0000 19.2744 0.0000 -4.7105
# 5 2.6975 2.4130 3.7540 0.0000 42.4381 0.0000
# 6 0.0000 0.0000 0.0000 -4.7105 0.0000 29.7005
#
#
#
# Elastic Compliance Matrix: (Units=1/GPa)
#
#
# Indices 1 2 3 4 5 6 
#
# 1 0.025187 -0.003480 -0.007537 0.000000 -0.000736 0.000000
# 2 -0.003480 0.033828 -0.000067 0.000000 -0.001696 0.000000
# 3 -0.007537 -0.000067 0.010771 0.000000 -0.000470 0.000000
# 4 0.000000 0.000000 0.000000 0.053974 0.000000 0.008560
# 5 -0.000736 -0.001696 -0.000470 0.000000 0.023749 0.000000
# 6 0.000000 0.000000 0.000000 0.008560 0.000000 0.035027
#
#
# Mechanical properties :
#
#
# Convention : Reuss Voigt Hill
#
# Bulk Modulus (GPa) = 21.00008 32.35959 26.67983
# Shear Modulus (GPa) = 22.66778 28.56022 25.61400
#
# Velocity S-wave (km/s) = 3.42025 3.83914 3.63573
# Velocity P-wave (km/s) = 5.14149 6.02924 5.60298
#
# Compressibility (1/GPa) = 0.04761887
#
# Stress axis : x y z
#
# Youngs Moduli (GPa) = 39.70286 29.56127 92.83799
#
# Poissons Ratio (x) = 0.10288 0.69971
# Poissons Ratio (y) = 0.13817 0.00620
# Poissons Ratio (z) = 0.29924 0.00197
#
# Static dielectric constant tensor:
#      x y z
#    x 3.537310 0.000000 -0.012190 
#    y 0.000000 3.188960 0.000000 
#    z -0.012190 0.000000 3.553720 
# 
# 
# High freq. dielectric constant tensor:
#      x y z
#    x 1.744950 0.000000 0.015380 
#    y 0.000000 1.714320 0.000000 
#    z 0.015380 0.000000 1.761390 
# 
# From -- ./inp_files/2449.got.cif
#   From: 2010.06.25/outbox.cif.g09.slc.cpg/sg9_2_cif.got.tgz:2449.got - 2010.06.27 21:40:51.
