data_PCOD8054026
_publ_section_title
;
Structure prediction by ZEFSAII (Michael W. Deem and Ramdas Pophale) SiO2 
 PCOD8054026
Probable space group: C M
;
_chemical_formula_sum "Si O2"
_cell_formula_units_Z 28
_cell_length_a 15.467408
_cell_length_b 17.062586
_cell_length_c 4.979896
_cell_angle_alpha 90.000000
_cell_angle_beta 117.227480
_cell_angle_gamma 90.000000
_cell_volume 1168.639808
_symmetry_space_group_name_H-M "C M"
_symmetry_group_IT_number 8
_symmetry_cell_setting 'monoclinic'
loop_
_space_group_symop_operation_xyz
x,y,z
x,-y,z
1/2+x,1/2+y,z
1/2+x,1/2-y,z
loop_
_atom_site_type_symbol
_atom_site_label
_atom_site_fract_x
_atom_site_fract_y
_atom_site_fract_z
Si Si1 0.306230 0.586757 0.269030
Si Si2 0.205084 0.732920 0.321732
Si Si3 0.016647 0.729909 0.363376
Si Si4 0.902878 0.671090 0.690493
Si Si5 0.825669 0.500000 0.573904
Si Si6 0.431398 0.586395 0.967062
Si Si7 0.079071 0.153864 0.836525
Si Si8 0.695122 0.500000 0.880221
O O1 0.260934 0.500000 0.150715
O O2 0.223130 0.645706 0.240698
O O3 0.388418 0.579355 0.608882
O O4 0.353015 0.621724 0.061049
O O5 0.132306 0.720098 0.470192
O O6 0.302210 0.781112 0.530714
O O7 0.157421 0.779382 0.007021
O O8 0.007319 0.816363 0.494005
O O9 0.969531 0.671812 0.517780
O O10 0.959110 0.716340 0.006267
O O11 0.886692 0.578788 0.724153
O O12 0.732207 0.500000 0.630440
O O13 0.786379 0.500000 0.213347
O O14 0.463178 0.500000 0.116752
O O15 0.524721 0.641898 0.048625
O O16 0.127939 0.074594 0.815946
#
# Coordination Sequence:
#
# PCOD8054026 Si02
#       8
#     4   4   4   4   2   4   4   2
#     4  10  25  46  71 100 143 198 249 305 373 442
#     4  12  28  47  79 111 154 202 256 324 384 461
#     4  12  29  49  73 118 149 210 256 311 395 462
#     4  12  28  51  80 110 160 202 259 324 383 472
#     4  12  26  52  76 114 150 211 261 312 398 456
#     4  10  23  44  70 104 142 187 243 312 383 452
#     4  12  26  47  75 117 154 195 256 324 397 465
#     4  12  26  46  80 116 156 197 257 330 402 468
#
# _framework density 23.959479000000002
#
# number of rings (size 3 to 8) (size 9 to 14) (size 15 to 20)
#    0.000    0.571    3.571    2.571    8.000    0.000 
#    2.571    0.000    3.143    0.000    0.000    0.000 
#    0.000    0.000    0.000    0.000    0.000    0.000 
#
# Total GULP energy -173543.470042 kJ/mol
# GULP energy per Si atom -12395.962146 kJ/mol
# Density = 2.390495 g / cm^3
# Si number density = 23.959479 Si / 1000 Ang^3
#
#
#
# Elastic Constant Matrix: (Units=GPa)
#
#
# Indices 1 2 3 4 5 6 
#
# 1 185.9296 73.8462 34.2048 0.0000 -18.7661 0.0000
# 2 73.8462 164.9087 27.0893 0.0000 14.5929 0.0000
# 3 34.2048 27.0893 91.3150 0.0000 -8.5136 0.0000
# 4 0.0000 0.0000 0.0000 -9.4976 0.0000 49.8554
# 5 -18.7661 14.5929 -8.5136 0.0000 38.2148 0.0000
# 6 0.0000 0.0000 0.0000 49.8554 0.0000 -13.3510
#
#
#
# Elastic Compliance Matrix: (Units=1/GPa)
#
#
# Indices 1 2 3 4 5 6 
#
# 1 0.007520 -0.003574 -0.001312 0.000000 0.004765 0.000000
# 2 -0.003574 0.008408 -0.001653 0.000000 -0.005334 0.000000
# 3 -0.001312 -0.001653 0.012185 0.000000 0.002701 0.000000
# 4 0.000000 0.000000 0.000000 0.005660 0.000000 0.021136
# 5 0.004765 -0.005334 0.002701 0.000000 0.031146 0.000000
# 6 0.000000 0.000000 0.000000 0.021136 0.000000 0.004027
#
#
# Mechanical properties :
#
#
# Convention : Reuss Voigt Hill
#
# Bulk Modulus (GPa) = 66.51231 79.15935 72.83583
# Shear Modulus (GPa) = 57.44782 23.54077 40.49429
#
# Velocity S-wave (km/s) = 4.90195 3.13793 4.11556
# Velocity P-wave (km/s) = 7.73689 6.79995 7.28350
#
# Compressibility (1/GPa) = 0.01503481
#
# Stress axis : x y z
#
# Youngs Moduli (GPa) = 132.97668 118.93824 82.06862
#
# Poissons Ratio (x) = 0.42504 0.10771
# Poissons Ratio (y) = 0.47520 0.13565
# Poissons Ratio (z) = 0.17453 0.19659
#
# Static dielectric constant tensor:
#      x y z
#    x 4.515720 0.000000 -0.191520 
#    y 0.000000 4.629160 0.000000 
#    z -0.191520 0.000000 4.296780 
# 
# 
# High freq. dielectric constant tensor:
#      x y z
#    x 1.959660 0.000000 -0.024270 
#    y 0.000000 1.962970 0.000000 
#    z -0.024270 0.000000 1.951810 
# 
# From -- ./inp_files/4160.got.cif
#   From: 2010.03.12/outbox.cif.g09.slc.cpg/sg8_3_cif.got.tgz:4160.got - 2010.03.31 10:45:26.
