data_PCOD8054405
_publ_section_title
;
Structure prediction by ZEFSAII (Michael W. Deem and Ramdas Pophale) SiO2 
 PCOD8054405
Probable space group: C C
;
_chemical_formula_sum "Si O2"
_cell_formula_units_Z 28
_cell_length_a 7.998942
_cell_length_b 21.056929
_cell_length_c 12.046031
_cell_angle_alpha 90.000000
_cell_angle_beta 39.196382
_cell_angle_gamma 90.000000
_cell_volume 1282.257192
_symmetry_space_group_name_H-M "C C"
_symmetry_group_IT_number 9
_symmetry_cell_setting 'monoclinic'
loop_
_space_group_symop_operation_xyz
x,y,z
x,-y,1/2+z
1/2+x,1/2+y,z
1/2+x,1/2-y,1/2+z
loop_
_atom_site_type_symbol
_atom_site_label
_atom_site_fract_x
_atom_site_fract_y
_atom_site_fract_z
Si Si1 0.100850 0.667748 0.684760
Si Si2 0.718891 0.765207 0.904507
Si Si3 0.120541 0.387561 0.841644
Si Si4 0.906619 0.547983 0.672432
Si Si5 0.307144 0.439953 0.529792
Si Si6 0.874678 0.806732 0.404198
Si Si7 0.116875 0.182310 0.544727
O O1 0.070257 0.705857 0.585443
O O2 0.387084 0.652665 0.587307
O O3 0.946864 0.719403 0.839700
O O4 0.960291 0.600430 0.740128
O O5 0.802148 0.828352 0.790973
O O6 0.528982 0.720169 0.930944
O O7 0.296945 0.431409 0.669331
O O8 0.999697 0.429218 0.003476
O O9 0.879855 0.359067 0.891357
O O10 0.072399 0.485746 0.613867
O O11 0.592392 0.533336 0.842025
O O12 0.241906 0.372919 0.505514
O O13 0.653098 0.755045 0.485406
O O14 0.064422 0.819770 0.202991
#
# Coordination Sequence:
#
# PCOD8054405 Si02
#       7
#     4   4   4   4   4   4   4
#     4  11  22  39  64 100 137 166 225 287 343 413
#     4  10  19  38  67  95 129 170 218 274 354 410
#     4  10  23  45  71  96 133 178 228 285 353 416
#     4  11  27  46  68  97 136 184 235 284 341 413
#     4  12  25  45  72  94 133 188 235 280 341 410
#     4  11  20  41  66  97 135 181 220 274 353 414
#     4  11  22  38  68 105 135 171 225 288 349 418
#
# _framework density 21.836493999999998
#
# number of rings (size 3 to 8) (size 9 to 14) (size 15 to 20)
#    0.000    1.143    2.857    5.143    2.000    2.286 
#    2.571    0.000    0.000    0.000    0.000    0.000 
#    0.000    0.000    0.000    0.000    0.000    0.000 
#
# Total GULP energy -173514.970747 kJ/mol
# GULP energy per Si atom -12393.926482 kJ/mol
# Density = 2.178679 g / cm^3
# Si number density = 21.836494 Si / 1000 Ang^3
#
#
#
# Elastic Constant Matrix: (Units=GPa)
#
#
# Indices 1 2 3 4 5 6 
#
# 1 68.3072 22.4279 7.3095 0.0000 -5.8479 0.0000
# 2 22.4279 120.7452 38.9589 0.0000 -2.5178 0.0000
# 3 7.3095 38.9589 89.8051 0.0000 -0.6879 0.0000
# 4 0.0000 0.0000 0.0000 30.3674 0.0000 -7.3926
# 5 -5.8479 -2.5178 -0.6879 0.0000 24.7298 0.0000
# 6 0.0000 0.0000 0.0000 -7.3926 0.0000 31.0027
#
#
#
# Elastic Compliance Matrix: (Units=1/GPa)
#
#
# Indices 1 2 3 4 5 6 
#
# 1 0.015881 -0.002871 -0.000021 0.000000 0.003463 0.000000
# 2 -0.002871 0.010167 -0.004175 0.000000 0.000240 0.000000
# 3 -0.000021 -0.004175 0.012948 0.000000 -0.000070 0.000000
# 4 0.000000 0.000000 0.000000 0.034959 0.000000 0.008336
# 5 0.003463 0.000240 -0.000070 0.000000 0.041278 0.000000
# 6 0.000000 0.000000 0.000000 0.008336 0.000000 0.034243
#
#
# Mechanical properties :
#
#
# Convention : Reuss Voigt Hill
#
# Bulk Modulus (GPa) = 40.22141 46.25001 43.23571
# Shear Modulus (GPa) = 29.08704 31.23072 30.15888
#
# Velocity S-wave (km/s) = 3.65367 3.78591 3.72038
# Velocity P-wave (km/s) = 6.02149 6.35114 6.18851
#
# Compressibility (1/GPa) = 0.02486238
#
# Stress axis : x y z
#
# Youngs Moduli (GPa) = 62.96814 98.35415 77.23411
#
# Poissons Ratio (x) = 0.28237 0.00159
# Poissons Ratio (y) = 0.18078 0.32247
# Poissons Ratio (z) = 0.00130 0.41065
#
# Static dielectric constant tensor:
#      x y z
#    x 3.635120 0.000000 0.002070 
#    y 0.000000 4.142720 0.000000 
#    z 0.002070 0.000000 4.126740 
# 
# 
# High freq. dielectric constant tensor:
#      x y z
#    x 1.839060 0.000000 0.003350 
#    y 0.000000 1.859560 0.000000 
#    z 0.003350 0.000000 1.864040 
# 
# From -- ./inp_files/5593.got.cif
#   From: 2010.06.25/outbox.cif.g09.slc.cpg/sg9_3_cif.got.tgz:5593.got - 2010.06.27 21:40:51.
