data_PCOD8054084
_publ_section_title
;
Structure prediction by ZEFSAII (Michael W. Deem and Ramdas Pophale) SiO2 
 PCOD8054084
Probable space group: C M
;
_chemical_formula_sum "Si O2"
_cell_formula_units_Z 32
_cell_length_a 9.550751
_cell_length_b 21.935635
_cell_length_c 11.108129
_cell_angle_alpha 90.000000
_cell_angle_beta 136.180625
_cell_angle_gamma 90.000000
_cell_volume 1611.304725
_symmetry_space_group_name_H-M "C M"
_symmetry_group_IT_number 8
_symmetry_cell_setting 'monoclinic'
loop_
_space_group_symop_operation_xyz
x,y,z
x,-y,z
1/2+x,1/2+y,z
1/2+x,1/2-y,z
loop_
_atom_site_type_symbol
_atom_site_label
_atom_site_fract_x
_atom_site_fract_y
_atom_site_fract_z
Si Si1 0.959370 0.213517 0.900410
Si Si2 0.911558 0.069821 0.646221
Si Si3 0.531307 0.247079 0.683734
Si Si4 0.952874 0.429375 0.386494
Si Si5 0.554527 0.789015 0.156985
Si Si6 0.729144 0.616704 0.030929
Si Si7 0.457615 0.651068 0.458001
Si Si8 0.694442 0.667521 0.376297
O O1 0.742116 0.212613 0.829436
O O2 0.962319 0.213253 0.756655
O O3 0.073883 0.272755 0.026864
O O4 0.061690 0.150601 0.010183
O O5 0.686257 0.094949 0.546126
O O6 0.984467 0.094429 0.562979
O O7 0.870757 0.000000 0.600373
O O8 0.098269 0.078632 0.853574
O O9 0.556347 0.289641 0.581666
O O10 0.369943 0.194974 0.566158
O O11 0.931213 0.500000 0.415863
O O12 0.880220 0.425727 0.201209
O O13 0.797297 0.384767 0.358643
O O14 0.343147 0.823953 0.045360
O O15 0.720371 0.836980 0.298925
O O16 0.576019 0.723288 0.237843
O O17 0.546581 0.636016 0.381939
#
# Coordination Sequence:
#
# PCOD8054084 Si02
#       8
#     4   4   4   4   4   4   4   4
#     4  12  20  36  57  92 126 164 203 256 325 388
#     4  11  24  43  68  91 120 173 229 267 310 379
#     4  11  23  35  59  91 131 163 206 257 326 390
#     4  11  25  46  68  92 126 174 223 268 313 378
#     4  11  23  35  62  95 133 163 208 263 331 389
#     4  12  22  40  66  96 127 163 216 267 313 381
#     4  11  22  39  58  90 129 167 208 264 322 381
#     4  11  24  38  61  95 128 169 205 266 330 388
#
# _framework density 19.859684000000001
#
# number of rings (size 3 to 8) (size 9 to 14) (size 15 to 20)
#    0.000    0.750    6.250    1.875    1.750    0.500 
#    0.000    0.000    0.000    0.000    0.000    0.000 
#    0.000    0.000    0.000    0.000    0.000    0.000 
#
# Total GULP energy -198213.282833 kJ/mol
# GULP energy per Si atom -12388.330177 kJ/mol
# Density = 1.981448 g / cm^3
# Si number density = 19.859684 Si / 1000 Ang^3
#
#
#
# Elastic Constant Matrix: (Units=GPa)
#
#
# Indices 1 2 3 4 5 6 
#
# 1 92.3549 29.8131 24.3491 0.0000 -1.5864 0.0000
# 2 29.8131 64.4173 17.2270 0.0000 10.6588 0.0000
# 3 24.3491 17.2270 101.8299 0.0000 6.1829 0.0000
# 4 0.0000 0.0000 0.0000 27.8911 0.0000 3.6345
# 5 -1.5864 10.6588 6.1829 0.0000 24.1809 0.0000
# 6 0.0000 0.0000 0.0000 3.6345 0.0000 26.3046
#
#
#
# Elastic Compliance Matrix: (Units=1/GPa)
#
#
# Indices 1 2 3 4 5 6 
#
# 1 0.013596 -0.006355 -0.002438 0.000000 0.004316 0.000000
# 2 -0.006355 0.020325 -0.001371 0.000000 -0.009025 0.000000
# 3 -0.002438 -0.001371 0.010776 0.000000 -0.002311 0.000000
# 4 0.000000 0.000000 0.000000 0.036511 0.000000 -0.005045
# 5 0.004316 -0.009025 -0.002311 0.000000 0.046207 0.000000
# 6 0.000000 0.000000 0.000000 -0.005045 0.000000 0.038713
#
#
# Mechanical properties :
#
#
# Convention : Reuss Voigt Hill
#
# Bulk Modulus (GPa) = 41.03561 44.59784 42.81672
# Shear Modulus (GPa) = 25.69656 28.15616 26.92636
#
# Velocity S-wave (km/s) = 3.60099 3.76939 3.68615
# Velocity P-wave (km/s) = 6.16418 6.43814 6.30265
#
# Compressibility (1/GPa) = 0.02436908
#
# Stress axis : x y z
#
# Youngs Moduli (GPa) = 73.55063 49.20098 92.80291
#
# Poissons Ratio (x) = 0.31265 0.22626
# Poissons Ratio (y) = 0.46739 0.12723
# Poissons Ratio (z) = 0.17932 0.06745
#
# Static dielectric constant tensor:
#      x y z
#    x 3.419910 0.000000 0.112200 
#    y 0.000000 3.397260 0.000000 
#    z 0.112200 0.000000 3.916620 
# 
# 
# High freq. dielectric constant tensor:
#      x y z
#    x 1.762290 0.000000 0.011240 
#    y 0.000000 1.751780 0.000000 
#    z 0.011240 0.000000 1.799200 
# 
# From -- ./inp_files/19285.got.cif
#   From: 2010.03.12/outbox.cif.g09.slc.cpg/sg8_10_cif.got.tgz:19285.got - 2010.03.31 10:45:26.
