data_PCOD8054120
_publ_section_title
;
Structure prediction by ZEFSAII (Michael W. Deem and Ramdas Pophale) SiO2 
 PCOD8054120
Probable space group: C M
;
_chemical_formula_sum "Si O2"
_cell_formula_units_Z 24
_cell_length_a 9.901639
_cell_length_b 18.042334
_cell_length_c 8.390971
_cell_angle_alpha 90.000000
_cell_angle_beta 46.313072
_cell_angle_gamma 90.000000
_cell_volume 1083.989945
_symmetry_space_group_name_H-M "C M"
_symmetry_group_IT_number 8
_symmetry_cell_setting 'monoclinic'
loop_
_space_group_symop_operation_xyz
x,y,z
x,-y,z
1/2+x,1/2+y,z
1/2+x,1/2-y,z
loop_
_atom_site_type_symbol
_atom_site_label
_atom_site_fract_x
_atom_site_fract_y
_atom_site_fract_z
Si Si1 0.878420 0.000000 0.977620
Si Si2 0.785324 0.500000 0.121036
Si Si3 0.024635 0.249601 0.265709
Si Si4 0.901764 0.000000 0.599574
Si Si5 0.296702 0.000000 0.736926
Si Si6 0.226405 0.364453 0.596110
Si Si7 0.884370 0.335226 0.064721
Si Si8 0.600566 0.103453 0.368457
O O1 0.964155 0.000000 0.731280
O O2 0.739852 0.068952 0.123169
O O3 0.071622 0.000000 0.918869
O O4 0.565923 0.500000 0.336086
O O5 0.861968 0.422529 0.136106
O O6 0.842592 0.500000 0.888173
O O7 0.863498 0.204082 0.479698
O O8 0.955668 0.285059 0.154775
O O9 0.202553 0.194888 0.119155
O O10 0.074014 0.312026 0.350954
O O11 0.781644 0.925857 0.679851
O O12 0.394513 0.931390 0.564571
O O13 0.216512 0.405745 0.435797
O O14 0.032507 0.328427 0.804080
#
# Coordination Sequence:
#
# PCOD8054120 Si02
#       8
#     2   2   4   2   2   4   4   4
#     4  11  27  45  75 107 143 185 248 313 360 436
#     4  12  24  47  75 107 144 195 252 301 369 439
#     4  12  28  47  71 111 151 192 243 302 369 448
#     4  12  25  47  74 106 144 192 251 308 367 437
#     4  11  24  45  78 102 137 194 243 302 370 436
#     4  12  25  47  75 102 147 193 243 299 375 433
#     4  12  28  47  77 107 150 197 246 305 370 440
#     4  11  25  48  71 108 142 187 244 303 369 436
#
# _framework density 22.140429000000001
#
# number of rings (size 3 to 8) (size 9 to 14) (size 15 to 20)
#    0.000    0.333    5.000    3.500    4.667    2.000 
#    0.000    0.000    0.000    0.000    0.000    0.000 
#    0.000    0.000    0.000    0.000    0.000    0.000 
#
# Total GULP energy -148711.056998 kJ/mol
# GULP energy per Si atom -12392.588083 kJ/mol
# Density = 2.209004 g / cm^3
# Si number density = 22.140429 Si / 1000 Ang^3
#
#
#
# Elastic Constant Matrix: (Units=GPa)
#
#
# Indices 1 2 3 4 5 6 
#
# 1 84.9030 40.8456 18.7131 0.0000 -10.2357 0.0000
# 2 40.8456 156.0015 44.6318 0.0000 -16.5943 0.0000
# 3 18.7131 44.6318 117.0101 0.0000 -31.9594 0.0000
# 4 0.0000 0.0000 0.0000 53.3100 0.0000 3.0281
# 5 -10.2357 -16.5943 -31.9594 0.0000 44.8462 0.0000
# 6 0.0000 0.0000 0.0000 3.0281 0.0000 39.0884
#
#
#
# Elastic Compliance Matrix: (Units=1/GPa)
#
#
# Indices 1 2 3 4 5 6 
#
# 1 0.013647 -0.003261 -0.000518 0.000000 0.001539 0.000000
# 2 -0.003261 0.008003 -0.002391 0.000000 0.000513 0.000000
# 3 -0.000518 -0.002391 0.011507 0.000000 0.007197 0.000000
# 4 0.000000 0.000000 0.000000 0.018841 0.000000 -0.001460
# 5 0.001539 0.000513 0.007197 0.000000 0.027969 0.000000
# 6 0.000000 0.000000 0.000000 -0.001460 0.000000 0.025696
#
#
# Mechanical properties :
#
#
# Convention : Reuss Voigt Hill
#
# Bulk Modulus (GPa) = 48.04039 62.92174 55.48107
# Shear Modulus (GPa) = 40.01878 44.36387 42.19132
#
# Velocity S-wave (km/s) = 4.25608 4.48118 4.37008
# Velocity P-wave (km/s) = 6.77476 7.43342 7.11172
#
# Compressibility (1/GPa) = 0.02081582
#
# Stress axis : x y z
#
# Youngs Moduli (GPa) = 73.27740 124.95881 86.90401
#
# Poissons Ratio (x) = 0.40751 0.04504
# Poissons Ratio (y) = 0.23897 0.20777
# Poissons Ratio (z) = 0.03798 0.29875
#
# Static dielectric constant tensor:
#      x y z
#    x 3.945620 0.000000 -0.152270 
#    y 0.000000 4.182560 0.000000 
#    z -0.152270 0.000000 3.969450 
# 
# 
# High freq. dielectric constant tensor:
#      x y z
#    x 1.868830 0.000000 -0.010020 
#    y 0.000000 1.883850 0.000000 
#    z -0.010020 0.000000 1.885270 
# 
# From -- ./inp_files/8684.got.cif
#   From: 2010.03.12/outbox.cif.g09.slc.cpg/sg8_5_cif.got.tgz:8684.got - 2010.03.31 10:45:26.
