data_PCOD8054161
_publ_section_title
;
Structure prediction by ZEFSAII (Michael W. Deem and Ramdas Pophale) SiO2 
 PCOD8054161
Probable space group: C M
;
_chemical_formula_sum "Si O2"
_cell_formula_units_Z 12
_cell_length_a 9.000000
_cell_length_b 15.000000
_cell_length_c 18.000000
_cell_angle_alpha 90.000000
_cell_angle_beta 30.000000
_cell_angle_gamma 90.000000
_cell_volume 1215.000000
_symmetry_space_group_name_H-M "C M"
_symmetry_group_IT_number 8
_symmetry_cell_setting 'monoclinic'
loop_
_space_group_symop_operation_xyz
x,y,z
x,-y,z
1/2+x,1/2+y,z
1/2+x,1/2-y,z
loop_
_atom_site_type_symbol
_atom_site_label
_atom_site_fract_x
_atom_site_fract_y
_atom_site_fract_z
Si Si1 0.867320 0.342866 0.516520
Si Si2 0.371169 0.000000 0.050600
Si Si3 0.866494 0.000000 0.064112
Si Si4 0.239818 0.651911 0.508779
Si Si5 0.178461 0.656727 0.826700
Si Si6 0.723940 0.000000 0.292964
Si Si7 0.731226 0.500000 0.272139
Si Si8 0.320042 0.847403 0.826539
O O1 0.878994 0.247276 0.470928
O O2 0.523342 0.373863 0.673105
O O3 0.031974 0.340212 0.525354
O O4 0.028449 0.412450 0.392661
O O5 0.014088 0.000000 0.218423
O O6 0.442802 0.000000 0.106907
O O7 0.496150 0.087791 0.956260
O O8 0.507705 0.000000 0.209490
O O9 0.886839 0.000000 0.143504
O O10 0.042476 0.913744 0.957179
O O11 0.518072 0.586183 0.374742
O O12 0.031856 0.618680 0.667261
O O13 0.172173 0.752947 0.869083
O O14 0.025124 0.660755 0.811673
#
# Coordination Sequence:
#
# PCOD8054161 Si02
#       8
#     4   2   2   4   4   2   2   4
#     4  11  24  43  71  94 128 172 215 266 315 379
#     4  12  25  46  62  96 135 168 212 262 330 382
#     4  12  29  42  66  96 133 172 210 267 324 382
#     4  11  24  45  67  97 128 169 220 264 314 380
#     4  11  24  43  71  94 128 172 215 266 315 379
#     4  12  25  46  62  96 135 168 212 262 330 382
#     4  12  29  42  66  96 133 172 210 267 324 382
#     4  11  24  45  67  97 128 169 220 264 314 380
#
# _framework density 9.8765429999999999
#
# number of rings (size 3 to 8) (size 9 to 14) (size 15 to 20)
#    0.000    0.667    3.333    5.000    9.333    2.667 
#    0.000    0.000    0.000    0.000    0.000    0.000 
#    0.000    0.000    0.000    0.000    0.000    0.000 
#
# Total GULP energy -148740.923150 kJ/mol
# GULP energy per Si atom -12395.076929 kJ/mol
# Density = 0.985406 g / cm^3
# Si number density = 9.876543 Si / 1000 Ang^3
#
#
#
# Elastic Constant Matrix: (Units=GPa)
#
#
# Indices 1 2 3 4 5 6 
#
# 1 134.4212 42.0576 44.1527 0.0544 -6.6655 0.0208
# 2 42.0576 143.0097 87.6848 -0.1108 -1.0074 -0.0260
# 3 44.1527 87.6848 157.5656 0.0327 -3.3061 -0.0848
# 4 0.0544 -0.1108 0.0327 51.9310 -0.1249 -0.9444
# 5 -6.6655 -1.0074 -3.3061 -0.1249 56.4599 0.0150
# 6 0.0208 -0.0260 -0.0848 -0.9444 0.0150 34.7932
#
#
#
# Elastic Compliance Matrix: (Units=1/GPa)
#
#
# Indices 1 2 3 4 5 6 
#
# 1 0.008461 -0.001578 -0.001474 -0.000009 0.000884 -0.000010
# 2 -0.001578 0.010910 -0.005636 0.000028 -0.000322 -0.000004
# 3 -0.001474 -0.005636 0.009902 -0.000016 0.000305 0.000020
# 4 -0.000009 0.000028 -0.000016 0.019266 0.000041 0.000523
# 5 0.000884 -0.000322 0.000305 0.000041 0.017828 -0.000007
# 6 -0.000010 -0.000004 0.000020 0.000523 -0.000007 0.028756
#
#
# Mechanical properties :
#
#
# Convention : Reuss Voigt Hill
#
# Bulk Modulus (GPa) = 84.05450 86.97629 85.51539
# Shear Modulus (GPa) = 42.93110 46.04358 44.48734
#
# Velocity S-wave (km/s) = 4.66702 4.83324 4.75085
# Velocity P-wave (km/s) = 8.46678 8.67607 8.57206
#
# Compressibility (1/GPa) = 0.01189704
#
# Stress axis : x y z
#
# Youngs Moduli (GPa) = 118.18703 91.65880 100.98556
#
# Poissons Ratio (x) = 0.14466 0.14886
# Poissons Ratio (y) = 0.18653 0.56914
# Poissons Ratio (z) = 0.17422 0.51658
#
# Static dielectric constant tensor:
#      x y z
#    x 4.030890 0.000070 -0.035990 
#    y 0.000070 3.816470 0.000180 
#    z -0.035990 0.000180 3.852650 
# 
# 
# High freq. dielectric constant tensor:
#      x y z
#    x 1.807460 0.000000 -0.002720 
#    y 0.000000 1.790870 0.000010 
#    z -0.002720 0.000010 1.799990 
# 
# From -- ./inp_files/28575.got.cif
#   From: 2010.03.12/outbox.ucp.g09.slc.cvg/sg8_15_cif.got.tgz:28575.got - 2010.06.21 13:25:46.
