data_PCOD8054873
_publ_section_title
;
Structure prediction by ZEFSAII (Michael W. Deem and Ramdas Pophale) SiO2 
 PCOD8054873
Probable space group: C C
;
_chemical_formula_sum "Si O2"
_cell_formula_units_Z 32
_cell_length_a 11.290695
_cell_length_b 9.517072
_cell_length_c 14.663677
_cell_angle_alpha 90.000000
_cell_angle_beta 119.591582
_cell_angle_gamma 90.000000
_cell_volume 1370.156614
_symmetry_space_group_name_H-M "C C"
_symmetry_group_IT_number 9
_symmetry_cell_setting 'monoclinic'
loop_
_space_group_symop_operation_xyz
x,y,z
x,-y,1/2+z
1/2+x,1/2+y,z
1/2+x,1/2-y,1/2+z
loop_
_atom_site_type_symbol
_atom_site_label
_atom_site_fract_x
_atom_site_fract_y
_atom_site_fract_z
Si Si1 0.819810 0.619047 0.396110
Si Si2 0.286251 0.090456 0.032949
Si Si3 0.533407 0.248818 0.154614
Si Si4 0.447629 0.449000 0.625715
Si Si5 0.226063 0.424245 0.390554
Si Si6 0.762583 0.964281 0.714659
Si Si7 0.440873 0.050513 0.260144
Si Si8 0.095524 0.721141 0.575407
O O1 0.743907 0.503813 0.430432
O O2 0.735510 0.760235 0.373144
O O3 0.825903 0.570677 0.293428
O O4 0.976464 0.633355 0.483944
O O5 0.400774 0.203097 0.044540
O O6 0.357423 0.992033 0.139555
O O7 0.156900 0.174532 0.022596
O O8 0.546828 0.416383 0.153470
O O9 0.506558 0.199325 0.250146
O O10 0.664721 0.170216 0.163246
O O11 0.310401 0.464258 0.512781
O O12 0.401038 0.433232 0.712994
O O13 0.535609 0.313223 0.635247
O O14 0.291428 0.514151 0.332684
O O15 0.064636 0.452342 0.340460
O O16 0.702963 0.111526 0.655064
#
# Coordination Sequence:
#
# PCOD8054873 Si02
#       8
#     4   4   4   4   4   4   4   4
#     4  11  20  38  63  88 122 165 198 254 306 352
#     4  10  21  39  63  90 121 158 206 247 300 366
#     4   9  20  39  64  87 122 162 201 249 301 364
#     4  11  23  38  66  93 123 162 203 257 308 355
#     4  10  22  36  65  93 119 158 211 249 302 368
#     4  11  20  45  65  84 128 167 202 250 308 364
#     4   9  20  37  64  87 116 165 203 240 307 364
#     4  11  22  38  64  92 125 163 208 248 302 365
#
# _framework density 23.354993
#
# number of rings (size 3 to 8) (size 9 to 14) (size 15 to 20)
#    0.750    1.000    2.500    2.250    0.000    2.000 
#    0.000    8.750    5.500    0.000    0.000    0.000 
#    0.000    0.000    0.000    0.000    0.000    0.000 
#
# Total GULP energy -198307.806613 kJ/mol
# GULP energy per Si atom -12394.237913 kJ/mol
# Density = 2.330184 g / cm^3
# Si number density = 23.354993 Si / 1000 Ang^3
#
#
#
# Elastic Constant Matrix: (Units=GPa)
#
#
# Indices 1 2 3 4 5 6 
#
# 1 80.0187 54.0061 8.4751 0.0000 -18.8041 0.0000
# 2 54.0061 59.8351 5.3494 0.0000 -17.2697 0.0000
# 3 8.4751 5.3494 44.2782 0.0000 -15.7662 0.0000
# 4 0.0000 0.0000 0.0000 19.6105 0.0000 -5.3757
# 5 -18.8041 -17.2697 -15.7662 0.0000 33.3178 0.0000
# 6 0.0000 0.0000 0.0000 -5.3757 0.0000 27.3397
#
#
#
# Elastic Compliance Matrix: (Units=1/GPa)
#
#
# Indices 1 2 3 4 5 6 
#
# 1 0.032472 -0.028344 -0.001800 0.000000 0.002783 0.000000
# 2 -0.028344 0.044478 0.003084 0.000000 0.008517 0.000000
# 3 -0.001800 0.003084 0.027377 0.000000 0.013538 0.000000
# 4 0.000000 0.000000 0.000000 0.053898 0.000000 0.010598
# 5 0.002783 0.008517 0.013538 0.000000 0.042406 0.000000
# 6 0.000000 0.000000 0.000000 0.010598 0.000000 0.038661
#
#
# Mechanical properties :
#
#
# Convention : Reuss Voigt Hill
#
# Bulk Modulus (GPa) = 19.91758 35.53259 27.72509
# Shear Modulus (GPa) = 16.12136 23.80699 19.96418
#
# Velocity S-wave (km/s) = 2.63016 3.19620 2.92689
# Velocity P-wave (km/s) = 4.21549 5.37290 4.82900
#
# Compressibility (1/GPa) = 0.05020690
#
# Stress axis : x y z
#
# Youngs Moduli (GPa) = 30.79581 22.48286 36.52725
#
# Poissons Ratio (x) = 0.63727 0.06575
# Poissons Ratio (y) = 0.87289 -0.11266
# Poissons Ratio (z) = 0.05543 -0.06935
#
# Static dielectric constant tensor:
#      x y z
#    x 4.057270 0.000000 -0.115330 
#    y 0.000000 3.949880 0.000000 
#    z -0.115330 0.000000 4.106680 
# 
# 
# High freq. dielectric constant tensor:
#      x y z
#    x 1.922860 0.000000 -0.004290 
#    y 0.000000 1.910630 0.000000 
#    z -0.004290 0.000000 1.908620 
# 
# From -- ./inp_files/29912.got.cif
#   From: 2010.06.25/outbox.cif.g09.slc.cpg/sg9_15_cif.got.tgz:29912.got - 2010.06.27 21:40:51.
