data_PCOD8054938
_publ_section_title
;
Structure prediction by ZEFSAII (Michael W. Deem and Ramdas Pophale) SiO2 
 PCOD8054938
Probable space group: C C
;
_chemical_formula_sum "Si O2"
_cell_formula_units_Z 32
_cell_length_a 9.140088
_cell_length_b 16.133005
_cell_length_c 11.340815
_cell_angle_alpha 90.000000
_cell_angle_beta 60.580071
_cell_angle_gamma 90.000000
_cell_volume 1456.630874
_symmetry_space_group_name_H-M "C C"
_symmetry_group_IT_number 9
_symmetry_cell_setting 'monoclinic'
loop_
_space_group_symop_operation_xyz
x,y,z
x,-y,1/2+z
1/2+x,1/2+y,z
1/2+x,1/2-y,1/2+z
loop_
_atom_site_type_symbol
_atom_site_label
_atom_site_fract_x
_atom_site_fract_y
_atom_site_fract_z
Si Si1 0.710960 0.911567 0.394420
Si Si2 0.591631 0.796814 0.971671
Si Si3 0.347575 0.414894 0.776126
Si Si4 0.065765 0.939126 0.897103
Si Si5 0.508767 0.793142 0.596892
Si Si6 0.321386 0.183632 0.403655
Si Si7 0.486006 0.386925 0.472732
Si Si8 0.267069 0.659714 0.622833
O O1 0.541529 0.887494 0.536346
O O2 0.873364 0.878426 0.400812
O O3 0.699044 0.859993 0.278535
O O4 0.724755 0.009493 0.364630
O O5 0.761989 0.827840 0.842349
O O6 0.428591 0.840377 0.977312
O O7 0.585197 0.697406 0.959280
O O8 0.605946 0.826902 0.101809
O O9 0.527134 0.421806 0.773662
O O10 0.370279 0.413704 0.628160
O O11 0.228958 0.892914 0.879216
O O12 0.893994 0.913462 0.033359
O O13 0.109955 0.035521 0.901518
O O14 0.459638 0.785746 0.753589
O O15 0.688295 0.750484 0.500761
O O16 0.365256 0.747333 0.579243
#
# Coordination Sequence:
#
# PCOD8054938 Si02
#       8
#     4   4   4   4   4   4   4   4
#     4  11  21  42  71  95 134 188 229 270 353 414
#     4  11  24  40  66 101 137 173 231 288 343 408
#     4  10  23  42  68  98 133 179 232 281 347 421
#     4   9  22  42  69  93 129 179 229 272 341 418
#     4  11  21  40  70  96 134 181 228 276 343 409
#     4  11  23  43  66 100 135 179 225 286 346 406
#     4  11  21  41  70  96 128 183 229 285 340 415
#     4  10  21  40  66  99 132 176 231 280 333 413
#
# _framework density 21.968502999999998
#
# number of rings (size 3 to 8) (size 9 to 14) (size 15 to 20)
#    0.000    1.500    3.750    0.750    1.750    1.000 
#    2.250    1.250    0.000    0.000    0.000    0.000 
#    0.000    0.000    0.000    0.000    0.000    0.000 
#
# Total GULP energy -198282.401647 kJ/mol
# GULP energy per Si atom -12392.650103 kJ/mol
# Density = 2.191850 g / cm^3
# Si number density = 21.968503 Si / 1000 Ang^3
#
#
#
# Elastic Constant Matrix: (Units=GPa)
#
#
# Indices 1 2 3 4 5 6 
#
# 1 133.5289 58.5325 51.9159 0.0000 28.5687 0.0000
# 2 58.5325 132.8101 33.6419 0.0000 4.2396 0.0000
# 3 51.9159 33.6419 116.3350 0.0000 14.7729 0.0000
# 4 0.0000 0.0000 0.0000 30.6035 0.0000 -6.7317
# 5 28.5687 4.2396 14.7729 0.0000 33.3422 0.0000
# 6 0.0000 0.0000 0.0000 -6.7317 0.0000 34.2710
#
#
#
# Elastic Compliance Matrix: (Units=1/GPa)
#
#
# Indices 1 2 3 4 5 6 
#
# 1 0.012561 -0.004444 -0.003206 0.000000 -0.008777 0.000000
# 2 -0.004444 0.009697 -0.001216 0.000000 0.003114 0.000000
# 3 -0.003206 -0.001216 0.010607 0.000000 -0.001798 0.000000
# 4 0.000000 0.000000 0.000000 0.034152 0.000000 0.006708
# 5 -0.008777 0.003114 -0.001798 0.000000 0.037914 0.000000
# 6 0.000000 0.000000 0.000000 0.006708 0.000000 0.030497
#
#
# Mechanical properties :
#
#
# Convention : Reuss Voigt Hill
#
# Bulk Modulus (GPa) = 66.08332 74.53937 70.31134
# Shear Modulus (GPa) = 31.60491 35.54893 33.57692
#
# Velocity S-wave (km/s) = 3.79706 4.02702 3.91373
# Velocity P-wave (km/s) = 7.02637 7.45830 7.24555
#
# Compressibility (1/GPa) = 0.01513241
#
# Stress axis : x y z
#
# Youngs Moduli (GPa) = 79.60899 103.12721 94.28061
#
# Poissons Ratio (x) = 0.45828 0.30226
# Poissons Ratio (y) = 0.35377 0.11468
# Poissons Ratio (z) = 0.25523 0.12544
#
# Static dielectric constant tensor:
#      x y z
#    x 3.934440 0.000000 0.313190 
#    y 0.000000 4.156480 0.000000 
#    z 0.313190 0.000000 3.941270 
# 
# 
# High freq. dielectric constant tensor:
#      x y z
#    x 1.852490 0.000000 0.029210 
#    y 0.000000 1.868720 0.000000 
#    z 0.029210 0.000000 1.853230 
# 
# From -- ./inp_files/15174.got.cif
#   From: 2010.06.25/outbox.cif.g09.slc.cpg/sg9_8_cif.got.tgz:15174.got - 2010.06.27 21:40:51.
