data_PCOD8054670
_publ_section_title
;
Structure prediction by ZEFSAII (Michael W. Deem and Ramdas Pophale) SiO2 
 PCOD8054670
Probable space group: C C
;
_chemical_formula_sum "Si O2"
_cell_formula_units_Z 32
_cell_length_a 9.556550
_cell_length_b 22.583087
_cell_length_c 9.926567
_cell_angle_alpha 90.000000
_cell_angle_beta 136.177702
_cell_angle_gamma 90.000000
_cell_volume 1483.391007
_symmetry_space_group_name_H-M "C C"
_symmetry_group_IT_number 9
_symmetry_cell_setting 'monoclinic'
loop_
_space_group_symop_operation_xyz
x,y,z
x,-y,1/2+z
1/2+x,1/2+y,z
1/2+x,1/2-y,1/2+z
loop_
_atom_site_type_symbol
_atom_site_label
_atom_site_fract_x
_atom_site_fract_y
_atom_site_fract_z
Si Si1 0.637140 0.013940 0.202750
Si Si2 0.089344 0.276444 0.504010
Si Si3 0.405413 0.513971 0.129507
Si Si4 0.610786 0.611203 0.729773
Si Si5 0.308567 0.077128 0.382578
Si Si6 0.826777 0.658964 0.637002
Si Si7 0.922385 0.375134 0.673037
Si Si8 0.781055 0.803583 0.889757
O O1 0.735830 0.978661 0.396584
O O2 0.574886 0.079293 0.205554
O O3 0.805857 0.019042 0.205837
O O4 0.440091 0.980333 0.011049
O O5 0.038917 0.314982 0.338145
O O6 0.883205 0.262433 0.452925
O O7 0.168689 0.212496 0.512480
O O8 0.243637 0.314831 0.701833
O O9 0.525259 0.452994 0.198448
O O10 0.570759 0.565502 0.232526
O O11 0.749732 0.610226 0.691992
O O12 0.424606 0.654027 0.572844
O O13 0.731898 0.635745 0.943363
O O14 0.369564 0.130372 0.523411
O O15 0.347834 0.096786 0.258870
O O16 0.054996 0.314986 0.794790
#
# Coordination Sequence:
#
# PCOD8054670 Si02
#       8
#     4   4   4   4   4   4   4   4
#     4  12  25  42  63  95 138 186 225 272 331 409
#     4   9  20  41  71 100 122 171 238 281 323 407
#     4  12  25  40  65  96 136 183 229 271 332 411
#     4  11  21  39  69  95 129 177 223 276 328 399
#     4  12  27  43  64 100 143 179 222 281 343 397
#     4  10  22  41  71  95 129 176 222 282 334 391
#     4  12  24  42  65  97 138 180 223 278 337 405
#     4  10  20  40  68  98 127 166 226 283 332 383
#
# _framework density 21.572195000000001
#
# number of rings (size 3 to 8) (size 9 to 14) (size 15 to 20)
#    0.000    1.000    5.000    1.500    5.250    0.000 
#    2.250    1.250    0.000    0.000    0.000    0.000 
#    0.000    0.000    0.000    0.000    0.000    0.000 
#
# Total GULP energy -198246.707664 kJ/mol
# GULP energy per Si atom -12390.419229 kJ/mol
# Density = 2.152310 g / cm^3
# Si number density = 21.572195 Si / 1000 Ang^3
#
#
#
# Elastic Constant Matrix: (Units=GPa)
#
#
# Indices 1 2 3 4 5 6 
#
# 1 81.7056 30.9681 33.2331 0.0000 -16.0489 0.0000
# 2 30.9681 49.4523 33.9397 0.0000 -10.0386 0.0000
# 3 33.2331 33.9397 158.1661 0.0000 4.6090 0.0000
# 4 0.0000 0.0000 0.0000 32.9964 0.0000 -6.8112
# 5 -16.0489 -10.0386 4.6090 0.0000 35.4986 0.0000
# 6 0.0000 0.0000 0.0000 -6.8112 0.0000 24.4160
#
#
#
# Elastic Compliance Matrix: (Units=1/GPa)
#
#
# Indices 1 2 3 4 5 6 
#
# 1 0.017341 -0.008296 -0.002031 0.000000 0.005757 0.000000
# 2 -0.008296 0.029789 -0.004803 0.000000 0.005297 0.000000
# 3 -0.002031 -0.004803 0.007876 0.000000 -0.003299 0.000000
# 4 0.000000 0.000000 0.000000 0.032158 0.000000 0.008971
# 5 0.005757 0.005297 -0.003299 0.000000 0.032699 0.000000
# 6 0.000000 0.000000 0.000000 0.008971 0.000000 0.043459
#
#
# Mechanical properties :
#
#
# Convention : Reuss Voigt Hill
#
# Bulk Modulus (GPa) = 40.41410 53.95621 47.18515
# Shear Modulus (GPa) = 24.77317 31.32773 28.05045
#
# Velocity S-wave (km/s) = 3.39246 3.81494 3.60989
# Velocity P-wave (km/s) = 5.84124 6.66868 6.26863
#
# Compressibility (1/GPa) = 0.02474384
#
# Stress axis : x y z
#
# Youngs Moduli (GPa) = 57.66838 33.56983 126.96720
#
# Poissons Ratio (x) = 0.27851 0.25787
# Poissons Ratio (y) = 0.47844 0.60986
# Poissons Ratio (z) = 0.11713 0.16124
#
# Static dielectric constant tensor:
#      x y z
#    x 3.771750 0.000000 0.272810 
#    y 0.000000 3.899940 0.000000 
#    z 0.272810 0.000000 4.351510 
# 
# 
# High freq. dielectric constant tensor:
#      x y z
#    x 1.817660 0.000000 0.016260 
#    y 0.000000 1.837230 0.000000 
#    z 0.016260 0.000000 1.879540 
# 
# From -- ./inp_files/6389.got.cif
#   From: 2010.06.25/outbox.cif.g09.slc.cpg/sg9_4_cif.got.tgz:6389.got - 2010.06.27 21:40:51.
