data_PCOD8054640
_publ_section_title
;
Structure prediction by ZEFSAII (Michael W. Deem and Ramdas Pophale) SiO2 
 PCOD8054640
Probable space group: C C
;
_chemical_formula_sum "Si O2"
_cell_formula_units_Z 28
_cell_length_a 8.310541
_cell_length_b 26.277669
_cell_length_c 5.128026
_cell_angle_alpha 90.000000
_cell_angle_beta 86.178782
_cell_angle_gamma 90.000000
_cell_volume 1117.377133
_symmetry_space_group_name_H-M "C C"
_symmetry_group_IT_number 9
_symmetry_cell_setting 'monoclinic'
loop_
_space_group_symop_operation_xyz
x,y,z
x,-y,1/2+z
1/2+x,1/2+y,z
1/2+x,1/2-y,1/2+z
loop_
_atom_site_type_symbol
_atom_site_label
_atom_site_fract_x
_atom_site_fract_y
_atom_site_fract_z
Si Si1 0.680270 0.193426 0.313920
Si Si2 0.447431 0.469603 0.313067
Si Si3 0.614914 0.335431 0.897616
Si Si4 0.933449 0.640501 0.631702
Si Si5 0.954727 0.739778 0.968498
Si Si6 0.827032 0.467745 0.291533
Si Si7 0.921960 0.861350 0.436946
O O1 0.611163 0.145134 0.482773
O O2 0.792226 0.226744 0.490774
O O3 0.522538 0.226306 0.248562
O O4 0.774211 0.174422 0.044901
O O5 0.397766 0.489145 0.034089
O O6 0.637197 0.456694 0.300605
O O7 0.353305 0.417278 0.378075
O O8 0.795938 0.353989 0.923864
O O9 0.595412 0.275440 0.820081
O O10 0.508070 0.339691 0.171860
O O11 0.546932 0.368577 0.665431
O O12 0.919649 0.586199 0.773375
O O13 0.913435 0.687278 0.831252
O O14 0.880115 0.496346 0.547345
#
# Coordination Sequence:
#
# PCOD8054640 Si02
#       7
#     4   4   4   4   4   4   4
#     4  11  29  44  77 104 160 197 260 297 396 451
#     4  10  20  39  72 104 141 191 254 316 372 444
#     4  11  26  44  76 103 156 191 252 303 382 449
#     4  12  27  46  75 111 147 210 243 325 376 452
#     4  11  27  47  70 111 152 203 247 312 370 477
#     4  10  24  44  70 108 147 194 260 313 368 449
#     4  11  25  48  68 111 147 200 244 320 370 460
#
# _framework density 25.058679999999999
#
# number of rings (size 3 to 8) (size 9 to 14) (size 15 to 20)
#    0.000    1.143    2.857    0.857   18.000    0.000 
#    0.000    1.429    0.000    0.000    0.000    0.000 
#    0.000    0.000    0.000    0.000    0.000    0.000 
#
# Total GULP energy -173552.799087 kJ/mol
# GULP energy per Si atom -12396.628506 kJ/mol
# Density = 2.500165 g / cm^3
# Si number density = 25.058680 Si / 1000 Ang^3
#
#
#
# Elastic Constant Matrix: (Units=GPa)
#
#
# Indices 1 2 3 4 5 6 
#
# 1 82.5192 43.7976 38.9980 0.0000 0.8547 0.0000
# 2 43.7976 155.2976 36.8872 0.0000 -6.5697 0.0000
# 3 38.9980 36.8872 121.0959 0.0000 -1.0943 0.0000
# 4 0.0000 0.0000 0.0000 39.7377 0.0000 -11.2158
# 5 0.8547 -6.5697 -1.0943 0.0000 32.3237 0.0000
# 6 0.0000 0.0000 0.0000 -11.2158 0.0000 30.3417
#
#
#
# Elastic Compliance Matrix: (Units=1/GPa)
#
#
# Indices 1 2 3 4 5 6 
#
# 1 0.015954 -0.003591 -0.004056 0.000000 -0.001289 0.000000
# 2 -0.003591 0.007808 -0.001207 0.000000 0.001641 0.000000
# 3 -0.004056 -0.001207 0.009934 0.000000 0.000198 0.000000
# 4 0.000000 0.000000 0.000000 0.028096 0.000000 0.010386
# 5 -0.001289 0.001641 0.000198 0.000000 0.031311 0.000000
# 6 0.000000 0.000000 0.000000 0.010386 0.000000 0.036797
#
#
# Mechanical properties :
#
#
# Convention : Reuss Voigt Hill
#
# Bulk Modulus (GPa) = 62.54514 66.47535 64.51025
# Shear Modulus (GPa) = 32.69306 36.42930 34.56118
#
# Velocity S-wave (km/s) = 3.61593 3.81696 3.71780
# Velocity P-wave (km/s) = 6.51513 6.78314 6.65048
#
# Compressibility (1/GPa) = 0.01598845
#
# Stress axis : x y z
#
# Youngs Moduli (GPa) = 62.67924 128.07258 100.66839
#
# Poissons Ratio (x) = 0.45986 0.40829
# Poissons Ratio (y) = 0.22506 0.12153
# Poissons Ratio (z) = 0.25422 0.15462
#
# Static dielectric constant tensor:
#      x y z
#    x 4.447620 0.000000 0.107280 
#    y 0.000000 4.583500 0.000000 
#    z 0.107280 0.000000 4.526610 
# 
# 
# High freq. dielectric constant tensor:
#      x y z
#    x 1.978950 0.000000 0.004340 
#    y 0.000000 2.005200 0.000000 
#    z 0.004340 0.000000 2.005490 
# 
# From -- ./inp_files/1061.got.cif
#   From: 2010.06.25/outbox.cif.g09.slc.cpg/sg9_1_cif.got.tgz:1061.got - 2010.06.27 21:40:51.
