data_PCOD8054033
_publ_section_title
;
Structure prediction by ZEFSAII (Michael W. Deem and Ramdas Pophale) SiO2 
 PCOD8054033
Probable space group: C M
;
_chemical_formula_sum "Si O2"
_cell_formula_units_Z 20
_cell_length_a 9.060774
_cell_length_b 9.624644
_cell_length_c 10.362430
_cell_angle_alpha 90.000000
_cell_angle_beta 103.367342
_cell_angle_gamma 90.000000
_cell_volume 879.191082
_symmetry_space_group_name_H-M "C M"
_symmetry_group_IT_number 8
_symmetry_cell_setting 'monoclinic'
loop_
_space_group_symop_operation_xyz
x,y,z
x,-y,z
1/2+x,1/2+y,z
1/2+x,1/2-y,z
loop_
_atom_site_type_symbol
_atom_site_label
_atom_site_fract_x
_atom_site_fract_y
_atom_site_fract_z
Si Si1 0.355920 0.750065 0.022850
Si Si2 0.555794 0.650539 0.842002
Si Si3 0.467815 0.158024 0.594443
Si Si4 0.140329 0.158031 0.438229
Si Si5 0.154157 0.349180 0.203716
O O1 0.284890 0.657572 0.122178
O O2 0.488322 0.846866 0.105810
O O3 0.429609 0.653428 0.928213
O O4 0.223680 0.843551 0.935063
O O5 0.539923 0.500000 0.769189
O O6 0.531063 0.775382 0.737515
O O7 0.286116 0.158417 0.560902
O O8 0.513806 0.247192 0.479032
O O9 0.529830 0.000000 0.596476
O O10 0.178488 0.222580 0.307016
O O11 0.082047 0.000000 0.406643
O O12 0.170316 0.500000 0.275563
#
# Coordination Sequence:
#
# PCOD8054033 Si02
#       5
#     4   4   4   4   4
#     4  10  24  40  62  94 128 162 204 252 306 364
#     4  11  23  41  65  92 125 164 206 253 305 364
#     4  11  25  43  64  92 125 162 206 256 309 365
#     4  11  25  43  64  92 125 162 206 256 309 365
#     4  11  23  41  65  92 125 164 206 253 305 364
#
# _framework density 22.748183000000001
#
# number of rings (size 3 to 8) (size 9 to 14) (size 15 to 20)
#    0.000    1.200    0.000    4.800    0.000   19.200 
#    0.000    0.000    0.000    0.000    0.000    0.000 
#    0.000    0.000    0.000    0.000    0.000    0.000 
#
# Total GULP energy -124019.338104 kJ/mol
# GULP energy per Si atom -12401.933810 kJ/mol
# Density = 2.269641 g / cm^3
# Si number density = 22.748183 Si / 1000 Ang^3
#
#
#
# Elastic Constant Matrix: (Units=GPa)
#
#
# Indices 1 2 3 4 5 6 
#
# 1 112.7896 32.4562 19.1197 0.0000 -12.5551 0.0000
# 2 32.4562 197.7019 44.7207 0.0000 -11.7379 0.0000
# 3 19.1197 44.7207 90.2847 0.0000 -11.0961 0.0000
# 4 0.0000 0.0000 0.0000 34.9606 0.0000 -4.5841
# 5 -12.5551 -11.7379 -11.0961 0.0000 19.8370 0.0000
# 6 0.0000 0.0000 0.0000 -4.5841 0.0000 16.3352
#
#
#
# Elastic Compliance Matrix: (Units=1/GPa)
#
#
# Indices 1 2 3 4 5 6 
#
# 1 0.009911 -0.001116 -0.000919 0.000000 0.005098 0.000000
# 2 -0.001116 0.005891 -0.002513 0.000000 0.001374 0.000000
# 3 -0.000919 -0.002513 0.013166 0.000000 0.005296 0.000000
# 4 0.000000 0.000000 0.000000 0.029696 0.000000 0.008333
# 5 0.005098 0.001374 0.005296 0.000000 0.057413 0.000000
# 6 0.000000 0.000000 0.000000 0.008333 0.000000 0.063556
#
#
# Mechanical properties :
#
#
# Convention : Reuss Voigt Hill
#
# Bulk Modulus (GPa) = 50.32410 65.92994 58.12702
# Shear Modulus (GPa) = 25.59452 34.52520 30.05986
#
# Velocity S-wave (km/s) = 3.35793 3.90001 3.63908
# Velocity P-wave (km/s) = 6.09955 7.02321 6.57761
#
# Compressibility (1/GPa) = 0.01987119
#
# Stress axis : x y z
#
# Youngs Moduli (GPa) = 100.90204 169.73918 75.95112
#
# Poissons Ratio (x) = 0.18950 0.06982
# Poissons Ratio (y) = 0.11265 0.19086
# Poissons Ratio (z) = 0.09276 0.42654
#
# Static dielectric constant tensor:
#      x y z
#    x 4.228060 0.000000 -0.004330 
#    y 0.000000 3.973700 0.000000 
#    z -0.004330 0.000000 3.937230 
# 
# 
# High freq. dielectric constant tensor:
#      x y z
#    x 1.909440 0.000000 0.000430 
#    y 0.000000 1.901150 0.000000 
#    z 0.000430 0.000000 1.893200 
# 
# From -- ./inp_files/18311.got.cif
#   From: 2010.03.12/outbox.cif.g09.slc.cpg/sg8_10_cif.got.tgz:18311.got - 2010.03.31 10:45:26.
