data_PCOD8054337
_publ_section_title
;
Structure prediction by ZEFSAII (Michael W. Deem and Ramdas Pophale) SiO2 
 PCOD8054337
Probable space group: C C
;
_chemical_formula_sum "Si O2"
_cell_formula_units_Z 20
_cell_length_a 9.022401
_cell_length_b 10.244763
_cell_length_c 9.637672
_cell_angle_alpha 90.000000
_cell_angle_beta 83.104796
_cell_angle_gamma 90.000000
_cell_volume 884.389725
_symmetry_space_group_name_H-M "C C"
_symmetry_group_IT_number 9
_symmetry_cell_setting 'monoclinic'
loop_
_space_group_symop_operation_xyz
x,y,z
x,-y,1/2+z
1/2+x,1/2+y,z
1/2+x,1/2-y,1/2+z
loop_
_atom_site_type_symbol
_atom_site_label
_atom_site_fract_x
_atom_site_fract_y
_atom_site_fract_z
Si Si1 0.286680 0.748462 0.494180
Si Si2 0.450938 0.922660 0.263149
Si Si3 0.224169 0.582083 0.254788
Si Si4 0.952076 0.796632 0.548095
Si Si5 0.931761 0.288640 0.752969
O O1 0.398672 0.847191 0.405237
O O2 0.270378 0.613704 0.408993
O O3 0.360647 0.710690 0.632944
O O4 0.128992 0.821976 0.533042
O O5 0.418448 0.840812 0.128500
O O6 0.631924 0.946328 0.256604
O O7 0.367124 0.062402 0.262798
O O8 0.367526 0.585649 0.137404
O O9 0.112464 0.701410 0.221660
O O10 0.889848 0.788456 0.398332
#
# Coordination Sequence:
#
# PCOD8054337 Si02
#       5
#     4   4   4   4   4
#     4  10  19  35  63  90 117 162 205 247 307 364
#     4   9  19  38  61  82 126 162 193 246 317 354
#     4   8  20  35  59  85 122 162 194 252 301 365
#     4  10  19  36  60  91 119 155 212 245 299 369
#     4   9  19  34  59  88 116 161 194 250 308 354
#
# _framework density 22.614462
#
# number of rings (size 3 to 8) (size 9 to 14) (size 15 to 20)
#    1.200    1.600    0.000    1.200    0.000    3.200 
#    0.000    0.000   35.200    0.000    0.000    0.000 
#    0.000    0.000    0.000    0.000    0.000    0.000 
#
# Total GULP energy -123921.271472 kJ/mol
# GULP energy per Si atom -12392.127147 kJ/mol
# Density = 2.256299 g / cm^3
# Si number density = 22.614462 Si / 1000 Ang^3
#
#
#
# Elastic Constant Matrix: (Units=GPa)
#
#
# Indices 1 2 3 4 5 6 
#
# 1 87.9774 10.6601 63.6993 0.0000 -10.5909 0.0000
# 2 10.6601 29.3858 7.7192 0.0000 0.5941 0.0000
# 3 63.6993 7.7192 174.7025 0.0000 19.8934 0.0000
# 4 0.0000 0.0000 0.0000 2.8411 0.0000 -1.1916
# 5 -10.5909 0.5941 19.8934 0.0000 51.2861 0.0000
# 6 0.0000 0.0000 0.0000 -1.1916 0.0000 37.3008
#
#
#
# Elastic Compliance Matrix: (Units=1/GPa)
#
#
# Indices 1 2 3 4 5 6 
#
# 1 0.017796 -0.004744 -0.007014 0.000000 0.006450 0.000000
# 2 -0.004744 0.035696 0.000325 0.000000 -0.001519 0.000000
# 3 -0.007014 0.000325 0.008822 0.000000 -0.004874 0.000000
# 4 0.000000 0.000000 0.000000 0.356759 0.000000 0.011397
# 5 0.006450 -0.001519 -0.004874 0.000000 0.022739 0.000000
# 6 0.000000 0.000000 0.000000 0.011397 0.000000 0.027173
#
#
# Mechanical properties :
#
#
# Convention : Reuss Voigt Hill
#
# Bulk Modulus (GPa) = 25.34843 50.69143 38.01993
# Shear Modulus (GPa) = 9.90101 32.28472 21.09287
#
# Velocity S-wave (km/s) = 2.09468 3.78248 3.05735
# Velocity P-wave (km/s) = 4.13322 6.44518 5.41405
#
# Compressibility (1/GPa) = 0.03945017
#
# Stress axis : x y z
#
# Youngs Moduli (GPa) = 56.19229 28.01419 113.35388
#
# Poissons Ratio (x) = 0.13289 0.79502
# Poissons Ratio (y) = 0.26657 -0.03689
# Poissons Ratio (z) = 0.39411 -0.00912
#
# Static dielectric constant tensor:
#      x y z
#    x 3.955000 0.000000 -0.142160 
#    y 0.000000 3.501080 0.000000 
#    z -0.142160 0.000000 4.082550 
# 
# 
# High freq. dielectric constant tensor:
#      x y z
#    x 1.879220 0.000000 -0.005020 
#    y 0.000000 1.855230 0.000000 
#    z -0.005020 0.000000 1.902300 
# 
# From -- ./inp_files/4707.got.cif
#   From: 2010.06.25/outbox.cif.g09.slc.cpg/sg9_3_cif.got.tgz:4707.got - 2010.06.27 21:40:51.
