data_PCOD8054393
_publ_section_title
;
Structure prediction by ZEFSAII (Michael W. Deem and Ramdas Pophale) SiO2 
 PCOD8054393
Probable space group: C C
;
_chemical_formula_sum "Si O2"
_cell_formula_units_Z 32
_cell_length_a 11.295217
_cell_length_b 13.146760
_cell_length_c 9.605999
_cell_angle_alpha 90.000000
_cell_angle_beta 81.880959
_cell_angle_gamma 90.000000
_cell_volume 1412.150090
_symmetry_space_group_name_H-M "C C"
_symmetry_group_IT_number 9
_symmetry_cell_setting 'monoclinic'
loop_
_space_group_symop_operation_xyz
x,y,z
x,-y,1/2+z
1/2+x,1/2+y,z
1/2+x,1/2-y,1/2+z
loop_
_atom_site_type_symbol
_atom_site_label
_atom_site_fract_x
_atom_site_fract_y
_atom_site_fract_z
Si Si1 0.801200 0.098447 0.391150
Si Si2 0.456744 0.964815 0.193171
Si Si3 0.286244 0.213290 0.368867
Si Si4 0.748288 0.577423 0.129655
Si Si5 0.628754 0.637710 0.636734
Si Si6 0.856759 0.906949 0.195101
Si Si7 0.276193 0.809386 0.354757
Si Si8 0.034551 0.611750 0.404072
O O1 0.800974 0.066469 0.553527
O O2 0.862426 0.208426 0.352463
O O3 0.671700 0.143018 0.360604
O O4 0.857656 0.010053 0.287103
O O5 0.355516 0.895858 0.274971
O O6 0.388512 0.047792 0.108140
O O7 0.530484 0.011628 0.307693
O O8 0.538491 0.907332 0.069421
O O9 0.222828 0.129113 0.282450
O O10 0.201237 0.210344 0.517301
O O11 0.281979 0.323320 0.294911
O O12 0.425271 0.187010 0.383366
O O13 0.665543 0.480215 0.116700
O O14 0.728165 0.660824 0.014693
O O15 0.486755 0.639342 0.640605
O O16 0.656402 0.690108 0.779656
#
# Coordination Sequence:
#
# PCOD8054393 Si02
#       8
#     4   4   4   4   4   4   4   4
#     4  12  29  49  64 100 147 195 231 286 359 429
#     4  10  19  37  71 103 128 167 224 297 343 401
#     4  11  23  47  74 107 137 182 246 298 350 417
#     4  10  19  40  72 105 132 167 240 297 346 401
#     4  11  24  45  77 105 138 187 232 305 356 419
#     4  12  30  51  66 102 154 193 237 286 364 430
#     4  11  21  44  69 104 133 179 242 288 352 410
#     4  11  21  43  71 100 135 178 232 293 348 413
#
# _framework density 22.660481000000001
#
# number of rings (size 3 to 8) (size 9 to 14) (size 15 to 20)
#    0.000    1.000    5.000    3.000    5.250    0.000 
#   11.250    0.000    0.000    0.000    0.000    0.000 
#    0.000    0.000    0.000    0.000    0.000    0.000 
#
# Total GULP energy -198215.080085 kJ/mol
# GULP energy per Si atom -12388.442505 kJ/mol
# Density = 2.260891 g / cm^3
# Si number density = 22.660481 Si / 1000 Ang^3
#
#
#
# Elastic Constant Matrix: (Units=GPa)
#
#
# Indices 1 2 3 4 5 6 
#
# 1 79.4817 6.2441 32.8249 0.0000 1.1787 0.0000
# 2 6.2441 99.4199 35.2228 0.0000 4.8068 0.0000
# 3 32.8249 35.2228 125.3804 0.0000 12.8877 0.0000
# 4 0.0000 0.0000 0.0000 34.2941 0.0000 -5.2637
# 5 1.1787 4.8068 12.8877 0.0000 22.9696 0.0000
# 6 0.0000 0.0000 0.0000 -5.2637 0.0000 10.6367
#
#
#
# Elastic Compliance Matrix: (Units=1/GPa)
#
#
# Indices 1 2 3 4 5 6 
#
# 1 0.014169 0.000453 -0.003982 0.000000 0.001412 0.000000
# 2 0.000453 0.011193 -0.003204 0.000000 -0.000568 0.000000
# 3 -0.003982 -0.003204 0.010430 0.000000 -0.004977 0.000000
# 4 0.000000 0.000000 0.000000 0.031556 0.000000 0.015616
# 5 0.001412 -0.000568 -0.004977 0.000000 0.046375 0.000000
# 6 0.000000 0.000000 0.000000 0.015616 0.000000 0.101742
#
#
# Mechanical properties :
#
#
# Convention : Reuss Voigt Hill
#
# Bulk Modulus (GPa) = 44.79390 50.31839 47.55615
# Shear Modulus (GPa) = 21.15287 28.91275 25.03281
#
# Velocity S-wave (km/s) = 3.05859 3.57586 3.32729
# Velocity P-wave (km/s) = 5.68187 6.26918 5.98273
#
# Compressibility (1/GPa) = 0.02232447
#
# Stress axis : x y z
#
# Youngs Moduli (GPa) = 70.57415 89.34437 95.87724
#
# Poissons Ratio (x) = -0.04043 0.38177
# Poissons Ratio (y) = -0.03194 0.30723
# Poissons Ratio (z) = 0.28102 0.28630
#
# Static dielectric constant tensor:
#      x y z
#    x 4.002200 0.000000 0.290110 
#    y 0.000000 4.182880 0.000000 
#    z 0.290110 0.000000 4.262910 
# 
# 
# High freq. dielectric constant tensor:
#      x y z
#    x 1.873910 0.000000 0.012570 
#    y 0.000000 1.896250 0.000000 
#    z 0.012570 0.000000 1.910160 
# 
# From -- ./inp_files/7571.got.cif
#   From: 2010.06.25/outbox.cif.g09.slc.cpg/sg9_4_cif.got.tgz:7571.got - 2010.06.27 21:40:51.
