data_PCOD8054294
_publ_section_title
;
Structure prediction by ZEFSAII (Michael W. Deem and Ramdas Pophale) SiO2 
 PCOD8054294
Probable space group: C C
;
_chemical_formula_sum "Si O2"
_cell_formula_units_Z 32
_cell_length_a 8.261858
_cell_length_b 11.414621
_cell_length_c 21.949834
_cell_angle_alpha 90.000000
_cell_angle_beta 42.332847
_cell_angle_gamma 90.000000
_cell_volume 1394.013775
_symmetry_space_group_name_H-M "C C"
_symmetry_group_IT_number 9
_symmetry_cell_setting 'monoclinic'
loop_
_space_group_symop_operation_xyz
x,y,z
x,-y,1/2+z
1/2+x,1/2+y,z
1/2+x,1/2-y,1/2+z
loop_
_atom_site_type_symbol
_atom_site_label
_atom_site_fract_x
_atom_site_fract_y
_atom_site_fract_z
Si Si1 0.885160 0.559642 0.826490
Si Si2 0.828222 0.038091 0.637913
Si Si3 0.062936 0.562547 0.590363
Si Si4 0.329498 0.084861 0.459959
Si Si5 0.811634 0.042178 0.397766
Si Si6 0.720924 0.227182 0.175751
Si Si7 0.804011 0.618278 0.238726
Si Si8 0.032475 0.198389 0.851785
O O1 0.813273 0.514886 0.912901
O O2 0.851008 0.461447 0.784727
O O3 0.713157 0.667924 0.857202
O O4 0.172802 0.586907 0.739171
O O5 0.711231 0.096171 0.609641
O O6 0.102886 0.078984 0.568080
O O7 0.841341 0.897531 0.627589
O O8 0.901417 0.668225 0.608399
O O9 0.891237 0.450293 0.653230
O O10 0.262767 0.536515 0.483644
O O11 0.571129 0.066351 0.429406
O O12 0.326331 0.215497 0.433511
O O13 0.014448 0.139055 0.320475
O O14 0.916091 0.914634 0.351850
O O15 0.470333 0.233192 0.205381
O O16 0.678451 0.232296 0.259817
#
# Coordination Sequence:
#
# PCOD8054294 Si02
#       8
#     4   4   4   4   4   4   4   4
#     4   9  19  41  67  93 129 170 221 273 322 402
#     4  10  21  38  66 101 129 173 220 274 331 398
#     4  10  20  39  67  96 134 169 222 275 330 403
#     4  12  25  41  65 101 139 168 225 279 324 403
#     4  11  25  41  63 102 135 171 227 278 325 400
#     4  10  18  40  73  94 126 181 223 267 348 391
#     4   9  19  40  66  94 130 174 217 276 329 394
#     4  11  21  46  69  91 130 182 215 268 349 391
#
# _framework density 22.955296000000001
#
# number of rings (size 3 to 8) (size 9 to 14) (size 15 to 20)
#    0.000    2.000    6.250    1.500    0.000    5.000 
#    2.250    0.000    0.000    0.000    0.000    0.000 
#    0.000    0.000    0.000    0.000    0.000    0.000 
#
# Total GULP energy -198275.302466 kJ/mol
# GULP energy per Si atom -12392.206404 kJ/mol
# Density = 2.290305 g / cm^3
# Si number density = 22.955296 Si / 1000 Ang^3
#
#
#
# Elastic Constant Matrix: (Units=GPa)
#
#
# Indices 1 2 3 4 5 6 
#
# 1 77.4500 36.3406 16.3898 -0.0007 -32.0323 0.0003
# 2 36.3406 65.7594 25.0985 -0.0004 -10.6795 0.0003
# 3 16.3898 25.0985 104.9752 -0.0010 -27.5426 0.0005
# 4 -0.0007 -0.0004 -0.0010 25.5378 0.0004 -4.1866
# 5 -32.0323 -10.6795 -27.5426 0.0004 40.5422 -0.0005
# 6 0.0003 0.0003 0.0005 -4.1866 -0.0005 37.1118
#
#
#
# Elastic Compliance Matrix: (Units=1/GPa)
#
#
# Indices 1 2 3 4 5 6 
#
# 1 0.026595 -0.013022 0.004350 0.000000 0.020538 0.000000
# 2 -0.013022 0.023252 -0.005620 0.000000 -0.007982 0.000000
# 3 0.004350 -0.005620 0.013026 0.000000 0.010805 0.000000
# 4 0.000000 0.000000 0.000000 0.039895 0.000000 0.004501
# 5 0.020538 -0.007982 0.010805 0.000000 0.046130 0.000000
# 6 0.000000 0.000000 0.000000 0.004501 0.000000 0.027453
#
#
# Mechanical properties :
#
#
# Convention : Reuss Voigt Hill
#
# Bulk Modulus (GPa) = 29.16529 44.87138 37.01833
# Shear Modulus (GPa) = 23.10881 31.99540 27.55211
#
# Velocity S-wave (km/s) = 3.17628 3.73743 3.46822
# Velocity P-wave (km/s) = 5.11708 6.18177 5.67445
#
# Compressibility (1/GPa) = 0.03428734
#
# Stress axis : x y z
#
# Youngs Moduli (GPa) = 37.60052 43.00662 76.77098
#
# Poissons Ratio (x) = 0.56004 -0.33393
# Poissons Ratio (y) = 0.48964 0.43149
# Poissons Ratio (z) = -0.16355 0.24172
#
# Static dielectric constant tensor:
#      x y z
#    x 4.212660 0.000000 -0.517480 
#    y 0.000000 4.081690 0.000000 
#    z -0.517480 0.000000 4.779620 
# 
# 
# High freq. dielectric constant tensor:
#      x y z
#    x 1.891500 0.000000 -0.013130 
#    y 0.000000 1.886060 0.000000 
#    z -0.013130 0.000000 1.919820 
# 
# From -- ./inp_files/35016.got.cif
#   From: 2010.06.25/outbox.cif.g09.slc.cpg/sg9_18_cif.got.tgz:35016.got - 2010.06.27 21:40:51.
