data_PCOD8054535
_publ_section_title
;
Structure prediction by ZEFSAII (Michael W. Deem and Ramdas Pophale) SiO2 
 PCOD8054535
Probable space group: C C
;
_chemical_formula_sum "Si O2"
_cell_formula_units_Z 32
_cell_length_a 9.577445
_cell_length_b 13.873087
_cell_length_c 20.334043
_cell_angle_alpha 90.000000
_cell_angle_beta 141.239097
_cell_angle_gamma 90.000000
_cell_volume 1691.494942
_symmetry_space_group_name_H-M "C C"
_symmetry_group_IT_number 9
_symmetry_cell_setting 'monoclinic'
loop_
_space_group_symop_operation_xyz
x,y,z
x,-y,1/2+z
1/2+x,1/2+y,z
1/2+x,1/2-y,1/2+z
loop_
_atom_site_type_symbol
_atom_site_label
_atom_site_fract_x
_atom_site_fract_y
_atom_site_fract_z
Si Si1 0.897570 0.218886 0.995230
Si Si2 0.167355 0.536489 0.901731
Si Si3 0.510264 0.046867 0.986085
Si Si4 0.737823 0.756154 0.572183
Si Si5 0.559315 0.358054 0.337170
Si Si6 0.768841 0.143201 0.608648
Si Si7 0.316870 0.330194 0.973703
Si Si8 0.169828 0.670364 0.790992
O O1 0.891641 0.101107 0.000243
O O2 0.797516 0.245798 0.886502
O O3 0.736914 0.259889 0.993285
O O4 0.143079 0.262550 0.090788
O O5 0.228486 0.427603 0.908561
O O6 0.060956 0.584978 0.796562
O O7 0.001224 0.540343 0.903203
O O8 0.258924 0.064623 0.920717
O O9 0.669688 0.135033 0.066908
O O10 0.607502 0.949953 0.054240
O O11 0.566095 0.681743 0.539538
O O12 0.985951 0.733341 0.687459
O O13 0.485548 0.367266 0.233908
O O14 0.652712 0.252618 0.388329
O O15 0.346099 0.378410 0.305217
O O16 0.839939 0.162051 0.560412
#
# Coordination Sequence:
#
# PCOD8054535 Si02
#       8
#     4   4   4   4   4   4   4   4
#     4   9  19  37  56  81 121 147 194 243 293 352
#     4   8  19  39  55  83 113 156 185 244 295 346
#     4   9  22  39  58  85 122 149 207 247 289 355
#     4  10  20  37  60  85 114 157 192 249 297 355
#     4  11  22  39  61  88 120 159 202 249 298 359
#     4  11  21  39  61  90 116 165 193 247 306 351
#     4  10  21  39  60  88 121 149 204 250 292 358
#     4  10  20  37  59  82 117 156 197 237 304 350
#
# _framework density 18.918175999999999
#
# number of rings (size 3 to 8) (size 9 to 14) (size 15 to 20)
#    0.750    1.500    2.500    0.000    1.750    2.000 
#    2.250    2.500    0.000    0.000    0.000    0.000 
#    0.000    0.000    0.000    0.000    0.000    0.000 
#
# Total GULP energy -198234.541413 kJ/mol
# GULP energy per Si atom -12389.658838 kJ/mol
# Density = 1.887512 g / cm^3
# Si number density = 18.918176 Si / 1000 Ang^3
#
#
#
# Elastic Constant Matrix: (Units=GPa)
#
#
# Indices 1 2 3 4 5 6 
#
# 1 85.7455 23.7056 34.7256 -0.0001 -3.1673 0.0000
# 2 23.7056 74.2354 25.4870 0.0000 -4.2530 0.0000
# 3 34.7256 25.4870 93.2376 -0.0001 -9.0992 0.0000
# 4 -0.0001 0.0000 -0.0001 16.5962 -0.0001 -0.2035
# 5 -3.1673 -4.2530 -9.0992 -0.0001 28.1776 0.0000
# 6 0.0000 0.0000 0.0000 -0.2035 0.0000 25.8683
#
#
#
# Elastic Compliance Matrix: (Units=1/GPa)
#
#
# Indices 1 2 3 4 5 6 
#
# 1 0.014327 -0.003035 -0.004537 0.000000 -0.000313 0.000000
# 2 -0.003035 0.015534 -0.003015 0.000000 0.001030 0.000000
# 3 -0.004537 -0.003015 0.013573 0.000000 0.003418 0.000000
# 4 0.000000 0.000000 0.000000 0.060260 0.000000 0.000474
# 5 -0.000313 0.001030 0.003418 0.000000 0.036713 0.000000
# 6 0.000000 0.000000 0.000000 0.000474 0.000000 0.038661
#
#
# Mechanical properties :
#
#
# Convention : Reuss Voigt Hill
#
# Bulk Modulus (GPa) = 44.92546 46.78388 45.85467
# Shear Modulus (GPa) = 24.07733 25.41513 24.74623
#
# Velocity S-wave (km/s) = 3.57137 3.66925 3.62064
# Velocity P-wave (km/s) = 6.38789 6.53716 6.46295
#
# Compressibility (1/GPa) = 0.02225910
#
# Stress axis : x y z
#
# Youngs Moduli (GPa) = 69.79614 64.37405 73.67659
#
# Poissons Ratio (x) = 0.19540 0.33426
# Poissons Ratio (y) = 0.21186 0.22216
# Poissons Ratio (z) = 0.31666 0.19411
#
# Static dielectric constant tensor:
#      x y z
#    x 3.577330 0.000000 -0.097170 
#    y 0.000000 3.384040 0.000000 
#    z -0.097170 0.000000 3.239350 
# 
# 
# High freq. dielectric constant tensor:
#      x y z
#    x 1.747350 0.000000 -0.008050 
#    y 0.000000 1.724220 0.000000 
#    z -0.008050 0.000000 1.712730 
# 
# From -- ./inp_files/23179.got.cif
#   From: 2010.06.25/outbox.cif.g09.slc.cpg/sg9_12_cif.got.tgz:23179.got - 2010.06.27 21:40:51.
