data_PCOD8054703
_publ_section_title
;
Structure prediction by ZEFSAII (Michael W. Deem and Ramdas Pophale) SiO2 
 PCOD8054703
Probable space group: C C
;
_chemical_formula_sum "Si O2"
_cell_formula_units_Z 24
_cell_length_a 7.970463
_cell_length_b 13.450908
_cell_length_c 11.704052
_cell_angle_alpha 90.000000
_cell_angle_beta 135.565074
_cell_angle_gamma 90.000000
_cell_volume 878.477591
_symmetry_space_group_name_H-M "C C"
_symmetry_group_IT_number 9
_symmetry_cell_setting 'monoclinic'
loop_
_space_group_symop_operation_xyz
x,y,z
x,-y,1/2+z
1/2+x,1/2+y,z
1/2+x,1/2-y,1/2+z
loop_
_atom_site_type_symbol
_atom_site_label
_atom_site_fract_x
_atom_site_fract_y
_atom_site_fract_z
Si Si1 0.069120 0.109108 0.615010
Si Si2 0.430081 0.815931 0.472029
Si Si3 0.973147 0.857811 0.707685
Si Si4 0.889381 0.211148 0.924825
Si Si5 0.258766 0.996696 0.495008
Si Si6 0.205554 0.608527 0.620797
O O1 0.300567 0.153757 0.791400
O O2 0.172222 0.028337 0.577694
O O3 0.925122 0.197037 0.480492
O O4 0.872772 0.058590 0.604154
O O5 0.702542 0.850390 0.615539
O O6 0.284556 0.876214 0.501466
O O7 0.977132 0.858109 0.571573
O O8 0.130558 0.762656 0.828032
O O9 0.079699 0.960025 0.811305
O O10 0.880278 0.144361 0.807288
O O11 0.076635 0.299667 0.996285
O O12 0.522493 0.033845 0.589627
#
# Coordination Sequence:
#
# PCOD8054703 Si02
#       6
#     4   4   4   4   4   4
#     4  12  26  51  77 114 157 202 262 322 387 471
#     4  12  26  49  79 113 155 211 255 318 404 459
#     4  10  20  41  72 109 157 199 257 323 386 461
#     4   9  18  39  77 111 151 209 256 320 390 467
#     4  11  27  49  75 116 153 202 260 318 394 461
#     4  10  21  43  72 113 151 199 260 313 393 461
#
# _framework density 27.319991000000002
#
# number of rings (size 3 to 8) (size 9 to 14) (size 15 to 20)
#    0.000    1.333    0.000    7.000    2.333    0.000 
#   18.000    1.667    0.000    0.000    0.000    0.000 
#    0.000    0.000    0.000    0.000    0.000    0.000 
#
# Total GULP energy -148760.433368 kJ/mol
# GULP energy per Si atom -12396.702781 kJ/mol
# Density = 2.725781 g / cm^3
# Si number density = 27.319991 Si / 1000 Ang^3
#
#
#
# Elastic Constant Matrix: (Units=GPa)
#
#
# Indices 1 2 3 4 5 6 
#
# 1 161.9508 29.1002 37.0506 0.0000 12.6351 -0.0001
# 2 29.1002 71.1782 -4.3140 -0.0002 -9.8693 -0.0001
# 3 37.0506 -4.3140 142.2807 0.0010 1.1020 0.0005
# 4 0.0000 -0.0002 0.0010 46.6948 0.0003 -7.2894
# 5 12.6351 -9.8693 1.1020 0.0003 45.9917 0.0001
# 6 -0.0001 -0.0001 0.0005 -7.2894 0.0001 38.5338
#
#
#
# Elastic Compliance Matrix: (Units=1/GPa)
#
#
# Indices 1 2 3 4 5 6 
#
# 1 0.007501 -0.003576 -0.002040 0.000000 -0.002779 0.000000
# 2 -0.003576 0.016209 0.001388 0.000000 0.004427 0.000000
# 3 -0.002040 0.001388 0.007596 0.000000 0.000676 0.000000
# 4 0.000000 0.000000 0.000000 0.022067 0.000000 0.004174
# 5 -0.002779 0.004427 0.000676 0.000000 0.023440 0.000000
# 6 0.000000 0.000000 0.000000 0.004174 0.000000 0.026741
#
#
# Mechanical properties :
#
#
# Convention : Reuss Voigt Hill
#
# Bulk Modulus (GPa) = 43.76083 55.45369 49.60726
# Shear Modulus (GPa) = 41.79663 47.14892 44.47277
#
# Velocity S-wave (km/s) = 3.91563 4.15879 4.03904
# Velocity P-wave (km/s) = 6.04115 6.58806 6.32052
#
# Compressibility (1/GPa) = 0.02285149
#
# Stress axis : x y z
#
# Youngs Moduli (GPa) = 133.32030 61.69384 131.64003
#
# Poissons Ratio (x) = 0.22059 0.26856
# Poissons Ratio (y) = 0.47669 -0.18275
# Poissons Ratio (z) = 0.27199 -0.08565
#
# Static dielectric constant tensor:
#      x y z
#    x 4.847780 0.000000 0.197300 
#    y 0.000000 5.104690 0.000000 
#    z 0.197300 0.000000 5.259070 
# 
# 
# High freq. dielectric constant tensor:
#      x y z
#    x 2.106720 0.000000 0.020440 
#    y 0.000000 2.106500 0.000000 
#    z 0.020440 0.000000 2.119760 
# 
# From -- ./inp_files/23449.got.cif
#   From: 2010.06.25/outbox.cif.g09.slc.cpg/sg9_12_cif.got.tgz:23449.got - 2010.06.27 21:40:51.
