data_PCOD8054017
_publ_section_title
;
Structure prediction by ZEFSAII (Michael W. Deem and Ramdas Pophale) SiO2 
 PCOD8054017
Probable space group: C M
;
_chemical_formula_sum "Si O2"
_cell_formula_units_Z 32
_cell_length_a 23.584777
_cell_length_b 8.576611
_cell_length_c 14.207173
_cell_angle_alpha 90.000000
_cell_angle_beta 147.367834
_cell_angle_gamma 90.000000
_cell_volume 1549.673475
_symmetry_space_group_name_H-M "C M"
_symmetry_group_IT_number 8
_symmetry_cell_setting 'monoclinic'
loop_
_space_group_symop_operation_xyz
x,y,z
x,-y,z
1/2+x,1/2+y,z
1/2+x,1/2-y,z
loop_
_atom_site_type_symbol
_atom_site_label
_atom_site_fract_x
_atom_site_fract_y
_atom_site_fract_z
Si Si1 0.870600 0.821986 0.491580
Si Si2 0.569897 0.320649 0.883188
Si Si3 0.251421 0.679305 0.025867
Si Si4 0.112701 0.178555 0.515296
Si Si5 0.938060 0.679700 0.398689
Si Si6 0.802794 0.320472 0.906322
Si Si7 0.647088 0.319804 0.195164
Si Si8 0.042168 0.681275 0.227168
O O1 0.936757 0.784205 0.490312
O O2 0.771344 0.709079 0.360973
O O3 0.946976 0.795957 0.687725
O O4 0.831087 0.000000 0.431613
O O5 0.603260 0.500000 0.913418
O O6 0.636781 0.211788 0.907542
O O7 0.590009 0.271298 0.018721
O O8 0.281751 0.500000 0.084762
O O9 0.334719 0.789731 0.193094
O O10 0.250718 0.716074 0.914436
O O11 0.233792 0.202735 0.715601
O O12 0.103044 0.226113 0.393387
O O13 0.039329 0.283181 0.478132
O O14 0.077320 0.000000 0.477649
O O15 0.940780 0.500000 0.432348
O O16 0.801828 0.500000 0.937702
O O17 0.921153 0.263483 0.051531
O O18 0.627767 0.500000 0.192181
O O19 0.597996 0.213683 0.206958
O O20 0.049775 0.500000 0.261456
#
# Coordination Sequence:
#
# PCOD8054017 Si02
#       8
#     4   4   4   4   4   4   4   4
#     4  11  23  41  65  95 126 163 207 256 309 369
#     4  10  23  42  64  91 128 165 201 253 313 367
#     4  12  23  36  63  96 126 164 207 251 304 371
#     4  11  23  41  65  95 126 163 207 256 309 369
#     4  12  23  38  61  92 130 168 203 251 312 371
#     4  10  23  42  64  91 128 165 201 253 313 367
#     4  11  24  43  65  89 122 166 209 261 312 364
#     4  11  24  43  65  89 122 166 209 261 312 364
#
# _framework density 20.649511
#
# number of rings (size 3 to 8) (size 9 to 14) (size 15 to 20)
#    0.000    1.000    2.500    4.500    0.000    7.000 
#    0.000    2.500    0.000    0.000    0.000    0.000 
#    0.000    0.000    0.000    0.000    0.000    0.000 
#
# Total GULP energy -198515.695373 kJ/mol
# GULP energy per Si atom -12407.230961 kJ/mol
# Density = 2.060251 g / cm^3
# Si number density = 20.649511 Si / 1000 Ang^3
#
#
#
# Elastic Constant Matrix: (Units=GPa)
#
#
# Indices 1 2 3 4 5 6 
#
# 1 105.7158 17.2235 43.7213 0.0000 -13.5162 0.0000
# 2 17.2235 69.2975 32.8181 0.0000 -3.5334 0.0000
# 3 43.7213 32.8181 134.8152 0.0000 -21.7377 0.0000
# 4 0.0000 0.0000 0.0000 27.2002 0.0000 1.4961
# 5 -13.5162 -3.5334 -21.7377 0.0000 16.4663 0.0000
# 6 0.0000 0.0000 0.0000 1.4961 0.0000 32.9951
#
#
#
# Elastic Compliance Matrix: (Units=1/GPa)
#
#
# Indices 1 2 3 4 5 6 
#
# 1 0.011442 -0.001397 -0.002419 0.000000 0.005898 0.000000
# 2 -0.001397 0.016545 -0.004049 0.000000 -0.002942 0.000000
# 3 -0.002419 -0.004049 0.011088 0.000000 0.011782 0.000000
# 4 0.000000 0.000000 0.000000 0.036856 0.000000 -0.001671
# 5 0.005898 -0.002942 0.011782 0.000000 0.080495 0.000000
# 6 0.000000 0.000000 0.000000 -0.001671 0.000000 0.030383
#
#
# Mechanical properties :
#
#
# Convention : Reuss Voigt Hill
#
# Bulk Modulus (GPa) = 42.83837 55.26160 49.04998
# Shear Modulus (GPa) = 23.77319 29.73669 26.75494
#
# Velocity S-wave (km/s) = 3.39672 3.79894 3.60345
# Velocity P-wave (km/s) = 6.01449 6.78693 6.41235
#
# Compressibility (1/GPa) = 0.02334356
#
# Stress axis : x y z
#
# Youngs Moduli (GPa) = 87.39983 60.44032 90.19074
#
# Poissons Ratio (x) = 0.08445 0.21822
# Poissons Ratio (y) = 0.12212 0.36516
# Poissons Ratio (z) = 0.21146 0.24471
#
# Static dielectric constant tensor:
#      x y z
#    x 3.581250 0.000000 -0.081870 
#    y 0.000000 3.691850 0.000000 
#    z -0.081870 0.000000 3.890400 
# 
# 
# High freq. dielectric constant tensor:
#      x y z
#    x 1.797110 0.000000 -0.006060 
#    y 0.000000 1.811860 0.000000 
#    z -0.006060 0.000000 1.820430 
# 
# From -- ./inp_files/26583.got.cif
#   From: 2010.03.12/outbox.cif.g09.slc.cpg/sg8_14_cif.got.tgz:26583.got - 2010.03.31 10:45:26.
