data_PCOD8054079
_publ_section_title
;
Structure prediction by ZEFSAII (Michael W. Deem and Ramdas Pophale) SiO2 
 PCOD8054079
Probable space group: C M
;
_chemical_formula_sum "Si O2"
_cell_formula_units_Z 24
_cell_length_a 7.809432
_cell_length_b 27.529704
_cell_length_c 7.302338
_cell_angle_alpha 90.000000
_cell_angle_beta 140.780879
_cell_angle_gamma 90.000000
_cell_volume 992.653736
_symmetry_space_group_name_H-M "C M"
_symmetry_group_IT_number 8
_symmetry_cell_setting 'monoclinic'
loop_
_space_group_symop_operation_xyz
x,y,z
x,-y,z
1/2+x,1/2+y,z
1/2+x,1/2-y,z
loop_
_atom_site_type_symbol
_atom_site_label
_atom_site_fract_x
_atom_site_fract_y
_atom_site_fract_z
Si Si1 0.173940 0.706278 0.268230
Si Si2 0.835177 0.554959 0.275522
Si Si3 0.840070 0.893587 0.776842
Si Si4 0.080353 0.793723 0.918586
Si Si5 0.914187 0.106414 0.409920
Si Si6 0.919080 0.445041 0.911238
O O1 0.377156 0.725492 0.593411
O O2 0.332923 0.662222 0.299433
O O3 0.127133 0.750002 0.093404
O O4 0.877150 0.688257 0.093418
O O5 0.880473 0.500000 0.380370
O O6 0.030291 0.590542 0.556607
O O7 0.529308 0.572458 0.059645
O O8 0.877126 0.559697 0.093378
O O9 0.877125 0.903813 0.593378
O O10 0.921352 0.837781 0.887350
O O11 0.223962 0.090541 0.630149
O O12 0.724943 0.072461 0.127110
O O13 0.873795 0.500000 0.806398
#
# Coordination Sequence:
#
# PCOD8054079 Si02
#       6
#     4   4   4   4   4   4
#     4  11  22  37  56  78 107 141 178 219 264 312
#     4   9  15  23  38  62  94 130 162 194 245 311
#     4   9  16  27  42  64  96 131 162 201 254 303
#     4  11  22  37  56  78 107 141 178 219 264 312
#     4   9  16  27  42  64  96 131 162 201 254 303
#     4   9  15  23  38  62  94 130 162 194 245 311
#
# _framework density 24.177613999999998
#
# number of rings (size 3 to 8) (size 9 to 14) (size 15 to 20)
#    0.000    2.333    0.000    7.000    0.000    4.000 
#    0.000    0.000    0.000    0.000    0.000    0.000 
#    0.000   26.667    0.000    0.000    0.000    3.000 
#
# Total GULP energy -148679.423036 kJ/mol
# GULP energy per Si atom -12389.951920 kJ/mol
# Density = 2.412258 g / cm^3
# Si number density = 24.177614 Si / 1000 Ang^3
#
#
#
# Elastic Constant Matrix: (Units=GPa)
#
#
# Indices 1 2 3 4 5 6 
#
# 1 13.4269 20.5712 19.7610 0.0000 2.6097 0.0000
# 2 20.5712 207.7088 104.4971 0.0000 2.1985 0.0000
# 3 19.7610 104.4971 201.9448 0.0000 5.9604 0.0000
# 4 0.0000 0.0000 0.0000 62.1800 0.0000 1.2993
# 5 2.6097 2.1985 5.9604 0.0000 19.4970 0.0000
# 6 0.0000 0.0000 0.0000 1.2993 0.0000 1.1937
#
#
#
# Elastic Compliance Matrix: (Units=1/GPa)
#
#
# Indices 1 2 3 4 5 6 
#
# 1 0.094596 -0.006429 -0.005628 0.000000 -0.010216 0.000000
# 2 -0.006429 0.006948 -0.002995 0.000000 0.000993 0.000000
# 3 -0.005628 -0.002995 0.007084 0.000000 -0.001075 0.000000
# 4 0.000000 0.000000 0.000000 0.016457 0.000000 -0.017912
# 5 -0.010216 0.000993 -0.001075 0.000000 0.052874 0.000000
# 6 0.000000 0.000000 0.000000 -0.017912 0.000000 0.857221
#
#
# Mechanical properties :
#
#
# Convention : Reuss Voigt Hill
#
# Bulk Modulus (GPa) = 12.73514 79.19324 45.96419
# Shear Modulus (GPa) = 4.58102 35.12420 19.85261
#
# Velocity S-wave (km/s) = 1.37799 3.81564 2.86862
# Velocity P-wave (km/s) = 2.79474 7.22759 5.47944
#
# Compressibility (1/GPa) = 0.07852286
#
# Stress axis : x y z
#
# Youngs Moduli (GPa) = 10.57125 143.93622 141.15889
#
# Poissons Ratio (x) = 0.92536 0.79449
# Poissons Ratio (y) = 0.06796 0.42280
# Poissons Ratio (z) = 0.05950 0.43112
#
# Static dielectric constant tensor:
#      x y z
#    x 3.685920 0.000000 0.245770 
#    y 0.000000 4.232890 0.000000 
#    z 0.245770 0.000000 5.145570 
# 
# 
# High freq. dielectric constant tensor:
#      x y z
#    x 1.902690 0.000000 0.002100 
#    y 0.000000 1.956210 0.000000 
#    z 0.002100 0.000000 1.996720 
# 
# From -- ./inp_files/20936.got.cif
#   From: 2010.03.12/outbox.cif.g09.slc.cpg/sg8_11_cif.got.tgz:20936.got - 2010.03.31 10:45:26.
