data_PCOD8054980
_publ_section_title
;
Structure prediction by ZEFSAII (Michael W. Deem and Ramdas Pophale) SiO2 
 PCOD8054980
Probable space group: C C
;
_chemical_formula_sum "Si O2"
_cell_formula_units_Z 32
_cell_length_a 15.284905
_cell_length_b 9.588419
_cell_length_c 10.490479
_cell_angle_alpha 90.000000
_cell_angle_beta 65.789460
_cell_angle_gamma 90.000000
_cell_volume 1402.236239
_symmetry_space_group_name_H-M "C C"
_symmetry_group_IT_number 9
_symmetry_cell_setting 'monoclinic'
loop_
_space_group_symop_operation_xyz
x,y,z
x,-y,1/2+z
1/2+x,1/2+y,z
1/2+x,1/2-y,1/2+z
loop_
_atom_site_type_symbol
_atom_site_label
_atom_site_fract_x
_atom_site_fract_y
_atom_site_fract_z
Si Si1 0.239230 0.660125 0.889110
Si Si2 0.698441 0.147216 0.375746
Si Si3 0.837274 0.504543 0.180192
Si Si4 0.542675 0.334503 0.345378
Si Si5 0.347555 0.708259 0.081055
Si Si6 0.225795 0.082709 0.001202
Si Si7 0.434732 0.277408 0.157931
Si Si8 0.597819 0.405283 0.935369
O O1 0.184446 0.511554 0.931960
O O2 0.332784 0.649113 0.742779
O O3 0.169052 0.775174 0.869759
O O4 0.273398 0.709915 0.007591
O O5 0.607307 0.204185 0.352205
O O6 0.794268 0.140386 0.232298
O O7 0.714136 0.250915 0.485977
O O8 0.879057 0.364588 0.096784
O O9 0.789940 0.483068 0.347169
O O10 0.924125 0.612378 0.143786
O O11 0.764271 0.567963 0.119941
O O12 0.448355 0.364110 0.489072
O O13 0.511935 0.296460 0.223128
O O14 0.602569 0.480209 0.317355
O O15 0.126684 0.995167 0.045353
O O16 0.488648 0.347468 0.006305
#
# Coordination Sequence:
#
# PCOD8054980 Si02
#       8
#     4   4   4   4   4   4   4   4
#     4  11  22  42  62  96 126 175 212 274 324 391
#     4  10  23  39  66  96 131 167 221 273 328 382
#     4  11  21  43  69  99 127 180 221 268 328 395
#     4  10  23  42  62  97 129 170 217 271 330 388
#     4  10  21  41  66  87 137 166 218 266 331 386
#     4  10  22  41  71  96 130 176 221 269 325 395
#     4  11  24  38  69  89 131 171 219 269 326 392
#     4  11  22  40  65  96 125 173 215 270 324 393
#
# _framework density 22.820689000000002
#
# number of rings (size 3 to 8) (size 9 to 14) (size 15 to 20)
#    0.000    1.500    2.500    2.250    5.250    3.000 
#    0.000    0.000    0.000    0.000    0.000    0.000 
#    0.000    0.000    0.000    0.000    0.000    0.000 
#
# Total GULP energy -198285.918790 kJ/mol
# GULP energy per Si atom -12392.869924 kJ/mol
# Density = 2.276875 g / cm^3
# Si number density = 22.820689 Si / 1000 Ang^3
#
#
#
# Elastic Constant Matrix: (Units=GPa)
#
#
# Indices 1 2 3 4 5 6 
#
# 1 89.6995 56.5222 21.9485 0.0000 2.2564 0.0000
# 2 56.5222 180.1315 25.5914 0.0000 10.7510 0.0000
# 3 21.9485 25.5914 47.0604 0.0000 -2.6272 0.0000
# 4 0.0000 0.0000 0.0000 21.0000 0.0000 -5.7950
# 5 2.2564 10.7510 -2.6272 0.0000 27.7731 0.0000
# 6 0.0000 0.0000 0.0000 -5.7950 0.0000 41.9268
#
#
#
# Elastic Compliance Matrix: (Units=1/GPa)
#
#
# Indices 1 2 3 4 5 6 
#
# 1 0.014815 -0.003965 -0.004760 0.000000 -0.000119 0.000000
# 2 -0.003965 0.007278 -0.002260 0.000000 -0.002709 0.000000
# 3 -0.004760 -0.002260 0.024900 0.000000 0.003617 0.000000
# 4 0.000000 0.000000 0.000000 0.049507 0.000000 0.006843
# 5 -0.000119 -0.002709 0.003617 0.000000 0.037407 0.000000
# 6 0.000000 0.000000 0.000000 0.006843 0.000000 0.024797
#
#
# Mechanical properties :
#
#
# Convention : Reuss Voigt Hill
#
# Bulk Modulus (GPa) = 39.96271 58.33509 49.14890
# Shear Modulus (GPa) = 26.45293 32.32859 29.39076
#
# Velocity S-wave (km/s) = 3.40834 3.76790 3.59263
# Velocity P-wave (km/s) = 5.74793 6.67438 6.22840
#
# Compressibility (1/GPa) = 0.02502333
#
# Stress axis : x y z
#
# Youngs Moduli (GPa) = 67.50094 137.39106 40.16058
#
# Poissons Ratio (x) = 0.54479 0.19115
# Poissons Ratio (y) = 0.26766 0.09076
# Poissons Ratio (z) = 0.32129 0.31049
#
# Static dielectric constant tensor:
#      x y z
#    x 4.038710 0.000000 -0.119910 
#    y 0.000000 4.247460 0.000000 
#    z -0.119910 0.000000 3.911050 
# 
# 
# High freq. dielectric constant tensor:
#      x y z
#    x 1.893600 0.000000 -0.007200 
#    y 0.000000 1.912320 0.000000 
#    z -0.007200 0.000000 1.889360 
# 
# From -- ./inp_files/17911.got.cif
#   From: 2010.06.25/outbox.cif.g09.slc.cpg/sg9_9_cif.got.tgz:17911.got - 2010.06.27 21:40:51.
