data_PCOD8054281
_publ_section_title
;
Structure prediction by ZEFSAII (Michael W. Deem and Ramdas Pophale) SiO2 
 PCOD8054281
Probable space group: C C
;
_chemical_formula_sum "Si O2"
_cell_formula_units_Z 32
_cell_length_a 8.319590
_cell_length_b 11.821331
_cell_length_c 22.923842
_cell_angle_alpha 90.000000
_cell_angle_beta 135.768371
_cell_angle_gamma 90.000000
_cell_volume 1572.670521
_symmetry_space_group_name_H-M "C C"
_symmetry_group_IT_number 9
_symmetry_cell_setting 'monoclinic'
loop_
_space_group_symop_operation_xyz
x,y,z
x,-y,1/2+z
1/2+x,1/2+y,z
1/2+x,1/2-y,1/2+z
loop_
_atom_site_type_symbol
_atom_site_label
_atom_site_fract_x
_atom_site_fract_y
_atom_site_fract_z
Si Si1 0.556110 0.750405 0.856800
Si Si2 0.295229 0.904319 0.713242
Si Si3 0.977614 0.757202 0.568640
Si Si4 0.079877 0.639292 0.171012
Si Si5 0.291409 0.854756 0.172297
Si Si6 0.535486 0.367145 0.989707
Si Si7 0.110336 0.124139 0.988898
Si Si8 0.733912 0.103147 0.709083
O O1 0.383135 0.855379 0.798064
O O2 0.807890 0.799968 0.913583
O O3 0.529285 0.696032 0.912825
O O4 0.484259 0.650678 0.792783
O O5 0.461756 0.858454 0.703853
O O6 0.040396 0.854965 0.632729
O O7 0.289427 0.038969 0.715632
O O8 0.724174 0.710090 0.508509
O O9 0.984093 0.810274 0.507158
O O10 0.162099 0.654535 0.627178
O O11 0.241111 0.746517 0.199524
O O12 0.247619 0.531361 0.210235
O O13 0.885139 0.625990 0.070358
O O14 0.536270 0.850849 0.202908
O O15 0.085805 0.873675 0.071962
O O16 0.526259 0.494267 0.961509
#
# Coordination Sequence:
#
# PCOD8054281 Si02
#       8
#     4   4   4   4   4   4   4   4
#     4  11  24  40  64  93 130 160 202 265 322 348
#     4   9  20  40  59  88 128 162 198 261 308 361
#     4   9  18  40  64  85 120 166 206 241 304 378
#     4  10  18  38  68  88 115 169 216 239 302 387
#     4  10  18  38  68  88 115 169 216 239 302 387
#     4  11  21  39  64  94 123 163 206 258 310 368
#     4  11  21  39  64  94 123 163 206 258 310 368
#     4   9  20  40  59  88 128 162 198 261 308 361
#
# _framework density 20.347556000000001
#
# number of rings (size 3 to 8) (size 9 to 14) (size 15 to 20)
#    0.000    2.000    6.250    0.000    3.500    0.000 
#    2.250   20.000    0.000    0.000    0.000    0.000 
#    0.000    0.000    0.000    0.000    0.000    0.000 
#
# Total GULP energy -198243.660209 kJ/mol
# GULP energy per Si atom -12390.228763 kJ/mol
# Density = 2.030124 g / cm^3
# Si number density = 20.347556 Si / 1000 Ang^3
#
#
#
# Elastic Constant Matrix: (Units=GPa)
#
#
# Indices 1 2 3 4 5 6 
#
# 1 55.7235 70.5773 42.6230 0.0000 7.4301 0.0000
# 2 70.5773 197.5187 59.5219 0.0000 11.1197 0.0000
# 3 42.6230 59.5219 122.1563 0.0000 20.3521 0.0000
# 4 0.0000 0.0000 0.0000 11.4512 0.0000 -4.1994
# 5 7.4301 11.1197 20.3521 0.0000 4.5238 0.0000
# 6 0.0000 0.0000 0.0000 -4.1994 0.0000 39.1562
#
#
#
# Elastic Compliance Matrix: (Units=1/GPa)
#
#
# Indices 1 2 3 4 5 6 
#
# 1 0.038272 -0.011319 -0.007990 0.000000 0.000910 0.000000
# 2 -0.011319 0.009327 0.000507 0.000000 -0.006618 0.000000
# 3 -0.007990 0.000507 0.034930 0.000000 -0.145270 0.000000
# 4 0.000000 0.000000 0.000000 0.090902 0.000000 0.009749
# 5 0.000910 -0.006618 -0.145270 0.000000 0.889381 0.000000
# 6 0.000000 0.000000 0.000000 0.009749 0.000000 0.026584
#
#
# Mechanical properties :
#
#
# Convention : Reuss Voigt Hill
#
# Bulk Modulus (GPa) = 22.25910 80.09368 51.17639
# Shear Modulus (GPa) = 4.37838 24.53800 14.45819
#
# Velocity S-wave (km/s) = 1.46849 3.47644 2.66853
# Velocity P-wave (km/s) = 3.72001 7.45402 5.89071
#
# Compressibility (1/GPa) = 0.04492545
#
# Stress axis : x y z
#
# Youngs Moduli (GPa) = 26.12856 107.21660 28.62860
#
# Poissons Ratio (x) = 1.21356 0.22876
# Poissons Ratio (y) = 0.29574 -0.01452
# Poissons Ratio (z) = 0.20878 -0.05439
#
# Static dielectric constant tensor:
#      x y z
#    x 3.402490 0.000000 0.067870 
#    y 0.000000 3.952640 0.000000 
#    z 0.067870 0.000000 3.751250 
# 
# 
# High freq. dielectric constant tensor:
#      x y z
#    x 1.756090 0.000000 0.007120 
#    y 0.000000 1.813010 0.000000 
#    z 0.007120 0.000000 1.790670 
# 
# From -- ./inp_files/32599.got.cif
#   From: 2010.06.25/outbox.cif.g09.slc.cpg/sg9_17_cif.got.tgz:32599.got - 2010.06.27 21:40:51.
