data_PCOD8054417
_publ_section_title
;
Structure prediction by ZEFSAII (Michael W. Deem and Ramdas Pophale) SiO2 
 PCOD8054417
Probable space group: C C
;
_chemical_formula_sum "Si O2"
_cell_formula_units_Z 28
_cell_length_a 16.177786
_cell_length_b 9.096910
_cell_length_c 11.374480
_cell_angle_alpha 90.000000
_cell_angle_beta 121.044261
_cell_angle_gamma 90.000000
_cell_volume 1434.195549
_symmetry_space_group_name_H-M "C C"
_symmetry_group_IT_number 9
_symmetry_cell_setting 'monoclinic'
loop_
_space_group_symop_operation_xyz
x,y,z
x,-y,1/2+z
1/2+x,1/2+y,z
1/2+x,1/2-y,1/2+z
loop_
_atom_site_type_symbol
_atom_site_label
_atom_site_fract_x
_atom_site_fract_y
_atom_site_fract_z
Si Si1 0.420860 0.221918 0.877450
Si Si2 0.686049 0.767202 0.219092
Si Si3 0.992035 0.376649 0.185439
Si Si4 0.759522 0.074121 0.310273
Si Si5 0.702389 0.280896 0.458956
Si Si6 0.064291 0.313148 0.680934
Si Si7 0.312939 0.971381 0.926664
O O1 0.482358 0.193318 0.806615
O O2 0.350391 0.361217 0.805257
O O3 0.360341 0.075734 0.862763
O O4 0.492768 0.264147 0.037126
O O5 0.577613 0.789828 0.184443
O O6 0.679748 0.755205 0.075150
O O7 0.728137 0.618791 0.303245
O O8 0.759293 0.897805 0.310707
O O9 0.013718 0.550098 0.209860
O O10 0.891921 0.361084 0.040119
O O11 0.761337 0.142586 0.444593
O O12 0.657981 0.126998 0.176605
O O13 0.601588 0.298282 0.310529
O O14 0.765241 0.428991 0.494076
#
# Coordination Sequence:
#
# PCOD8054417 Si02
#       7
#     4   4   4   4   4   4   4
#     4  10  19  39  61  87 120 161 204 246 302 371
#     4  11  22  41  62  91 124 158 201 259 301 360
#     4  10  22  35  62  90 119 158 206 248 306 365
#     4   8  20  36  59  91 115 160 199 244 304 353
#     4   9  20  41  60  88 121 160 202 249 298 363
#     4   8  19  34  60  87 114 163 199 242 300 357
#     4  10  22  40  60  88 117 168 207 244 309 355
#
# _framework density 19.523139
#
# number of rings (size 3 to 8) (size 9 to 14) (size 15 to 20)
#    0.857    1.714    0.000    0.857    6.000    2.286 
#    5.143    0.000    0.000    0.000    0.000    0.000 
#    0.000    0.000    0.000    0.000    0.000    0.000 
#
# Total GULP energy -173498.392027 kJ/mol
# GULP energy per Si atom -12392.742288 kJ/mol
# Density = 1.947870 g / cm^3
# Si number density = 19.523139 Si / 1000 Ang^3
#
#
#
# Elastic Constant Matrix: (Units=GPa)
#
#
# Indices 1 2 3 4 5 6 
#
# 1 127.6663 44.6174 62.3102 0.0000 -11.4554 0.0000
# 2 44.6174 68.0970 44.4200 0.0000 -3.7082 0.0000
# 3 62.3102 44.4200 104.9459 0.0000 -1.8482 0.0000
# 4 0.0000 0.0000 0.0000 24.9314 0.0000 9.1253
# 5 -11.4554 -3.7082 -1.8482 0.0000 33.8513 0.0000
# 6 0.0000 0.0000 0.0000 9.1253 0.0000 26.8855
#
#
#
# Elastic Compliance Matrix: (Units=1/GPa)
#
#
# Indices 1 2 3 4 5 6 
#
# 1 0.012291 -0.004348 -0.005398 0.000000 0.003388 0.000000
# 2 -0.004348 0.021928 -0.006690 0.000000 0.000566 0.000000
# 3 -0.005398 -0.006690 0.015535 0.000000 -0.001711 0.000000
# 4 0.000000 0.000000 0.000000 0.045800 0.000000 -0.015545
# 5 0.003388 0.000566 -0.001711 0.000000 0.030656 0.000000
# 6 0.000000 0.000000 0.000000 -0.015545 0.000000 0.042471
#
#
# Mechanical properties :
#
#
# Convention : Reuss Voigt Hill
#
# Bulk Modulus (GPa) = 59.22996 67.04492 63.13744
# Shear Modulus (GPa) = 24.13364 27.09109 25.61236
#
# Velocity S-wave (km/s) = 3.51971 3.72915 3.62594
# Velocity P-wave (km/s) = 6.84997 7.27721 7.06682
#
# Compressibility (1/GPa) = 0.01688335
#
# Stress axis : x y z
#
# Youngs Moduli (GPa) = 81.36182 45.60309 64.37026
#
# Poissons Ratio (x) = 0.19826 0.34745
# Poissons Ratio (y) = 0.35372 0.43065
# Poissons Ratio (z) = 0.43916 0.30510
#
# Static dielectric constant tensor:
#      x y z
#    x 3.542550 0.000000 0.205010 
#    y 0.000000 3.314210 0.000000 
#    z 0.205010 0.000000 3.385970 
# 
# 
# High freq. dielectric constant tensor:
#      x y z
#    x 1.759820 0.000000 0.012230 
#    y 0.000000 1.737380 0.000000 
#    z 0.012230 0.000000 1.749760 
# 
# From -- ./inp_files/17967.got.cif
#   From: 2010.06.25/outbox.cif.g09.slc.cpg/sg9_9_cif.got.tgz:17967.got - 2010.06.27 21:40:51.
