data_PCOD8054898
_publ_section_title
;
Structure prediction by ZEFSAII (Michael W. Deem and Ramdas Pophale) SiO2 
 PCOD8054898
Probable space group: C C
;
_chemical_formula_sum "Si O2"
_cell_formula_units_Z 28
_cell_length_a 17.890763
_cell_length_b 7.296890
_cell_length_c 18.364336
_cell_angle_alpha 90.000000
_cell_angle_beta 150.033190
_cell_angle_gamma 90.000000
_cell_volume 1197.500939
_symmetry_space_group_name_H-M "C C"
_symmetry_group_IT_number 9
_symmetry_cell_setting 'monoclinic'
loop_
_space_group_symop_operation_xyz
x,y,z
x,-y,1/2+z
1/2+x,1/2+y,z
1/2+x,1/2-y,1/2+z
loop_
_atom_site_type_symbol
_atom_site_label
_atom_site_fract_x
_atom_site_fract_y
_atom_site_fract_z
Si Si1 0.625000 0.011343 0.086300
Si Si2 0.204191 0.330596 0.014021
Si Si3 0.999339 0.463338 0.626349
Si Si4 0.197396 0.122194 0.803774
Si Si5 0.984544 0.614240 0.766825
Si Si6 0.029580 0.975649 0.288639
Si Si7 0.833524 0.337289 0.275282
O O1 0.571693 0.925185 0.118856
O O2 0.779243 0.126792 0.222890
O O3 0.653166 0.842622 0.055452
O O4 0.500087 0.153497 0.950221
O O5 0.383410 0.346290 0.159736
O O6 0.134095 0.502847 0.911509
O O7 0.153184 0.136628 0.938806
O O8 0.123747 0.319312 0.755574
O O9 0.947975 0.590849 0.650622
O O10 0.856248 0.355100 0.476808
O O11 0.094012 0.980283 0.761520
O O12 0.218197 0.066129 0.735989
O O13 0.847060 0.561224 0.706926
O O14 0.004853 0.828396 0.804304
#
# Coordination Sequence:
#
# PCOD8054898 Si02
#       7
#     4   4   4   4   4   4   4
#     4   9  19  41  65  97 136 173 219 280 328 402
#     4  11  25  44  67 103 138 176 226 277 338 393
#     4  10  21  40  70  96 139 172 227 273 336 397
#     4  10  21  39  68  97 132 180 215 275 334 397
#     4  11  24  41  73  99 130 176 228 277 327 403
#     4  12  25  42  72  98 135 180 222 279 333 399
#     4   9  19  39  67  94 132 173 219 267 336 391
#
# _framework density 23.382027999999998
#
# number of rings (size 3 to 8) (size 9 to 14) (size 15 to 20)
#    0.000    1.714    2.857    0.857    2.000    0.000 
#    2.571    4.286   12.571    0.000    0.000    0.000 
#    0.000    0.000    0.000    0.000    0.000    0.000 
#
# Total GULP energy -173444.428083 kJ/mol
# GULP energy per Si atom -12388.887720 kJ/mol
# Density = 2.332881 g / cm^3
# Si number density = 23.382028 Si / 1000 Ang^3
#
#
#
# Elastic Constant Matrix: (Units=GPa)
#
#
# Indices 1 2 3 4 5 6 
#
# 1 241.1572 29.7537 48.4592 0.0000 -19.2208 0.0000
# 2 29.7537 44.9596 21.5972 0.0000 -2.0584 0.0000
# 3 48.4592 21.5972 65.6005 0.0000 0.1638 0.0000
# 4 0.0000 0.0000 0.0000 21.4309 0.0000 -0.1177
# 5 -19.2208 -2.0584 0.1638 0.0000 35.5411 0.0000
# 6 0.0000 0.0000 0.0000 -0.1177 0.0000 27.9799
#
#
#
# Elastic Compliance Matrix: (Units=1/GPa)
#
#
# Indices 1 2 3 4 5 6 
#
# 1 0.005247 -0.001759 -0.003303 0.000000 0.002751 0.000000
# 2 -0.001759 0.027098 -0.007623 0.000000 0.000653 0.000000
# 3 -0.003303 -0.007623 0.020200 0.000000 -0.002321 0.000000
# 4 0.000000 0.000000 0.000000 0.046663 0.000000 0.000196
# 5 0.002751 0.000653 -0.002321 0.000000 0.029673 0.000000
# 6 0.000000 0.000000 0.000000 0.000196 0.000000 0.035741
#
#
# Mechanical properties :
#
#
# Convention : Reuss Voigt Hill
#
# Bulk Modulus (GPa) = 36.80206 61.25972 49.03089
# Shear Modulus (GPa) = 25.11921 33.78421 29.45171
#
# Velocity S-wave (km/s) = 3.28120 3.80528 3.55292
# Velocity P-wave (km/s) = 5.48896 6.75006 6.15191
#
# Compressibility (1/GPa) = 0.02717239
#
# Stress axis : x y z
#
# Youngs Moduli (GPa) = 190.59219 36.90241 49.50588
#
# Poissons Ratio (x) = 0.06493 0.16354
# Poissons Ratio (y) = 0.33534 0.37740
# Poissons Ratio (z) = 0.62961 0.28132
#
# Static dielectric constant tensor:
#      x y z
#    x 5.126710 0.000000 -0.126510 
#    y 0.000000 3.557670 0.000000 
#    z -0.126510 0.000000 4.099840 
# 
# 
# High freq. dielectric constant tensor:
#      x y z
#    x 1.969500 0.000000 -0.001660 
#    y 0.000000 1.868100 0.000000 
#    z -0.001660 0.000000 1.916780 
# 
# From -- ./inp_files/30958.got.cif
#   From: 2010.06.25/outbox.cif.g09.slc.cpg/sg9_16_cif.got.tgz:30958.got - 2010.06.27 21:40:51.
