data_PCOD8054407
_publ_section_title
;
Structure prediction by ZEFSAII (Michael W. Deem and Ramdas Pophale) SiO2 
 PCOD8054407
Probable space group: C C
;
_chemical_formula_sum "Si O2"
_cell_formula_units_Z 28
_cell_length_a 7.719589
_cell_length_b 16.298998
_cell_length_c 10.058520
_cell_angle_alpha 90.000000
_cell_angle_beta 67.935555
_cell_angle_gamma 90.000000
_cell_volume 1172.890177
_symmetry_space_group_name_H-M "C C"
_symmetry_group_IT_number 9
_symmetry_cell_setting 'monoclinic'
loop_
_space_group_symop_operation_xyz
x,y,z
x,-y,1/2+z
1/2+x,1/2+y,z
1/2+x,1/2-y,1/2+z
loop_
_atom_site_type_symbol
_atom_site_label
_atom_site_fract_x
_atom_site_fract_y
_atom_site_fract_z
Si Si1 0.178180 0.816429 0.947980
Si Si2 0.705598 0.497999 0.992703
Si Si3 0.368501 0.314762 0.235817
Si Si4 0.087398 0.458769 0.009154
Si Si5 0.670866 0.667531 0.877605
Si Si6 0.964037 0.287060 0.099738
Si Si7 0.793613 0.008698 0.700116
O O1 0.224950 0.760172 0.806180
O O2 0.190927 0.913678 0.910802
O O3 0.331419 0.794992 0.012171
O O4 0.975645 0.794027 0.067080
O O5 0.735754 0.574179 0.885053
O O6 0.878438 0.493205 0.045706
O O7 0.514630 0.509184 0.130558
O O8 0.513424 0.333096 0.311032
O O9 0.249481 0.397418 0.252905
O O10 0.201824 0.452338 0.838946
O O11 0.195469 0.514395 0.087360
O O12 0.090512 0.367853 0.069105
O O13 0.846263 0.720140 0.770230
O O14 0.595797 0.707915 0.036500
#
# Coordination Sequence:
#
# PCOD8054407 Si02
#       7
#     4   4   4   4   4   4   4
#     4   8  17  36  62  91 131 178 221 278 351 402
#     4  10  22  42  69 100 139 183 232 292 349 414
#     4   9  18  38  63  98 134 177 226 285 343 419
#     4  11  24  44  68 101 140 179 237 291 350 418
#     4  10  19  38  68  96 139 187 229 288 352 415
#     4   9  20  36  62  94 136 177 229 284 347 415
#     4  11  24  42  72 100 135 185 234 290 350 423
#
# _framework density 23.872654000000001
#
# number of rings (size 3 to 8) (size 9 to 14) (size 15 to 20)
#    0.000    2.286    0.000    2.571    2.000    1.143 
#   12.857    5.714    9.429    0.000    0.000    0.000 
#    0.000    0.000    0.000    0.000    0.000    0.000 
#
# Total GULP energy -173557.415009 kJ/mol
# GULP energy per Si atom -12396.958215 kJ/mol
# Density = 2.381832 g / cm^3
# Si number density = 23.872654 Si / 1000 Ang^3
#
#
#
# Elastic Constant Matrix: (Units=GPa)
#
#
# Indices 1 2 3 4 5 6 
#
# 1 93.0475 15.2232 31.8023 0.0000 -11.2656 0.0000
# 2 15.2232 112.4659 53.9185 0.0000 -15.3344 0.0000
# 3 31.8023 53.9185 125.0184 0.0000 -19.4524 0.0000
# 4 0.0000 0.0000 0.0000 46.4150 0.0000 -6.9191
# 5 -11.2656 -15.3344 -19.4524 0.0000 25.4204 0.0000
# 6 0.0000 0.0000 0.0000 -6.9191 0.0000 21.7554
#
#
#
# Elastic Compliance Matrix: (Units=1/GPa)
#
#
# Indices 1 2 3 4 5 6 
#
# 1 0.012023 0.000062 -0.002555 0.000000 0.003411 0.000000
# 2 0.000062 0.011487 -0.004413 0.000000 0.003580 0.000000
# 3 -0.002555 -0.004413 0.011308 0.000000 0.004859 0.000000
# 4 0.000000 0.000000 0.000000 0.022617 0.000000 0.007193
# 5 0.003411 0.003580 0.004859 0.000000 0.046728 0.000000
# 6 0.000000 0.000000 0.000000 0.007193 0.000000 0.048253
#
#
# Mechanical properties :
#
#
# Convention : Reuss Voigt Hill
#
# Bulk Modulus (GPa) = 47.60178 59.15775 53.37977
# Shear Modulus (GPa) = 28.86349 34.02402 31.44376
#
# Velocity S-wave (km/s) = 3.48093 3.77932 3.63319
# Velocity P-wave (km/s) = 6.01157 6.62410 6.32525
#
# Compressibility (1/GPa) = 0.02100762
#
# Stress axis : x y z
#
# Youngs Moduli (GPa) = 83.17319 87.05551 88.43334
#
# Poissons Ratio (x) = -0.00543 0.22591
# Poissons Ratio (y) = -0.00519 0.39025
# Poissons Ratio (z) = 0.21247 0.38417
#
# Static dielectric constant tensor:
#      x y z
#    x 4.216050 0.000000 -0.203980 
#    y 0.000000 4.355760 0.000000 
#    z -0.203980 0.000000 4.456540 
# 
# 
# High freq. dielectric constant tensor:
#      x y z
#    x 1.946990 0.000000 -0.013280 
#    y 0.000000 1.930230 0.000000 
#    z -0.013280 0.000000 1.941770 
# 
# From -- ./inp_files/14528.got.cif
#   From: 2010.06.25/outbox.cif.g09.slc.cpg/sg9_8_cif.got.tgz:14528.got - 2010.06.27 21:40:51.
