data_PCOD8054432
_publ_section_title
;
Structure prediction by ZEFSAII (Michael W. Deem and Ramdas Pophale) SiO2 
 PCOD8054432
Probable space group: C C
;
_chemical_formula_sum "Si O2"
_cell_formula_units_Z 32
_cell_length_a 10.954916
_cell_length_b 10.240636
_cell_length_c 14.242987
_cell_angle_alpha 90.000000
_cell_angle_beta 116.637370
_cell_angle_gamma 90.000000
_cell_volume 1428.260865
_symmetry_space_group_name_H-M "C C"
_symmetry_group_IT_number 9
_symmetry_cell_setting 'monoclinic'
loop_
_space_group_symop_operation_xyz
x,y,z
x,-y,1/2+z
1/2+x,1/2+y,z
1/2+x,1/2-y,1/2+z
loop_
_atom_site_type_symbol
_atom_site_label
_atom_site_fract_x
_atom_site_fract_y
_atom_site_fract_z
Si Si1 0.828900 0.482111 0.231950
Si Si2 0.005201 0.961475 0.865516
Si Si3 0.835050 0.274163 0.394998
Si Si4 0.843789 0.892913 0.446248
Si Si5 0.115057 0.419153 0.809972
Si Si6 0.255172 0.167817 0.533446
Si Si7 0.563445 0.202431 0.107184
Si Si8 0.036472 0.988584 0.162877
O O1 0.813496 0.390757 0.316657
O O2 0.854129 0.400781 0.143759
O O3 0.680824 0.554891 0.177868
O O4 0.957694 0.577673 0.290934
O O5 0.917509 0.840824 0.872599
O O6 0.996240 0.963458 0.751347
O O7 0.160588 0.943369 0.953876
O O8 0.940423 0.093777 0.887593
O O9 0.690142 0.210469 0.376796
O O10 0.914035 0.329704 0.513316
O O11 0.835299 0.742442 0.477438
O O12 0.692803 0.949545 0.370267
O O13 0.912705 0.977569 0.552010
O O14 0.113494 0.411213 0.694796
O O15 0.168051 0.279897 0.557014
O O16 0.557155 0.333564 0.166860
#
# Coordination Sequence:
#
# PCOD8054432 Si02
#       8
#     4   4   4   4   4   4   4   4
#     4  11  22  40  65  96 133 176 220 279 339 397
#     4  10  21  39  64  93 127 172 222 268 333 400
#     4  10  19  40  64  94 127 168 221 274 334 398
#     4  11  22  40  69  97 126 176 229 271 338 409
#     4  11  21  37  67 100 124 169 237 269 328 416
#     4  10  20  41  66  91 132 174 219 275 340 398
#     4  10  20  40  65  93 129 178 217 277 341 395
#     4  11  21  39  66  88 134 181 213 277 345 389
#
# _framework density 22.404869999999999
#
# number of rings (size 3 to 8) (size 9 to 14) (size 15 to 20)
#    0.000    1.500    7.500    2.250    1.750    1.000 
#    2.250    0.000    0.000    0.000    0.000    0.000 
#    0.000    0.000    0.000    0.000    0.000    0.000 
#
# Total GULP energy -198303.342563 kJ/mol
# GULP energy per Si atom -12393.958910 kJ/mol
# Density = 2.235388 g / cm^3
# Si number density = 22.404870 Si / 1000 Ang^3
#
#
#
# Elastic Constant Matrix: (Units=GPa)
#
#
# Indices 1 2 3 4 5 6 
#
# 1 92.4018 26.3845 43.8083 0.0000 13.1952 0.0000
# 2 26.3845 27.2567 15.2807 0.0000 5.5978 0.0000
# 3 43.8083 15.2807 139.0320 0.0000 18.9780 0.0000
# 4 0.0000 0.0000 0.0000 29.6275 0.0000 4.6361
# 5 13.1952 5.5978 18.9780 0.0000 35.6785 0.0000
# 6 0.0000 0.0000 0.0000 4.6361 0.0000 27.8731
#
#
#
# Elastic Compliance Matrix: (Units=1/GPa)
#
#
# Indices 1 2 3 4 5 6 
#
# 1 0.016708 -0.013790 -0.003451 0.000000 -0.002180 0.000000
# 2 -0.013790 0.051058 -0.000937 0.000000 -0.002412 0.000000
# 3 -0.003451 -0.000937 0.008830 0.000000 -0.003273 0.000000
# 4 0.000000 0.000000 0.000000 0.034654 0.000000 -0.005764
# 5 -0.002180 -0.002412 -0.003273 0.000000 0.030954 0.000000
# 6 0.000000 0.000000 0.000000 -0.005764 0.000000 0.036836
#
#
# Mechanical properties :
#
#
# Convention : Reuss Voigt Hill
#
# Bulk Modulus (GPa) = 24.85219 47.73749 36.29484
# Shear Modulus (GPa) = 21.85223 30.18363 26.01793
#
# Velocity S-wave (km/s) = 3.12642 3.67439 3.41143
# Velocity P-wave (km/s) = 4.91417 6.27332 5.63487
#
# Compressibility (1/GPa) = 0.04023790
#
# Stress axis : x y z
#
# Youngs Moduli (GPa) = 59.85311 19.58550 113.25190
#
# Poissons Ratio (x) = 0.27009 0.39086
# Poissons Ratio (y) = 0.82540 0.10613
# Poissons Ratio (z) = 0.20657 0.01835
#
# Static dielectric constant tensor:
#      x y z
#    x 4.222070 0.000000 0.319010 
#    y 0.000000 3.635920 0.000000 
#    z 0.319010 0.000000 4.381630 
# 
# 
# High freq. dielectric constant tensor:
#      x y z
#    x 1.869180 0.000000 0.017550 
#    y 0.000000 1.837720 0.000000 
#    z 0.017550 0.000000 1.908300 
# 
# From -- ./inp_files/24671.got.cif
#   From: 2010.06.25/outbox.cif.g09.slc.cpg/sg9_13_cif.got.tgz:24671.got - 2010.06.27 21:40:51.
