data_PCOD8054775
_publ_section_title
;
Structure prediction by ZEFSAII (Michael W. Deem and Ramdas Pophale) SiO2 
 PCOD8054775
Probable space group: C C
;
_chemical_formula_sum "Si O2"
_cell_formula_units_Z 32
_cell_length_a 12.549751
_cell_length_b 13.250297
_cell_length_c 17.314894
_cell_angle_alpha 90.000000
_cell_angle_beta 32.521186
_cell_angle_gamma 90.000000
_cell_volume 1547.921925
_symmetry_space_group_name_H-M "C C"
_symmetry_group_IT_number 9
_symmetry_cell_setting 'monoclinic'
loop_
_space_group_symop_operation_xyz
x,y,z
x,-y,1/2+z
1/2+x,1/2+y,z
1/2+x,1/2-y,1/2+z
loop_
_atom_site_type_symbol
_atom_site_label
_atom_site_fract_x
_atom_site_fract_y
_atom_site_fract_z
Si Si1 0.372910 0.145613 0.692360
Si Si2 0.433722 0.453111 0.690217
Si Si3 0.489428 0.549945 0.896388
Si Si4 0.816662 0.648381 0.903231
Si Si5 0.317912 0.628379 0.421146
Si Si6 0.617447 0.384237 0.160568
Si Si7 0.722503 0.808630 0.658762
Si Si8 0.007967 0.465669 0.872083
O O1 0.374562 0.177277 0.780763
O O2 0.589866 0.105897 0.538354
O O3 0.306642 0.241775 0.679844
O O4 0.223362 0.050843 0.773952
O O5 0.588774 0.390245 0.543526
O O6 0.441473 0.401169 0.769526
O O7 0.513004 0.568674 0.649214
O O8 0.220573 0.463214 0.783109
O O9 0.395692 0.437944 0.946676
O O10 0.472560 0.601208 0.822455
O O11 0.384245 0.614062 0.027363
O O12 0.840180 0.755022 0.933200
O O13 0.966761 0.568975 0.850936
O O14 0.658462 0.265166 0.127881
O O15 0.831028 0.442094 0.040371
O O16 0.526054 0.871561 0.801837
#
# Coordination Sequence:
#
# PCOD8054775 Si02
#       8
#     4   4   4   4   4   4   4   4
#     4  11  21  36  59  85 113 149 191 237 286 335
#     4  10  21  37  57  80 113 152 189 231 287 343
#     4  10  21  35  56  86 112 142 190 238 282 337
#     4  11  23  37  57  86 116 151 192 234 285 343
#     4  11  21  37  58  83 114 149 190 236 283 342
#     4   9  20  35  55  82 112 145 187 234 285 338
#     4  11  20  35  59  84 111 147 192 242 284 333
#     4  11  21  36  57  84 115 149 189 238 284 337
#
# _framework density 20.672878000000001
#
# number of rings (size 3 to 8) (size 9 to 14) (size 15 to 20)
#    0.000    1.500    0.000    7.500    0.000    0.000 
#    0.000    2.500    0.000   12.000    0.000    0.000 
#    0.000    0.000    0.000    0.000    0.000    0.000 
#
# Total GULP energy -198246.155181 kJ/mol
# GULP energy per Si atom -12390.384699 kJ/mol
# Density = 2.062583 g / cm^3
# Si number density = 20.672878 Si / 1000 Ang^3
#
#
#
# Elastic Constant Matrix: (Units=GPa)
#
#
# Indices 1 2 3 4 5 6 
#
# 1 57.4582 65.6691 22.8785 0.0021 -7.6640 0.0000
# 2 65.6691 155.3147 36.4967 0.0052 -12.6985 -0.0004
# 3 22.8785 36.4967 91.4755 0.0124 -1.2135 0.0000
# 4 0.0021 0.0052 0.0124 28.7375 -0.0003 -0.0733
# 5 -7.6640 -12.6985 -1.2135 -0.0003 35.6001 -0.0011
# 6 0.0000 -0.0004 0.0000 -0.0733 -0.0011 37.4177
#
#
#
# Elastic Compliance Matrix: (Units=1/GPa)
#
#
# Indices 1 2 3 4 5 6 
#
# 1 0.034663 -0.013711 -0.003167 0.000001 0.002464 0.000000
# 2 -0.013711 0.012746 -0.001636 -0.000001 0.001539 0.000000
# 3 -0.003167 -0.001636 0.012365 -0.000005 -0.000844 0.000000
# 4 0.000001 -0.000001 -0.000005 0.034798 0.000000 0.000068
# 5 0.002464 0.001539 -0.000844 0.000000 0.029140 0.000001
# 6 0.000000 0.000000 0.000000 0.000068 0.000001 0.026725
#
#
# Mechanical properties :
#
#
# Convention : Reuss Voigt Hill
#
# Bulk Modulus (GPa) = 43.95885 61.59299 52.77592
# Shear Modulus (GPa) = 25.63490 32.29801 28.96645
#
# Velocity S-wave (km/s) = 3.52522 3.95693 3.74730
# Velocity P-wave (km/s) = 6.15465 7.12286 6.65639
#
# Compressibility (1/GPa) = 0.02274855
#
# Stress axis : x y z
#
# Youngs Moduli (GPa) = 28.84903 78.45758 80.87143
#
# Poissons Ratio (x) = 1.07569 0.25608
# Poissons Ratio (y) = 0.39554 0.13229
# Poissons Ratio (z) = 0.09135 0.12834
#
# Static dielectric constant tensor:
#      x y z
#    x 3.567410 0.000000 0.038730 
#    y 0.000000 4.030210 0.000000 
#    z 0.038730 0.000000 4.012060 
# 
# 
# High freq. dielectric constant tensor:
#      x y z
#    x 1.777020 0.000000 0.005530 
#    y 0.000000 1.803810 0.000000 
#    z 0.005530 0.000000 1.830070 
# 
# From -- ./inp_files/33770.got.cif
#   From: 2010.06.25/outbox.cif.g09.slc.cpg/sg9_17_cif.got.tgz:33770.got - 2010.06.27 21:40:51.
