data_PCOD8054881
_publ_section_title
;
Structure prediction by ZEFSAII (Michael W. Deem and Ramdas Pophale) SiO2 
 PCOD8054881
Probable space group: C C
;
_chemical_formula_sum "Si O2"
_cell_formula_units_Z 28
_cell_length_a 12.265496
_cell_length_b 8.882403
_cell_length_c 14.875094
_cell_angle_alpha 90.000000
_cell_angle_beta 65.651781
_cell_angle_gamma 90.000000
_cell_volume 1476.456585
_symmetry_space_group_name_H-M "C C"
_symmetry_group_IT_number 9
_symmetry_cell_setting 'monoclinic'
loop_
_space_group_symop_operation_xyz
x,y,z
x,-y,1/2+z
1/2+x,1/2+y,z
1/2+x,1/2-y,1/2+z
loop_
_atom_site_type_symbol
_atom_site_label
_atom_site_fract_x
_atom_site_fract_y
_atom_site_fract_z
Si Si1 0.273690 0.588489 0.645580
Si Si2 0.576601 0.124930 0.285144
Si Si3 0.077450 0.800730 0.645461
Si Si4 0.462545 0.400579 0.236421
Si Si5 0.634101 0.661397 0.924586
Si Si6 0.413788 0.150724 0.833651
Si Si7 0.437576 0.550557 0.424724
O O1 0.193086 0.450447 0.703838
O O2 0.196611 0.738520 0.653397
O O3 0.367577 0.628219 0.690778
O O4 0.337474 0.530104 0.534061
O O5 0.530407 0.244620 0.228206
O O6 0.611352 0.200412 0.366651
O O7 0.473483 0.005162 0.341923
O O8 0.086781 0.780400 0.536103
O O9 0.962059 0.706581 0.719790
O O10 0.062202 0.976209 0.674633
O O11 0.396713 0.456337 0.350297
O O12 0.773207 0.621705 0.878959
O O13 0.564709 0.511422 0.916869
O O14 0.451309 0.273926 0.895656
#
# Coordination Sequence:
#
# PCOD8054881 Si02
#       7
#     4   4   4   4   4   4   4
#     4  11  21  41  63  91 127 166 205 260 307 370
#     4  10  24  40  62  94 120 162 214 250 312 370
#     4  10  21  39  65  89 124 170 205 252 323 357
#     4  10  22  42  59  93 126 159 209 259 304 376
#     4  11  21  41  63  91 127 166 205 260 307 370
#     4  10  22  42  59  93 126 159 209 259 304 376
#     4  10  21  39  65  89 124 170 205 252 323 357
#
# _framework density 18.964323
#
# number of rings (size 3 to 8) (size 9 to 14) (size 15 to 20)
#    0.000    1.714    2.857    1.714    0.000    4.571 
#   10.286    2.857    0.000    0.000    0.000    0.000 
#    0.000    0.000    0.000    0.000    0.000    0.000 
#
# Total GULP energy -173630.010852 kJ/mol
# GULP energy per Si atom -12402.143632 kJ/mol
# Density = 1.892116 g / cm^3
# Si number density = 18.964323 Si / 1000 Ang^3
#
#
#
# Elastic Constant Matrix: (Units=GPa)
#
#
# Indices 1 2 3 4 5 6 
#
# 1 121.1040 70.2132 70.3551 0.0000 1.0679 0.0000
# 2 70.2132 134.5924 46.5362 0.0000 -1.3191 0.0000
# 3 70.3551 46.5362 150.3529 0.0000 0.6198 0.0000
# 4 0.0000 0.0000 0.0000 20.8029 0.0000 -0.6523
# 5 1.0679 -1.3191 0.6198 0.0000 35.2034 0.0000
# 6 0.0000 0.0000 0.0000 -0.6523 0.0000 32.3507
#
#
#
# Elastic Compliance Matrix: (Units=1/GPa)
#
#
# Indices 1 2 3 4 5 6 
#
# 1 0.014576 -0.005881 -0.004998 0.000000 -0.000575 0.000000
# 2 -0.005881 0.010698 -0.000561 0.000000 0.000589 0.000000
# 3 -0.004998 -0.000561 0.009164 0.000000 -0.000031 0.000000
# 4 0.000000 0.000000 0.000000 0.048101 0.000000 0.000970
# 5 -0.000575 0.000589 -0.000031 0.000000 0.028446 0.000000
# 6 0.000000 0.000000 0.000000 0.000970 0.000000 0.030931
#
#
# Mechanical properties :
#
#
# Convention : Reuss Voigt Hill
#
# Bulk Modulus (GPa) = 86.53529 86.69537 86.61533
# Shear Modulus (GPa) = 29.64749 32.26771 30.95760
#
# Velocity S-wave (km/s) = 3.95819 4.12939 4.04470
# Velocity P-wave (km/s) = 8.16206 8.27950 8.22099
#
# Compressibility (1/GPa) = 0.01155598
#
# Stress axis : x y z
#
# Youngs Moduli (GPa) = 68.60717 93.47620 109.12824
#
# Poissons Ratio (x) = 0.54977 0.54539
# Poissons Ratio (y) = 0.40351 0.06127
# Poissons Ratio (z) = 0.34288 0.05248
#
# Static dielectric constant tensor:
#      x y z
#    x 3.526490 0.000000 0.010330 
#    y 0.000000 3.524140 0.000000 
#    z 0.010330 0.000000 3.718010 
# 
# 
# High freq. dielectric constant tensor:
#      x y z
#    x 1.735390 0.000000 0.000830 
#    y 0.000000 1.737870 0.000000 
#    z 0.000830 0.000000 1.749760 
# 
# From -- ./inp_files/24016.got.cif
#   From: 2010.06.25/outbox.cif.g09.slc.cpg/sg9_13_cif.got.tgz:24016.got - 2010.06.27 21:40:51.
