data_PCOD8054235
_publ_section_title
;
Structure prediction by ZEFSAII (Michael W. Deem and Ramdas Pophale) SiO2 
 PCOD8054235
Probable space group: C C
;
_chemical_formula_sum "Si O2"
_cell_formula_units_Z 28
_cell_length_a 23.864389
_cell_length_b 9.303103
_cell_length_c 18.198142
_cell_angle_alpha 90.000000
_cell_angle_beta 23.768131
_cell_angle_gamma 90.000000
_cell_volume 1628.356076
_symmetry_space_group_name_H-M "C C"
_symmetry_group_IT_number 9
_symmetry_cell_setting 'monoclinic'
loop_
_space_group_symop_operation_xyz
x,y,z
x,-y,1/2+z
1/2+x,1/2+y,z
1/2+x,1/2-y,1/2+z
loop_
_atom_site_type_symbol
_atom_site_label
_atom_site_fract_x
_atom_site_fract_y
_atom_site_fract_z
Si Si1 0.918070 0.292141 0.814320
Si Si2 0.937581 0.040554 0.892597
Si Si3 0.723898 0.886585 0.442831
Si Si4 0.235704 0.055320 0.058005
Si Si5 0.622206 0.745803 0.308802
Si Si6 0.242201 0.633300 0.532630
Si Si7 0.833017 0.111254 0.657402
O O1 0.891619 0.197432 0.919558
O O2 0.835679 0.220711 0.845446
O O3 0.081319 0.300322 0.599527
O O4 0.867464 0.452552 0.893055
O O5 0.103114 0.032409 0.688461
O O6 0.884969 0.918600 0.899350
O O7 0.877570 0.014215 0.046861
O O8 0.785688 0.949924 0.292733
O O9 0.692070 0.026506 0.529850
O O10 0.203511 0.103311 0.181006
O O11 0.263584 0.202573 0.977331
O O12 0.626405 0.863685 0.237197
O O13 0.701736 0.799223 0.285214
O O14 0.462019 0.716845 0.518188
#
# Coordination Sequence:
#
# PCOD8054235 Si02
#       7
#     4   4   4   4   4   4   4
#     4  11  21  35  55  84 109 145 181 225 264 327
#     4   9  18  36  54  79 104 143 186 220 257 325
#     4  11  22  33  57  84 114 138 176 230 279 308
#     4   9  18  33  58  78 100 140 193 219 249 319
#     4   8  18  32  58  77 101 143 187 211 256 332
#     4   8  19  32  57  80 100 144 185 217 257 329
#     4  10  18  35  55  80 112 139 174 226 274 316
#
# _framework density 17.195257000000002
#
# number of rings (size 3 to 8) (size 9 to 14) (size 15 to 20)
#    0.857    1.714    1.429    0.857    4.000    0.000 
#    0.000    0.000    9.429    0.000    0.000    0.000 
#    0.000    0.000    0.000    0.000    0.000    0.000 
#
# Total GULP energy -173445.850796 kJ/mol
# GULP energy per Si atom -12388.989343 kJ/mol
# Density = 1.715612 g / cm^3
# Si number density = 17.195257 Si / 1000 Ang^3
#
#
#
# Elastic Constant Matrix: (Units=GPa)
#
#
# Indices 1 2 3 4 5 6 
#
# 1 78.1294 32.8954 52.4139 0.0003 2.5595 0.0001
# 2 32.8954 87.2501 30.6336 -0.0020 0.8375 -0.0001
# 3 52.4139 30.6336 90.1357 -0.0023 -2.0492 -0.0003
# 4 0.0003 -0.0020 -0.0023 21.0114 0.0003 -3.3424
# 5 2.5595 0.8375 -2.0492 0.0003 25.4893 0.0001
# 6 0.0001 -0.0001 -0.0003 -3.3424 0.0001 21.8458
#
#
#
# Elastic Compliance Matrix: (Units=1/GPa)
#
#
# Indices 1 2 3 4 5 6 
#
# 1 0.022613 -0.004377 -0.011732 -0.000002 -0.003070 -0.000001
# 2 -0.004377 0.013877 -0.002175 0.000001 -0.000191 0.000000
# 3 -0.011732 -0.002175 0.018718 0.000002 0.002754 0.000001
# 4 -0.000002 0.000001 0.000002 0.048781 0.000000 0.007463
# 5 -0.003070 -0.000191 0.002754 0.000000 0.039768 0.000000
# 6 -0.000001 0.000000 0.000001 0.007463 0.000000 0.046917
#
#
# Mechanical properties :
#
#
# Convention : Reuss Voigt Hill
#
# Bulk Modulus (GPa) = 53.64755 54.15568 53.90161
# Shear Modulus (GPa) = 21.41727 22.97412 22.19570
#
# Velocity S-wave (km/s) = 3.53304 3.65920 3.59667
# Velocity P-wave (km/s) = 6.92170 7.02964 6.97588
#
# Compressibility (1/GPa) = 0.01864018
#
# Stress axis : x y z
#
# Youngs Moduli (GPa) = 44.22198 72.06059 53.42373
#
# Poissons Ratio (x) = 0.31543 0.62675
# Poissons Ratio (y) = 0.19357 0.11621
# Poissons Ratio (z) = 0.51880 0.15675
#
# Static dielectric constant tensor:
#      x y z
#    x 3.116040 0.000000 -0.137990 
#    y 0.000000 3.040450 0.000000 
#    z -0.137990 0.000000 3.047880 
# 
# 
# High freq. dielectric constant tensor:
#      x y z
#    x 1.656580 0.000000 -0.018610 
#    y 0.000000 1.645740 0.000000 
#    z -0.018610 0.000000 1.657490 
# 
# From -- ./inp_files/10442.got.cif
#   From: 2010.06.25/outbox.cif.g09.slc.cpg/sg9_6_cif.got.tgz:10442.got - 2010.06.27 21:40:51.
