data_PCOD8054502
_publ_section_title
;
Structure prediction by ZEFSAII (Michael W. Deem and Ramdas Pophale) SiO2 
 PCOD8054502
Probable space group: C C
;
_chemical_formula_sum "Si O2"
_cell_formula_units_Z 32
_cell_length_a 10.803487
_cell_length_b 12.280566
_cell_length_c 22.364674
_cell_angle_alpha 90.000000
_cell_angle_beta 32.679987
_cell_angle_gamma 90.000000
_cell_volume 1602.121771
_symmetry_space_group_name_H-M "C C"
_symmetry_group_IT_number 9
_symmetry_cell_setting 'monoclinic'
loop_
_space_group_symop_operation_xyz
x,y,z
x,-y,1/2+z
1/2+x,1/2+y,z
1/2+x,1/2-y,1/2+z
loop_
_atom_site_type_symbol
_atom_site_label
_atom_site_fract_x
_atom_site_fract_y
_atom_site_fract_z
Si Si1 0.456110 0.496136 0.699490
Si Si2 0.387471 0.901353 0.565788
Si Si3 0.627902 0.304140 0.980727
Si Si4 0.443840 0.882389 0.756783
Si Si5 0.221958 0.788620 0.080550
Si Si6 0.674467 0.901785 0.923093
Si Si7 0.712532 0.924418 0.190488
Si Si8 0.123132 0.191131 0.282712
O O1 0.684111 0.421175 0.600278
O O2 0.551114 0.617505 0.673968
O O3 0.290054 0.457183 0.819036
O O4 0.314217 0.488352 0.696089
O O5 0.545259 0.802981 0.478312
O O6 0.268644 0.876846 0.676559
O O7 0.544011 0.006373 0.513649
O O8 0.669305 0.268558 0.032385
O O9 0.418632 0.390577 0.062287
O O10 0.860199 0.349895 0.857462
O O11 0.666726 0.817551 0.642889
O O12 0.229127 0.847379 0.802548
O O13 0.515164 0.011208 0.732816
O O14 0.490473 0.812176 0.977350
O O15 0.858966 0.844847 0.890664
O O16 0.625352 0.819400 0.264040
#
# Coordination Sequence:
#
# PCOD8054502 Si02
#       8
#     4   4   4   4   4   4   4   4
#     4   9  17  36  62  86 115 165 206 263 316 377
#     4   9  18  35  62  83 119 161 200 264 318 373
#     4  10  21  40  61  90 125 163 208 263 323 375
#     4  12  22  39  67  87 125 176 203 262 334 370
#     4  10  20  39  61  89 126 156 213 267 300 394
#     4  10  20  35  64  91 117 165 213 253 327 372
#     4  10  22  40  60  88 126 161 219 260 318 384
#     4  10  22  42  57  88 135 159 208 276 306 385
#
# _framework density 19.973511999999999
#
# number of rings (size 3 to 8) (size 9 to 14) (size 15 to 20)
#    0.000    2.000    3.750    1.500    0.000    2.000 
#    4.500    0.000   11.000    0.000    0.000    0.000 
#    0.000    0.000    0.000    0.000    0.000    0.000 
#
# Total GULP energy -198271.935795 kJ/mol
# GULP energy per Si atom -12391.995987 kJ/mol
# Density = 1.992805 g / cm^3
# Si number density = 19.973512 Si / 1000 Ang^3
#
#
#
# Elastic Constant Matrix: (Units=GPa)
#
#
# Indices 1 2 3 4 5 6 
#
# 1 91.1827 63.4194 42.4663 0.0002 -21.3771 0.0001
# 2 63.4194 113.1062 47.7680 0.0000 -10.8876 -0.0001
# 3 42.4663 47.7680 92.9109 -0.0006 -12.9368 -0.0007
# 4 0.0002 0.0000 -0.0006 30.1063 -0.0005 -6.2642
# 5 -21.3771 -10.8876 -12.9368 -0.0005 30.7402 -0.0002
# 6 0.0001 -0.0001 -0.0007 -6.2642 -0.0002 35.4811
#
#
#
# Elastic Compliance Matrix: (Units=1/GPa)
#
#
# Indices 1 2 3 4 5 6 
#
# 1 0.021775 -0.009738 -0.003524 0.000000 0.010211 0.000000
# 2 -0.009738 0.015728 -0.004039 0.000000 -0.002901 0.000000
# 3 -0.003524 -0.004039 0.014776 0.000000 0.002337 0.000000
# 4 0.000000 0.000000 0.000000 0.034482 0.000001 0.006088
# 5 0.010211 -0.002901 0.002337 0.000001 0.039587 0.000000
# 6 0.000000 0.000000 0.000000 0.006088 0.000000 0.029259
#
#
# Mechanical properties :
#
#
# Convention : Reuss Voigt Hill
#
# Bulk Modulus (GPa) = 56.57475 67.16746 61.87111
# Shear Modulus (GPa) = 25.49676 28.83524 27.16600
#
# Velocity S-wave (km/s) = 3.57673 3.80369 3.69196
# Velocity P-wave (km/s) = 6.74120 7.27956 7.01555
#
# Compressibility (1/GPa) = 0.01767573
#
# Stress axis : x y z
#
# Youngs Moduli (GPa) = 45.92354 63.58014 67.67772
#
# Poissons Ratio (x) = 0.61916 0.23852
# Poissons Ratio (y) = 0.44722 0.27337
# Poissons Ratio (z) = 0.16185 0.25682
#
# Static dielectric constant tensor:
#      x y z
#    x 3.637160 0.000000 -0.234380 
#    y 0.000000 3.714600 0.000000 
#    z -0.234380 0.000000 3.670500 
# 
# 
# High freq. dielectric constant tensor:
#      x y z
#    x 1.764540 0.000000 -0.013790 
#    y 0.000000 1.773760 0.000000 
#    z -0.013790 0.000000 1.784680 
# 
# From -- ./inp_files/16153.got.cif
#   From: 2010.06.25/outbox.cif.g09.slc.cpg/sg9_9_cif.got.tgz:16153.got - 2010.06.27 21:40:51.
