data_PCOD8054609
_publ_section_title
;
Structure prediction by ZEFSAII (Michael W. Deem and Ramdas Pophale) SiO2 
 PCOD8054609
Probable space group: C C
;
_chemical_formula_sum "Si O2"
_cell_formula_units_Z 32
_cell_length_a 19.656614
_cell_length_b 15.707659
_cell_length_c 13.356603
_cell_angle_alpha 90.000000
_cell_angle_beta 158.641759
_cell_angle_gamma 90.000000
_cell_volume 1501.944457
_symmetry_space_group_name_H-M "C C"
_symmetry_group_IT_number 9
_symmetry_cell_setting 'monoclinic'
loop_
_space_group_symop_operation_xyz
x,y,z
x,-y,1/2+z
1/2+x,1/2+y,z
1/2+x,1/2-y,1/2+z
loop_
_atom_site_type_symbol
_atom_site_label
_atom_site_fract_x
_atom_site_fract_y
_atom_site_fract_z
Si Si1 0.728350 0.037224 0.622060
Si Si2 0.670382 0.853901 0.459803
Si Si3 0.915964 0.631161 0.088333
Si Si4 0.224820 0.706596 0.369766
Si Si5 0.468998 0.435172 0.275380
Si Si6 0.816641 0.543069 0.766341
Si Si7 0.932296 0.304977 0.303062
Si Si8 0.190076 0.554045 0.792969
O O1 0.519714 0.064358 0.301843
O O2 0.895750 0.080477 0.788318
O O3 0.755542 0.076158 0.770567
O O4 0.736534 0.935424 0.617032
O O5 0.832438 0.784207 0.684383
O O6 0.482060 0.817753 0.254020
O O7 0.620337 0.871787 0.273328
O O8 0.071632 0.684534 0.242068
O O9 0.792573 0.696974 0.982807
O O10 0.775835 0.582058 0.820332
O O11 0.410489 0.646568 0.629714
O O12 0.132009 0.697178 0.133622
O O13 0.687717 0.460189 0.569455
O O14 0.366666 0.518257 0.093725
O O15 0.799673 0.617189 0.659410
O O16 0.032883 0.517142 0.064916
#
# Coordination Sequence:
#
# PCOD8054609 Si02
#       8
#     4   4   4   4   4   4   4   4
#     4  10  21  44  65  89 140 179 214 282 337 401
#     4  11  23  40  66  96 136 177 224 278 345 397
#     4  10  21  39  65  95 129 171 218 275 333 394
#     4  10  20  39  62 100 130 161 228 278 322 396
#     4  10  22  41  66  97 130 175 228 274 340 401
#     4  11  21  41  68  97 132 173 229 278 336 401
#     4  11  22  40  68 101 138 171 227 293 333 398
#     4  11  22  44  62  93 139 173 216 284 332 404
#
# _framework density 21.305713999999998
#
# number of rings (size 3 to 8) (size 9 to 14) (size 15 to 20)
#    0.000    1.500    6.250    1.500    7.000    1.000 
#    4.500    3.750    0.000    0.000    0.000    0.000 
#    0.000    0.000    0.000    0.000    0.000    0.000 
#
# Total GULP energy -198288.715036 kJ/mol
# GULP energy per Si atom -12393.044690 kJ/mol
# Density = 2.125722 g / cm^3
# Si number density = 21.305714 Si / 1000 Ang^3
#
#
#
# Elastic Constant Matrix: (Units=GPa)
#
#
# Indices 1 2 3 4 5 6 
#
# 1 138.0824 29.7849 26.5890 0.0000 -20.2955 0.0000
# 2 29.7849 89.7715 30.0942 0.0000 -4.3700 0.0000
# 3 26.5890 30.0942 60.8749 0.0000 -3.3299 0.0000
# 4 0.0000 0.0000 0.0000 42.0542 0.0000 2.4139
# 5 -20.2955 -4.3700 -3.3299 0.0000 17.6367 0.0000
# 6 0.0000 0.0000 0.0000 2.4139 0.0000 30.4921
#
#
#
# Elastic Compliance Matrix: (Units=1/GPa)
#
#
# Indices 1 2 3 4 5 6 
#
# 1 0.009652 -0.001776 -0.002783 0.000000 0.010141 0.000000
# 2 -0.001776 0.013755 -0.006012 0.000000 0.000230 0.000000
# 3 -0.002783 -0.006012 0.020571 0.000000 -0.000808 0.000000
# 4 0.000000 0.000000 0.000000 0.023887 0.000000 -0.001891
# 5 0.010141 0.000230 -0.000808 0.000000 0.068274 0.000000
# 6 0.000000 0.000000 0.000000 -0.001891 0.000000 0.032945
#
#
# Mechanical properties :
#
#
# Convention : Reuss Voigt Hill
#
# Bulk Modulus (GPa) = 43.79042 51.29610 47.54326
# Shear Modulus (GPa) = 25.27336 31.52065 28.39701
#
# Velocity S-wave (km/s) = 3.44790 3.85053 3.65476
# Velocity P-wave (km/s) = 6.03727 6.62550 6.33821
#
# Compressibility (1/GPa) = 0.02283605
#
# Stress axis : x y z
#
# Youngs Moduli (GPa) = 103.61066 72.70051 48.61324
#
# Poissons Ratio (x) = 0.12909 0.13529
# Poissons Ratio (y) = 0.18397 0.29226
# Poissons Ratio (z) = 0.28836 0.43706
#
# Static dielectric constant tensor:
#      x y z
#    x 4.099400 0.000000 -0.078640 
#    y 0.000000 3.793660 0.000000 
#    z -0.078640 0.000000 3.542280 
# 
# 
# High freq. dielectric constant tensor:
#      x y z
#    x 1.836770 0.000000 0.005780 
#    y 0.000000 1.826750 0.000000 
#    z 0.005780 0.000000 1.806910 
# 
# From -- ./inp_files/7604.got.cif
#   From: 2010.06.25/outbox.cif.g09.slc.cpg/sg9_4_cif.got.tgz:7604.got - 2010.06.27 21:40:51.
