data_PCOD8054587
_publ_section_title
;
Structure prediction by ZEFSAII (Michael W. Deem and Ramdas Pophale) SiO2 
 PCOD8054587
Probable space group: C C
;
_chemical_formula_sum "Si O2"
_cell_formula_units_Z 32
_cell_length_a 9.514321
_cell_length_b 11.875701
_cell_length_c 13.425562
_cell_angle_alpha 90.000000
_cell_angle_beta 114.513963
_cell_angle_gamma 90.000000
_cell_volume 1380.206883
_symmetry_space_group_name_H-M "C C"
_symmetry_group_IT_number 9
_symmetry_cell_setting 'monoclinic'
loop_
_space_group_symop_operation_xyz
x,y,z
x,-y,1/2+z
1/2+x,1/2+y,z
1/2+x,1/2-y,1/2+z
loop_
_atom_site_type_symbol
_atom_site_label
_atom_site_fract_x
_atom_site_fract_y
_atom_site_fract_z
Si Si1 0.259530 0.040850 0.802420
Si Si2 0.923304 0.442751 0.546551
Si Si3 0.344454 0.154031 0.645741
Si Si4 0.933188 0.946419 0.499169
Si Si5 0.035777 0.911193 0.858681
Si Si6 0.773424 0.100872 0.135481
Si Si7 0.244852 0.159150 0.156904
Si Si8 0.680029 0.803246 0.311519
O O1 0.231652 0.133766 0.708299
O O2 0.311257 0.932269 0.754169
O O3 0.104186 0.019090 0.819789
O O4 0.391965 0.076396 0.920400
O O5 0.836593 0.558906 0.556127
O O6 0.854252 0.339590 0.591743
O O7 0.105890 0.443377 0.614381
O O8 0.288853 0.274887 0.587114
O O9 0.515039 0.140316 0.743180
O O10 0.848756 0.984628 0.576707
O O11 0.804671 0.888159 0.392217
O O12 0.068754 0.861295 0.570432
O O13 0.009789 0.055120 0.466795
O O14 0.867140 0.887713 0.764931
O O15 0.150012 0.804950 0.875534
O O16 0.245855 0.273499 0.220532
#
# Coordination Sequence:
#
# PCOD8054587 Si02
#       8
#     4   4   4   4   4   4   4   4
#     4  10  20  38  64  93 127 178 213 266 350 386
#     4  11  23  41  68  94 134 178 217 282 343 398
#     4  10  22  41  66  93 138 172 217 291 331 397
#     4  12  21  40  72  92 128 181 218 271 342 400
#     4  10  22  41  65  93 135 172 217 279 331 403
#     4  11  24  42  66 102 127 172 238 267 338 422
#     4  10  22  40  61  95 130 169 221 269 334 400
#     4  10  22  39  64  96 129 170 223 273 329 402
#
# _framework density 23.184930999999999
#
# number of rings (size 3 to 8) (size 9 to 14) (size 15 to 20)
#    0.000    1.500    5.000    1.500    3.500    2.000 
#    0.000    0.000   16.500    0.000    0.000    0.000 
#    0.000    0.000    0.000    0.000    0.000    0.000 
#
# Total GULP energy -198262.661688 kJ/mol
# GULP energy per Si atom -12391.416355 kJ/mol
# Density = 2.313216 g / cm^3
# Si number density = 23.184931 Si / 1000 Ang^3
#
#
#
# Elastic Constant Matrix: (Units=GPa)
#
#
# Indices 1 2 3 4 5 6 
#
# 1 97.8436 1.6722 5.0113 0.0000 -14.0530 0.0000
# 2 1.6722 40.1085 1.3440 0.0000 -11.8152 0.0000
# 3 5.0113 1.3440 89.0451 0.0000 -14.2760 0.0000
# 4 0.0000 0.0000 0.0000 32.0112 0.0000 1.4902
# 5 -14.0530 -11.8152 -14.2760 0.0000 39.8446 0.0000
# 6 0.0000 0.0000 0.0000 1.4902 0.0000 25.3705
#
#
#
# Elastic Compliance Matrix: (Units=1/GPa)
#
#
# Indices 1 2 3 4 5 6 
#
# 1 0.010786 0.000737 0.000028 0.000000 0.004033 0.000000
# 2 0.000737 0.027444 0.000945 0.000000 0.008737 0.000000
# 3 0.000028 0.000945 0.011947 0.000000 0.004571 0.000000
# 4 0.000000 0.000000 0.000000 0.031325 0.000000 -0.001840
# 5 0.004033 0.008737 0.004571 0.000000 0.030748 0.000000
# 6 0.000000 0.000000 0.000000 -0.001840 0.000000 0.039524
#
#
# Mechanical properties :
#
#
# Convention : Reuss Voigt Hill
#
# Bulk Modulus (GPa) = 18.65745 27.00579 22.83162
# Shear Modulus (GPa) = 30.08106 34.04326 32.06216
#
# Velocity S-wave (km/s) = 3.60591 3.83604 3.72275
# Velocity P-wave (km/s) = 5.03999 5.59407 5.32424
#
# Compressibility (1/GPa) = 0.05359790
#
# Stress axis : x y z
#
# Youngs Moduli (GPa) = 92.71656 36.43840 83.70159
#
# Poissons Ratio (x) = -0.02687 -0.00238
# Poissons Ratio (y) = -0.06837 -0.07909
# Poissons Ratio (z) = -0.00264 -0.03443
#
# Static dielectric constant tensor:
#      x y z
#    x 4.293570 0.000000 -0.238790 
#    y 0.000000 3.992270 0.000000 
#    z -0.238790 0.000000 4.373170 
# 
# 
# High freq. dielectric constant tensor:
#      x y z
#    x 1.916460 0.000000 -0.002930 
#    y 0.000000 1.875020 0.000000 
#    z -0.002930 0.000000 1.936120 
# 
# From -- ./inp_files/14652.got.cif
#   From: 2010.06.25/outbox.cif.g09.slc.cpg/sg9_8_cif.got.tgz:14652.got - 2010.06.27 21:40:51.
