data_PCOD8054240
_publ_section_title
;
Structure prediction by ZEFSAII (Michael W. Deem and Ramdas Pophale) SiO2 
 PCOD8054240
Probable space group: C C
;
_chemical_formula_sum "Si O2"
_cell_formula_units_Z 28
_cell_length_a 36.295541
_cell_length_b 7.008693
_cell_length_c 5.268076
_cell_angle_alpha 90.000000
_cell_angle_beta 64.571371
_cell_angle_gamma 90.000000
_cell_volume 1210.286569
_symmetry_space_group_name_H-M "C C"
_symmetry_group_IT_number 9
_symmetry_cell_setting 'monoclinic'
loop_
_space_group_symop_operation_xyz
x,y,z
x,-y,1/2+z
1/2+x,1/2+y,z
1/2+x,1/2-y,1/2+z
loop_
_atom_site_type_symbol
_atom_site_label
_atom_site_fract_x
_atom_site_fract_y
_atom_site_fract_z
Si Si1 0.419200 0.878263 0.473580
Si Si2 0.009418 0.621830 0.759289
Si Si3 0.718133 0.377759 0.575173
Si Si4 0.336549 0.710811 0.798486
Si Si5 0.802023 0.213697 0.400752
Si Si6 0.626663 0.717394 0.336389
Si Si7 0.592053 0.291397 0.439064
O O1 0.464294 0.785933 0.366584
O O2 0.385398 0.713454 0.614158
O O3 0.413574 0.038041 0.707721
O O4 0.015034 0.462242 0.524986
O O5 0.043128 0.786901 0.619372
O O6 0.722209 0.464043 0.281970
O O7 0.753304 0.219160 0.506707
O O8 0.674993 0.273808 0.732234
O O9 0.314267 0.817948 0.628872
O O10 0.319012 0.499225 0.889549
O O11 0.324545 0.817483 0.097135
O O12 0.609092 0.503612 0.352210
O O13 0.604901 0.818313 0.641145
O O14 0.614041 0.818097 0.109032
#
# Coordination Sequence:
#
# PCOD8054240 Si02
#       7
#     4   4   4   4   4   4   4
#     4  10  21  37  63  89 115 154 204 247 287 352
#     4  10  21  37  58  88 121 154 192 238 289 351
#     4  12  21  37  60  87 112 152 209 255 287 342
#     4  10  21  42  57  84 121 159 190 244 309 359
#     4  10  23  37  60  82 120 159 187 252 306 350
#     4  10  19  35  57  83 108 149 196 246 282 333
#     4  10  18  35  59  81 115 147 190 242 286 339
#
# _framework density 23.135017000000001
#
# number of rings (size 3 to 8) (size 9 to 14) (size 15 to 20)
#    0.000    1.714    2.857    2.571    0.000    3.429 
#    0.000    5.714   18.857    0.000    0.000    0.000 
#    0.000    0.000    0.000    0.000    0.000    0.000 
#
# Total GULP energy -173480.295990 kJ/mol
# GULP energy per Si atom -12391.449714 kJ/mol
# Density = 2.308236 g / cm^3
# Si number density = 23.135017 Si / 1000 Ang^3
#
#
#
# Elastic Constant Matrix: (Units=GPa)
#
#
# Indices 1 2 3 4 5 6 
#
# 1 127.9036 7.9671 49.4435 0.0000 -14.8722 0.0000
# 2 7.9671 29.9683 -4.3807 0.0000 -17.7288 0.0000
# 3 49.4435 -4.3807 150.4628 0.0000 18.8358 0.0000
# 4 0.0000 0.0000 0.0000 14.6763 0.0000 -21.6566
# 5 -14.8722 -17.7288 18.8358 0.0000 82.2945 0.0000
# 6 0.0000 0.0000 0.0000 -21.6566 0.0000 26.5382
#
#
#
# Elastic Compliance Matrix: (Units=1/GPa)
#
#
# Indices 1 2 3 4 5 6 
#
# 1 0.009506 -0.001774 -0.003441 0.000000 0.002123 0.000000
# 2 -0.001774 0.038575 0.000727 0.000000 0.007823 0.000000
# 3 -0.003441 0.000727 0.008088 0.000000 -0.002317 0.000000
# 4 0.000000 0.000000 0.000000 -0.333714 0.000000 -0.272327
# 5 0.002123 0.007823 -0.002317 0.000000 0.014751 0.000000
# 6 0.000000 0.000000 0.000000 -0.272327 0.000000 -0.184551
#
#
# Mechanical properties :
#
#
# Convention : Reuss Voigt Hill
#
# Bulk Modulus (GPa) = 21.19022 46.04383 33.61702
# Shear Modulus (GPa) = -11.83047 41.72213 14.94583
#
# Velocity S-wave (km/s) = -2.26379 4.25128 2.54446
# Velocity P-wave (km/s) = 1.53174 6.63651 4.81609
#
# Compressibility (1/GPa) = 0.04719158
#
# Stress axis : x y z
#
# Youngs Moduli (GPa) = 105.19595 25.92381 123.63766
#
# Poissons Ratio (x) = 0.04599 0.42547
# Poissons Ratio (y) = 0.18662 -0.08985
# Poissons Ratio (z) = 0.36201 -0.01884
#
# Static dielectric constant tensor:
#      x y z
#    x 4.900480 0.000000 0.756620 
#    y 0.000000 3.501720 0.000000 
#    z 0.756620 0.000000 5.621050 
# 
# 
# High freq. dielectric constant tensor:
#      x y z
#    x 1.936080 0.000000 0.016140 
#    y 0.000000 1.853770 0.000000 
#    z 0.016140 0.000000 1.953590 
# 
# From -- ./inp_files/3281.got.cif
#   From: 2010.06.25/outbox.cif.g09.slc.cpg/sg9_2_cif.got.tgz:3281.got - 2010.06.27 21:40:51.
