data_PCOD8054917
_publ_section_title
;
Structure prediction by ZEFSAII (Michael W. Deem and Ramdas Pophale) SiO2 
 PCOD8054917
Probable space group: C C
;
_chemical_formula_sum "Si O2"
_cell_formula_units_Z 24
_cell_length_a 12.439331
_cell_length_b 13.481189
_cell_length_c 8.286028
_cell_angle_alpha 90.000000
_cell_angle_beta 129.685620
_cell_angle_gamma 90.000000
_cell_volume 1069.335582
_symmetry_space_group_name_H-M "C C"
_symmetry_group_IT_number 9
_symmetry_cell_setting 'monoclinic'
loop_
_space_group_symop_operation_xyz
x,y,z
x,-y,1/2+z
1/2+x,1/2+y,z
1/2+x,1/2-y,1/2+z
loop_
_atom_site_type_symbol
_atom_site_label
_atom_site_fract_x
_atom_site_fract_y
_atom_site_fract_z
Si Si1 0.295520 0.863514 0.751450
Si Si2 0.403352 0.548081 0.992265
Si Si3 0.689506 0.548076 0.455287
Si Si4 0.797356 0.863514 0.696107
Si Si5 0.022712 0.213861 0.888868
Si Si6 0.070171 0.786147 0.058706
O O1 0.300212 0.902330 0.939285
O O2 0.173218 0.780480 0.620836
O O3 0.444029 0.816679 0.849400
O O4 0.259495 0.949317 0.589680
O O5 0.546417 0.522547 0.223792
O O6 0.292626 0.597672 0.008230
O O7 0.333380 0.449323 0.857864
O O8 0.435068 0.620792 0.873344
O O9 0.657832 0.620786 0.574268
O O10 0.648855 0.816671 0.598184
O O11 0.919676 0.780494 0.826717
O O12 0.046426 0.198768 0.723770
#
# Coordination Sequence:
#
# PCOD8054917 Si02
#       6
#     4   4   4   4   4   4
#     4  11  22  40  62  87 116 154 196 239 286 344
#     4  10  21  40  62  84 116 160 196 228 286 360
#     4  10  21  40  62  84 116 160 196 228 286 360
#     4  11  22  40  62  87 116 154 196 239 286 344
#     4  11  22  38  62  89 116 152 196 241 286 342
#     4  11  22  38  62  89 116 152 196 241 286 342
#
# _framework density 22.443842
#
# number of rings (size 3 to 8) (size 9 to 14) (size 15 to 20)
#    0.000    1.333    0.000    9.000    0.000    0.000 
#    0.000    6.667    0.000    0.000    0.000    0.000 
#    0.000    0.000    0.000    0.000    0.000    0.000 
#
# Total GULP energy -148828.389128 kJ/mol
# GULP energy per Si atom -12402.365761 kJ/mol
# Density = 2.239276 g / cm^3
# Si number density = 22.443842 Si / 1000 Ang^3
#
#
#
# Elastic Constant Matrix: (Units=GPa)
#
#
# Indices 1 2 3 4 5 6 
#
# 1 161.0346 84.3815 73.0547 0.0000 -36.7127 0.0000
# 2 84.3815 105.2679 48.2784 0.0000 -12.3155 0.0000
# 3 73.0547 48.2784 56.4308 0.0000 -18.1053 0.0000
# 4 0.0000 0.0000 0.0000 17.1537 0.0000 -0.5069
# 5 -36.7127 -12.3155 -18.1053 0.0000 30.2725 0.0000
# 6 0.0000 0.0000 0.0000 -0.5069 0.0000 27.8742
#
#
#
# Elastic Compliance Matrix: (Units=1/GPa)
#
#
# Indices 1 2 3 4 5 6 
#
# 1 0.019806 -0.007356 -0.015593 0.000000 0.011701 0.000000
# 2 -0.007356 0.018467 -0.008326 0.000000 -0.006387 0.000000
# 3 -0.015593 -0.008326 0.046870 0.000000 0.005735 0.000000
# 4 0.000000 0.000000 0.000000 0.058328 0.000000 0.001061
# 5 0.011701 -0.006387 0.005735 0.000000 0.048055 0.000000
# 6 0.000000 0.000000 0.000000 0.001061 0.000000 0.035895
#
#
# Mechanical properties :
#
#
# Convention : Reuss Voigt Hill
#
# Bulk Modulus (GPa) = 44.25975 81.57362 62.91669
# Shear Modulus (GPa) = 16.80666 22.86131 19.83398
#
# Velocity S-wave (km/s) = 2.73945 3.19501 2.97596
# Velocity P-wave (km/s) = 5.45611 7.07357 6.31682
#
# Compressibility (1/GPa) = 0.02259389
#
# Stress axis : x y z
#
# Youngs Moduli (GPa) = 50.49032 54.15059 21.33548
#
# Poissons Ratio (x) = 0.39832 0.33269
# Poissons Ratio (y) = 0.37140 0.17763
# Poissons Ratio (z) = 0.78730 0.45084
#
# Static dielectric constant tensor:
#      x y z
#    x 4.307160 0.000000 -0.194980 
#    y 0.000000 3.982040 0.000000 
#    z -0.194980 0.000000 3.943370 
# 
# 
# High freq. dielectric constant tensor:
#      x y z
#    x 1.893750 0.000000 -0.029040 
#    y 0.000000 1.880510 0.000000 
#    z -0.029040 0.000000 1.868340 
# 
# From -- ./inp_files/7317.got.cif
#   From: 2010.06.25/outbox.cif.g09.slc.cpg/sg9_4_cif.got.tgz:7317.got - 2010.06.27 21:40:51.
