data_PCOD8054426
_publ_section_title
;
Structure prediction by ZEFSAII (Michael W. Deem and Ramdas Pophale) SiO2 
 PCOD8054426
Probable space group: C C
;
_chemical_formula_sum "Si O2"
_cell_formula_units_Z 28
_cell_length_a 16.917427
_cell_length_b 7.799671
_cell_length_c 9.238359
_cell_angle_alpha 90.000000
_cell_angle_beta 56.706353
_cell_angle_gamma 90.000000
_cell_volume 1018.927421
_symmetry_space_group_name_H-M "C C"
_symmetry_group_IT_number 9
_symmetry_cell_setting 'monoclinic'
loop_
_space_group_symop_operation_xyz
x,y,z
x,-y,1/2+z
1/2+x,1/2+y,z
1/2+x,1/2-y,1/2+z
loop_
_atom_site_type_symbol
_atom_site_label
_atom_site_fract_x
_atom_site_fract_y
_atom_site_fract_z
Si Si1 0.285750 0.475197 0.768020
Si Si2 0.268464 0.159313 0.312662
Si Si3 0.961551 0.981030 0.417968
Si Si4 0.749638 0.337332 0.495540
Si Si5 0.069927 0.498411 0.891213
Si Si6 0.040826 0.273630 0.166428
Si Si7 0.052596 0.175531 0.572069
O O1 0.322310 0.661025 0.794744
O O2 0.356291 0.423271 0.567803
O O3 0.287978 0.342089 0.896501
O O4 0.182927 0.496772 0.800109
O O5 0.163941 0.181956 0.479463
O O6 0.306111 0.988163 0.353020
O O7 0.275023 0.134075 0.135134
O O8 0.959073 0.154523 0.317475
O O9 0.021683 0.011176 0.505328
O O10 0.008608 0.828902 0.277211
O O11 0.635811 0.341734 0.591114
O O12 0.026050 0.325695 0.010753
O O13 0.017865 0.655904 0.023765
O O14 0.051844 0.539976 0.739526
#
# Coordination Sequence:
#
# PCOD8054426 Si02
#       7
#     4   4   4   4   4   4   4
#     4  10  24  40  64  95 130 167 209 273 322 379
#     4  11  21  45  67  96 129 171 225 263 315 395
#     4  11  22  38  62  89 128 156 207 264 326 366
#     4  11  22  42  67  96 125 174 222 263 317 393
#     4   9  20  38  62  85 122 159 218 252 305 386
#     4  10  19  40  62  91 121 165 216 259 312 386
#     4  10  20  39  60  88 121 164 207 256 311 385
#
# _framework density 27.479879
#
# number of rings (size 3 to 8) (size 9 to 14) (size 15 to 20)
#    0.000    1.714    5.714    0.000    2.000    2.286 
#   10.286    1.429    0.000    0.000    0.000    0.000 
#    0.000    0.000    0.000    0.000    0.000    0.000 
#
# Total GULP energy -173532.298212 kJ/mol
# GULP energy per Si atom -12395.164158 kJ/mol
# Density = 2.741733 g / cm^3
# Si number density = 27.479879 Si / 1000 Ang^3
#
#
#
# Elastic Constant Matrix: (Units=GPa)
#
#
# Indices 1 2 3 4 5 6 
#
# 1 17.9358 -14.4478 29.9740 0.0000 3.9106 0.0000
# 2 -14.4478 97.6868 47.5605 0.0000 5.9223 0.0000
# 3 29.9740 47.5605 199.4844 0.0000 5.4126 0.0000
# 4 0.0000 0.0000 0.0000 61.8263 0.0000 3.6739
# 5 3.9106 5.9223 5.4126 0.0000 37.3898 0.0000
# 6 0.0000 0.0000 0.0000 3.6739 0.0000 13.1646
#
#
#
# Elastic Compliance Matrix: (Units=1/GPa)
#
#
# Indices 1 2 3 4 5 6 
#
# 1 0.132590 0.033977 -0.027609 0.000000 -0.015253 0.000000
# 2 0.033977 0.020366 -0.009815 0.000000 -0.005359 0.000000
# 3 -0.027609 -0.009815 0.011426 0.000000 0.002788 0.000000
# 4 0.000000 0.000000 0.000000 0.016447 0.000000 -0.004590
# 5 -0.015253 -0.005359 0.002788 0.000000 0.028786 0.000000
# 6 0.000000 0.000000 0.000000 -0.004590 0.000000 0.077242
#
#
# Mechanical properties :
#
#
# Convention : Reuss Voigt Hill
#
# Bulk Modulus (GPa) = 6.34980 49.03116 27.69048
# Shear Modulus (GPa) = 14.44052 39.27748 26.85900
#
# Velocity S-wave (km/s) = 2.29485 3.78473 3.12974
# Velocity P-wave (km/s) = 3.05574 6.08114 4.81237
#
# Compressibility (1/GPa) = 0.15748537
#
# Stress axis : x y z
#
# Youngs Moduli (GPa) = 7.54205 49.10250 87.52009
#
# Poissons Ratio (x) = -1.66834 2.41638
# Poissons Ratio (y) = -0.25625 0.85904
# Poissons Ratio (z) = 0.20823 0.48196
#
# Static dielectric constant tensor:
#      x y z
#    x 4.387510 0.000000 0.057170 
#    y 0.000000 5.460330 0.000000 
#    z 0.057170 0.000000 5.223130 
# 
# 
# High freq. dielectric constant tensor:
#      x y z
#    x 2.068390 0.000000 0.005610 
#    y 0.000000 2.115860 0.000000 
#    z 0.005610 0.000000 2.130010 
# 
# From -- ./inp_files/11376.got.cif
#   From: 2010.06.25/outbox.cif.g09.slc.cpg/sg9_6_cif.got.tgz:11376.got - 2010.06.27 21:40:51.
