data_PCOD8054185
_publ_section_title
;
Structure prediction by ZEFSAII (Michael W. Deem and Ramdas Pophale) SiO2 
 PCOD8054185
Probable space group: C C
;
_chemical_formula_sum "Si O2"
_cell_formula_units_Z 32
_cell_length_a 14.457077
_cell_length_b 20.615636
_cell_length_c 8.537263
_cell_angle_alpha 90.000000
_cell_angle_beta 137.444487
_cell_angle_gamma 90.000000
_cell_volume 1720.830101
_symmetry_space_group_name_H-M "C C"
_symmetry_group_IT_number 9
_symmetry_cell_setting 'monoclinic'
loop_
_space_group_symop_operation_xyz
x,y,z
x,-y,1/2+z
1/2+x,1/2+y,z
1/2+x,1/2-y,1/2+z
loop_
_atom_site_type_symbol
_atom_site_label
_atom_site_fract_x
_atom_site_fract_y
_atom_site_fract_z
Si Si1 0.810840 0.924731 0.376050
Si Si2 0.315280 0.694318 0.084177
Si Si3 0.755857 0.052338 0.447445
Si Si4 0.601653 0.447116 0.865475
Si Si5 0.097071 0.200377 0.615784
Si Si6 0.300396 0.835017 0.117171
Si Si7 0.547449 0.427410 0.164378
Si Si8 0.101217 0.658388 0.082329
O O1 0.783253 0.851112 0.395484
O O2 0.971669 0.937864 0.591497
O O3 0.724652 0.976080 0.375905
O O4 0.769296 0.934143 0.146223
O O5 0.472692 0.687063 0.336969
O O6 0.287840 0.769129 0.996854
O O7 0.215645 0.669974 0.095704
O O8 0.634820 0.098311 0.235829
O O9 0.890699 0.067996 0.517372
O O10 0.643737 0.522459 0.881836
O O11 0.716659 0.396914 0.948614
O O12 0.563816 0.439800 0.999104
O O13 0.241731 0.186939 0.712291
O O14 0.089332 0.147959 0.747721
O O15 0.089051 0.274254 0.667604
O O16 0.456498 0.857724 0.322907
#
# Coordination Sequence:
#
# PCOD8054185 Si02
#       8
#     4   4   4   4   4   4   4   4
#     4  11  20  34  57  80 110 141 189 232 261 323
#     4  10  17  35  58  81 105 143 191 222 261 327
#     4  11  21  33  54  85 109 144 186 228 271 315
#     4  10  18  33  54  84 107 140 187 225 271 317
#     4   9  17  33  58  79 107 143 187 218 262 329
#     4   9  19  32  58  82 109 144 178 221 274 331
#     4  10  17  32  54  81 107 139 185 224 261 319
#     4  10  19  34  57  82 108 144 183 222 271 331
#
# _framework density 18.595676999999998
#
# number of rings (size 3 to 8) (size 9 to 14) (size 15 to 20)
#    0.000    2.000    3.750    3.750    0.000    0.000 
#    0.000    7.500    0.000    3.000    0.000    0.000 
#    0.000    0.000    0.000    0.000    0.000    0.000 
#
# Total GULP energy -198227.228556 kJ/mol
# GULP energy per Si atom -12389.201785 kJ/mol
# Density = 1.855335 g / cm^3
# Si number density = 18.595677 Si / 1000 Ang^3
#
#
#
# Elastic Constant Matrix: (Units=GPa)
#
#
# Indices 1 2 3 4 5 6 
#
# 1 55.1155 30.0191 31.4451 0.0000 -4.7564 0.0000
# 2 30.0191 173.9024 50.4692 0.0000 -5.1715 0.0000
# 3 31.4451 50.4692 70.6389 0.0000 -4.1523 0.0000
# 4 0.0000 0.0000 0.0000 36.5564 0.0000 0.4270
# 5 -4.7564 -5.1715 -4.1523 0.0000 22.0605 0.0000
# 6 0.0000 0.0000 0.0000 0.4270 0.0000 30.9006
#
#
#
# Elastic Compliance Matrix: (Units=1/GPa)
#
#
# Indices 1 2 3 4 5 6 
#
# 1 0.024785 -0.001307 -0.009913 0.000000 0.003172 0.000000
# 2 -0.001307 0.007335 -0.004626 0.000000 0.000567 0.000000
# 3 -0.009913 -0.004626 0.021927 0.000000 0.000906 0.000000
# 4 0.000000 0.000000 0.000000 0.027359 0.000000 -0.000378
# 5 0.003172 0.000567 0.000906 0.000000 0.046317 0.000000
# 6 0.000000 0.000000 0.000000 -0.000378 0.000000 0.032367
#
#
# Mechanical properties :
#
#
# Convention : Reuss Voigt Hill
#
# Bulk Modulus (GPa) = 44.72984 58.16930 51.44957
# Shear Modulus (GPa) = 25.09610 30.41838 27.75724
#
# Velocity S-wave (km/s) = 3.67763 4.04886 3.86770
# Velocity P-wave (km/s) = 6.49149 7.29429 6.90457
#
# Compressibility (1/GPa) = 0.02235644
#
# Stress axis : x y z
#
# Youngs Moduli (GPa) = 40.34716 136.32731 45.60540
#
# Poissons Ratio (x) = 0.17821 0.45207
# Poissons Ratio (y) = 0.05274 0.21095
# Poissons Ratio (z) = 0.39995 0.63059
#
# Static dielectric constant tensor:
#      x y z
#    x 3.246310 0.000000 0.181270 
#    y 0.000000 4.369980 0.000000 
#    z 0.181270 0.000000 3.039960 
# 
# 
# High freq. dielectric constant tensor:
#      x y z
#    x 1.698720 0.000000 0.016450 
#    y 0.000000 1.754770 0.000000 
#    z 0.016450 0.000000 1.674210 
# 
# From -- ./inp_files/10030.got.cif
#   From: 2010.06.25/outbox.cif.g09.slc.cpg/sg9_6_cif.got.tgz:10030.got - 2010.06.27 21:40:51.
