data_PCOD8054458
_publ_section_title
;
Structure prediction by ZEFSAII (Michael W. Deem and Ramdas Pophale) SiO2 
 PCOD8054458
Probable space group: C C
;
_chemical_formula_sum "Si O2"
_cell_formula_units_Z 24
_cell_length_a 7.678756
_cell_length_b 15.696485
_cell_length_c 13.850886
_cell_angle_alpha 90.000000
_cell_angle_beta 43.475762
_cell_angle_gamma 90.000000
_cell_volume 1148.654325
_symmetry_space_group_name_H-M "C C"
_symmetry_group_IT_number 9
_symmetry_cell_setting 'monoclinic'
loop_
_space_group_symop_operation_xyz
x,y,z
x,-y,1/2+z
1/2+x,1/2+y,z
1/2+x,1/2-y,1/2+z
loop_
_atom_site_type_symbol
_atom_site_label
_atom_site_fract_x
_atom_site_fract_y
_atom_site_fract_z
Si Si1 0.985060 0.130182 0.142820
Si Si2 0.780097 0.267185 0.025520
Si Si3 0.126228 0.103692 0.883535
Si Si4 0.027325 0.068599 0.337934
Si Si5 0.058335 0.325759 0.091512
Si Si6 0.940409 0.658515 0.277220
O O1 0.028149 0.076613 0.222053
O O2 0.691280 0.125159 0.229825
O O3 0.074006 0.228059 0.122114
O O4 0.145769 0.086694 0.991320
O O5 0.512271 0.236335 0.176400
O O6 0.911893 0.330852 0.048419
O O7 0.738694 0.312928 0.939987
O O8 0.966579 0.188554 0.930315
O O9 0.408452 0.117029 0.729320
O O10 0.974408 0.028542 0.889567
O O11 0.833980 0.134362 0.465021
O O12 0.308582 0.086788 0.265755
#
# Coordination Sequence:
#
# PCOD8054458 Si02
#       6
#     4   4   4   4   4   4
#     4  10  22  47  62  85 130 167 204 249 310 372
#     4  10  19  44  65  83 128 166 205 251 306 368
#     4  10  22  40  64  93 124 165 199 259 318 352
#     4  12  25  38  67  96 123 158 212 257 308 362
#     4  10  20  42  68  85 126 172 197 249 312 372
#     4  10  22  39  64  92 119 164 209 253 296 374
#
# _framework density 20.894013000000001
#
# number of rings (size 3 to 8) (size 9 to 14) (size 15 to 20)
#    0.000    2.000    5.000    1.000    7.000    1.333 
#    0.000    0.000    0.000    0.000    0.000    0.000 
#    0.000    0.000    0.000    0.000    0.000    0.000 
#
# Total GULP energy -148764.030746 kJ/mol
# GULP energy per Si atom -12397.002562 kJ/mol
# Density = 2.084646 g / cm^3
# Si number density = 20.894013 Si / 1000 Ang^3
#
#
#
# Elastic Constant Matrix: (Units=GPa)
#
#
# Indices 1 2 3 4 5 6 
#
# 1 88.4801 37.6771 49.6778 0.0003 23.0243 -0.0003
# 2 37.6771 68.0237 39.8503 0.0002 12.7647 0.0000
# 3 49.6778 39.8503 136.5085 0.0003 34.0248 0.0000
# 4 0.0003 0.0002 0.0003 23.1662 -0.0003 4.8737
# 5 23.0243 12.7647 34.0248 -0.0003 32.9472 0.0001
# 6 -0.0003 0.0000 0.0000 4.8737 0.0001 22.1606
#
#
#
# Elastic Compliance Matrix: (Units=1/GPa)
#
#
# Indices 1 2 3 4 5 6 
#
# 1 0.017487 -0.006845 -0.002667 0.000000 -0.006814 0.000000
# 2 -0.006845 0.020516 -0.003648 0.000000 0.000602 0.000000
# 3 -0.002667 -0.003648 0.011506 0.000000 -0.008605 0.000000
# 4 0.000000 0.000000 0.000000 0.045260 0.000001 -0.009954
# 5 -0.006814 0.000602 -0.008605 0.000001 0.043766 0.000000
# 6 0.000000 0.000000 0.000000 -0.009954 0.000000 0.047314
#
#
# Mechanical properties :
#
#
# Convention : Reuss Voigt Hill
#
# Bulk Modulus (GPa) = 43.12444 60.82476 51.97460
# Shear Modulus (GPa) = 22.73745 26.70859 24.72302
#
# Velocity S-wave (km/s) = 3.30241 3.57920 3.44358
# Velocity P-wave (km/s) = 5.93512 6.80111 6.38282
#
# Compressibility (1/GPa) = 0.02318871
#
# Stress axis : x y z
#
# Youngs Moduli (GPa) = 57.18395 48.74190 86.91026
#
# Poissons Ratio (x) = 0.33362 0.23183
# Poissons Ratio (y) = 0.39140 0.31709
# Poissons Ratio (z) = 0.15253 0.17783
#
# Static dielectric constant tensor:
#      x y z
#    x 3.492160 0.000000 0.325350 
#    y 0.000000 3.513940 0.000000 
#    z 0.325350 0.000000 4.227380 
# 
# 
# High freq. dielectric constant tensor:
#      x y z
#    x 1.793130 0.000000 0.018040 
#    y 0.000000 1.796350 0.000000 
#    z 0.018040 0.000000 1.838820 
# 
# From -- ./inp_files/5113.got.cif
#   From: 2010.06.25/outbox.cif.g09.slc.cpg/sg9_3_cif.got.tgz:5113.got - 2010.06.27 21:40:51.
