data_PCOD8054244
_publ_section_title
;
Structure prediction by ZEFSAII (Michael W. Deem and Ramdas Pophale) SiO2 
 PCOD8054244
Probable space group: C C
;
_chemical_formula_sum "Si O2"
_cell_formula_units_Z 32
_cell_length_a 11.109767
_cell_length_b 16.812900
_cell_length_c 16.777158
_cell_angle_alpha 90.000000
_cell_angle_beta 33.215157
_cell_angle_gamma 90.000000
_cell_volume 1716.626306
_symmetry_space_group_name_H-M "C C"
_symmetry_group_IT_number 9
_symmetry_cell_setting 'monoclinic'
loop_
_space_group_symop_operation_xyz
x,y,z
x,-y,1/2+z
1/2+x,1/2+y,z
1/2+x,1/2-y,1/2+z
loop_
_atom_site_type_symbol
_atom_site_label
_atom_site_fract_x
_atom_site_fract_y
_atom_site_fract_z
Si Si1 0.448110 0.979217 0.810030
Si Si2 0.213927 0.443299 0.935961
Si Si3 0.096684 0.110322 0.310350
Si Si4 0.293025 0.413185 0.511145
Si Si5 0.027469 0.685828 0.041336
Si Si6 0.551304 0.369319 0.013782
Si Si7 0.276539 0.947129 0.247674
Si Si8 0.659860 0.937068 0.333311
O O1 0.676739 0.934745 0.659562
O O2 0.272502 0.909960 0.923472
O O3 0.358556 0.037467 0.791358
O O4 0.478017 0.034197 0.870882
O O5 0.407492 0.379311 0.847192
O O6 0.235744 0.482277 0.836846
O O7 0.259002 0.511095 0.975186
O O8 0.971943 0.405172 0.087735
O O9 0.268994 0.182453 0.207561
O O10 0.989925 0.104810 0.457733
O O11 0.236288 0.029282 0.221841
O O12 0.175489 0.338521 0.535054
O O13 0.553534 0.394767 0.376197
O O14 0.090145 0.775498 0.988834
O O15 0.061962 0.629177 0.946094
O O16 0.361252 0.396041 0.177757
#
# Coordination Sequence:
#
# PCOD8054244 Si02
#       8
#     4   4   4   4   4   4   4   4
#     4  10  19  34  54  86 114 146 194 251 282 339
#     4   9  18  31  54  82 109 143 190 243 282 331
#     4  10  18  36  54  75 116 151 186 234 289 354
#     4   9  17  33  55  78 113 152 188 231 298 354
#     4  11  21  37  55  85 116 156 188 238 301 352
#     4  11  22  35  59  83 118 149 195 240 296 349
#     4   9  15  32  55  80 106 147 186 230 292 346
#     4  11  22  32  56  93 112 144 199 247 288 335
#
# _framework density 18.641214999999999
#
# number of rings (size 3 to 8) (size 9 to 14) (size 15 to 20)
#    0.000    2.000    5.000    3.750    1.750    1.000 
#    0.000    0.000    0.000    4.500    0.000    0.000 
#    0.000    0.000    0.000    0.000    0.000    0.000 
#
# Total GULP energy -198303.981200 kJ/mol
# GULP energy per Si atom -12393.998825 kJ/mol
# Density = 1.859879 g / cm^3
# Si number density = 18.641215 Si / 1000 Ang^3
#
#
#
# Elastic Constant Matrix: (Units=GPa)
#
#
# Indices 1 2 3 4 5 6 
#
# 1 101.2007 35.8190 51.8231 -0.0101 -8.9893 0.0082
# 2 35.8190 60.2422 26.8148 -0.0171 -6.6210 0.0128
# 3 51.8231 26.8148 109.8597 -0.0438 -9.8619 0.0114
# 4 -0.0101 -0.0171 -0.0438 12.9083 0.0125 1.1599
# 5 -8.9893 -6.6210 -9.8619 0.0125 32.7623 -0.0123
# 6 0.0082 0.0128 0.0114 1.1599 -0.0123 14.2431
#
#
#
# Elastic Compliance Matrix: (Units=1/GPa)
#
#
# Indices 1 2 3 4 5 6 
#
# 1 0.015025 -0.006389 -0.005420 -0.000017 0.001200 0.000004
# 2 -0.006389 0.021535 -0.002065 0.000016 0.001977 -0.000014
# 3 -0.005420 -0.002065 0.012326 0.000034 0.001806 -0.000006
# 4 -0.000017 0.000016 0.000034 0.078041 -0.000023 -0.006356
# 5 0.001200 0.001977 0.001806 -0.000023 0.031795 0.000025
# 6 0.000004 -0.000014 -0.000006 -0.006356 0.000025 0.070727
#
#
# Mechanical properties :
#
#
# Convention : Reuss Voigt Hill
#
# Bulk Modulus (GPa) = 47.31115 55.57960 51.44538
# Shear Modulus (GPa) = 18.92198 22.43913 20.68056
#
# Velocity S-wave (km/s) = 3.18946 3.47326 3.33438
# Velocity P-wave (km/s) = 6.24488 6.77974 6.51780
#
# Compressibility (1/GPa) = 0.02113667
#
# Stress axis : x y z
#
# Youngs Moduli (GPa) = 66.55585 46.43621 81.13210
#
# Poissons Ratio (x) = 0.29668 0.43977
# Poissons Ratio (y) = 0.42523 0.16753
# Poissons Ratio (z) = 0.36076 0.09589
#
# Static dielectric constant tensor:
#      x y z
#    x 3.699620 -0.000020 -0.265530 
#    y -0.000020 3.058320 0.000110 
#    z -0.265530 0.000110 3.795310 
# 
# 
# High freq. dielectric constant tensor:
#      x y z
#    x 1.716570 0.000000 -0.005360 
#    y 0.000000 1.672100 0.000000 
#    z -0.005360 0.000000 1.741080 
# 
# From -- ./inp_files/7905.got.cif
#   From: 2010.06.25/outbox.cif.g09.slc.cpg/sg9_4_cif.got.tgz:7905.got - 2010.06.27 21:40:51.
