data_PCOD8054561
_publ_section_title
;
Structure prediction by ZEFSAII (Michael W. Deem and Ramdas Pophale) SiO2 
 PCOD8054561
Probable space group: C C
;
_chemical_formula_sum "Si O2"
_cell_formula_units_Z 32
_cell_length_a 10.999893
_cell_length_b 8.908889
_cell_length_c 21.965606
_cell_angle_alpha 90.000000
_cell_angle_beta 143.818809
_cell_angle_gamma 90.000000
_cell_volume 1270.743638
_symmetry_space_group_name_H-M "C C"
_symmetry_group_IT_number 9
_symmetry_cell_setting 'monoclinic'
loop_
_space_group_symop_operation_xyz
x,y,z
x,-y,1/2+z
1/2+x,1/2+y,z
1/2+x,1/2-y,1/2+z
loop_
_atom_site_type_symbol
_atom_site_label
_atom_site_fract_x
_atom_site_fract_y
_atom_site_fract_z
Si Si1 0.315300 0.091374 0.623920
Si Si2 0.406968 0.917168 0.544742
Si Si3 0.060059 0.890989 0.747049
Si Si4 0.980153 0.501970 0.941956
Si Si5 0.397907 0.632533 0.604849
Si Si6 0.919517 0.317352 0.734118
Si Si7 0.943479 0.058919 0.819369
Si Si8 0.378708 0.332201 0.893757
O O1 0.444277 0.236746 0.692280
O O2 0.074422 0.117733 0.512791
O O3 0.440608 0.024992 0.616301
O O4 0.324614 0.983254 0.687439
O O5 0.523875 0.975021 0.532050
O O6 0.488802 0.746609 0.590818
O O7 0.165178 0.910633 0.436269
O O8 0.302109 0.877115 0.860486
O O9 0.045995 0.993208 0.680281
O O10 0.948977 0.975008 0.757445
O O11 0.922682 0.662291 0.887540
O O12 0.183675 0.436931 0.993718
O O13 0.355005 0.733368 0.646579
O O14 0.167393 0.323752 0.845984
O O15 0.836102 0.222046 0.759630
O O16 0.824818 0.950253 0.818093
#
# Coordination Sequence:
#
# PCOD8054561 Si02
#       8
#     4   4   4   4   4   4   4   4
#     4  10  22  37  65  96 132 166 224 281 325 403
#     4   9  20  40  65  90 128 175 210 274 335 386
#     4  10  20  39  60  96 129 165 222 277 315 406
#     4  11  21  41  69  93 133 179 218 275 342 383
#     4  10  20  37  65  90 126 166 222 264 322 403
#     4  10  21  41  63  91 130 170 217 278 329 396
#     4   9  20  39  65  90 127 174 219 265 336 396
#     4  11  20  40  68  92 127 183 214 270 348 387
#
# _framework density 25.182105
#
# number of rings (size 3 to 8) (size 9 to 14) (size 15 to 20)
#    0.000    2.000    5.000    0.000    0.000    7.000 
#    2.250    1.250   13.750    0.000    0.000    0.000 
#    0.000    0.000    0.000    0.000    0.000    0.000 
#
# Total GULP energy -198243.952134 kJ/mol
# GULP energy per Si atom -12390.247008 kJ/mol
# Density = 2.512479 g / cm^3
# Si number density = 25.182105 Si / 1000 Ang^3
#
#
#
# Elastic Constant Matrix: (Units=GPa)
#
#
# Indices 1 2 3 4 5 6 
#
# 1 36.0438 7.6624 19.8781 0.0000 -12.7368 0.0000
# 2 7.6624 125.2524 78.6360 0.0000 -8.0183 0.0000
# 3 19.8781 78.6360 124.0379 0.0001 6.2943 0.0000
# 4 0.0000 0.0000 0.0001 48.9614 0.0000 -5.7327
# 5 -12.7368 -8.0183 6.2943 0.0000 27.4945 0.0000
# 6 0.0000 0.0000 0.0000 -5.7327 0.0000 33.6978
#
#
#
# Elastic Compliance Matrix: (Units=1/GPa)
#
#
# Indices 1 2 3 4 5 6 
#
# 1 0.041365 0.006500 -0.011957 0.000000 0.023795 0.000000
# 2 0.006500 0.015288 -0.011243 0.000000 0.010043 0.000000
# 3 -0.011957 -0.011243 0.017760 0.000000 -0.012884 0.000000
# 4 0.000000 0.000000 0.000000 0.020839 0.000000 0.003545
# 5 0.023795 0.010043 -0.012884 0.000000 0.053273 0.000000
# 6 0.000000 0.000000 0.000000 0.003545 0.000000 0.030279
#
#
# Mechanical properties :
#
#
# Convention : Reuss Voigt Hill
#
# Bulk Modulus (GPa) = 24.38336 55.29856 39.84096
# Shear Modulus (GPa) = 22.13599 33.97457 28.05528
#
# Velocity S-wave (km/s) = 2.96807 3.67707 3.34143
# Velocity P-wave (km/s) = 4.63139 6.32732 5.54458
#
# Compressibility (1/GPa) = 0.04101158
#
# Stress axis : x y z
#
# Youngs Moduli (GPa) = 24.17485 65.41054 56.30605
#
# Poissons Ratio (x) = -0.42516 0.67327
# Poissons Ratio (y) = -0.15713 0.63307
# Poissons Ratio (z) = 0.28907 0.73544
#
# Static dielectric constant tensor:
#      x y z
#    x 4.255770 0.000000 -0.292320 
#    y 0.000000 4.970850 0.000000 
#    z -0.292320 0.000000 4.731090 
# 
# 
# High freq. dielectric constant tensor:
#      x y z
#    x 1.963250 0.000000 -0.004050 
#    y 0.000000 2.016070 0.000000 
#    z -0.004050 0.000000 2.024390 
# 
# From -- ./inp_files/25511.got.cif
#   From: 2010.06.25/outbox.cif.g09.slc.cpg/sg9_13_cif.got.tgz:25511.got - 2010.06.27 21:40:51.
