data_PCOD8054930
_publ_section_title
;
Structure prediction by ZEFSAII (Michael W. Deem and Ramdas Pophale) SiO2 
 PCOD8054930
Probable space group: C C
;
_chemical_formula_sum "Si O2"
_cell_formula_units_Z 32
_cell_length_a 19.974325
_cell_length_b 13.083102
_cell_length_c 14.278821
_cell_angle_alpha 90.000000
_cell_angle_beta 21.138186
_cell_angle_gamma 90.000000
_cell_volume 1345.622404
_symmetry_space_group_name_H-M "C C"
_symmetry_group_IT_number 9
_symmetry_cell_setting 'monoclinic'
loop_
_space_group_symop_operation_xyz
x,y,z
x,-y,1/2+z
1/2+x,1/2+y,z
1/2+x,1/2-y,1/2+z
loop_
_atom_site_type_symbol
_atom_site_label
_atom_site_fract_x
_atom_site_fract_y
_atom_site_fract_z
Si Si1 0.968400 0.297927 0.500000
Si Si2 0.350232 0.380898 0.024803
Si Si3 0.718084 0.442595 0.720551
Si Si4 0.919187 0.227500 0.122108
Si Si5 0.321816 0.161247 0.579357
Si Si6 0.307462 0.493089 0.745317
Si Si7 0.446105 0.109733 0.223109
Si Si8 0.241356 0.905539 0.475443
O O1 0.927849 0.186215 0.512801
O O2 0.793354 0.362324 0.695453
O O3 0.979693 0.306483 0.598080
O O4 0.174621 0.335642 0.196597
O O5 0.296859 0.487784 0.145716
O O6 0.523174 0.397571 0.728334
O O7 0.848712 0.541018 0.560763
O O8 0.749995 0.394505 0.576203
O O9 0.506674 0.469275 0.022804
O O10 0.122783 0.190830 0.882741
O O11 0.956755 0.273526 0.968835
O O12 0.782291 0.128301 0.298131
O O13 0.851599 0.313788 0.282554
O O14 0.353885 0.176575 0.426523
O O15 0.137752 0.558040 0.011238
O O16 0.318424 0.017754 0.348364
#
# Coordination Sequence:
#
# PCOD8054930 Si02
#       8
#     4   4   4   4   4   4   4   4
#     4  11  22  40  66  90 122 162 206 259 317 373
#     4  10  22  39  63  94 122 159 206 263 314 366
#     4   9  20  41  63  93 126 155 205 265 310 366
#     4  11  22  40  63  89 124 165 203 249 305 365
#     4  10  23  39  60  90 126 162 203 252 303 364
#     4   9  20  39  63  90 124 159 203 259 312 367
#     4  10  22  42  64  90 126 165 204 255 309 369
#     4  10  21  40  64  94 126 161 206 252 306 370
#
# _framework density 23.780815
#
# number of rings (size 3 to 8) (size 9 to 14) (size 15 to 20)
#    0.000    2.000    0.000    3.750    0.000    8.000 
#    0.000    6.250    0.000    4.500    0.000    0.000 
#    0.000    0.000    0.000    0.000    0.000    0.000 
#
# Total GULP energy -198222.681464 kJ/mol
# GULP energy per Si atom -12388.917591 kJ/mol
# Density = 2.372669 g / cm^3
# Si number density = 23.780815 Si / 1000 Ang^3
#
#
#
# Elastic Constant Matrix: (Units=GPa)
#
#
# Indices 1 2 3 4 5 6 
#
# 1 45.0554 39.6162 14.0861 0.0000 4.0294 0.0001
# 2 39.6162 83.8630 26.8502 -0.0002 -0.1592 0.0002
# 3 14.0861 26.8502 117.0050 -0.0016 6.8819 0.0007
# 4 0.0000 -0.0002 -0.0016 34.4569 0.0009 4.7775
# 5 4.0294 -0.1592 6.8819 0.0009 24.4374 -0.0002
# 6 0.0001 0.0002 0.0007 4.7775 -0.0002 30.8169
#
#
#
# Elastic Compliance Matrix: (Units=1/GPa)
#
#
# Indices 1 2 3 4 5 6 
#
# 1 0.038985 -0.018401 -0.000087 0.000000 -0.006523 0.000000
# 2 -0.018401 0.021576 -0.002972 0.000000 0.004011 0.000000
# 3 -0.000087 -0.002972 0.009395 0.000001 -0.002651 0.000000
# 4 0.000000 0.000000 0.000001 0.029659 -0.000001 -0.004598
# 5 -0.006523 0.004011 -0.002651 -0.000001 0.042769 0.000001
# 6 0.000000 0.000000 0.000000 -0.004598 0.000001 0.033163
#
#
# Mechanical properties :
#
#
# Convention : Reuss Voigt Hill
#
# Bulk Modulus (GPa) = 36.98734 45.22538 41.10636
# Shear Modulus (GPa) = 21.98022 28.96698 25.47360
#
# Velocity S-wave (km/s) = 3.04350 3.49389 3.27644
# Velocity P-wave (km/s) = 5.28562 5.94434 5.62463
#
# Compressibility (1/GPa) = 0.02703628
#
# Stress axis : x y z
#
# Youngs Moduli (GPa) = 25.65112 46.34870 106.43934
#
# Poissons Ratio (x) = 0.85284 0.00927
# Poissons Ratio (y) = 0.47199 0.31632
# Poissons Ratio (z) = 0.00223 0.13774
#
# Static dielectric constant tensor:
#      x y z
#    x 3.958590 0.000000 -0.166180 
#    y 0.000000 4.473540 0.000000 
#    z -0.166180 0.000000 4.452510 
# 
# 
# High freq. dielectric constant tensor:
#      x y z
#    x 1.913820 0.000000 -0.011300 
#    y 0.000000 1.945790 0.000000 
#    z -0.011300 0.000000 1.950470 
# 
# From -- ./inp_files/27455.got.cif
#   From: 2010.06.25/outbox.cif.g09.slc.cpg/sg9_14_cif.got.tgz:27455.got - 2010.06.27 21:40:51.
