data_PCOD8054121
_publ_section_title
;
Structure prediction by ZEFSAII (Michael W. Deem and Ramdas Pophale) SiO2 
 PCOD8054121
Probable space group: C M
;
_chemical_formula_sum "Si O2"
_cell_formula_units_Z 26
_cell_length_a 10.692501
_cell_length_b 14.305415
_cell_length_c 13.546463
_cell_angle_alpha 90.000000
_cell_angle_beta 146.349242
_cell_angle_gamma 90.000000
_cell_volume 1148.197829
_symmetry_space_group_name_H-M "C M"
_symmetry_group_IT_number 8
_symmetry_cell_setting 'monoclinic'
loop_
_space_group_symop_operation_xyz
x,y,z
x,-y,z
1/2+x,1/2+y,z
1/2+x,1/2-y,z
loop_
_atom_site_type_symbol
_atom_site_label
_atom_site_fract_x
_atom_site_fract_y
_atom_site_fract_z
Si Si1 0.598551 0.500000 0.255630
Si Si2 0.080177 0.601643 0.288020
Si Si3 0.965479 0.204391 0.644393
Si Si4 0.072637 0.500000 0.946607
Si Si5 0.946747 0.673061 0.001154
Si Si6 0.593317 0.704169 0.514235
Si Si7 0.183831 0.000000 0.537296
Si Si8 0.225463 0.838533 0.191524
O O1 0.715757 0.500000 0.439845
O O2 0.672309 0.404774 0.249426
O O3 0.330665 0.500000 0.085486
O O4 0.129128 0.500000 0.277792
O O5 0.276973 0.627433 0.494597
O O6 0.833513 0.598662 0.176938
O O7 0.077773 0.668922 0.192036
O O8 0.845000 0.282479 0.633335
O O9 0.178073 0.161888 0.843275
O O10 0.076064 0.242839 0.614932
O O11 0.023021 0.593880 0.975223
O O12 0.925601 0.500000 0.750432
O O13 0.008712 0.779750 0.008830
O O14 0.543567 0.592381 0.478357
O O15 0.414529 0.759054 0.332251
#
# Coordination Sequence:
#
# PCOD8054121 Si02
#       8
#     2   4   4   2   4   4   2   4
#     4  12  28  49  73 104 150 188 243 304 367 439
#     4  11  25  46  71  99 139 185 239 299 355 429
#     4  11  26  42  72 100 149 185 243 292 363 427
#     4  12  28  45  72 114 141 190 242 300 362 435
#     4  12  26  44  73 105 143 186 243 294 364 430
#     4  11  24  47  69 107 142 195 239 301 359 431
#     4  12  26  44  75 104 151 186 245 288 367 430
#     4  11  26  48  72 104 142 192 239 300 368 428
#
# _framework density 22.644182000000001
#
# number of rings (size 3 to 8) (size 9 to 14) (size 15 to 20)
#    0.000    0.615    4.615    1.846   10.769    0.000 
#    0.000    0.000    0.000    0.000    0.000    0.000 
#    0.000    0.000    0.000    0.000    0.000    0.000 
#
# Total GULP energy -161134.789803 kJ/mol
# GULP energy per Si atom -12394.983831 kJ/mol
# Density = 2.259264 g / cm^3
# Si number density = 22.644182 Si / 1000 Ang^3
#
#
#
# Elastic Constant Matrix: (Units=GPa)
#
#
# Indices 1 2 3 4 5 6 
#
# 1 126.1140 41.4870 26.0360 0.0094 14.2979 0.0088
# 2 41.4870 122.3402 41.6553 -0.0051 10.4154 -0.0078
# 3 26.0360 41.6553 112.4823 -0.0069 10.1141 -0.0127
# 4 0.0094 -0.0051 -0.0069 22.5186 -0.0036 3.7558
# 5 14.2979 10.4154 10.1141 -0.0036 36.1943 -0.0055
# 6 0.0088 -0.0078 -0.0127 3.7558 -0.0055 37.0914
#
#
#
# Elastic Compliance Matrix: (Units=1/GPa)
#
#
# Indices 1 2 3 4 5 6 
#
# 1 0.009281 -0.002599 -0.000947 -0.000005 -0.002654 -0.000003
# 2 -0.002599 0.010193 -0.003079 0.000002 -0.001046 0.000001
# 3 -0.000947 -0.003079 0.010398 0.000002 -0.001645 0.000003
# 4 -0.000005 0.000002 0.000002 0.045171 0.000004 -0.004574
# 5 -0.002654 -0.001046 -0.001645 0.000004 0.029438 0.000004
# 6 -0.000003 0.000001 0.000003 -0.004574 0.000004 0.027424
#
#
# Mechanical properties :
#
#
# Convention : Reuss Voigt Hill
#
# Bulk Modulus (GPa) = 60.16456 64.36588 62.26522
# Shear Modulus (GPa) = 33.18003 35.94475 34.56239
#
# Velocity S-wave (km/s) = 3.83205 3.98851 3.91106
# Velocity P-wave (km/s) = 6.79755 7.04965 6.92475
#
# Compressibility (1/GPa) = 0.01662108
#
# Stress axis : x y z
#
# Youngs Moduli (GPa) = 107.75145 98.11022 96.17500
#
# Poissons Ratio (x) = 0.25496 0.09109
# Poissons Ratio (y) = 0.28002 0.29612
# Poissons Ratio (z) = 0.10206 0.30208
#
# Static dielectric constant tensor:
#      x y z
#    x 4.343670 0.000050 0.158110 
#    y 0.000050 4.124500 0.000050 
#    z 0.158110 0.000050 4.101200 
# 
# 
# High freq. dielectric constant tensor:
#      x y z
#    x 1.904530 0.000000 0.011800 
#    y 0.000000 1.890570 0.000000 
#    z 0.011800 0.000000 1.891680 
# 
# From -- ./inp_files/26163.got.cif
#   From: 2010.03.12/outbox.cif.g09.slc.cpg/sg8_14_cif.got.tgz:26163.got - 2010.03.31 10:45:26.
