data_PCOD8054243
_publ_section_title
;
Structure prediction by ZEFSAII (Michael W. Deem and Ramdas Pophale) SiO2 
 PCOD8054243
Probable space group: C C
;
_chemical_formula_sum "Si O2"
_cell_formula_units_Z 32
_cell_length_a 17.123239
_cell_length_b 11.206027
_cell_length_c 8.757527
_cell_angle_alpha 90.000000
_cell_angle_beta 124.024509
_cell_angle_gamma 90.000000
_cell_volume 1392.733163
_symmetry_space_group_name_H-M "C C"
_symmetry_group_IT_number 9
_symmetry_cell_setting 'monoclinic'
loop_
_space_group_symop_operation_xyz
x,y,z
x,-y,1/2+z
1/2+x,1/2+y,z
1/2+x,1/2-y,1/2+z
loop_
_atom_site_type_symbol
_atom_site_label
_atom_site_fract_x
_atom_site_fract_y
_atom_site_fract_z
Si Si1 0.513820 0.573880 0.023350
Si Si2 0.434314 0.839538 0.412783
Si Si3 0.571738 0.747300 0.324673
Si Si4 0.722949 0.624150 0.136959
Si Si5 0.082655 0.478476 0.136855
Si Si6 0.476718 0.657143 0.673108
Si Si7 0.143463 0.663446 0.414543
Si Si8 0.263142 0.106133 0.512780
O O1 0.499988 0.670564 0.141821
O O2 0.621242 0.580523 0.084768
O O3 0.490451 0.444621 0.061930
O O4 0.445269 0.602286 0.802808
O O5 0.523241 0.771672 0.432748
O O6 0.404075 0.755484 0.523954
O O7 0.349169 0.843982 0.203867
O O8 0.475565 0.967179 0.515868
O O9 0.590941 0.871715 0.263888
O O10 0.669232 0.677059 0.458184
O O11 0.787879 0.619146 0.360223
O O12 0.755648 0.534251 0.041410
O O13 0.731107 0.760197 0.078079
O O14 0.155608 0.583833 0.274321
O O15 0.108525 0.433871 0.998364
O O16 0.572190 0.728781 0.808119
#
# Coordination Sequence:
#
# PCOD8054243 Si02
#       8
#     4   4   4   4   4   4   4   4
#     4  10  18  35  67  90 122 166 221 261 326 390
#     4  11  25  38  65  94 133 173 226 272 332 394
#     4  11  21  40  65  91 130 177 211 271 333 389
#     4  10  20  38  59  94 128 163 214 280 322 387
#     4  11  20  36  61  92 123 171 215 264 324 393
#     4  10  19  34  59  92 123 163 215 268 321 384
#     4  10  19  35  59  90 124 166 219 260 326 392
#     4  11  24  40  65  97 133 167 225 276 332 393
#
# _framework density 22.976403000000001
#
# number of rings (size 3 to 8) (size 9 to 14) (size 15 to 20)
#    0.000    1.500    5.000    4.500    1.750    1.000 
#    0.000    0.000   11.000    0.000    0.000    0.000 
#    0.000    0.000    0.000    0.000    0.000    0.000 
#
# Total GULP energy -198226.995743 kJ/mol
# GULP energy per Si atom -12389.187234 kJ/mol
# Density = 2.292411 g / cm^3
# Si number density = 22.976403 Si / 1000 Ang^3
#
#
#
# Elastic Constant Matrix: (Units=GPa)
#
#
# Indices 1 2 3 4 5 6 
#
# 1 12.4676 7.2002 2.5965 0.0000 4.2597 0.0000
# 2 7.2002 131.9023 50.3990 0.0000 2.2693 0.0000
# 3 2.5965 50.3990 136.8283 0.0000 4.8985 0.0000
# 4 0.0000 0.0000 0.0000 59.9201 0.0000 -20.6080
# 5 4.2597 2.2693 4.8985 0.0000 18.0206 0.0000
# 6 0.0000 0.0000 0.0000 -20.6080 0.0000 23.1285
#
#
#
# Elastic Compliance Matrix: (Units=1/GPa)
#
#
# Indices 1 2 3 4 5 6 
#
# 1 0.089982 -0.004871 0.000834 0.000000 -0.020883 0.000000
# 2 -0.004871 0.009088 -0.003287 0.000000 0.000901 0.000000
# 3 0.000834 -0.003287 0.008579 0.000000 -0.002115 0.000000
# 4 0.000000 0.000000 0.000000 0.024063 0.000000 0.021440
# 5 -0.020883 0.000901 -0.002115 0.000000 0.060890 0.000000
# 6 0.000000 0.000000 0.000000 0.021440 0.000000 0.062341
#
#
# Mechanical properties :
#
#
# Convention : Reuss Voigt Hill
#
# Bulk Modulus (GPa) = 10.75262 44.62109 27.68685
# Shear Modulus (GPa) = 16.63391 34.94737 25.79064
#
# Velocity S-wave (km/s) = 2.69356 3.90425 3.35398
# Velocity P-wave (km/s) = 3.78995 6.30767 5.20339
#
# Compressibility (1/GPa) = 0.09300061
#
# Stress axis : x y z
#
# Youngs Moduli (GPa) = 11.11333 110.03759 116.56212
#
# Poissons Ratio (x) = 0.53604 -0.09727
# Poissons Ratio (y) = 0.05414 0.38316
# Poissons Ratio (z) = -0.00927 0.36171
#
# Static dielectric constant tensor:
#      x y z
#    x 3.713910 0.000000 -0.554530 
#    y 0.000000 4.529680 0.000000 
#    z -0.554530 0.000000 4.943290 
# 
# 
# High freq. dielectric constant tensor:
#      x y z
#    x 1.836810 0.000000 -0.032820 
#    y 0.000000 1.931750 0.000000 
#    z -0.032820 0.000000 1.933090 
# 
# From -- ./inp_files/11597.got.cif
#   From: 2010.06.25/outbox.cif.g09.slc.cpg/sg9_6_cif.got.tgz:11597.got - 2010.06.27 21:40:51.
