data_PCOD8054418
_publ_section_title
;
Structure prediction by ZEFSAII (Michael W. Deem and Ramdas Pophale) SiO2 
 PCOD8054418
Probable space group: C C
;
_chemical_formula_sum "Si O2"
_cell_formula_units_Z 28
_cell_length_a 8.666746
_cell_length_b 11.184792
_cell_length_c 22.214193
_cell_angle_alpha 90.000000
_cell_angle_beta 40.013316
_cell_angle_gamma 90.000000
_cell_volume 1384.529705
_symmetry_space_group_name_H-M "C C"
_symmetry_group_IT_number 9
_symmetry_cell_setting 'monoclinic'
loop_
_space_group_symop_operation_xyz
x,y,z
x,-y,1/2+z
1/2+x,1/2+y,z
1/2+x,1/2-y,1/2+z
loop_
_atom_site_type_symbol
_atom_site_label
_atom_site_fract_x
_atom_site_fract_y
_atom_site_fract_z
Si Si1 0.554340 0.531637 0.900580
Si Si2 0.231152 0.123569 0.969465
Si Si3 0.164201 0.366671 0.060724
Si Si4 0.119025 0.112864 0.750445
Si Si5 0.229747 0.457537 0.286356
Si Si6 0.861564 0.946423 0.119019
Si Si7 0.008955 0.622202 0.266000
O O1 0.620747 0.622240 0.934893
O O2 0.568876 0.608856 0.836095
O O3 0.735157 0.419601 0.843675
O O4 0.291333 0.473222 0.985667
O O5 0.519841 0.118853 0.880860
O O6 0.158314 0.242645 0.026717
O O7 0.125775 0.005829 0.034708
O O8 0.306578 0.351113 0.082179
O O9 0.894065 0.409327 0.153057
O O10 0.950309 0.017766 0.765820
O O11 0.023462 0.237592 0.752579
O O12 0.324731 0.389364 0.196623
O O13 0.120783 0.585509 0.298116
O O14 0.667323 0.054753 0.167725
#
# Coordination Sequence:
#
# PCOD8054418 Si02
#       7
#     4   4   4   4   4   4   4
#     4  10  23  38  59  88 121 153 199 243 286 353
#     4  10  19  39  62  86 117 160 198 234 300 345
#     4  11  20  36  64  86 117 158 197 241 294 348
#     4  12  21  38  63  88 118 158 194 239 302 343
#     4   9  21  37  59  88 119 148 197 245 286 352
#     4   9  19  39  60  82 118 157 189 245 289 343
#     4   9  19  41  59  78 118 156 184 243 289 342
#
# _framework density 20.223474
#
# number of rings (size 3 to 8) (size 9 to 14) (size 15 to 20)
#    0.857    1.143    2.857    0.857    0.000    2.286 
#    0.000    7.143    0.000    0.000    0.000    0.000 
#    0.000    0.000    0.000    0.000    0.000    0.000 
#
# Total GULP energy -173485.560735 kJ/mol
# GULP energy per Si atom -12391.825767 kJ/mol
# Density = 2.017744 g / cm^3
# Si number density = 20.223474 Si / 1000 Ang^3
#
#
#
# Elastic Constant Matrix: (Units=GPa)
#
#
# Indices 1 2 3 4 5 6 
#
# 1 97.6403 26.3462 49.6072 -0.0003 -2.2828 -0.0002
# 2 26.3462 47.4398 18.5463 0.0001 -0.0173 -0.0001
# 3 49.6072 18.5463 126.5364 -0.0004 10.4450 0.0003
# 4 -0.0003 0.0001 -0.0004 32.0176 0.0004 0.8697
# 5 -2.2828 -0.0173 10.4450 0.0004 18.6882 0.0001
# 6 -0.0002 -0.0001 0.0003 0.8697 0.0001 22.9666
#
#
#
# Elastic Compliance Matrix: (Units=1/GPa)
#
#
# Indices 1 2 3 4 5 6 
#
# 1 0.014659 -0.006089 -0.005244 0.000000 0.004716 0.000000
# 2 -0.006089 0.024958 -0.001270 0.000000 -0.000011 0.000000
# 3 -0.005244 -0.001270 0.010691 0.000000 -0.006617 0.000000
# 4 0.000000 0.000000 0.000000 0.031265 -0.000001 -0.001184
# 5 0.004716 -0.000011 -0.006617 -0.000001 0.057784 0.000000
# 6 0.000000 0.000000 0.000000 -0.001184 0.000000 0.043586
#
#
# Mechanical properties :
#
#
# Convention : Reuss Voigt Hill
#
# Bulk Modulus (GPa) = 39.83776 51.17953 45.50864
# Shear Modulus (GPa) = 23.09299 26.54229 24.81764
#
# Velocity S-wave (km/s) = 3.38285 3.62670 3.50690
# Velocity P-wave (km/s) = 5.91606 6.54975 6.24096
#
# Compressibility (1/GPa) = 0.02510182
#
# Stress axis : x y z
#
# Youngs Moduli (GPa) = 68.21693 40.06799 93.53743
#
# Poissons Ratio (x) = 0.24399 0.49048
# Poissons Ratio (y) = 0.41540 0.11878
# Poissons Ratio (z) = 0.35771 0.05088
#
# Static dielectric constant tensor:
#      x y z
#    x 3.483630 0.000000 -0.003640 
#    y 0.000000 3.144700 0.000000 
#    z -0.003640 0.000000 3.953110 
# 
# 
# High freq. dielectric constant tensor:
#      x y z
#    x 1.778800 0.000000 -0.003840 
#    y 0.000000 1.745620 0.000000 
#    z -0.003840 0.000000 1.815030 
# 
# From -- ./inp_files/29048.got.cif
#   From: 2010.06.25/outbox.cif.g09.slc.cpg/sg9_15_cif.got.tgz:29048.got - 2010.06.27 21:40:51.
