data_PCOD8054827
_publ_section_title
;
Structure prediction by ZEFSAII (Michael W. Deem and Ramdas Pophale) SiO2 
 PCOD8054827
Probable space group: C C
;
_chemical_formula_sum "Si O2"
_cell_formula_units_Z 24
_cell_length_a 13.862231
_cell_length_b 8.941890
_cell_length_c 9.115098
_cell_angle_alpha 90.000000
_cell_angle_beta 93.346686
_cell_angle_gamma 90.000000
_cell_volume 1127.930942
_symmetry_space_group_name_H-M "C C"
_symmetry_group_IT_number 9
_symmetry_cell_setting 'monoclinic'
loop_
_space_group_symop_operation_xyz
x,y,z
x,-y,1/2+z
1/2+x,1/2+y,z
1/2+x,1/2-y,1/2+z
loop_
_atom_site_type_symbol
_atom_site_label
_atom_site_fract_x
_atom_site_fract_y
_atom_site_fract_z
Si Si1 0.928760 0.913839 0.522130
Si Si2 0.518139 0.854494 0.516835
Si Si3 0.250819 0.953614 0.307695
Si Si4 0.862019 0.828932 0.833966
Si Si5 0.126633 0.923869 0.033164
Si Si6 0.950993 0.381042 0.843260
O O1 0.875534 0.858618 0.662626
O O2 0.956885 0.780509 0.415928
O O3 0.852817 0.018682 0.426325
O O4 0.025807 0.002625 0.576433
O O5 0.454552 0.757691 0.400403
O O6 0.616996 0.758230 0.535743
O O7 0.474135 0.874710 0.674092
O O8 0.528450 0.015760 0.438982
O O9 0.269504 0.778717 0.348335
O O10 0.220297 0.968488 0.136251
O O11 0.154499 0.013029 0.377611
O O12 0.343545 0.053678 0.352044
#
# Coordination Sequence:
#
# PCOD8054827 Si02
#       6
#     4   4   4   4   4   4
#     4  11  21  39  64  89 122 166 206 247 303 378
#     4  10  21  38  60  88 119 162 205 242 302 378
#     4  11  22  39  61  89 121 156 203 261 308 352
#     4  10  21  38  60  88 119 162 205 242 302 378
#     4  11  22  39  61  89 121 156 203 261 308 352
#     4  11  21  39  64  89 122 166 206 247 303 378
#
# _framework density 21.277895999999998
#
# number of rings (size 3 to 8) (size 9 to 14) (size 15 to 20)
#    0.000    1.333    0.000   10.000    0.000    0.000 
#    0.000    8.333    0.000    0.000    0.000    0.000 
#    0.000    0.000    0.000    0.000    0.000    0.000 
#
# Total GULP energy -148751.418721 kJ/mol
# GULP energy per Si atom -12395.951560 kJ/mol
# Density = 2.122947 g / cm^3
# Si number density = 21.277896 Si / 1000 Ang^3
#
#
#
# Elastic Constant Matrix: (Units=GPa)
#
#
# Indices 1 2 3 4 5 6 
#
# 1 61.6076 28.0375 13.5892 0.0000 -4.8210 0.0000
# 2 28.0375 137.8146 40.2317 0.0000 -2.5534 0.0000
# 3 13.5892 40.2317 113.1246 0.0000 -8.8322 0.0000
# 4 0.0000 0.0000 0.0000 43.4527 0.0000 1.9775
# 5 -4.8210 -2.5534 -8.8322 0.0000 35.1516 0.0000
# 6 0.0000 0.0000 0.0000 1.9775 0.0000 28.3313
#
#
#
# Elastic Compliance Matrix: (Units=1/GPa)
#
#
# Indices 1 2 3 4 5 6 
#
# 1 0.018122 -0.003415 -0.000804 0.000000 0.002035 0.000000
# 2 -0.003415 0.008741 -0.002739 0.000000 -0.000522 0.000000
# 3 -0.000804 -0.002739 0.010084 0.000000 0.002225 0.000000
# 4 0.000000 0.000000 0.000000 0.023087 0.000000 -0.001611
# 5 0.002035 -0.000522 0.002225 0.000000 0.029248 0.000000
# 6 0.000000 0.000000 0.000000 -0.001611 0.000000 0.035409
#
#
# Mechanical properties :
#
#
# Convention : Reuss Voigt Hill
#
# Bulk Modulus (GPa) = 43.41688 52.91817 48.16753
# Shear Modulus (GPa) = 34.18013 36.76634 35.47324
#
# Velocity S-wave (km/s) = 4.01230 4.16133 4.08749
# Velocity P-wave (km/s) = 6.47408 6.92913 6.70547
#
# Compressibility (1/GPa) = 0.02303252
#
# Stress axis : x y z
#
# Youngs Moduli (GPa) = 55.18077 114.40673 99.16523
#
# Poissons Ratio (x) = 0.39064 0.07970
# Poissons Ratio (y) = 0.18842 0.27162
# Poissons Ratio (z) = 0.04435 0.31337
#
# Static dielectric constant tensor:
#      x y z
#    x 3.504490 0.000000 0.237290 
#    y 0.000000 4.417630 0.000000 
#    z 0.237290 0.000000 3.959090 
# 
# 
# High freq. dielectric constant tensor:
#      x y z
#    x 1.799960 0.000000 0.008000 
#    y 0.000000 1.848510 0.000000 
#    z 0.008000 0.000000 1.855110 
# 
# From -- ./inp_files/6720.got.cif
#   From: 2010.06.25/outbox.cif.g09.slc.cpg/sg9_4_cif.got.tgz:6720.got - 2010.06.27 21:40:51.
