data_PCOD8054118
_publ_section_title
;
Structure prediction by ZEFSAII (Michael W. Deem and Ramdas Pophale) SiO2 
 PCOD8054118
Probable space group: C M
;
_chemical_formula_sum "Si O2"
_cell_formula_units_Z 28
_cell_length_a 8.832497
_cell_length_b 32.969303
_cell_length_c 5.433352
_cell_angle_alpha 90.000000
_cell_angle_beta 49.963616
_cell_angle_gamma 90.000000
_cell_volume 1211.388682
_symmetry_space_group_name_H-M "C M"
_symmetry_group_IT_number 8
_symmetry_cell_setting 'monoclinic'
loop_
_space_group_symop_operation_xyz
x,y,z
x,-y,z
1/2+x,1/2+y,z
1/2+x,1/2-y,z
loop_
_atom_site_type_symbol
_atom_site_label
_atom_site_fract_x
_atom_site_fract_y
_atom_site_fract_z
Si Si1 0.898940 0.133993 0.255450
Si Si2 0.727827 0.500000 0.500555
Si Si3 0.478634 0.000000 0.733714
Si Si4 0.231291 0.128352 0.256797
Si Si5 0.114371 0.579528 0.790524
Si Si6 0.949283 0.291039 0.085442
Si Si7 0.435444 0.573852 0.827048
Si Si8 0.192169 0.288166 0.328296
O O1 0.720027 0.123305 0.630073
O O2 0.843405 0.174060 0.162693
O O3 0.125143 0.139503 0.108679
O O4 0.879710 0.089312 0.153301
O O5 0.586852 0.537915 0.668827
O O6 0.840212 0.500000 0.122830
O O7 0.869340 0.500000 0.587852
O O8 0.608982 0.958525 0.604512
O O9 0.045736 0.114103 0.610503
O O10 0.386960 0.091502 0.079411
O O11 0.325441 0.168562 0.271358
O O12 0.232529 0.561894 0.901866
O O13 0.044961 0.293321 0.713690
O O14 0.099412 0.286624 0.154621
O O15 0.805156 0.253244 0.252434
#
# Coordination Sequence:
#
# PCOD8054118 Si02
#       8
#     4   2   2   4   4   4   4   4
#     4  11  26  43  73 105 142 185 239 292 351 425
#     4  12  27  47  70 107 140 188 238 292 357 418
#     4  12  27  45  76  99 144 188 238 292 359 420
#     4  11  24  45  71 103 143 185 234 292 353 418
#     4  11  24  47  69 104 138 188 236 289 356 418
#     4  12  27  46  74 103 148 186 237 294 352 422
#     4  11  26  43  74 100 145 185 238 293 353 424
#     4  12  27  47  72 107 144 187 238 290 356 418
#
# _framework density 23.113966000000001
#
# number of rings (size 3 to 8) (size 9 to 14) (size 15 to 20)
#    0.000    0.571    2.857    3.857   10.000    2.857 
#    0.000    0.000    0.000    0.000    0.000    0.000 
#    0.000    0.000    0.000    0.000    0.000    0.000 
#
# Total GULP energy -173454.834208 kJ/mol
# GULP energy per Si atom -12389.631015 kJ/mol
# Density = 2.306136 g / cm^3
# Si number density = 23.113966 Si / 1000 Ang^3
#
#
#
# Elastic Constant Matrix: (Units=GPa)
#
#
# Indices 1 2 3 4 5 6 
#
# 1 162.4839 41.0992 8.0056 0.0000 0.1230 0.0000
# 2 41.0992 137.2557 0.3863 0.0000 -11.4718 0.0000
# 3 8.0056 0.3863 49.4376 0.0000 0.6424 0.0000
# 4 0.0000 0.0000 0.0000 3.2179 0.0000 17.4627
# 5 0.1230 -11.4718 0.6424 0.0000 36.2578 0.0000
# 6 0.0000 0.0000 0.0000 17.4627 0.0000 33.4363
#
#
#
# Elastic Compliance Matrix: (Units=1/GPa)
#
#
# Indices 1 2 3 4 5 6 
#
# 1 0.006730 -0.002067 -0.001065 0.000000 -0.000658 0.000000
# 2 -0.002067 0.008119 0.000238 0.000000 0.002572 0.000000
# 3 -0.001065 0.000238 0.020402 0.000000 -0.000283 0.000000
# 4 0.000000 0.000000 0.000000 -0.169426 0.000000 0.088486
# 5 -0.000658 0.002572 -0.000283 0.000000 0.028401 0.000000
# 6 0.000000 0.000000 0.000000 0.088486 0.000000 -0.016306
#
#
# Mechanical properties :
#
#
# Convention : Reuss Voigt Hill
#
# Bulk Modulus (GPa) = 33.94201 49.79547 41.86874
# Shear Modulus (GPa) = -46.96180 34.56148 -6.20016
#
# Velocity S-wave (km/s) = -4.51238 3.87106 -1.63959
# Velocity P-wave (km/s) = 3.52595 6.44751 3.81694
#
# Compressibility (1/GPa) = 0.02946202
#
# Stress axis : x y z
#
# Youngs Moduli (GPa) = 148.58082 123.16848 49.01520
#
# Poissons Ratio (x) = 0.25463 0.05221
# Poissons Ratio (y) = 0.30716 -0.01166
# Poissons Ratio (z) = 0.15826 -0.02930
#
# Static dielectric constant tensor:
#      x y z
#    x 4.380070 0.000000 0.058810 
#    y 0.000000 4.500980 0.000000 
#    z 0.058810 0.000000 4.077480 
# 
# 
# High freq. dielectric constant tensor:
#      x y z
#    x 1.929400 0.000000 -0.005700 
#    y 0.000000 1.936690 0.000000 
#    z -0.005700 0.000000 1.905900 
# 
# From -- ./inp_files/1953.got.cif
#   From: 2010.03.12/outbox.cif.g09.slc.cpg/sg8_1_cif.got.tgz:1953.got - 2010.03.31 10:45:26.
