data_PCOD8054048
_publ_section_title
;
Structure prediction by ZEFSAII (Michael W. Deem and Ramdas Pophale) SiO2 
 PCOD8054048
Probable space group: C M
;
_chemical_formula_sum "Si O2"
_cell_formula_units_Z 32
_cell_length_a 11.150951
_cell_length_b 19.660250
_cell_length_c 14.090625
_cell_angle_alpha 90.000000
_cell_angle_beta 149.280602
_cell_angle_gamma 90.000000
_cell_volume 1578.014520
_symmetry_space_group_name_H-M "C M"
_symmetry_group_IT_number 8
_symmetry_cell_setting 'monoclinic'
loop_
_space_group_symop_operation_xyz
x,y,z
x,-y,z
1/2+x,1/2+y,z
1/2+x,1/2-y,z
loop_
_atom_site_type_symbol
_atom_site_label
_atom_site_fract_x
_atom_site_fract_y
_atom_site_fract_z
Si Si1 0.977630 0.922093 0.572230
Si Si2 0.755683 0.301063 0.328933
Si Si3 0.587492 0.191064 0.722338
Si Si4 0.932790 0.579972 0.761762
Si Si5 0.616352 0.302122 0.032660
Si Si6 0.306155 0.655470 0.126884
Si Si7 0.643951 0.664886 0.846533
Si Si8 0.167591 0.349405 0.228973
O O1 0.731703 0.904965 0.352089
O O2 0.193193 0.898765 0.652084
O O3 0.983449 0.886468 0.678423
O O4 0.988707 0.000000 0.603370
O O5 0.551262 0.345112 0.238252
O O6 0.680114 0.223040 0.288502
O O7 0.995417 0.309298 0.551131
O O8 0.792160 0.319359 0.241222
O O9 0.466019 0.127460 0.691952
O O10 0.543750 0.260894 0.749923
O O11 0.866033 0.186048 0.910022
O O12 0.930636 0.500000 0.731906
O O13 0.151522 0.594441 0.979492
O O14 0.632603 0.350564 0.952117
O O15 0.664774 0.226893 0.024334
O O16 0.355768 0.641157 0.271690
O O17 0.914021 0.646916 0.005673
#
# Coordination Sequence:
#
# PCOD8054048 Si02
#       8
#     4   4   4   4   4   4   4   4
#     4  11  25  42  62  94 127 166 209 252 318 376
#     4  11  22  35  61  94 124 156 203 260 311 365
#     4  12  22  39  64  93 126 160 207 262 306 365
#     4  11  22  40  65  91 126 165 203 255 316 374
#     4  11  21  37  60  93 123 157 206 254 305 362
#     4  11  19  38  59  94 124 154 208 253 311 370
#     4  12  22  38  66  92 125 167 209 256 306 364
#     4  11  21  35  61  93 127 157 201 258 311 366
#
# _framework density 20.278646999999999
#
# number of rings (size 3 to 8) (size 9 to 14) (size 15 to 20)
#    0.000    0.750    8.750    0.750    0.000    4.000 
#    0.000    1.250    0.000    0.000    0.000    0.000 
#    0.000    0.000    0.000    0.000    0.000    0.000 
#
# Total GULP energy -198279.868561 kJ/mol
# GULP energy per Si atom -12392.491785 kJ/mol
# Density = 2.023249 g / cm^3
# Si number density = 20.278647 Si / 1000 Ang^3
#
#
#
# Elastic Constant Matrix: (Units=GPa)
#
#
# Indices 1 2 3 4 5 6 
#
# 1 77.1362 30.9322 21.0471 -0.0006 -33.7146 -0.0006
# 2 30.9322 62.7685 27.1309 0.0005 -16.4905 0.0002
# 3 21.0471 27.1309 102.6266 -0.0010 -38.3357 -0.0008
# 4 -0.0006 0.0005 -0.0010 22.5625 -0.0006 -2.1314
# 5 -33.7146 -16.4905 -38.3357 -0.0006 39.2303 -0.0005
# 6 -0.0006 0.0002 -0.0008 -2.1314 -0.0005 23.6785
#
#
#
# Elastic Compliance Matrix: (Units=1/GPa)
#
#
# Indices 1 2 3 4 5 6 
#
# 1 0.025342 -0.008814 0.006117 0.000002 0.024052 0.000002
# 2 -0.008814 0.021593 -0.005260 -0.000001 -0.003638 -0.000001
# 3 0.006117 -0.005260 0.017352 0.000002 0.020002 0.000001
# 4 0.000002 -0.000001 0.000002 0.044701 0.000003 0.004024
# 5 0.024052 -0.003638 0.020002 0.000003 0.064178 0.000003
# 6 0.000002 -0.000001 0.000001 0.004024 0.000003 0.042595
#
#
# Mechanical properties :
#
#
# Convention : Reuss Voigt Hill
#
# Bulk Modulus (GPa) = 20.67216 44.52795 32.60006
# Shear Modulus (GPa) = 20.17779 27.98899 24.08339
#
# Velocity S-wave (km/s) = 3.15783 3.71916 3.44993
# Velocity P-wave (km/s) = 4.84892 6.35992 5.65511
#
# Compressibility (1/GPa) = 0.04837423
#
# Stress axis : x y z
#
# Youngs Moduli (GPa) = 39.46043 46.31210 57.63083
#
# Poissons Ratio (x) = 0.40818 -0.35254
# Poissons Ratio (y) = 0.34779 0.30312
# Poissons Ratio (z) = -0.24139 0.24359
#
# Static dielectric constant tensor:
#      x y z
#    x 3.720570 0.000000 -0.192770 
#    y 0.000000 3.303820 0.000000 
#    z -0.192770 0.000000 3.830470 
# 
# 
# High freq. dielectric constant tensor:
#      x y z
#    x 1.791990 0.000000 -0.020770 
#    y 0.000000 1.747570 0.000000 
#    z -0.020770 0.000000 1.803450 
# 
# From -- ./inp_files/26265.got.cif
#   From: 2010.03.12/outbox.cif.g09.slc.cpg/sg8_14_cif.got.tgz:26265.got - 2010.03.31 10:45:26.
