data_PCOD8054091
_publ_section_title
;
Structure prediction by ZEFSAII (Michael W. Deem and Ramdas Pophale) SiO2 
 PCOD8054091
Probable space group: C M
;
_chemical_formula_sum "Si O2"
_cell_formula_units_Z 24
_cell_length_a 8.142398
_cell_length_b 15.159871
_cell_length_c 8.594253
_cell_angle_alpha 90.000000
_cell_angle_beta 86.333204
_cell_angle_gamma 90.000000
_cell_volume 1058.683121
_symmetry_space_group_name_H-M "C M"
_symmetry_group_IT_number 8
_symmetry_cell_setting 'monoclinic'
loop_
_space_group_symop_operation_xyz
x,y,z
x,-y,z
1/2+x,1/2+y,z
1/2+x,1/2-y,z
loop_
_atom_site_type_symbol
_atom_site_label
_atom_site_fract_x
_atom_site_fract_y
_atom_site_fract_z
Si Si1 0.040760 0.826531 0.223550
Si Si2 0.714903 0.682805 0.739700
Si Si3 0.409379 0.318826 0.563264
Si Si4 0.291572 0.500000 0.644305
Si Si5 0.135778 0.000000 0.791161
Si Si6 0.919930 0.000000 0.099261
Si Si7 0.869153 0.324840 0.046802
Si Si8 0.074226 0.500000 0.950016
O O1 0.232348 0.848570 0.184287
O O2 0.018658 0.801376 0.404865
O O3 0.990282 0.747504 0.111514
O O4 0.930276 0.912619 0.202191
O O5 0.518485 0.682336 0.716371
O O6 0.792538 0.734634 0.591098
O O7 0.759892 0.579424 0.743163
O O8 0.772306 0.719330 0.904568
O O9 0.294709 0.406916 0.550445
O O10 0.472643 0.500000 0.702962
O O11 0.134679 0.500000 0.767211
O O12 0.077348 0.000000 0.973899
O O13 0.741192 0.000000 0.036354
O O14 0.970251 0.412325 0.994008
#
# Coordination Sequence:
#
# PCOD8054091 Si02
#       8
#     4   4   4   2   2   2   4   2
#     4  12  25  44  70  99 142 175 222 276 345 400
#     4  11  23  42  68  99 130 175 229 269 333 392
#     4  11  25  44  67  99 136 180 213 277 342 401
#     4   9  23  40  67  93 134 170 223 267 332 395
#     4   9  19  40  64  98 126 173 217 275 321 391
#     4  11  22  42  69  98 137 174 221 278 340 396
#     4  12  25  43  69 105 130 179 229 281 328 398
#     4  11  26  42  70 103 129 173 235 286 323 390
#
# _framework density 22.669673
#
# number of rings (size 3 to 8) (size 9 to 14) (size 15 to 20)
#    0.000    1.000    1.667    4.500    9.333    0.000 
#    0.000    2.500    3.667    0.000    0.000    0.000 
#    0.000    0.000    0.000    0.000    0.000    0.000 
#
# Total GULP energy -148672.064134 kJ/mol
# GULP energy per Si atom -12389.338678 kJ/mol
# Density = 2.261808 g / cm^3
# Si number density = 22.669673 Si / 1000 Ang^3
#
#
#
# Elastic Constant Matrix: (Units=GPa)
#
#
# Indices 1 2 3 4 5 6 
#
# 1 98.1291 57.1199 36.9306 0.0000 -20.2889 0.0000
# 2 57.1199 140.6503 62.9700 0.0000 -12.5260 0.0000
# 3 36.9306 62.9700 107.9407 0.0000 -26.3146 0.0000
# 4 0.0000 0.0000 0.0000 14.9168 0.0000 8.8824
# 5 -20.2889 -12.5260 -26.3146 0.0000 42.1557 0.0000
# 6 0.0000 0.0000 0.0000 8.8824 0.0000 12.4210
#
#
#
# Elastic Compliance Matrix: (Units=1/GPa)
#
#
# Indices 1 2 3 4 5 6 
#
# 1 0.014471 -0.005089 -0.000770 0.000000 0.004972 0.000000
# 2 -0.005089 0.011434 -0.005541 0.000000 -0.002511 0.000000
# 3 -0.000770 -0.005541 0.014471 0.000000 0.007016 0.000000
# 4 0.000000 0.000000 0.000000 0.116755 0.000000 -0.083493
# 5 0.004972 -0.002511 0.007016 0.000000 0.029748 0.000000
# 6 0.000000 0.000000 0.000000 -0.083493 0.000000 0.140215
#
#
# Mechanical properties :
#
#
# Convention : Reuss Voigt Hill
#
# Bulk Modulus (GPa) = 56.90033 73.41789 65.15911
# Shear Modulus (GPa) = 14.05470 26.54535 20.30003
#
# Velocity S-wave (km/s) = 2.49264 3.42565 2.99569
# Velocity P-wave (km/s) = 5.78261 6.93563 6.38520
#
# Compressibility (1/GPa) = 0.01757459
#
# Stress axis : x y z
#
# Youngs Moduli (GPa) = 69.10474 87.45974 69.10494
#
# Poissons Ratio (x) = 0.44511 0.05321
# Poissons Ratio (y) = 0.35169 0.38292
# Poissons Ratio (z) = 0.05321 0.48462
#
# Static dielectric constant tensor:
#      x y z
#    x 4.086680 0.000000 0.060860 
#    y 0.000000 4.651200 0.000000 
#    z 0.060860 0.000000 3.872780 
# 
# 
# High freq. dielectric constant tensor:
#      x y z
#    x 1.894630 0.000000 -0.001520 
#    y 0.000000 1.908090 0.000000 
#    z -0.001520 0.000000 1.877530 
# 
# From -- ./inp_files/7870.got.cif
#   From: 2010.03.12/outbox.cif.g09.slc.cpg/sg8_4_cif.got.tgz:7870.got - 2010.03.31 10:45:26.
