data_PCOD8054608
_publ_section_title
;
Structure prediction by ZEFSAII (Michael W. Deem and Ramdas Pophale) SiO2 
 PCOD8054608
Probable space group: C C
;
_chemical_formula_sum "Si O2"
_cell_formula_units_Z 28
_cell_length_a 8.862641
_cell_length_b 17.142287
_cell_length_c 9.264194
_cell_angle_alpha 90.000000
_cell_angle_beta 106.400413
_cell_angle_gamma 90.000000
_cell_volume 1350.204062
_symmetry_space_group_name_H-M "C C"
_symmetry_group_IT_number 9
_symmetry_cell_setting 'monoclinic'
loop_
_space_group_symop_operation_xyz
x,y,z
x,-y,1/2+z
1/2+x,1/2+y,z
1/2+x,1/2-y,1/2+z
loop_
_atom_site_type_symbol
_atom_site_label
_atom_site_fract_x
_atom_site_fract_y
_atom_site_fract_z
Si Si1 0.628640 0.706291 0.026200
Si Si2 0.122175 0.588092 0.923860
Si Si3 0.404784 0.202256 0.282974
Si Si4 0.480378 0.445356 0.553618
Si Si5 0.938140 0.911054 0.865025
Si Si6 0.093130 0.239123 0.326698
Si Si7 0.580034 0.057510 0.237920
O O1 0.814805 0.726224 0.107118
O O2 0.532099 0.735910 0.143337
O O3 0.559451 0.745862 0.862319
O O4 0.606700 0.612526 0.013263
O O5 0.309677 0.586060 0.960439
O O6 0.062491 0.675608 0.882431
O O7 0.050932 0.530681 0.783402
O O8 0.060051 0.558859 0.060930
O O9 0.278085 0.214153 0.377597
O O10 0.454669 0.112490 0.283879
O O11 0.497378 0.446510 0.729871
O O12 0.510458 0.533413 0.508055
O O13 0.750748 0.910575 0.828493
O O14 0.998520 0.822540 0.900018
#
# Coordination Sequence:
#
# PCOD8054608 Si02
#       7
#     4   4   4   4   4   4   4
#     4   9  19  37  64  85 123 163 208 246 320 372
#     4  10  20  39  61  89 121 170 209 256 310 384
#     4  10  21  39  63  91 124 166 209 258 316 382
#     4   9  16  37  58  86 114 163 202 253 297 383
#     4   9  19  36  62  85 122 160 212 250 313 374
#     4   9  20  38  66  87 122 167 205 260 315 372
#     4  10  23  38  60  91 128 161 217 255 315 379
#
# _framework density 20.737604999999999
#
# number of rings (size 3 to 8) (size 9 to 14) (size 15 to 20)
#    0.857    1.714    1.429    0.000    2.000    1.143 
#   10.286    0.000    0.000    0.000    0.000    0.000 
#    0.000    0.000    0.000    0.000    0.000    0.000 
#
# Total GULP energy -173465.673745 kJ/mol
# GULP energy per Si atom -12390.405268 kJ/mol
# Density = 2.069041 g / cm^3
# Si number density = 20.737605 Si / 1000 Ang^3
#
#
#
# Elastic Constant Matrix: (Units=GPa)
#
#
# Indices 1 2 3 4 5 6 
#
# 1 41.7706 50.1443 33.4785 0.0000 6.9429 0.0000
# 2 50.1443 180.6270 67.9405 0.0000 -2.9180 0.0000
# 3 33.4785 67.9405 81.8107 0.0000 9.7744 0.0000
# 4 0.0000 0.0000 0.0000 35.1607 0.0000 0.0382
# 5 6.9429 -2.9180 9.7744 0.0000 24.8109 0.0000
# 6 0.0000 0.0000 0.0000 0.0382 0.0000 33.7482
#
#
#
# Elastic Compliance Matrix: (Units=1/GPa)
#
#
# Indices 1 2 3 4 5 6 
#
# 1 0.043516 -0.008668 -0.009478 0.000000 -0.009463 0.000000
# 2 -0.008668 0.010126 -0.005556 0.000000 0.005805 0.000000
# 3 -0.009478 -0.005556 0.021488 0.000000 -0.006467 0.000000
# 4 0.000000 0.000000 0.000000 0.028441 0.000000 -0.000032
# 5 -0.009463 0.005805 -0.006467 0.000000 0.046183 0.000000
# 6 0.000000 0.000000 0.000000 -0.000032 0.000000 0.029631
#
#
# Mechanical properties :
#
#
# Convention : Reuss Voigt Hill
#
# Bulk Modulus (GPa) = 36.06748 67.48166 51.77457
# Shear Modulus (GPa) = 21.18354 28.92030 25.05192
#
# Velocity S-wave (km/s) = 3.19956 3.73846 3.47946
# Velocity P-wave (km/s) = 5.57492 7.15864 6.41583
#
# Compressibility (1/GPa) = 0.02772581
#
# Stress axis : x y z
#
# Youngs Moduli (GPa) = 22.98018 98.75364 46.53653
#
# Poissons Ratio (x) = 0.85602 0.44109
# Poissons Ratio (y) = 0.19920 0.25855
# Poissons Ratio (z) = 0.21781 0.54866
#
# Static dielectric constant tensor:
#      x y z
#    x 3.471110 0.000000 0.116970 
#    y 0.000000 3.664930 0.000000 
#    z 0.116970 0.000000 3.607040 
# 
# 
# High freq. dielectric constant tensor:
#      x y z
#    x 1.783570 0.000000 0.007640 
#    y 0.000000 1.809850 0.000000 
#    z 0.007640 0.000000 1.793510 
# 
# From -- ./inp_files/14649.got.cif
#   From: 2010.06.25/outbox.cif.g09.slc.cpg/sg9_8_cif.got.tgz:14649.got - 2010.06.27 21:40:51.
