data_PCOD8054171
_publ_section_title
;
Structure prediction by ZEFSAII (Michael W. Deem and Ramdas Pophale) SiO2 
 PCOD8054171
Probable space group: C C
;
_chemical_formula_sum "Si O2"
_cell_formula_units_Z 32
_cell_length_a 33.763251
_cell_length_b 8.522050
_cell_length_c 5.301775
_cell_angle_alpha 90.000000
_cell_angle_beta 99.479787
_cell_angle_gamma 90.000000
_cell_volume 1504.658464
_symmetry_space_group_name_H-M "C C"
_symmetry_group_IT_number 9
_symmetry_cell_setting 'monoclinic'
loop_
_space_group_symop_operation_xyz
x,y,z
x,-y,1/2+z
1/2+x,1/2+y,z
1/2+x,1/2-y,1/2+z
loop_
_atom_site_type_symbol
_atom_site_label
_atom_site_fract_x
_atom_site_fract_y
_atom_site_fract_z
Si Si1 0.925560 0.325626 0.896760
Si Si2 0.017403 0.400314 0.992071
Si Si3 0.749457 0.091485 0.203602
Si Si4 0.154367 0.410168 0.603823
Si Si5 0.643922 0.556094 0.597873
Si Si6 0.555596 0.576012 0.008758
Si Si7 0.800488 0.397760 0.252021
Si Si8 0.891470 0.323105 0.361072
O O1 0.907496 0.237390 0.631876
O O2 0.907353 0.499530 0.892678
O O3 0.910493 0.237698 0.135200
O O4 0.973256 0.326737 0.932329
O O5 0.024423 0.483778 0.266315
O O6 0.049527 0.261983 0.004057
O O7 0.701875 0.111565 0.154043
O O8 0.766978 0.264896 0.223311
O O9 0.764024 0.999576 0.468499
O O10 0.139564 0.498598 0.337014
O O11 0.134089 0.239718 0.585170
O O12 0.668392 0.498647 0.374327
O O13 0.603050 0.455481 0.558236
O O14 0.535535 0.498874 0.236912
O O15 0.794961 0.504861 0.491027
O O16 0.843695 0.315166 0.299662
#
# Coordination Sequence:
#
# PCOD8054171 Si02
#       8
#     4   4   4   4   4   4   4   4
#     4  10  16  30  51  82 108 142 190 257 281 312
#     4  12  21  35  63  91 107 152 208 244 285 349
#     4  10  23  41  57  83 128 161 184 240 306 347
#     4  10  21  40  65  90 112 155 209 238 273 350
#     4  10  21  40  63  87 122 157 178 240 307 344
#     4  10  23  43  57  82 126 159 179 233 317 353
#     4  12  21  33  59  90 113 156 203 248 283 344
#     4  10  16  30  49  83 112 140 189 258 282 313
#
# _framework density 21.267287
#
# number of rings (size 3 to 8) (size 9 to 14) (size 15 to 20)
#    0.000    1.500    5.000    2.250    0.000    1.000 
#    0.000   15.000    0.000    4.500    0.000    0.000 
#    0.000    0.000    0.000    0.000    0.000    0.000 
#
# Total GULP energy -198364.022148 kJ/mol
# GULP energy per Si atom -12397.751384 kJ/mol
# Density = 2.121888 g / cm^3
# Si number density = 21.267287 Si / 1000 Ang^3
#
#
#
# Elastic Constant Matrix: (Units=GPa)
#
#
# Indices 1 2 3 4 5 6 
#
# 1 33.1847 19.1104 25.8782 0.0000 -5.6271 0.0000
# 2 19.1104 87.4405 50.1965 0.0000 -11.0082 0.0000
# 3 25.8782 50.1965 192.4453 0.0000 -52.8160 0.0000
# 4 0.0000 0.0000 0.0000 20.5253 0.0000 -2.8614
# 5 -5.6271 -11.0082 -52.8160 0.0000 24.4395 0.0000
# 6 0.0000 0.0000 0.0000 -2.8614 0.0000 17.3476
#
#
#
# Elastic Compliance Matrix: (Units=1/GPa)
#
#
# Indices 1 2 3 4 5 6 
#
# 1 0.036304 -0.005896 -0.004371 0.000000 -0.003744 0.000000
# 2 -0.005896 0.014549 -0.003873 0.000000 -0.003175 0.000000
# 3 -0.004371 -0.003873 0.014843 0.000000 0.029325 0.000000
# 4 0.000000 0.000000 0.000000 0.049867 0.000000 0.008225
# 5 -0.003744 -0.003175 0.029325 0.000000 0.102000 0.000000
# 6 0.000000 0.000000 0.000000 0.008225 0.000000 0.059002
#
#
# Mechanical properties :
#
#
# Convention : Reuss Voigt Hill
#
# Bulk Modulus (GPa) = 26.72844 55.93786 41.33315
# Shear Modulus (GPa) = 15.75712 26.98815 21.37264
#
# Velocity S-wave (km/s) = 2.72492 3.56616 3.17354
# Velocity P-wave (km/s) = 4.74293 6.58150 5.73635
#
# Compressibility (1/GPa) = 0.03741333
#
# Stress axis : x y z
#
# Youngs Moduli (GPa) = 27.54525 68.73394 67.37356
#
# Poissons Ratio (x) = 0.40527 0.29451
# Poissons Ratio (y) = 0.16241 0.26097
# Poissons Ratio (z) = 0.12041 0.26623
#
# Static dielectric constant tensor:
#      x y z
#    x 3.762070 0.000000 -0.777130 
#    y 0.000000 3.395010 0.000000 
#    z -0.777130 0.000000 6.631970 
# 
# 
# High freq. dielectric constant tensor:
#      x y z
#    x 1.817570 0.000000 -0.018430 
#    y 0.000000 1.798450 0.000000 
#    z -0.018430 0.000000 1.872500 
# 
# From -- ./inp_files/3464.got.cif
#   From: 2010.06.25/outbox.cif.g09.slc.cpg/sg9_2_cif.got.tgz:3464.got - 2010.06.27 21:40:51.
