data_PCOD8054409
_publ_section_title
;
Structure prediction by ZEFSAII (Michael W. Deem and Ramdas Pophale) SiO2 
 PCOD8054409
Probable space group: C C
;
_chemical_formula_sum "Si O2"
_cell_formula_units_Z 24
_cell_length_a 8.991000
_cell_length_b 15.000270
_cell_length_c 14.527243
_cell_angle_alpha 90.000000
_cell_angle_beta 149.510274
_cell_angle_gamma 90.000000
_cell_volume 994.092772
_symmetry_space_group_name_H-M "C C"
_symmetry_group_IT_number 9
_symmetry_cell_setting 'monoclinic'
loop_
_space_group_symop_operation_xyz
x,y,z
x,-y,1/2+z
1/2+x,1/2+y,z
1/2+x,1/2-y,1/2+z
loop_
_atom_site_type_symbol
_atom_site_label
_atom_site_fract_x
_atom_site_fract_y
_atom_site_fract_z
Si Si1 0.438750 0.208166 0.797160
Si Si2 0.374735 0.602646 0.472317
Si Si3 0.108408 0.095427 0.412506
Si Si4 0.740769 0.338813 0.644533
Si Si5 0.892574 0.936824 0.601662
Si Si6 0.191364 0.673008 0.739204
O O1 0.492589 0.303687 0.871193
O O2 0.547699 0.222624 0.750552
O O3 0.099740 0.179632 0.624680
O O4 0.623275 0.130787 0.945830
O O5 0.505521 0.548474 0.453033
O O6 0.311341 0.533839 0.520463
O O7 0.066602 0.647505 0.281542
O O8 0.464613 0.092518 0.593979
O O9 0.964511 0.049997 0.247554
O O10 0.675942 0.401570 0.697623
O O11 0.516142 0.359701 0.440588
O O12 0.702303 0.236675 0.656596
#
# Coordination Sequence:
#
# PCOD8054409 Si02
#       6
#     4   4   4   4   4   4
#     4  10  20  42  69  99 132 185 231 267 342 422
#     4  11  26  38  66 108 142 171 230 301 331 400
#     4  11  21  45  72  97 129 195 231 272 349 416
#     4  11  21  40  64 100 134 167 234 282 333 388
#     4  11  21  45  70  92 143 188 223 275 356 413
#     4  10  19  38  71  96 124 182 227 275 327 419
#
# _framework density 24.142616
#
# number of rings (size 3 to 8) (size 9 to 14) (size 15 to 20)
#    0.000    1.333    5.000    2.000    2.333    0.000 
#    0.000   16.667    0.000    0.000    0.000    0.000 
#    0.000    0.000    0.000    0.000    0.000    0.000 
#
# Total GULP energy -148779.395253 kJ/mol
# GULP energy per Si atom -12398.282938 kJ/mol
# Density = 2.408767 g / cm^3
# Si number density = 24.142616 Si / 1000 Ang^3
#
#
#
# Elastic Constant Matrix: (Units=GPa)
#
#
# Indices 1 2 3 4 5 6 
#
# 1 65.4258 12.0408 60.8143 0.0468 -2.8732 -0.0055
# 2 12.0408 51.0457 30.2121 0.0340 -0.5568 0.0042
# 3 60.8143 30.2121 200.0177 -0.0462 13.9831 0.0212
# 4 0.0468 0.0340 -0.0462 24.9419 0.0041 -1.9900
# 5 -2.8732 -0.5568 13.9831 0.0041 55.1772 0.0023
# 6 -0.0055 0.0042 0.0212 -1.9900 0.0023 17.3276
#
#
#
# Elastic Compliance Matrix: (Units=1/GPa)
#
#
# Indices 1 2 3 4 5 6 
#
# 1 0.021804 -0.001178 -0.006648 -0.000051 0.002808 0.000009
# 2 -0.001178 0.021638 -0.002974 -0.000033 0.000911 -0.000006
# 3 -0.006648 -0.002974 0.007631 0.000030 -0.002310 -0.000007
# 4 -0.000051 -0.000033 0.000030 0.040464 -0.000014 0.004647
# 5 0.002808 0.000911 -0.002310 -0.000014 0.018864 -0.000001
# 6 0.000009 -0.000006 -0.000007 0.004647 -0.000001 0.058245
#
#
# Mechanical properties :
#
#
# Convention : Reuss Voigt Hill
#
# Bulk Modulus (GPa) = 33.92780 58.06928 45.99854
# Shear Modulus (GPa) = 24.99115 33.71749 29.35432
#
# Velocity S-wave (km/s) = 3.22086 3.74116 3.49072
# Velocity P-wave (km/s) = 5.28351 6.53961 5.94483
#
# Compressibility (1/GPa) = 0.02947436
#
# Stress axis : x y z
#
# Youngs Moduli (GPa) = 45.86354 46.21449 131.03621
#
# Poissons Ratio (x) = 0.05444 0.87109
# Poissons Ratio (y) = 0.05402 0.38969
# Poissons Ratio (z) = 0.30489 0.13744
#
# Static dielectric constant tensor:
#      x y z
#    x 4.014990 -0.000040 -0.039840 
#    y -0.000040 3.911640 -0.000080 
#    z -0.039840 -0.000080 4.634230 
# 
# 
# High freq. dielectric constant tensor:
#      x y z
#    x 1.937900 0.000000 -0.002020 
#    y 0.000000 1.927960 -0.000010 
#    z -0.002020 -0.000010 1.978840 
# 
# From -- ./inp_files/9881.got.cif
#   From: 2010.06.25/outbox.cif.g09.slc.cpg/sg9_5_cif.got.tgz:9881.got - 2010.06.27 21:40:51.
