data_PCOD8054659
_publ_section_title
;
Structure prediction by ZEFSAII (Michael W. Deem and Ramdas Pophale) SiO2 
 PCOD8054659
Probable space group: C C
;
_chemical_formula_sum "Si O2"
_cell_formula_units_Z 28
_cell_length_a 13.780605
_cell_length_b 18.983018
_cell_length_c 8.675338
_cell_angle_alpha 90.000000
_cell_angle_beta 143.986751
_cell_angle_gamma 90.000000
_cell_volume 1334.371705
_symmetry_space_group_name_H-M "C C"
_symmetry_group_IT_number 9
_symmetry_cell_setting 'monoclinic'
loop_
_space_group_symop_operation_xyz
x,y,z
x,-y,1/2+z
1/2+x,1/2+y,z
1/2+x,1/2-y,1/2+z
loop_
_atom_site_type_symbol
_atom_site_label
_atom_site_fract_x
_atom_site_fract_y
_atom_site_fract_z
Si Si1 0.794830 0.621133 0.789380
Si Si2 0.907099 0.533876 0.684472
Si Si3 0.929422 0.083297 0.843868
Si Si4 0.470833 0.832286 0.072197
Si Si5 0.070063 0.964893 0.200598
Si Si6 0.147233 0.807396 0.802347
Si Si7 0.060341 0.384046 0.857863
O O1 0.889434 0.552300 0.842944
O O2 0.631340 0.601348 0.677207
O O3 0.739489 0.667399 0.574999
O O4 0.941054 0.655834 0.081001
O O5 0.995258 0.596904 0.703561
O O6 0.718545 0.521867 0.387449
O O7 0.013915 0.465169 0.810255
O O8 0.753588 0.115016 0.565772
O O9 0.030501 0.065927 0.818020
O O10 0.004067 0.142551 0.052906
O O11 0.919569 0.009242 0.928773
O O12 0.586325 0.768947 0.277574
O O13 0.282754 0.804983 0.840478
O O14 0.523446 0.844253 0.966330
#
# Coordination Sequence:
#
# PCOD8054659 Si02
#       7
#     4   4   4   4   4   4   4
#     4  10  21  41  63  93 130 176 219 267 337 394
#     4  10  20  40  65  95 131 177 211 274 334 398
#     4  12  23  38  65 102 136 173 223 280 331 400
#     4  11  23  44  69  94 132 181 225 269 340 400
#     4  11  20  39  65  98 131 174 219 275 328 395
#     4  11  23  46  67  93 132 184 224 268 336 411
#     4  11  24  38  68  99 132 169 225 283 330 394
#
# _framework density 20.983657999999998
#
# number of rings (size 3 to 8) (size 9 to 14) (size 15 to 20)
#    0.000    1.143    4.286    4.286    4.000    0.000 
#    2.571    8.571    0.000    0.000    0.000    0.000 
#    0.000    0.000    0.000    0.000    0.000    0.000 
#
# Total GULP energy -173465.628333 kJ/mol
# GULP energy per Si atom -12390.402024 kJ/mol
# Density = 2.093590 g / cm^3
# Si number density = 20.983658 Si / 1000 Ang^3
#
#
#
# Elastic Constant Matrix: (Units=GPa)
#
#
# Indices 1 2 3 4 5 6 
#
# 1 99.9674 31.5853 44.6906 0.0000 -9.3052 0.0000
# 2 31.5853 81.5276 43.9214 0.0000 1.8875 0.0000
# 3 44.6906 43.9214 119.2575 0.0000 -0.6040 0.0000
# 4 0.0000 0.0000 0.0000 22.9035 0.0000 5.0555
# 5 -9.3052 1.8875 -0.6040 0.0000 34.3799 0.0000
# 6 0.0000 0.0000 0.0000 5.0555 0.0000 31.0697
#
#
#
# Elastic Compliance Matrix: (Units=1/GPa)
#
#
# Indices 1 2 3 4 5 6 
#
# 1 0.012978 -0.003121 -0.003696 0.000000 0.003619 0.000000
# 2 -0.003121 0.016083 -0.004763 0.000000 -0.001811 0.000000
# 3 -0.003696 -0.004763 0.011522 0.000000 -0.000536 0.000000
# 4 0.000000 0.000000 0.000000 0.045288 0.000000 -0.007369
# 5 0.003619 -0.001811 -0.000536 0.000000 0.030156 0.000000
# 6 0.000000 0.000000 0.000000 -0.007369 0.000000 0.033385
#
#
# Mechanical properties :
#
#
# Convention : Reuss Voigt Hill
#
# Bulk Modulus (GPa) = 57.39282 60.12746 58.76014
# Shear Modulus (GPa) = 28.03029 29.70763 28.86896
#
# Velocity S-wave (km/s) = 3.65885 3.76673 3.71318
# Velocity P-wave (km/s) = 6.72756 6.90176 6.81522
#
# Compressibility (1/GPa) = 0.01742378
#
# Stress axis : x y z
#
# Youngs Moduli (GPa) = 77.05103 62.17891 86.79380
#
# Poissons Ratio (x) = 0.19405 0.32078
# Poissons Ratio (y) = 0.24046 0.41338
# Poissons Ratio (z) = 0.28477 0.29614
#
# Static dielectric constant tensor:
#      x y z
#    x 3.948210 0.000000 -0.045770 
#    y 0.000000 3.731040 0.000000 
#    z -0.045770 0.000000 3.965060 
# 
# 
# High freq. dielectric constant tensor:
#      x y z
#    x 1.831810 0.000000 -0.008670 
#    y 0.000000 1.806190 0.000000 
#    z -0.008670 0.000000 1.816940 
# 
# From -- ./inp_files/5835.got.cif
#   From: 2010.06.25/outbox.cif.g09.slc.cpg/sg9_3_cif.got.tgz:5835.got - 2010.06.27 21:40:51.
