data_PCOD8054860
_publ_section_title
;
Structure prediction by ZEFSAII (Michael W. Deem and Ramdas Pophale) SiO2 
 PCOD8054860
Probable space group: C C
;
_chemical_formula_sum "Si O2"
_cell_formula_units_Z 32
_cell_length_a 9.271270
_cell_length_b 10.348414
_cell_length_c 20.107698
_cell_angle_alpha 90.000000
_cell_angle_beta 126.904073
_cell_angle_gamma 90.000000
_cell_volume 1542.662634
_symmetry_space_group_name_H-M "C C"
_symmetry_group_IT_number 9
_symmetry_cell_setting 'monoclinic'
loop_
_space_group_symop_operation_xyz
x,y,z
x,-y,1/2+z
1/2+x,1/2+y,z
1/2+x,1/2-y,1/2+z
loop_
_atom_site_type_symbol
_atom_site_label
_atom_site_fract_x
_atom_site_fract_y
_atom_site_fract_z
Si Si1 0.069120 0.615683 0.105370
Si Si2 0.189563 0.107094 0.047121
Si Si3 0.274699 0.821768 0.829837
Si Si4 0.893325 0.178289 0.287997
Si Si5 0.995588 0.082318 0.856735
Si Si6 0.599144 0.115553 0.512407
Si Si7 0.478667 0.607012 0.570680
Si Si8 0.672273 0.582329 0.761019
O O1 0.258688 0.627675 0.194278
O O2 0.084223 0.500052 0.058926
O O3 0.027970 0.751118 0.055809
O O4 0.904822 0.584706 0.111263
O O5 0.137809 0.107244 0.954597
O O6 0.140245 0.248991 0.061937
O O7 0.084227 0.000076 0.058997
O O8 0.344631 0.693370 0.813173
O O9 0.084130 0.784836 0.809035
O O10 0.257458 0.939784 0.772310
O O11 0.409565 0.872554 0.923504
O O12 0.823318 0.306674 0.304640
O O13 0.910245 0.060179 0.345399
O O14 0.083887 0.080408 0.808857
O O15 0.763419 0.084596 0.506490
O O16 0.530182 0.607369 0.663163
#
# Coordination Sequence:
#
# PCOD8054860 Si02
#       8
#     4   4   4   4   4   4   4   4
#     4  10  21  39  60  86 119 155 195 241 294 346
#     4  10  23  40  60  89 118 152 199 243 291 349
#     4  10  22  37  58  88 116 152 198 239 291 351
#     4  10  22  37  58  88 116 152 198 239 291 351
#     4  10  22  40  60  84 118 154 193 242 292 347
#     4  10  21  39  60  86 119 155 195 241 294 346
#     4  10  23  40  60  89 118 152 199 243 291 349
#     4  10  22  40  60  84 118 154 193 242 292 347
#
# _framework density 20.743355999999999
#
# number of rings (size 3 to 8) (size 9 to 14) (size 15 to 20)
#    0.000    2.000    0.000    3.000    0.000   14.000 
#    0.000    0.000    0.000    0.000    0.000    0.000 
#    0.000    0.000    0.000    0.000    0.000    0.000 
#
# Total GULP energy -198356.373796 kJ/mol
# GULP energy per Si atom -12397.273362 kJ/mol
# Density = 2.069614 g / cm^3
# Si number density = 20.743356 Si / 1000 Ang^3
#
#
#
# Elastic Constant Matrix: (Units=GPa)
#
#
# Indices 1 2 3 4 5 6 
#
# 1 106.7979 62.5265 42.2313 0.0000 18.5468 0.0000
# 2 62.5265 151.7521 7.2315 0.0000 -0.3898 0.0000
# 3 42.2313 7.2315 67.9466 0.0000 15.5266 0.0000
# 4 0.0000 0.0000 0.0000 29.7746 0.0000 1.8014
# 5 18.5468 -0.3898 15.5266 0.0000 38.0065 0.0000
# 6 0.0000 0.0000 0.0000 1.8014 0.0000 38.1075
#
#
#
# Elastic Compliance Matrix: (Units=1/GPa)
#
#
# Indices 1 2 3 4 5 6 
#
# 1 0.018011 -0.006991 -0.009293 0.000000 -0.005064 0.000000
# 2 -0.006991 0.009342 0.002812 0.000000 0.002359 0.000000
# 3 -0.009293 0.002812 0.021123 0.000000 -0.004066 0.000000
# 4 0.000000 0.000000 0.000000 0.033682 0.000000 -0.001592
# 5 -0.005064 0.002359 -0.004066 0.000000 0.030468 0.000000
# 6 0.000000 0.000000 0.000000 -0.001592 0.000000 0.026317
#
#
# Mechanical properties :
#
#
# Convention : Reuss Voigt Hill
#
# Bulk Modulus (GPa) = 46.44287 61.16394 53.80341
# Shear Modulus (GPa) = 28.89095 35.47823 32.18459
#
# Velocity S-wave (km/s) = 3.73605 4.14011 3.94326
# Velocity P-wave (km/s) = 6.40692 7.23907 6.83567
#
# Compressibility (1/GPa) = 0.02153183
#
# Stress axis : x y z
#
# Youngs Moduli (GPa) = 55.52214 107.03970 47.34139
#
# Poissons Ratio (x) = 0.74833 0.43995
# Poissons Ratio (y) = 0.38816 -0.13312
# Poissons Ratio (z) = 0.51597 -0.30099
#
# Static dielectric constant tensor:
#      x y z
#    x 3.596080 0.000000 0.346450 
#    y 0.000000 4.329160 0.000000 
#    z 0.346450 0.000000 3.807080 
# 
# 
# High freq. dielectric constant tensor:
#      x y z
#    x 1.800320 0.000000 0.026660 
#    y 0.000000 1.839690 0.000000 
#    z 0.026660 0.000000 1.804800 
# 
# From -- ./inp_files/29198.got.cif
#   From: 2010.06.25/outbox.cif.g09.slc.cpg/sg9_15_cif.got.tgz:29198.got - 2010.06.27 21:40:51.
