data_PCOD8054620
_publ_section_title
;
Structure prediction by ZEFSAII (Michael W. Deem and Ramdas Pophale) SiO2 
 PCOD8054620
Probable space group: C C
;
_chemical_formula_sum "Si O2"
_cell_formula_units_Z 32
_cell_length_a 19.046182
_cell_length_b 11.935448
_cell_length_c 22.177887
_cell_angle_alpha 90.000000
_cell_angle_beta 161.799157
_cell_angle_gamma 90.000000
_cell_volume 1574.732519
_symmetry_space_group_name_H-M "C C"
_symmetry_group_IT_number 9
_symmetry_cell_setting 'monoclinic'
loop_
_space_group_symop_operation_xyz
x,y,z
x,-y,1/2+z
1/2+x,1/2+y,z
1/2+x,1/2-y,1/2+z
loop_
_atom_site_type_symbol
_atom_site_label
_atom_site_fract_x
_atom_site_fract_y
_atom_site_fract_z
Si Si1 0.961540 0.446243 0.102480
Si Si2 0.945351 0.346154 0.868630
Si Si3 0.205991 0.021474 0.073375
Si Si4 0.474712 0.601369 0.205820
Si Si5 0.993522 0.637217 0.216171
Si Si6 0.325915 0.631515 0.589440
Si Si7 0.738601 0.896086 0.214406
Si Si8 0.016693 0.661147 0.774568
O O1 0.988721 0.574905 0.147857
O O2 0.980706 0.362430 0.174668
O O3 0.157160 0.426214 0.214616
O O4 0.718731 0.418798 0.873580
O O5 0.783307 0.430657 0.701180
O O6 0.821506 0.231587 0.783366
O O7 0.157692 0.314652 0.000303
O O8 0.031648 0.407837 0.999278
O O9 0.268834 0.103067 0.069321
O O10 0.330673 0.902231 0.163903
O O11 0.935287 0.016430 0.855834
O O12 0.430717 0.481901 0.203448
O O13 0.487480 0.705511 0.263115
O O14 0.272475 0.624985 0.995259
O O15 0.008075 0.772294 0.222084
O O16 0.204261 0.595686 0.427880
#
# Coordination Sequence:
#
# PCOD8054620 Si02
#       8
#     4   4   4   4   4   4   4   4
#     4  11  26  39  60  97 138 176 206 264 338 390
#     4  11  21  36  61  99 125 166 212 271 327 370
#     4  10  22  40  61  93 128 165 212 274 322 375
#     4  12  23  39  65  97 127 172 218 272 325 377
#     4  10  20  39  64 102 122 162 217 272 327 373
#     4  11  20  38  71  97 125 157 224 285 318 370
#     4  12  24  36  62  97 138 170 211 263 334 396
#     4  11  24  41  64  94 131 174 222 269 325 383
#
# _framework density 20.320912
#
# number of rings (size 3 to 8) (size 9 to 14) (size 15 to 20)
#    0.000    1.000    7.500    1.500    5.250    1.000 
#    0.000    0.000    0.000    6.000    0.000    0.000 
#    0.000    0.000    0.000    0.000    0.000    0.000 
#
# Total GULP energy -198266.781252 kJ/mol
# GULP energy per Si atom -12391.673828 kJ/mol
# Density = 2.027466 g / cm^3
# Si number density = 20.320912 Si / 1000 Ang^3
#
#
#
# Elastic Constant Matrix: (Units=GPa)
#
#
# Indices 1 2 3 4 5 6 
#
# 1 100.1687 47.4212 48.5796 0.0556 2.7203 -0.0807
# 2 47.4212 166.1478 30.5868 0.4085 9.5205 -0.1145
# 3 48.5796 30.5868 75.4180 0.6088 3.3768 -0.3306
# 4 0.0556 0.4085 0.6088 24.9447 -0.0458 -0.8652
# 5 2.7203 9.5205 3.3768 -0.0458 25.4263 -0.0980
# 6 -0.0807 -0.1145 -0.3306 -0.8652 -0.0980 22.1686
#
#
#
# Elastic Compliance Matrix: (Units=1/GPa)
#
#
# Indices 1 2 3 4 5 6 
#
# 1 0.015664 -0.002855 -0.008960 0.000229 0.000583 -0.000080
# 2 -0.002855 0.007138 -0.000955 -0.000091 -0.002241 -0.000001
# 3 -0.008960 -0.000955 0.019480 -0.000434 -0.001271 0.000230
# 4 0.000229 -0.000091 -0.000434 0.040155 0.000146 0.001562
# 5 0.000583 -0.002241 -0.001271 0.000146 0.040276 0.000155
# 6 -0.000080 -0.000001 0.000230 0.001562 0.000155 0.045174
#
#
# Mechanical properties :
#
#
# Convention : Reuss Voigt Hill
#
# Bulk Modulus (GPa) = 59.73170 66.10107 62.91639
# Shear Modulus (GPa) = 25.12472 28.85107 26.98789
#
# Velocity S-wave (km/s) = 3.52006 3.77207 3.64824
# Velocity P-wave (km/s) = 6.78079 7.18127 6.98390
#
# Compressibility (1/GPa) = 0.01674153
#
# Stress axis : x y z
#
# Youngs Moduli (GPa) = 63.83872 140.09400 51.33541
#
# Poissons Ratio (x) = 0.40002 0.45998
# Poissons Ratio (y) = 0.18228 0.04901
# Poissons Ratio (z) = 0.57202 0.13374
#
# Static dielectric constant tensor:
#      x y z
#    x 3.259980 -0.000110 -0.129610 
#    y -0.000110 3.916110 -0.000530 
#    z -0.129610 -0.000530 3.964600 
# 
# 
# High freq. dielectric constant tensor:
#      x y z
#    x 1.742400 -0.000010 -0.014410 
#    y -0.000010 1.794970 -0.000040 
#    z -0.014410 -0.000040 1.812820 
# 
# From -- ./inp_files/34125.got.cif
#   From: 2010.06.25/outbox.cif.g09.slc.cpg/sg9_18_cif.got.tgz:34125.got - 2010.06.27 21:40:51.
