data_PCOD8054268
_publ_section_title
;
Structure prediction by ZEFSAII (Michael W. Deem and Ramdas Pophale) SiO2 
 PCOD8054268
Probable space group: C C
;
_chemical_formula_sum "Si O2"
_cell_formula_units_Z 32
_cell_length_a 16.655826
_cell_length_b 8.667085
_cell_length_c 21.537766
_cell_angle_alpha 90.000000
_cell_angle_beta 28.914121
_cell_angle_gamma 90.000000
_cell_volume 1503.262028
_symmetry_space_group_name_H-M "C C"
_symmetry_group_IT_number 9
_symmetry_cell_setting 'monoclinic'
loop_
_space_group_symop_operation_xyz
x,y,z
x,-y,1/2+z
1/2+x,1/2+y,z
1/2+x,1/2-y,1/2+z
loop_
_atom_site_type_symbol
_atom_site_label
_atom_site_fract_x
_atom_site_fract_y
_atom_site_fract_z
Si Si1 0.345310 0.617769 0.864880
Si Si2 0.687638 0.981636 0.252483
Si Si3 0.309776 0.170838 0.143968
Si Si4 0.598854 0.034832 0.449114
Si Si5 0.463535 0.449372 0.899291
Si Si6 0.832593 0.370881 0.487225
Si Si7 0.367737 0.291398 0.554301
Si Si8 0.164674 0.841118 0.078729
O O1 0.465196 0.551380 0.836515
O O2 0.472265 0.692964 0.727870
O O3 0.243989 0.474197 0.902605
O O4 0.219451 0.742647 0.981238
O O5 0.825541 0.856018 0.137042
O O6 0.509546 0.937414 0.344200
O O7 0.683804 0.974652 0.329054
O O8 0.734701 0.152869 0.196233
O O9 0.141170 0.125321 0.293237
O O10 0.467115 0.086371 0.067542
O O11 0.305037 0.102745 0.078407
O O12 0.513645 0.200394 0.492444
O O13 0.325553 0.314006 0.981122
O O14 0.431221 0.550352 0.981568
O O15 0.692481 0.474067 0.546493
O O16 0.285577 0.191208 0.555693
#
# Coordination Sequence:
#
# PCOD8054268 Si02
#       8
#     4   4   4   4   4   4   4   4
#     4  11  25  43  60  95 129 174 205 276 327 395
#     4  10  21  37  64  90 122 157 215 267 322 378
#     4  10  19  38  62  88 122 155 214 261 313 381
#     4  11  25  39  60  91 130 165 214 264 331 388
#     4  10  21  38  66  91 126 165 214 261 326 382
#     4  10  18  37  65  97 112 163 209 268 302 390
#     4  11  21  38  66  96 117 168 215 274 311 393
#     4  11  22  42  69  90 130 169 222 259 330 387
#
# _framework density 21.287042
#
# number of rings (size 3 to 8) (size 9 to 14) (size 15 to 20)
#    0.000    1.500    5.000    0.750    5.250    0.000 
#    2.250    0.000    0.000    0.000    0.000    0.000 
#    0.000    0.000    0.000    0.000    0.000    0.000 
#
# Total GULP energy -198228.258285 kJ/mol
# GULP energy per Si atom -12389.266143 kJ/mol
# Density = 2.123859 g / cm^3
# Si number density = 21.287042 Si / 1000 Ang^3
#
#
#
# Elastic Constant Matrix: (Units=GPa)
#
#
# Indices 1 2 3 4 5 6 
#
# 1 52.7088 22.8133 24.1677 0.0008 -2.6645 -0.0002
# 2 22.8133 118.4994 52.5259 -0.0002 2.4612 -0.0014
# 3 24.1677 52.5259 111.5920 0.0017 -2.7947 -0.0024
# 4 0.0008 -0.0002 0.0017 46.2700 -0.0012 -4.7156
# 5 -2.6645 2.4612 -2.7947 -0.0012 12.0689 0.0004
# 6 -0.0002 -0.0014 -0.0024 -4.7156 0.0004 23.5757
#
#
#
# Elastic Compliance Matrix: (Units=1/GPa)
#
#
# Indices 1 2 3 4 5 6 
#
# 1 0.021957 -0.002866 -0.003289 0.000000 0.004670 0.000000
# 2 -0.002866 0.011175 -0.004740 0.000000 -0.004009 0.000000
# 3 -0.003289 -0.004740 0.011980 0.000000 0.003014 0.000001
# 4 0.000000 0.000000 0.000000 0.022062 0.000002 0.004413
# 5 0.004670 -0.004009 0.003014 0.000002 0.085405 -0.000001
# 6 0.000000 0.000000 0.000001 0.004413 -0.000001 0.043299
#
#
# Mechanical properties :
#
#
# Convention : Reuss Voigt Hill
#
# Bulk Modulus (GPa) = 42.87837 53.53489 48.20663
# Shear Modulus (GPa) = 22.17873 28.60247 25.39060
#
# Velocity S-wave (km/s) = 3.23133 3.66957 3.45740
# Velocity P-wave (km/s) = 5.84026 6.56947 6.21557
#
# Compressibility (1/GPa) = 0.02332178
#
# Stress axis : x y z
#
# Youngs Moduli (GPa) = 45.54369 89.48719 83.47259
#
# Poissons Ratio (x) = 0.25648 0.27456
# Poissons Ratio (y) = 0.13053 0.39563
# Poissons Ratio (z) = 0.14980 0.42413
#
# Static dielectric constant tensor:
#      x y z
#    x 3.343450 0.000000 -0.022360 
#    y 0.000000 3.945470 0.000000 
#    z -0.022360 0.000000 4.041900 
# 
# 
# High freq. dielectric constant tensor:
#      x y z
#    x 1.781680 0.000000 0.005230 
#    y 0.000000 1.841950 0.000000 
#    z 0.005230 0.000000 1.848970 
# 
# From -- ./inp_files/18946.got.cif
#   From: 2010.06.25/outbox.cif.g09.slc.cpg/sg9_10_cif.got.tgz:18946.got - 2010.06.27 21:40:51.
