data_PCOD8054104
_publ_section_title
;
Structure prediction by ZEFSAII (Michael W. Deem and Ramdas Pophale) SiO2 
 PCOD8054104
Probable space group: C M
;
_chemical_formula_sum "Si O2"
_cell_formula_units_Z 22
_cell_length_a 15.467982
_cell_length_b 12.151985
_cell_length_c 12.751216
_cell_angle_alpha 90.000000
_cell_angle_beta 155.825819
_cell_angle_gamma 90.000000
_cell_volume 981.519840
_symmetry_space_group_name_H-M "C M"
_symmetry_group_IT_number 8
_symmetry_cell_setting 'monoclinic'
loop_
_space_group_symop_operation_xyz
x,y,z
x,-y,z
1/2+x,1/2+y,z
1/2+x,1/2-y,z
loop_
_atom_site_type_symbol
_atom_site_label
_atom_site_fract_x
_atom_site_fract_y
_atom_site_fract_z
Si Si1 0.163720 0.728273 0.359380
Si Si2 0.788547 0.125032 0.879681
Si Si3 0.762827 0.000000 0.385507
Si Si4 0.076336 0.000000 0.576457
Si Si5 0.501246 0.261333 0.407383
Si Si6 0.087881 0.316391 0.865495
Si Si7 0.478260 0.000000 0.894340
O O1 0.148686 0.600783 0.314970
O O2 0.132542 0.742055 0.447824
O O3 0.407886 0.752280 0.602377
O O4 0.002988 0.801537 0.111113
O O5 0.602692 0.181880 0.606868
O O6 0.721299 0.116751 0.926646
O O7 0.831548 0.000000 0.887090
O O8 0.017754 0.000000 0.639376
O O9 0.708362 0.000000 0.200290
O O10 0.994468 0.111147 0.430855
O O11 0.325817 0.000000 0.827364
O O12 0.251236 0.235199 0.108296
O O13 0.954053 0.393477 0.795287
#
# Coordination Sequence:
#
# PCOD8054104 Si02
#       7
#     4   4   2   2   4   4   2
#     4  11  27  44  70 105 143 188 240 298 361 425
#     4  11  26  45  71 106 148 187 236 297 365 435
#     4  12  26  46  67 105 144 184 249 294 360 416
#     4  12  22  42  76  99 133 190 245 291 339 428
#     4  11  24  44  71 104 143 189 238 293 361 427
#     4  11  23  42  69 105 136 183 244 292 355 425
#     4  12  22  40  75  98 135 188 238 297 347 420
#
# _framework density 22.414218000000002
#
# number of rings (size 3 to 8) (size 9 to 14) (size 15 to 20)
#    0.000    0.727    4.545    2.182    6.364    1.455 
#    1.636    0.000    0.000    0.000    0.000    0.000 
#    0.000    0.000    0.000    0.000    0.000    0.000 
#
# Total GULP energy -136269.075243 kJ/mol
# GULP energy per Si atom -12388.097749 kJ/mol
# Density = 2.236320 g / cm^3
# Si number density = 22.414218 Si / 1000 Ang^3
#
#
#
# Elastic Constant Matrix: (Units=GPa)
#
#
# Indices 1 2 3 4 5 6 
#
# 1 81.0207 40.1765 19.3536 0.0009 8.4282 0.0000
# 2 40.1765 173.0421 67.3643 0.0028 -0.0510 0.0015
# 3 19.3536 67.3643 164.3362 0.0016 2.3315 0.0016
# 4 0.0009 0.0028 0.0016 17.5136 0.0020 -1.1881
# 5 8.4282 -0.0510 2.3315 0.0020 36.5240 0.0010
# 6 0.0000 0.0015 0.0016 -1.1881 0.0010 32.2241
#
#
#
# Elastic Compliance Matrix: (Units=1/GPa)
#
#
# Indices 1 2 3 4 5 6 
#
# 1 0.014353 -0.003205 -0.000330 0.000000 -0.003296 0.000000
# 2 -0.003205 0.007593 -0.002748 -0.000001 0.000926 0.000000
# 3 -0.000330 -0.002748 0.007256 0.000000 -0.000391 0.000000
# 4 0.000000 -0.000001 0.000000 0.057242 -0.000003 0.002110
# 5 -0.003296 0.000926 -0.000391 -0.000003 0.028166 -0.000001
# 6 0.000000 0.000000 0.000000 0.002110 -0.000001 0.031110
#
#
# Mechanical properties :
#
#
# Convention : Reuss Voigt Hill
#
# Bulk Modulus (GPa) = 60.10926 74.68754 67.39840
# Shear Modulus (GPa) = 30.51892 36.68598 33.60245
#
# Velocity S-wave (km/s) = 3.69397 4.05004 3.87610
# Velocity P-wave (km/s) = 6.71339 7.43399 7.08286
#
# Compressibility (1/GPa) = 0.01663637
#
# Stress axis : x y z
#
# Youngs Moduli (GPa) = 69.66949 131.69561 137.81619
#
# Poissons Ratio (x) = 0.42210 0.04545
# Poissons Ratio (y) = 0.22330 0.37876
# Poissons Ratio (z) = 0.02298 0.36194
#
# Static dielectric constant tensor:
#      x y z
#    x 3.880140 -0.000010 0.093360 
#    y -0.000010 4.112110 -0.000010 
#    z 0.093360 -0.000010 4.194560 
# 
# 
# High freq. dielectric constant tensor:
#      x y z
#    x 1.881400 0.000000 0.013150 
#    y 0.000000 1.871490 0.000000 
#    z 0.013150 0.000000 1.895710 
# 
# From -- ./inp_files/21962.got.cif
#   From: 2010.03.12/outbox.cif.g09.slc.cpg/sg8_11_cif.got.tgz:21962.got - 2010.03.31 10:45:26.
