data_PCOD8054412
_publ_section_title
;
Structure prediction by ZEFSAII (Michael W. Deem and Ramdas Pophale) SiO2 
 PCOD8054412
Probable space group: C C
;
_chemical_formula_sum "Si O2"
_cell_formula_units_Z 28
_cell_length_a 14.371198
_cell_length_b 18.123852
_cell_length_c 9.184593
_cell_angle_alpha 90.000000
_cell_angle_beta 37.741594
_cell_angle_gamma 90.000000
_cell_volume 1464.288583
_symmetry_space_group_name_H-M "C C"
_symmetry_group_IT_number 9
_symmetry_cell_setting 'monoclinic'
loop_
_space_group_symop_operation_xyz
x,y,z
x,-y,1/2+z
1/2+x,1/2+y,z
1/2+x,1/2-y,1/2+z
loop_
_atom_site_type_symbol
_atom_site_label
_atom_site_fract_x
_atom_site_fract_y
_atom_site_fract_z
Si Si1 0.621110 0.554958 0.140830
Si Si2 0.432285 0.667775 0.567605
Si Si3 0.143218 0.834208 0.370799
Si Si4 0.634162 0.813475 0.271997
Si Si5 0.102956 0.112439 0.605109
Si Si6 0.347388 0.121566 0.052743
Si Si7 0.348910 0.753518 0.310827
O O1 0.501027 0.604012 0.378653
O O2 0.569500 0.471294 0.191790
O O3 0.633974 0.586420 0.960877
O O4 0.784793 0.556860 0.023758
O O5 0.525419 0.743070 0.431713
O O6 0.252409 0.675916 0.759297
O O7 0.451540 0.642203 0.711751
O O8 0.135944 0.840337 0.207668
O O9 0.301757 0.796007 0.222084
O O10 0.012963 0.780479 0.590692
O O11 0.522312 0.885101 0.391046
O O12 0.727091 0.809743 0.004446
O O13 0.245102 0.124491 0.323403
O O14 0.336898 0.196332 0.970719
#
# Coordination Sequence:
#
# PCOD8054412 Si02
#       7
#     4   4   4   4   4   4   4
#     4  10  19  39  60  78 113 161 196 222 284 357
#     4  11  20  35  63  86 110 158 191 236 288 350
#     4  11  21  34  57  89 110 142 188 243 289 331
#     4  12  17  37  65  84 108 146 208 229 285 354
#     4  11  23  37  55  87 119 150 196 238 284 340
#     4  10  20  37  61  84 109 158 192 230 286 353
#     4  11  18  35  59  82 109 147 183 234 294 345
#
# _framework density 19.121914
#
# number of rings (size 3 to 8) (size 9 to 14) (size 15 to 20)
#    0.000    1.143    8.571    1.714    0.000    2.286 
#    0.000    1.429    0.000    0.000    0.000    0.000 
#    0.000    0.000    0.000    0.000    0.000    0.000 
#
# Total GULP energy -173452.069649 kJ/mol
# GULP energy per Si atom -12389.433546 kJ/mol
# Density = 1.907839 g / cm^3
# Si number density = 19.121914 Si / 1000 Ang^3
#
#
#
# Elastic Constant Matrix: (Units=GPa)
#
#
# Indices 1 2 3 4 5 6 
#
# 1 177.3968 39.0268 40.8209 -0.0011 0.7488 0.0018
# 2 39.0268 58.1137 10.5392 -0.0001 -1.2647 0.0002
# 3 40.8209 10.5392 49.7776 -0.0011 8.3420 0.0014
# 4 -0.0011 -0.0001 -0.0011 12.5369 0.0007 4.5137
# 5 0.7488 -1.2647 8.3420 0.0007 45.0709 -0.0013
# 6 0.0018 0.0002 0.0014 4.5137 -0.0013 26.5874
#
#
#
# Elastic Compliance Matrix: (Units=1/GPa)
#
#
# Indices 1 2 3 4 5 6 
#
# 1 0.007877 -0.004239 -0.005697 0.000000 0.000805 0.000000
# 2 -0.004239 0.020244 -0.000946 0.000000 0.000814 0.000000
# 3 -0.005697 -0.000946 0.025749 0.000003 -0.004698 -0.000002
# 4 0.000000 0.000000 0.000003 0.084957 -0.000002 -0.014423
# 5 0.000805 0.000814 -0.004698 -0.000002 0.023066 0.000002
# 6 0.000000 0.000000 -0.000002 -0.014423 0.000002 0.040060
#
#
# Mechanical properties :
#
#
# Convention : Reuss Voigt Hill
#
# Bulk Modulus (GPa) = 31.14758 51.78466 41.46612
# Shear Modulus (GPa) = 21.32916 29.83245 25.58081
#
# Velocity S-wave (km/s) = 3.34343 3.95412 3.66153
# Velocity P-wave (km/s) = 5.58829 6.92725 6.29348
#
# Compressibility (1/GPa) = 0.03210522
#
# Stress axis : x y z
#
# Youngs Moduli (GPa) = 126.94681 49.39768 38.83648
#
# Poissons Ratio (x) = 0.20941 0.22126
# Poissons Ratio (y) = 0.53817 0.03674
# Poissons Ratio (z) = 0.72324 0.04673
#
# Static dielectric constant tensor:
#      x y z
#    x 4.177110 0.000000 -0.137590 
#    y 0.000000 3.352420 0.000000 
#    z -0.137590 0.000000 3.323730 
# 
# 
# High freq. dielectric constant tensor:
#      x y z
#    x 1.768950 0.000000 0.002280 
#    y 0.000000 1.718000 0.000000 
#    z 0.002280 0.000000 1.713400 
# 
# From -- ./inp_files/5551.got.cif
#   From: 2010.06.25/outbox.cif.g09.slc.cpg/sg9_3_cif.got.tgz:5551.got - 2010.06.27 21:40:51.
