data_PCOD8054885
_publ_section_title
;
Structure prediction by ZEFSAII (Michael W. Deem and Ramdas Pophale) SiO2 
 PCOD8054885
Probable space group: C C
;
_chemical_formula_sum "Si O2"
_cell_formula_units_Z 28
_cell_length_a 13.858250
_cell_length_b 17.053492
_cell_length_c 4.928291
_cell_angle_alpha 90.000000
_cell_angle_beta 113.188090
_cell_angle_gamma 90.000000
_cell_volume 1070.622097
_symmetry_space_group_name_H-M "C C"
_symmetry_group_IT_number 9
_symmetry_cell_setting 'monoclinic'
loop_
_space_group_symop_operation_xyz
x,y,z
x,-y,1/2+z
1/2+x,1/2+y,z
1/2+x,1/2-y,1/2+z
loop_
_atom_site_type_symbol
_atom_site_label
_atom_site_fract_x
_atom_site_fract_y
_atom_site_fract_z
Si Si1 0.710600 0.949779 0.044010
Si Si2 0.848054 0.711840 0.046220
Si Si3 0.772663 0.630961 0.460995
Si Si4 0.558715 0.350846 0.956007
Si Si5 0.065804 0.672677 0.128491
Si Si6 0.980870 0.549337 0.654520
Si Si7 0.922771 0.124593 0.788266
O O1 0.837650 0.945029 0.196880
O O2 0.674866 0.979250 0.303228
O O3 0.661170 0.865969 0.902832
O O4 0.765509 0.668524 0.152907
O O5 0.963724 0.672654 0.213905
O O6 0.855211 0.803130 0.103298
O O7 0.813414 0.700800 0.698731
O O8 0.658770 0.603089 0.441480
O O9 0.854819 0.559240 0.552884
O O10 0.466331 0.354836 0.632729
O O11 0.592343 0.261630 0.067342
O O12 0.517151 0.394617 0.181125
O O13 0.041675 0.626379 0.822470
O O14 0.010513 0.527083 0.375586
#
# Coordination Sequence:
#
# PCOD8054885 Si02
#       7
#     4   4   4   4   4   4   4
#     4  12  27  44  66  97 138 185 219 258 320 404
#     4  10  21  39  66  94 126 159 202 277 330 378
#     4  11  22  40  63  93 125 162 212 261 327 379
#     4  11  24  42  70  96 123 165 218 282 323 365
#     4  10  23  42  68 100 129 163 214 271 337 384
#     4  11  22  38  60  89 127 163 198 250 315 393
#     4  11  23  43  63  93 130 171 223 263 316 377
#
# _framework density 26.153020999999999
#
# number of rings (size 3 to 8) (size 9 to 14) (size 15 to 20)
#    0.000    1.143    0.000    7.714    0.000    8.000 
#    0.000    4.286    0.000    0.000    0.000    0.000 
#    0.000    0.000    0.000    0.000    0.000    0.000 
#
# Total GULP energy -173623.957841 kJ/mol
# GULP energy per Si atom -12401.711274 kJ/mol
# Density = 2.609350 g / cm^3
# Si number density = 26.153021 Si / 1000 Ang^3
#
#
#
# Elastic Constant Matrix: (Units=GPa)
#
#
# Indices 1 2 3 4 5 6 
#
# 1 149.2545 10.4129 26.0164 0.0000 -12.3267 0.0000
# 2 10.4129 34.8495 30.1997 0.0000 2.3706 0.0000
# 3 26.0164 30.1997 94.9775 0.0000 -16.1249 0.0000
# 4 0.0000 0.0000 0.0000 26.6879 0.0000 3.9328
# 5 -12.3267 2.3706 -16.1249 0.0000 49.3199 0.0000
# 6 0.0000 0.0000 0.0000 3.9328 0.0000 39.8220
#
#
#
# Elastic Compliance Matrix: (Units=1/GPa)
#
#
# Indices 1 2 3 4 5 6 
#
# 1 0.007128 -0.001012 -0.001397 0.000000 0.001373 0.000000
# 2 -0.001012 0.041741 -0.014165 0.000000 -0.006890 0.000000
# 3 -0.001397 -0.014165 0.016381 0.000000 0.005687 0.000000
# 4 0.000000 0.000000 0.000000 0.038024 0.000000 -0.003755
# 5 0.001373 -0.006890 0.005687 0.000000 0.022810 0.000000
# 6 0.000000 0.000000 0.000000 -0.003755 0.000000 0.025483
#
#
# Mechanical properties :
#
#
# Convention : Reuss Voigt Hill
#
# Bulk Modulus (GPa) = 31.15187 45.81551 38.48369
# Shear Modulus (GPa) = 25.58668 37.32945 31.45806
#
# Velocity S-wave (km/s) = 3.13124 3.78212 3.47197
# Velocity P-wave (km/s) = 5.00102 6.05218 5.55153
#
# Compressibility (1/GPa) = 0.03210080
#
# Stress axis : x y z
#
# Youngs Moduli (GPa) = 140.30019 23.95738 61.04598
#
# Poissons Ratio (x) = 0.02425 0.08531
# Poissons Ratio (y) = 0.14200 0.86470
# Poissons Ratio (z) = 0.19606 0.33935
#
# Static dielectric constant tensor:
#      x y z
#    x 5.062400 0.000000 0.052820 
#    y 0.000000 4.287460 0.000000 
#    z 0.052820 0.000000 4.682320 
# 
# 
# High freq. dielectric constant tensor:
#      x y z
#    x 2.070560 0.000000 0.000050 
#    y 0.000000 2.013960 0.000000 
#    z 0.000050 0.000000 2.055770 
# 
# From -- ./inp_files/2596.got.cif
#   From: 2010.06.25/outbox.cif.g09.slc.cpg/sg9_2_cif.got.tgz:2596.got - 2010.06.27 21:40:51.
