data_PCOD8054068
_publ_section_title
;
Structure prediction by ZEFSAII (Michael W. Deem and Ramdas Pophale) SiO2 
 PCOD8054068
Probable space group: C M
;
_chemical_formula_sum "Si O2"
_cell_formula_units_Z 32
_cell_length_a 19.103462
_cell_length_b 14.429713
_cell_length_c 14.053993
_cell_angle_alpha 90.000000
_cell_angle_beta 22.443271
_cell_angle_gamma 90.000000
_cell_volume 1479.004862
_symmetry_space_group_name_H-M "C M"
_symmetry_group_IT_number 8
_symmetry_cell_setting 'monoclinic'
loop_
_space_group_symop_operation_xyz
x,y,z
x,-y,z
1/2+x,1/2+y,z
1/2+x,1/2-y,z
loop_
_atom_site_type_symbol
_atom_site_label
_atom_site_fract_x
_atom_site_fract_y
_atom_site_fract_z
Si Si1 0.694320 0.600653 0.656310
Si Si2 0.355021 0.819213 0.965376
Si Si3 0.291271 0.655189 0.163610
Si Si4 0.458166 0.390729 0.476896
Si Si5 0.416010 0.102837 0.571820
Si Si6 0.719971 0.105111 0.455652
Si Si7 0.900499 0.228414 0.367623
Si Si8 0.804939 0.769022 0.836532
O O1 0.755413 0.500000 0.536646
O O2 0.806198 0.616969 0.612854
O O3 0.747044 0.693460 0.532906
O O4 0.474403 0.593506 0.940783
O O5 0.529721 0.886357 0.752334
O O6 0.382626 0.742809 0.845927
O O7 0.343627 0.761097 0.076828
O O8 0.175028 0.883161 0.185064
O O9 0.191152 0.653914 0.390674
O O10 0.136523 0.620991 0.281683
O O11 0.401722 0.500000 0.539970
O O12 0.366327 0.324177 0.511962
O O13 0.397977 0.351329 0.656986
O O14 0.330579 0.170186 0.755819
O O15 0.388042 0.000000 0.647443
O O16 0.886719 0.151249 0.303379
O O17 0.776497 0.000000 0.369439
O O18 0.088591 0.284898 0.121660
#
# Coordination Sequence:
#
# PCOD8054068 Si02
#       8
#     4   4   4   4   4   4   4   4
#     4  11  23  41  66  97 132 174 219 270 330 391
#     4  11  22  41  67  91 130 170 214 272 330 390
#     4  12  23  43  67  97 135 174 216 276 335 382
#     4  11  23  43  66  95 131 172 217 269 331 394
#     4  11  21  38  66  97 128 167 219 270 325 389
#     4  12  24  39  64  97 127 168 218 270 331 391
#     4  11  24  41  64  93 132 173 219 274 326 391
#     4  11  22  40  66  93 127 174 218 265 334 388
#
# _framework density 21.63617
#
# number of rings (size 3 to 8) (size 9 to 14) (size 15 to 20)
#    0.000    0.750    5.000    3.375    0.000    4.000 
#    0.000    1.875    0.000    0.750    0.000    0.000 
#    0.000    0.000    0.000    0.000    0.000    0.000 
#
# Total GULP energy -198274.925870 kJ/mol
# GULP energy per Si atom -12392.182867 kJ/mol
# Density = 2.158693 g / cm^3
# Si number density = 21.636170 Si / 1000 Ang^3
#
#
#
# Elastic Constant Matrix: (Units=GPa)
#
#
# Indices 1 2 3 4 5 6 
#
# 1 62.0104 17.1649 15.5095 -0.0019 -11.2478 0.0009
# 2 17.1649 119.6573 34.3408 -0.0021 16.3740 -0.0004
# 3 15.5095 34.3408 77.3301 -0.0097 -10.8259 0.0015
# 4 -0.0019 -0.0021 -0.0097 25.9625 0.0024 4.7975
# 5 -11.2478 16.3740 -10.8259 0.0024 36.7136 -0.0006
# 6 0.0009 -0.0004 0.0015 4.7975 -0.0006 12.6564
#
#
#
# Elastic Compliance Matrix: (Units=1/GPa)
#
#
# Indices 1 2 3 4 5 6 
#
# 1 0.018568 -0.003188 -0.001369 0.000000 0.006707 -0.000001
# 2 -0.003188 0.011457 -0.005529 -0.000001 -0.007717 0.000001
# 3 -0.001369 -0.005529 0.016635 0.000006 0.006951 -0.000004
# 4 0.000000 -0.000001 0.000006 0.041418 -0.000001 -0.015700
# 5 0.006707 -0.007717 0.006951 -0.000001 0.034784 0.000000
# 6 -0.000001 0.000001 -0.000004 -0.015700 0.000000 0.084963
#
#
# Mechanical properties :
#
#
# Convention : Reuss Voigt Hill
#
# Bulk Modulus (GPa) = 37.75444 43.66980 40.71212
# Shear Modulus (GPa) = 21.11248 27.86533 24.48891
#
# Velocity S-wave (km/s) = 3.12716 3.59263 3.36795
# Velocity P-wave (km/s) = 5.52507 6.11857 5.82938
#
# Compressibility (1/GPa) = 0.02648695
#
# Stress axis : x y z
#
# Youngs Moduli (GPa) = 53.85644 87.28044 60.11559
#
# Poissons Ratio (x) = 0.27828 0.08231
# Poissons Ratio (y) = 0.17172 0.33237
# Poissons Ratio (z) = 0.07374 0.48256
#
# Static dielectric constant tensor:
#      x y z
#    x 3.909510 0.000000 -0.118650 
#    y 0.000000 3.961340 0.000000 
#    z -0.118650 0.000000 3.978710 
# 
# 
# High freq. dielectric constant tensor:
#      x y z
#    x 1.839810 0.000000 -0.017290 
#    y 0.000000 1.848930 0.000000 
#    z -0.017290 0.000000 1.850930 
# 
# From -- ./inp_files/10739.got.cif
#   From: 2010.03.12/outbox.cif.g09.slc.cpg/sg8_6_cif.got.tgz:10739.got - 2010.03.31 10:45:26.
