data_PCOD8054451
_publ_section_title
;
Structure prediction by ZEFSAII (Michael W. Deem and Ramdas Pophale) SiO2 
 PCOD8054451
Probable space group: C C
;
_chemical_formula_sum "Si O2"
_cell_formula_units_Z 28
_cell_length_a 11.737063
_cell_length_b 7.775222
_cell_length_c 26.323135
_cell_angle_alpha 90.000000
_cell_angle_beta 152.850216
_cell_angle_gamma 90.000000
_cell_volume 1096.169389
_symmetry_space_group_name_H-M "C C"
_symmetry_group_IT_number 9
_symmetry_cell_setting 'monoclinic'
loop_
_space_group_symop_operation_xyz
x,y,z
x,-y,1/2+z
1/2+x,1/2+y,z
1/2+x,1/2-y,1/2+z
loop_
_atom_site_type_symbol
_atom_site_label
_atom_site_fract_x
_atom_site_fract_y
_atom_site_fract_z
Si Si1 0.569180 0.719465 0.845640
Si Si2 0.318428 0.085612 0.737329
Si Si3 0.768246 0.799002 0.468736
Si Si4 0.735742 0.367332 0.518307
Si Si5 0.803048 0.009240 0.578925
Si Si6 0.162913 0.497955 0.632140
Si Si7 0.562580 0.394387 0.034127
O O1 0.415558 0.583561 0.751795
O O2 0.456881 0.904037 0.790031
O O3 0.554810 0.651047 0.897810
O O4 0.863688 0.737459 0.947323
O O5 0.506037 0.229198 0.835261
O O6 0.262698 0.153711 0.657797
O O7 0.093098 0.045603 0.685855
O O8 0.920711 0.622948 0.532016
O O9 0.700873 0.873518 0.497703
O O10 0.928918 0.940120 0.504044
O O11 0.673737 0.197724 0.526687
O O12 0.685287 0.543496 0.529535
O O13 0.034620 0.357652 0.619567
O O14 0.739165 0.920886 0.607417
#
# Coordination Sequence:
#
# PCOD8054451 Si02
#       7
#     4   4   4   4   4   4   4
#     4  11  23  47  66 104 141 176 231 279 340 415
#     4  10  19  42  77  93 130 192 220 270 351 402
#     4  10  21  43  70  99 135 186 225 271 350 409
#     4  12  25  43  69 106 138 174 234 281 335 406
#     4  11  22  46  67  98 143 177 226 282 333 412
#     4  12  27  42  68 108 137 177 231 282 341 404
#     4  10  21  43  73  94 134 188 219 275 344 404
#
# _framework density 25.543496999999999
#
# number of rings (size 3 to 8) (size 9 to 14) (size 15 to 20)
#    0.000    1.143    8.571    0.000    0.000    8.000 
#    0.000    2.857    0.000    0.000    0.000    0.000 
#    0.000    0.000    0.000    0.000    0.000    0.000 
#
# Total GULP energy -173512.603400 kJ/mol
# GULP energy per Si atom -12393.757386 kJ/mol
# Density = 2.548536 g / cm^3
# Si number density = 25.543497 Si / 1000 Ang^3
#
#
#
# Elastic Constant Matrix: (Units=GPa)
#
#
# Indices 1 2 3 4 5 6 
#
# 1 162.3698 32.8616 51.0741 -0.0003 -20.5320 0.0000
# 2 32.8616 70.8738 22.1120 0.0001 -2.7016 -0.0001
# 3 51.0741 22.1120 158.7875 -0.0024 -19.2406 0.0002
# 4 -0.0003 0.0001 -0.0024 30.5463 -0.0001 7.5712
# 5 -20.5320 -2.7016 -19.2406 -0.0001 19.4336 0.0002
# 6 0.0000 -0.0001 0.0002 7.5712 0.0002 44.6641
#
#
#
# Elastic Compliance Matrix: (Units=1/GPa)
#
#
# Indices 1 2 3 4 5 6 
#
# 1 0.008055 -0.003057 -0.001347 0.000000 0.006752 0.000000
# 2 -0.003057 0.015911 -0.001540 0.000000 -0.002543 0.000000
# 3 -0.001347 -0.001540 0.007667 0.000001 0.005953 0.000000
# 4 0.000000 0.000000 0.000001 0.034173 0.000001 -0.005793
# 5 0.006752 -0.002543 0.005953 0.000001 0.064131 -0.000001
# 6 0.000000 0.000000 0.000000 -0.005793 -0.000001 0.023371
#
#
# Mechanical properties :
#
#
# Convention : Reuss Voigt Hill
#
# Bulk Modulus (GPa) = 50.65031 67.12519 58.88775
# Shear Modulus (GPa) = 29.10719 37.99435 33.55077
#
# Velocity S-wave (km/s) = 3.37933 3.86091 3.62812
# Velocity P-wave (km/s) = 5.92441 6.79789 6.37613
#
# Compressibility (1/GPa) = 0.01974321
#
# Stress axis : x y z
#
# Youngs Moduli (GPa) = 124.14659 62.85054 130.43055
#
# Poissons Ratio (x) = 0.19215 0.17570
# Poissons Ratio (y) = 0.37954 0.20093
# Poissons Ratio (z) = 0.16723 0.09682
#
# Static dielectric constant tensor:
#      x y z
#    x 4.727020 0.000000 -0.142450 
#    y 0.000000 4.937300 0.000000 
#    z -0.142450 0.000000 5.448990 
# 
# 
# High freq. dielectric constant tensor:
#      x y z
#    x 2.014660 0.000000 -0.001710 
#    y 0.000000 2.054280 0.000000 
#    z -0.001710 0.000000 2.020030 
# 
# From -- ./inp_files/36540.got.cif
#   From: 2010.06.25/outbox.cif.g09.slc.cpg/sg9_19_cif.got.tgz:36540.got - 2010.06.27 21:40:51.
