data_PCOD8054116
_publ_section_title
;
Structure prediction by ZEFSAII (Michael W. Deem and Ramdas Pophale) SiO2 
 PCOD8054116
Probable space group: C M
;
_chemical_formula_sum "Si O2"
_cell_formula_units_Z 32
_cell_length_a 9.937144
_cell_length_b 15.075416
_cell_length_c 10.300125
_cell_angle_alpha 90.000000
_cell_angle_beta 89.865662
_cell_angle_gamma 90.000000
_cell_volume 1543.022255
_symmetry_space_group_name_H-M "C M"
_symmetry_group_IT_number 8
_symmetry_cell_setting 'monoclinic'
loop_
_space_group_symop_operation_xyz
x,y,z
x,-y,z
1/2+x,1/2+y,z
1/2+x,1/2-y,z
loop_
_atom_site_type_symbol
_atom_site_label
_atom_site_fract_x
_atom_site_fract_y
_atom_site_fract_z
Si Si1 0.044360 0.742383 0.640210
Si Si2 0.568497 0.398787 0.832670
Si Si3 0.297020 0.753197 0.467346
Si Si4 0.908020 0.100861 0.292597
Si Si5 0.574433 0.901278 0.859309
Si Si6 0.326982 0.353225 0.012695
Si Si7 0.717426 0.400378 0.276757
Si Si8 0.811113 0.647906 0.999794
O O1 0.046505 0.838774 0.706540
O O2 0.146986 0.741678 0.520728
O O3 0.082607 0.665272 0.739267
O O4 0.895461 0.724332 0.586429
O O5 0.539547 0.500000 0.791973
O O6 0.720404 0.389684 0.883396
O O7 0.472216 0.367260 0.948662
O O8 0.339987 0.661884 0.400494
O O9 0.302815 0.834029 0.365819
O O10 0.828971 0.109611 0.157878
O O11 0.062364 0.130236 0.272437
O O12 0.897693 0.000000 0.342037
O O13 0.465326 0.869412 0.963929
O O14 0.541076 0.000000 0.807954
O O15 0.717405 0.905816 0.930172
O O16 0.284238 0.251389 0.016556
O O17 0.730097 0.500000 0.333171
O O18 0.777858 0.401548 0.132746
#
# Coordination Sequence:
#
# PCOD8054116 Si02
#       8
#     4   4   4   4   4   4   4   4
#     4  12  26  44  66  96 134 180 226 268 318 388
#     4  12  24  43  71  98 129 179 227 268 324 399
#     4  12  26  44  70  94 132 180 228 266 326 382
#     4  11  24  44  70 100 132 171 222 277 329 396
#     4  12  26  43  65 100 139 169 209 276 338 389
#     4  12  22  42  71 101 135 171 210 274 347 395
#     4  11  24  44  70 100 132 171 222 277 329 396
#     4  12  22  42  71 101 135 171 210 274 347 395
#
# _framework density 20.738523000000001
#
# number of rings (size 3 to 8) (size 9 to 14) (size 15 to 20)
#    0.000    0.250    6.250    3.750    0.000    3.000 
#    0.000    1.250    0.000    0.000    0.000    0.000 
#    0.000    0.000    0.000    0.000    0.000    0.000 
#
# Total GULP energy -198543.263867 kJ/mol
# GULP energy per Si atom -12408.953992 kJ/mol
# Density = 2.069132 g / cm^3
# Si number density = 20.738523 Si / 1000 Ang^3
#
#
#
# Elastic Constant Matrix: (Units=GPa)
#
#
# Indices 1 2 3 4 5 6 
#
# 1 67.0205 18.9932 19.2729 0.0000 5.3776 0.0000
# 2 18.9932 133.8177 39.2886 0.0000 6.6544 0.0000
# 3 19.2729 39.2886 87.9362 0.0000 10.3869 0.0000
# 4 0.0000 0.0000 0.0000 12.3005 0.0000 -3.4212
# 5 5.3776 6.6544 10.3869 0.0000 43.6635 0.0000
# 6 0.0000 0.0000 0.0000 -3.4212 0.0000 29.3712
#
#
#
# Elastic Compliance Matrix: (Units=1/GPa)
#
#
# Indices 1 2 3 4 5 6 
#
# 1 0.016216 -0.001429 -0.002784 0.000000 -0.001117 0.000000
# 2 -0.001429 0.008734 -0.003553 0.000000 -0.000310 0.000000
# 3 -0.002784 -0.003553 0.013854 0.000000 -0.002411 0.000000
# 4 0.000000 0.000000 0.000000 0.084020 0.000000 0.009787
# 5 -0.001117 -0.000310 -0.002411 0.000000 0.023661 0.000000
# 6 0.000000 0.000000 0.000000 0.009787 0.000000 0.035187
#
#
# Mechanical properties :
#
#
# Convention : Reuss Voigt Hill
#
# Bulk Modulus (GPa) = 42.96630 49.32044 46.14337
# Shear Modulus (GPa) = 24.39510 31.14835 27.77173
#
# Velocity S-wave (km/s) = 3.43347 3.87971 3.66339
# Velocity P-wave (km/s) = 6.03998 6.62595 6.33974
#
# Compressibility (1/GPa) = 0.02327406
#
# Stress axis : x y z
#
# Youngs Moduli (GPa) = 61.66805 114.49426 72.18115
#
# Poissons Ratio (x) = 0.16358 0.20093
# Poissons Ratio (y) = 0.08811 0.25642
# Poissons Ratio (z) = 0.17167 0.40674
#
# Static dielectric constant tensor:
#      x y z
#    x 3.803500 0.000000 0.012760 
#    y 0.000000 3.878970 0.000000 
#    z 0.012760 0.000000 3.622100 
# 
# 
# High freq. dielectric constant tensor:
#      x y z
#    x 1.818560 0.000000 0.000020 
#    y 0.000000 1.826740 0.000000 
#    z 0.000020 0.000000 1.807220 
# 
# From -- ./inp_files/18875.got.cif
#   From: 2010.03.12/outbox.cif.g09.slc.cpg/sg8_10_cif.got.tgz:18875.got - 2010.03.31 10:45:26.
