data_PCOD8054132
_publ_section_title
;
Structure prediction by ZEFSAII (Michael W. Deem and Ramdas Pophale) SiO2 
 PCOD8054132
Probable space group: C M
;
_chemical_formula_sum "Si O2"
_cell_formula_units_Z 32
_cell_length_a 13.735852
_cell_length_b 18.992456
_cell_length_c 11.024785
_cell_angle_alpha 90.000000
_cell_angle_beta 30.531459
_cell_angle_gamma 90.000000
_cell_volume 1461.101200
_symmetry_space_group_name_H-M "C M"
_symmetry_group_IT_number 8
_symmetry_cell_setting 'monoclinic'
loop_
_space_group_symop_operation_xyz
x,y,z
x,-y,z
1/2+x,1/2+y,z
1/2+x,1/2-y,z
loop_
_atom_site_type_symbol
_atom_site_label
_atom_site_fract_x
_atom_site_fract_y
_atom_site_fract_z
Si Si1 0.823510 0.804824 0.134700
Si Si2 0.387002 0.789250 0.644571
Si Si3 0.077985 0.419013 0.778923
Si Si4 0.774102 0.676767 0.025638
Si Si5 0.206015 0.359507 0.888225
Si Si6 0.832436 0.663559 0.445957
Si Si7 0.369590 0.685099 0.352540
Si Si8 0.964578 0.081665 0.805778
O O1 0.614035 0.782411 0.400345
O O2 0.879683 0.741276 0.983127
O O3 0.945129 0.813036 0.130332
O O4 0.849360 0.877242 0.034451
O O5 0.283273 0.713403 0.750482
O O6 0.329273 0.839709 0.595119
O O7 0.338180 0.828704 0.819034
O O8 0.093216 0.500000 0.727523
O O9 0.128749 0.407983 0.864350
O O10 0.222691 0.378207 0.533438
O O11 0.857197 0.393805 0.998329
O O12 0.542209 0.680800 0.267527
O O13 0.374432 0.402577 0.771854
O O14 0.042553 0.346361 0.164347
O O15 0.758763 0.741509 0.491227
O O16 0.685870 0.604922 0.556742
O O17 0.952590 0.000000 0.850882
#
# Coordination Sequence:
#
# PCOD8054132 Si02
#       8
#     4   4   4   4   4   4   4   4
#     4  12  23  44  72 104 136 179 240 291 347 408
#     4  12  20  44  76 108 129 176 239 300 343 400
#     4  12  28  45  67 102 145 187 226 279 353 429
#     4  12  24  44  72 106 135 178 235 293 342 408
#     4  12  24  47  74 102 142 181 236 300 352 407
#     4  12  24  44  73 108 135 181 241 294 348 408
#     4  12  23  43  74 100 137 180 234 294 344 405
#     4  12  27  45  68 104 148 190 229 281 356 435
#
# _framework density 21.901289999999999
#
# number of rings (size 3 to 8) (size 9 to 14) (size 15 to 20)
#    0.000    0.000    7.500    3.375    0.000    3.000 
#    0.000    1.875    0.000    0.000    0.000    0.000 
#    0.000    0.000    0.000    0.000    0.000    0.000 
#
# Total GULP energy -198370.352405 kJ/mol
# GULP energy per Si atom -12398.147025 kJ/mol
# Density = 2.185144 g / cm^3
# Si number density = 21.901290 Si / 1000 Ang^3
#
#
#
# Elastic Constant Matrix: (Units=GPa)
#
#
# Indices 1 2 3 4 5 6 
#
# 1 142.8060 48.7437 18.0904 0.0409 0.5938 -0.0159
# 2 48.7437 136.3988 26.0436 0.0236 -11.9170 -0.0121
# 3 18.0904 26.0436 84.7690 0.0451 -4.2252 -0.0233
# 4 0.0409 0.0236 0.0451 20.9194 -0.0005 1.8463
# 5 0.5938 -11.9170 -4.2252 -0.0005 37.5459 0.0128
# 6 -0.0159 -0.0121 -0.0233 1.8463 0.0128 22.6665
#
#
#
# Elastic Compliance Matrix: (Units=1/GPa)
#
#
# Indices 1 2 3 4 5 6 
#
# 1 0.008083 -0.002812 -0.000917 -0.000011 -0.001123 0.000005
# 2 -0.002812 0.008954 -0.002018 0.000000 0.002659 -0.000001
# 3 -0.000917 -0.002018 0.012652 -0.000024 0.000798 0.000013
# 4 -0.000011 0.000000 -0.000024 0.048149 -0.000001 -0.003922
# 5 -0.001123 0.002659 0.000798 -0.000001 0.027586 -0.000014
# 6 0.000005 -0.000001 0.000013 -0.003922 -0.000014 0.044437
#
#
# Mechanical properties :
#
#
# Convention : Reuss Voigt Hill
#
# Bulk Modulus (GPa) = 54.95982 61.08100 58.02041
# Shear Modulus (GPa) = 29.86492 34.29942 32.08217
#
# Velocity S-wave (km/s) = 3.69672 3.96168 3.83149
# Velocity P-wave (km/s) = 6.58558 6.99116 6.79140
#
# Compressibility (1/GPa) = 0.01819511
#
# Stress axis : x y z
#
# Youngs Moduli (GPa) = 123.71574 111.68300 79.03653
#
# Poissons Ratio (x) = 0.31401 0.07249
# Poissons Ratio (y) = 0.34784 0.15952
# Poissons Ratio (z) = 0.11347 0.22541
#
# Static dielectric constant tensor:
#      x y z
#    x 4.505240 -0.000040 0.025610 
#    y -0.000040 3.615570 0.000090 
#    z 0.025610 0.000090 4.059710 
# 
# 
# High freq. dielectric constant tensor:
#      x y z
#    x 1.888330 0.000000 0.001590 
#    y 0.000000 1.824060 0.000000 
#    z 0.001590 0.000000 1.871450 
# 
# From -- ./inp_files/22392.got.cif
#   From: 2010.03.12/outbox.cif.g09.slc.cpg/sg8_12_cif.got.tgz:22392.got - 2010.03.31 10:45:26.
