data_PCOD8054854
_publ_section_title
;
Structure prediction by ZEFSAII (Michael W. Deem and Ramdas Pophale) SiO2 
 PCOD8054854
Probable space group: C C
;
_chemical_formula_sum "Si O2"
_cell_formula_units_Z 32
_cell_length_a 14.340544
_cell_length_b 11.771813
_cell_length_c 8.781257
_cell_angle_alpha 90.000000
_cell_angle_beta 74.021855
_cell_angle_gamma 90.000000
_cell_volume 1425.130954
_symmetry_space_group_name_H-M "C C"
_symmetry_group_IT_number 9
_symmetry_cell_setting 'monoclinic'
loop_
_space_group_symop_operation_xyz
x,y,z
x,-y,1/2+z
1/2+x,1/2+y,z
1/2+x,1/2-y,1/2+z
loop_
_atom_site_type_symbol
_atom_site_label
_atom_site_fract_x
_atom_site_fract_y
_atom_site_fract_z
Si Si1 0.808910 0.270070 0.251050
Si Si2 0.642927 0.105173 0.223281
Si Si3 0.952845 0.708829 0.408005
Si Si4 0.890520 0.939055 0.836359
Si Si5 0.009097 0.060742 0.994290
Si Si6 0.715375 0.904680 0.378505
Si Si7 0.223431 0.952829 0.502355
Si Si8 0.278971 0.841589 0.795770
O O1 0.717730 0.208570 0.214546
O O2 0.845329 0.187220 0.373254
O O3 0.776489 0.385421 0.344703
O O4 0.891271 0.305009 0.091329
O O5 0.541882 0.120943 0.357283
O O6 0.684624 0.984413 0.255030
O O7 0.632489 0.095965 0.045800
O O8 0.890586 0.689617 0.282151
O O9 0.003015 0.832170 0.383436
O O10 0.918552 0.940424 0.647442
O O11 0.816046 0.043645 0.903337
O O12 0.987235 0.951112 0.897322
O O13 0.108109 0.060888 0.042990
O O14 0.723143 0.777600 0.308898
O O15 0.261962 0.914307 0.650037
O O16 0.244842 0.085350 0.459271
#
# Coordination Sequence:
#
# PCOD8054854 Si02
#       8
#     4   4   4   4   4   4   4   4
#     4  10  22  43  73 103 148 188 233 311 367 422
#     4  11  24  43  75 106 143 181 244 304 364 434
#     4  11  23  46  72 102 142 198 239 296 364 447
#     4  10  21  38  71 106 139 179 243 297 357 420
#     4  11  22  42  69 106 138 189 246 296 349 435
#     4  11  24  44  72 108 143 186 237 307 373 424
#     4  12  27  45  70 100 150 198 239 305 368 431
#     4  12  27  47  68 103 147 197 245 292 378 435
#
# _framework density 22.454076000000001
#
# number of rings (size 3 to 8) (size 9 to 14) (size 15 to 20)
#    0.000    1.000    3.750    3.000    5.250    3.000 
#    0.000    5.000    0.000    0.000    0.000    0.000 
#    0.000    0.000    0.000    0.000    0.000    0.000 
#
# Total GULP energy -198311.489748 kJ/mol
# GULP energy per Si atom -12394.468109 kJ/mol
# Density = 2.240297 g / cm^3
# Si number density = 22.454076 Si / 1000 Ang^3
#
#
#
# Elastic Constant Matrix: (Units=GPa)
#
#
# Indices 1 2 3 4 5 6 
#
# 1 81.2700 28.5770 20.2380 0.0000 -6.7084 0.0000
# 2 28.5770 107.8822 31.3458 0.0000 -10.1982 0.0000
# 3 20.2380 31.3458 87.4325 0.0000 -11.5715 0.0000
# 4 0.0000 0.0000 0.0000 33.0500 0.0000 1.0818
# 5 -6.7084 -10.1982 -11.5715 0.0000 35.6330 0.0000
# 6 0.0000 0.0000 0.0000 1.0818 0.0000 28.3534
#
#
#
# Elastic Compliance Matrix: (Units=1/GPa)
#
#
# Indices 1 2 3 4 5 6 
#
# 1 0.013954 -0.003009 -0.002004 0.000000 0.001115 0.000000
# 2 -0.003009 0.011112 -0.003074 0.000000 0.001616 0.000000
# 3 -0.002004 -0.003074 0.013413 0.000000 0.003099 0.000000
# 4 0.000000 0.000000 0.000000 0.030295 0.000000 -0.001156
# 5 0.001115 0.001616 0.003099 0.000000 0.029743 0.000000
# 6 0.000000 0.000000 0.000000 -0.001156 0.000000 0.035313
#
#
# Mechanical properties :
#
#
# Convention : Reuss Voigt Hill
#
# Bulk Modulus (GPa) = 44.82834 48.54512 46.68673
# Shear Modulus (GPa) = 31.75871 32.50222 32.13046
#
# Velocity S-wave (km/s) = 3.76491 3.80873 3.78688
# Velocity P-wave (km/s) = 6.23756 6.40379 6.32122
#
# Compressibility (1/GPa) = 0.02230732
#
# Stress axis : x y z
#
# Youngs Moduli (GPa) = 71.66620 89.99194 74.55321
#
# Poissons Ratio (x) = 0.27075 0.14938
# Poissons Ratio (y) = 0.21561 0.22915
# Poissons Ratio (z) = 0.14359 0.27660
#
# Static dielectric constant tensor:
#      x y z
#    x 3.993960 0.000000 -0.032770 
#    y 0.000000 4.201890 0.000000 
#    z -0.032770 0.000000 3.850140 
# 
# 
# High freq. dielectric constant tensor:
#      x y z
#    x 1.874550 0.000000 -0.001110 
#    y 0.000000 1.890580 0.000000 
#    z -0.001110 0.000000 1.883550 
# 
# From -- ./inp_files/9258.got.cif
#   From: 2010.06.25/outbox.cif.g09.slc.cpg/sg9_5_cif.got.tgz:9258.got - 2010.06.27 21:40:51.
