data_PCOD8054047
_publ_section_title
;
Structure prediction by ZEFSAII (Michael W. Deem and Ramdas Pophale) SiO2 
 PCOD8054047
Probable space group: C M
;
_chemical_formula_sum "Si O2"
_cell_formula_units_Z 32
_cell_length_a 13.154938
_cell_length_b 20.004396
_cell_length_c 11.415714
_cell_angle_alpha 90.000000
_cell_angle_beta 32.447987
_cell_angle_gamma 90.000000
_cell_volume 1611.811985
_symmetry_space_group_name_H-M "C M"
_symmetry_group_IT_number 8
_symmetry_cell_setting 'monoclinic'
loop_
_space_group_symop_operation_xyz
x,y,z
x,-y,z
1/2+x,1/2+y,z
1/2+x,1/2-y,z
loop_
_atom_site_type_symbol
_atom_site_label
_atom_site_fract_x
_atom_site_fract_y
_atom_site_fract_z
Si Si1 0.385930 0.158934 0.702580
Si Si2 0.466694 0.191659 0.032852
Si Si3 0.314707 0.691644 0.344363
Si Si4 0.395439 0.341083 0.674653
Si Si5 0.949309 0.738992 0.434815
Si Si6 0.679568 0.424001 0.286254
Si Si7 0.601926 0.423999 0.090890
Si Si8 0.332052 0.738981 0.942435
O O1 0.606642 0.165362 0.516594
O O2 0.347751 0.176904 0.601872
O O3 0.293560 0.087692 0.826460
O O4 0.269103 0.210760 0.898974
O O5 0.390750 0.250014 0.188562
O O6 0.343078 0.125234 0.170241
O O7 0.468046 0.222285 0.900232
O O8 0.674748 0.165351 0.860585
O O9 0.313313 0.722276 0.477020
O O10 0.438323 0.625214 0.207037
O O11 0.512271 0.289245 0.478271
O O12 0.487864 0.412317 0.550706
O O13 0.433580 0.323113 0.775404
O O14 0.140676 0.712549 0.188631
O O15 0.745772 0.500000 0.240918
O O16 0.640797 0.408795 0.188518
O O17 0.535739 0.500000 0.136227
#
# Coordination Sequence:
#
# PCOD8054047 Si02
#       8
#     4   4   4   4   4   4   4   4
#     4  11  21  35  60  84 122 162 191 246 309 363
#     4  12  21  36  64  94 122 157 205 255 306 357
#     4  12  21  36  64  94 122 157 205 255 306 357
#     4  11  21  35  60  84 122 162 191 246 309 363
#     4  11  19  36  55  92 125 144 197 258 306 343
#     4  11  24  42  58  86 131 162 199 252 302 371
#     4  11  24  42  58  86 131 162 199 252 302 371
#     4  11  19  36  55  92 125 144 197 258 306 343
#
# _framework density 19.853432999999999
#
# number of rings (size 3 to 8) (size 9 to 14) (size 15 to 20)
#    0.000    0.750    7.500    2.250    0.000    1.000 
#    0.000    2.500    0.000    3.750    0.000    0.000 
#    0.000    0.000    0.000    0.000    0.000    0.000 
#
# Total GULP energy -198280.713131 kJ/mol
# GULP energy per Si atom -12392.544571 kJ/mol
# Density = 1.980825 g / cm^3
# Si number density = 19.853433 Si / 1000 Ang^3
#
#
#
# Elastic Constant Matrix: (Units=GPa)
#
#
# Indices 1 2 3 4 5 6 
#
# 1 79.6618 45.7973 44.6524 0.0293 -0.1974 -0.0097
# 2 45.7973 117.9975 63.0365 0.0252 -7.0413 -0.0161
# 3 44.6524 63.0365 128.7071 0.0425 7.2108 -0.0379
# 4 0.0293 0.0252 0.0425 29.9643 -0.0270 -1.1082
# 5 -0.1974 -7.0413 7.2108 -0.0270 34.9658 0.0138
# 6 -0.0097 -0.0161 -0.0379 -1.1082 0.0138 25.3497
#
#
#
# Elastic Compliance Matrix: (Units=1/GPa)
#
#
# Indices 1 2 3 4 5 6 
#
# 1 0.017362 -0.004781 -0.003676 -0.000008 -0.000107 -0.000002
# 2 -0.004781 0.013237 -0.005030 0.000004 0.003676 -0.000003
# 3 -0.003676 -0.005030 0.011702 -0.000011 -0.003447 0.000014
# 4 -0.000008 0.000004 -0.000011 0.033427 0.000028 0.001461
# 5 -0.000107 0.003676 -0.003447 0.000028 0.030050 -0.000018
# 6 -0.000002 -0.000003 0.000014 0.001461 -0.000018 0.039512
#
#
# Mechanical properties :
#
#
# Convention : Reuss Voigt Hill
#
# Bulk Modulus (GPa) = 65.24820 70.37100 67.80960
# Shear Modulus (GPa) = 28.18922 29.58130 28.88526
#
# Velocity S-wave (km/s) = 3.77220 3.86422 3.81849
# Velocity P-wave (km/s) = 7.20479 7.44525 7.32601
#
# Compressibility (1/GPa) = 0.01532609
#
# Stress axis : x y z
#
# Youngs Moduli (GPa) = 57.59762 75.54525 85.45873
#
# Poissons Ratio (x) = 0.36120 0.31412
# Poissons Ratio (y) = 0.27539 0.42988
# Poissons Ratio (z) = 0.21171 0.38001
#
# Static dielectric constant tensor:
#      x y z
#    x 3.776140 -0.000030 0.250420 
#    y -0.000030 3.494410 0.000050 
#    z 0.250420 0.000050 3.971120 
# 
# 
# High freq. dielectric constant tensor:
#      x y z
#    x 1.765560 0.000000 0.002420 
#    y 0.000000 1.733800 0.000000 
#    z 0.002420 0.000000 1.799710 
# 
# From -- ./inp_files/22399.got.cif
#   From: 2010.03.12/outbox.cif.g09.slc.cpg/sg8_12_cif.got.tgz:22399.got - 2010.03.31 10:45:26.
