data_PCOD8054265
_publ_section_title
;
Structure prediction by ZEFSAII (Michael W. Deem and Ramdas Pophale) SiO2 
 PCOD8054265
Probable space group: C C
;
_chemical_formula_sum "Si O2"
_cell_formula_units_Z 32
_cell_length_a 9.455768
_cell_length_b 15.204197
_cell_length_c 11.221562
_cell_angle_alpha 90.000000
_cell_angle_beta 57.752727
_cell_angle_gamma 90.000000
_cell_volume 1364.448878
_symmetry_space_group_name_H-M "C C"
_symmetry_group_IT_number 9
_symmetry_cell_setting 'monoclinic'
loop_
_space_group_symop_operation_xyz
x,y,z
x,-y,1/2+z
1/2+x,1/2+y,z
1/2+x,1/2-y,1/2+z
loop_
_atom_site_type_symbol
_atom_site_label
_atom_site_fract_x
_atom_site_fract_y
_atom_site_fract_z
Si Si1 0.497440 0.840033 0.839660
Si Si2 0.363251 0.371143 0.635125
Si Si3 0.206741 0.158615 0.301966
Si Si4 0.126192 0.016248 0.142427
Si Si5 0.864206 0.763124 0.028059
Si Si6 0.522378 0.183904 0.594986
Si Si7 0.043667 0.854045 0.333560
Si Si8 0.332742 0.109374 0.877597
O O1 0.668962 0.891728 0.742952
O O2 0.342462 0.877625 0.834817
O O3 0.528572 0.740425 0.779877
O O4 0.453624 0.845962 0.998522
O O5 0.456444 0.451441 0.657406
O O6 0.432899 0.278745 0.662391
O O7 0.376560 0.376948 0.483762
O O8 0.168950 0.077002 0.234840
O O9 0.283284 0.241993 0.194288
O O10 0.037414 0.182638 0.451506
O O11 0.274906 0.020331 0.974069
O O12 0.097625 0.918838 0.204182
O O13 0.723092 0.812674 0.012826
O O14 0.907323 0.671614 0.945756
O O15 0.468594 0.105275 0.710838
O O16 0.170775 0.847017 0.388531
#
# Coordination Sequence:
#
# PCOD8054265 Si02
#       8
#     4   4   4   4   4   4   4   4
#     4  11  23  38  69 102 135 168 238 290 337 395
#     4  10  19  40  68  95 126 185 233 266 336 426
#     4  11  24  37  65 104 134 174 222 303 341 393
#     4  10  21  42  67  92 140 177 224 274 355 417
#     4  11  19  38  65  98 128 171 240 282 329 406
#     4  11  17  36  69  96 124 178 240 270 323 411
#     4  10  21  38  67  96 133 177 220 283 341 408
#     4  10  18  37  64  93 124 182 227 264 330 418
#
# _framework density 23.452693
#
# number of rings (size 3 to 8) (size 9 to 14) (size 15 to 20)
#    0.000    1.500    7.500    0.750    3.500    0.000 
#    9.000    0.000    8.250    0.000    0.000    0.000 
#    0.000    0.000    0.000    0.000    0.000    0.000 
#
# Total GULP energy -198240.610629 kJ/mol
# GULP energy per Si atom -12390.038164 kJ/mol
# Density = 2.339931 g / cm^3
# Si number density = 23.452693 Si / 1000 Ang^3
#
#
#
# Elastic Constant Matrix: (Units=GPa)
#
#
# Indices 1 2 3 4 5 6 
#
# 1 114.8292 3.1930 36.4462 0.0000 -8.7870 0.0000
# 2 3.1930 54.9110 41.6238 0.0000 2.3075 0.0000
# 3 36.4462 41.6238 134.0396 0.0000 -9.5934 0.0000
# 4 0.0000 0.0000 0.0000 37.8107 0.0000 5.9147
# 5 -8.7870 2.3075 -9.5934 0.0000 33.6041 0.0000
# 6 0.0000 0.0000 0.0000 5.9147 0.0000 2.7420
#
#
#
# Elastic Compliance Matrix: (Units=1/GPa)
#
#
# Indices 1 2 3 4 5 6 
#
# 1 0.009754 0.001691 -0.003066 0.000000 0.001559 0.000000
# 2 0.001691 0.024603 -0.008360 0.000000 -0.003634 0.000000
# 3 -0.003066 -0.008360 0.011101 0.000000 0.002941 0.000000
# 4 0.000000 0.000000 0.000000 0.039916 0.000000 -0.086102
# 5 0.001559 -0.003634 0.002941 0.000000 0.031255 0.000000
# 6 0.000000 0.000000 0.000000 -0.086102 0.000000 0.550424
#
#
# Mechanical properties :
#
#
# Convention : Reuss Voigt Hill
#
# Bulk Modulus (GPa) = 38.47874 51.81176 45.14525
# Shear Modulus (GPa) = 7.19234 29.66581 18.42907
#
# Velocity S-wave (km/s) = 1.75311 3.56043 2.80625
# Velocity P-wave (km/s) = 4.53216 6.24838 5.45814
#
# Compressibility (1/GPa) = 0.02598838
#
# Stress axis : x y z
#
# Youngs Moduli (GPa) = 102.52283 40.64604 90.08503
#
# Poissons Ratio (x) = -0.06874 0.27618
# Poissons Ratio (y) = -0.17339 0.75310
# Poissons Ratio (z) = 0.31431 0.33980
#
# Static dielectric constant tensor:
#      x y z
#    x 4.093690 0.000000 -0.029490 
#    y 0.000000 3.711160 0.000000 
#    z -0.029490 0.000000 4.577800 
# 
# 
# High freq. dielectric constant tensor:
#      x y z
#    x 1.916320 0.000000 0.001800 
#    y 0.000000 1.884010 0.000000 
#    z 0.001800 0.000000 1.946200 
# 
# From -- ./inp_files/15179.got.cif
#   From: 2010.06.25/outbox.cif.g09.slc.cpg/sg9_8_cif.got.tgz:15179.got - 2010.06.27 21:40:51.
