data_PCOD8054063
_publ_section_title
;
Structure prediction by ZEFSAII (Michael W. Deem and Ramdas Pophale) SiO2 
 PCOD8054063
Probable space group: C M
;
_chemical_formula_sum "Si O2"
_cell_formula_units_Z 32
_cell_length_a 24.205268
_cell_length_b 8.391594
_cell_length_c 10.267467
_cell_angle_alpha 90.000000
_cell_angle_beta 127.793586
_cell_angle_gamma 90.000000
_cell_volume 1648.039746
_symmetry_space_group_name_H-M "C M"
_symmetry_group_IT_number 8
_symmetry_cell_setting 'monoclinic'
loop_
_space_group_symop_operation_xyz
x,y,z
x,-y,z
1/2+x,1/2+y,z
1/2+x,1/2-y,z
loop_
_atom_site_type_symbol
_atom_site_label
_atom_site_fract_x
_atom_site_fract_y
_atom_site_fract_z
Si Si1 0.595180 0.814560 0.589190
Si Si2 0.684422 0.315147 0.487170
Si Si3 0.666021 0.184581 0.961289
Si Si4 0.461501 0.814556 0.019308
Si Si5 0.805874 0.313466 0.066057
Si Si6 0.956537 0.186744 0.296126
Si Si7 0.097775 0.815345 0.114865
Si Si8 0.316531 0.314380 0.797210
O O1 0.633336 0.712001 0.534503
O O2 0.625595 0.764924 0.772363
O O3 0.513068 0.773919 0.469070
O O4 0.608646 0.000000 0.580026
O O5 0.703496 0.500000 0.504991
O O6 0.647803 0.253284 0.302811
O O7 0.756333 0.216808 0.604812
O O8 0.655190 0.000000 0.978233
O O9 0.747909 0.221657 0.065905
O O10 0.634853 0.289104 0.031694
O O11 0.474610 0.719577 0.171726
O O12 0.525173 0.781990 0.013392
O O13 0.454876 0.000000 0.043015
O O14 0.389912 0.753312 0.849180
O O15 0.797434 0.500000 0.076993
O O16 0.881121 0.255871 0.225115
O O17 0.795585 0.275056 0.899371
O O18 0.958466 0.000000 0.325982
O O19 0.080404 0.000000 0.109669
O O20 0.323812 0.500000 0.839106
#
# Coordination Sequence:
#
# PCOD8054063 Si02
#       8
#     4   4   4   4   4   4   4   4
#     4  11  22  37  60  89 120 154 198 246 294 348
#     4  11  22  37  60  89 120 154 198 246 294 348
#     4  11  24  41  61  87 121 159 198 242 296 356
#     4  11  21  36  59  86 119 156 197 243 296 352
#     4  11  21  36  59  86 119 156 197 243 296 352
#     4  11  21  35  58  88 121 153 195 247 296 348
#     4  11  24  41  61  87 121 159 198 242 296 356
#     4  11  21  35  58  88 121 153 195 247 296 348
#
# _framework density 19.417007999999999
#
# number of rings (size 3 to 8) (size 9 to 14) (size 15 to 20)
#    0.000    1.000    2.500    7.500    0.000    3.000 
#    0.000    1.250    0.000    7.500    0.000    0.000 
#    0.000    0.000    0.000    0.000    0.000    0.000 
#
# Total GULP energy -198510.636200 kJ/mol
# GULP energy per Si atom -12406.914762 kJ/mol
# Density = 1.937281 g / cm^3
# Si number density = 19.417008 Si / 1000 Ang^3
#
#
#
# Elastic Constant Matrix: (Units=GPa)
#
#
# Indices 1 2 3 4 5 6 
#
# 1 105.6398 8.8947 60.7108 0.0000 16.8050 0.0000
# 2 8.8947 67.1169 27.4341 0.0000 2.1635 0.0000
# 3 60.7108 27.4341 110.7905 0.0000 17.1675 0.0000
# 4 0.0000 0.0000 0.0000 28.0490 0.0000 4.7535
# 5 16.8050 2.1635 17.1675 0.0000 32.7769 0.0000
# 6 0.0000 0.0000 0.0000 4.7535 0.0000 32.5522
#
#
#
# Elastic Compliance Matrix: (Units=1/GPa)
#
#
# Indices 1 2 3 4 5 6 
#
# 1 0.014280 0.001335 -0.007626 0.000000 -0.003415 0.000000
# 2 0.001335 0.016742 -0.005006 0.000000 0.000833 0.000000
# 3 -0.007626 -0.005006 0.015006 0.000000 -0.003619 0.000000
# 4 0.000000 0.000000 0.000000 0.036557 0.000000 -0.005338
# 5 -0.003415 0.000833 -0.003619 0.000000 0.034101 0.000000
# 6 0.000000 0.000000 0.000000 -0.005338 0.000000 0.031499
#
#
# Mechanical properties :
#
#
# Convention : Reuss Voigt Hill
#
# Bulk Modulus (GPa) = 42.67669 53.06959 47.87314
# Shear Modulus (GPa) = 27.99705 31.10945 29.55325
#
# Velocity S-wave (km/s) = 3.80133 4.00706 3.90555
# Velocity P-wave (km/s) = 6.42601 6.98567 6.71167
#
# Compressibility (1/GPa) = 0.02343199
#
# Stress axis : x y z
#
# Youngs Moduli (GPa) = 70.02851 59.73032 66.64180
#
# Poissons Ratio (x) = -0.07974 0.50824
# Poissons Ratio (y) = -0.09349 0.33362
# Poissons Ratio (z) = 0.53407 0.29902
#
# Static dielectric constant tensor:
#      x y z
#    x 3.405290 0.000000 0.336220 
#    y 0.000000 3.549460 0.000000 
#    z 0.336220 0.000000 3.703860 
# 
# 
# High freq. dielectric constant tensor:
#      x y z
#    x 1.740500 0.000000 0.029140 
#    y 0.000000 1.772270 0.000000 
#    z 0.029140 0.000000 1.752410 
# 
# From -- ./inp_files/24324.got.cif
#   From: 2010.03.12/outbox.cif.g09.slc.cpg/sg8_13_cif.got.tgz:24324.got - 2010.03.31 10:45:26.
