data_PCOD8054247
_publ_section_title
;
Structure prediction by ZEFSAII (Michael W. Deem and Ramdas Pophale) SiO2 
 PCOD8054247
Probable space group: C C
;
_chemical_formula_sum "Si O2"
_cell_formula_units_Z 32
_cell_length_a 8.153848
_cell_length_b 12.365663
_cell_length_c 18.470552
_cell_angle_alpha 90.000000
_cell_angle_beta 115.991267
_cell_angle_gamma 90.000000
_cell_volume 1673.988070
_symmetry_space_group_name_H-M "C C"
_symmetry_group_IT_number 9
_symmetry_cell_setting 'monoclinic'
loop_
_space_group_symop_operation_xyz
x,y,z
x,-y,1/2+z
1/2+x,1/2+y,z
1/2+x,1/2-y,1/2+z
loop_
_atom_site_type_symbol
_atom_site_label
_atom_site_fract_x
_atom_site_fract_y
_atom_site_fract_z
Si Si1 0.052910 0.880790 0.030750
Si Si2 0.676394 0.041223 0.440801
Si Si3 0.544199 0.276179 0.801434
Si Si4 0.397145 0.860385 0.796207
Si Si5 0.791931 0.581652 0.711703
Si Si6 0.618328 0.658374 0.816124
Si Si7 0.031730 0.678576 0.944736
Si Si8 0.436959 0.525404 0.368059
O O1 0.194113 0.926525 0.115560
O O2 0.080398 0.752338 0.023322
O O3 0.841606 0.900519 0.015702
O O4 0.083408 0.940904 0.959331
O O5 0.497909 0.114969 0.392703
O O6 0.611398 0.939469 0.475663
O O7 0.742657 0.010644 0.371116
O O8 0.696942 0.316301 0.775447
O O9 0.423522 0.186067 0.736833
O O10 0.627997 0.221757 0.889945
O O11 0.425343 0.380419 0.804788
O O12 0.513506 0.769139 0.777578
O O13 0.391864 0.967524 0.745051
O O14 0.642153 0.594883 0.745756
O O15 0.495047 0.588108 0.845865
O O16 0.813866 0.681707 0.890157
#
# Coordination Sequence:
#
# PCOD8054247 Si02
#       8
#     4   4   4   4   4   4   4   4
#     4   9  22  38  58  86 128 155 200 253 314 343
#     4  10  18  36  62  85 117 152 205 246 291 360
#     4  10  19  36  64  87 116 158 199 249 292 361
#     4  12  21  36  65  91 116 157 209 245 302 358
#     4  11  23  41  58  91 129 155 199 263 306 352
#     4  11  20  37  65  89 118 156 212 244 295 372
#     4  10  18  36  60  88 111 159 197 245 297 353
#     4   9  19  38  64  89 113 162 205 247 295 365
#
# _framework density 19.116026000000002
#
# number of rings (size 3 to 8) (size 9 to 14) (size 15 to 20)
#    0.750    1.000    5.000    1.500    0.000    1.000 
#    2.250    0.000    8.250    0.000    0.000    0.000 
#    0.000    0.000    0.000    0.000    0.000    0.000 
#
# Total GULP energy -198242.551753 kJ/mol
# GULP energy per Si atom -12390.159485 kJ/mol
# Density = 1.907252 g / cm^3
# Si number density = 19.116026 Si / 1000 Ang^3
#
#
#
# Elastic Constant Matrix: (Units=GPa)
#
#
# Indices 1 2 3 4 5 6 
#
# 1 71.8226 34.4393 15.3888 0.0000 7.5611 0.0000
# 2 34.4393 120.2476 36.7999 0.0000 7.8163 0.0000
# 3 15.3888 36.7999 82.3727 0.0000 14.4639 0.0000
# 4 0.0000 0.0000 0.0000 18.3558 0.0000 2.8879
# 5 7.5611 7.8163 14.4639 0.0000 17.3168 0.0000
# 6 0.0000 0.0000 0.0000 2.8879 0.0000 40.4472
#
#
#
# Elastic Compliance Matrix: (Units=1/GPa)
#
#
# Indices 1 2 3 4 5 6 
#
# 1 0.016596 -0.004341 -0.000273 0.000000 -0.005059 0.000000
# 2 -0.004341 0.010780 -0.004082 0.000000 0.000439 0.000000
# 3 -0.000273 -0.004082 0.016020 0.000000 -0.011419 0.000000
# 4 0.000000 0.000000 0.000000 0.055098 0.000000 -0.003934
# 5 -0.005059 0.000439 -0.011419 0.000000 0.069296 0.000000
# 6 0.000000 0.000000 0.000000 -0.003934 0.000000 0.025004
#
#
# Mechanical properties :
#
#
# Convention : Reuss Voigt Hill
#
# Bulk Modulus (GPa) = 38.45570 49.74433 44.10001
# Shear Modulus (GPa) = 22.84639 27.74494 25.29567
#
# Velocity S-wave (km/s) = 3.46084 3.81385 3.64162
# Velocity P-wave (km/s) = 6.01087 6.74335 6.38762
#
# Compressibility (1/GPa) = 0.02600395
#
# Stress axis : x y z
#
# Youngs Moduli (GPa) = 60.25685 92.76337 62.42320
#
# Poissons Ratio (x) = 0.40266 0.01703
# Poissons Ratio (y) = 0.26156 0.25482
# Poissons Ratio (z) = 0.01644 0.37868
#
# Static dielectric constant tensor:
#      x y z
#    x 3.386980 0.000000 0.046790 
#    y 0.000000 3.666060 0.000000 
#    z 0.046790 0.000000 2.999770 
# 
# 
# High freq. dielectric constant tensor:
#      x y z
#    x 1.734790 0.000000 0.009190 
#    y 0.000000 1.761370 0.000000 
#    z 0.009190 0.000000 1.692470 
# 
# From -- ./inp_files/32486.got.cif
#   From: 2010.06.25/outbox.cif.g09.slc.cpg/sg9_17_cif.got.tgz:32486.got - 2010.06.27 21:40:51.
