data_PCOD8054823
_publ_section_title
;
Structure prediction by ZEFSAII (Michael W. Deem and Ramdas Pophale) SiO2 
 PCOD8054823
Probable space group: C C
;
_chemical_formula_sum "Si O2"
_cell_formula_units_Z 32
_cell_length_a 14.810517
_cell_length_b 11.794975
_cell_length_c 8.759838
_cell_angle_alpha 90.000000
_cell_angle_beta 97.775118
_cell_angle_gamma 90.000000
_cell_volume 1516.185176
_symmetry_space_group_name_H-M "C C"
_symmetry_group_IT_number 9
_symmetry_cell_setting 'monoclinic'
loop_
_space_group_symop_operation_xyz
x,y,z
x,-y,1/2+z
1/2+x,1/2+y,z
1/2+x,1/2-y,1/2+z
loop_
_atom_site_type_symbol
_atom_site_label
_atom_site_fract_x
_atom_site_fract_y
_atom_site_fract_z
Si Si1 0.402060 0.369938 0.882550
Si Si2 0.534594 0.709891 0.879599
Si Si3 0.176345 0.816485 0.649204
Si Si4 0.008963 0.688211 0.067019
Si Si5 0.879752 0.899037 0.538239
Si Si6 0.167039 0.069199 0.712586
Si Si7 0.320090 0.848294 0.444525
Si Si8 0.191715 0.728903 0.987358
O O1 0.427897 0.404745 0.715460
O O2 0.489013 0.315239 0.991541
O O3 0.364804 0.475456 0.970424
O O4 0.323017 0.273289 0.857865
O O5 0.605126 0.752173 0.025592
O O6 0.440851 0.670661 0.933814
O O7 0.512946 0.808770 0.752627
O O8 0.584081 0.609133 0.798859
O O9 0.276505 0.822673 0.599351
O O10 0.139208 0.945021 0.652110
O O11 0.182456 0.750731 0.807044
O O12 0.106341 0.649860 0.021809
O O13 0.924408 0.606611 0.996662
O O14 0.782871 0.839863 0.538622
O O15 0.187789 0.152082 0.576068
O O16 0.260519 0.062895 0.834594
#
# Coordination Sequence:
#
# PCOD8054823 Si02
#       8
#     4   4   4   4   4   4   4   4
#     4  10  23  38  61  84 119 158 201 252 304 366
#     4  10  22  34  56  94 121 152 191 254 305 363
#     4  11  22  33  62  91 120 155 204 249 310 367
#     4   9  20  39  61  82 124 159 198 245 308 359
#     4  12  23  37  62  88 123 156 201 249 315 369
#     4  10  21  38  58  89 122 156 199 255 311 354
#     4   9  20  41  57  81 122 157 198 251 308 359
#     4  11  21  36  59  89 121 159 198 249 303 371
#
# _framework density 21.105601
#
# number of rings (size 3 to 8) (size 9 to 14) (size 15 to 20)
#    0.750    1.000    1.250    3.750    8.750    0.000 
#    0.000    0.000    2.750    3.000    0.000    0.000 
#    0.000    0.000    0.000    0.000    0.000    0.000 
#
# Total GULP energy -198287.365811 kJ/mol
# GULP energy per Si atom -12392.960363 kJ/mol
# Density = 2.105756 g / cm^3
# Si number density = 21.105601 Si / 1000 Ang^3
#
#
#
# Elastic Constant Matrix: (Units=GPa)
#
#
# Indices 1 2 3 4 5 6 
#
# 1 128.2344 -5.2301 30.2338 0.0000 -3.5220 0.0000
# 2 -5.2301 17.9773 4.4577 0.0000 -1.9015 0.0000
# 3 30.2338 4.4577 136.3342 0.0000 0.6953 0.0000
# 4 0.0000 0.0000 0.0000 22.0314 0.0000 -3.5778
# 5 -3.5220 -1.9015 0.6953 0.0000 38.8270 0.0000
# 6 0.0000 0.0000 0.0000 -3.5778 0.0000 17.6931
#
#
#
# Elastic Compliance Matrix: (Units=1/GPa)
#
#
# Indices 1 2 3 4 5 6 
#
# 1 0.008412 0.003036 -0.001970 0.000000 0.000947 0.000000
# 2 0.003036 0.057478 -0.002569 0.000000 0.003136 0.000000
# 3 -0.001970 -0.002569 0.007858 0.000000 -0.000445 0.000000
# 4 0.000000 0.000000 0.000000 0.046931 0.000000 0.009490
# 5 0.000947 0.003136 -0.000445 0.000000 0.026003 0.000000
# 6 0.000000 0.000000 0.000000 0.009490 0.000000 0.058438
#
#
# Mechanical properties :
#
#
# Convention : Reuss Voigt Hill
#
# Bulk Modulus (GPa) = 14.13559 37.94096 26.03828
# Shear Modulus (GPa) = 21.57912 32.58260 27.08086
#
# Velocity S-wave (km/s) = 3.20102 3.93337 3.58594
# Velocity P-wave (km/s) = 4.51378 6.21645 5.43224
#
# Compressibility (1/GPa) = 0.07074340
#
# Stress axis : x y z
#
# Youngs Moduli (GPa) = 118.87157 17.39811 127.25943
#
# Poissons Ratio (x) = -0.05282 0.25066
# Poissons Ratio (y) = -0.36089 0.32688
# Poissons Ratio (z) = 0.23414 0.04469
#
# Static dielectric constant tensor:
#      x y z
#    x 3.868270 0.000000 0.010110 
#    y 0.000000 3.208130 0.000000 
#    z 0.010110 0.000000 4.068200 
# 
# 
# High freq. dielectric constant tensor:
#      x y z
#    x 1.837730 0.000000 -0.000390 
#    y 0.000000 1.765790 0.000000 
#    z -0.000390 0.000000 1.851370 
# 
# From -- ./inp_files/9565.got.cif
#   From: 2010.06.25/outbox.cif.g09.slc.cpg/sg9_5_cif.got.tgz:9565.got - 2010.06.27 21:40:51.
