data_PCOD8054299
_publ_section_title
;
Structure prediction by ZEFSAII (Michael W. Deem and Ramdas Pophale) SiO2 
 PCOD8054299
Probable space group: C C
;
_chemical_formula_sum "Si O2"
_cell_formula_units_Z 32
_cell_length_a 15.769837
_cell_length_b 12.391266
_cell_length_c 18.989034
_cell_angle_alpha 90.000000
_cell_angle_beta 153.702324
_cell_angle_gamma 90.000000
_cell_volume 1643.931149
_symmetry_space_group_name_H-M "C C"
_symmetry_group_IT_number 9
_symmetry_cell_setting 'monoclinic'
loop_
_space_group_symop_operation_xyz
x,y,z
x,-y,1/2+z
1/2+x,1/2+y,z
1/2+x,1/2-y,1/2+z
loop_
_atom_site_type_symbol
_atom_site_label
_atom_site_fract_x
_atom_site_fract_y
_atom_site_fract_z
Si Si1 0.243300 0.120950 0.135370
Si Si2 0.647364 0.062271 0.403042
Si Si3 0.373004 0.476049 0.331267
Si Si4 0.168016 0.747598 0.715302
Si Si5 0.807315 0.373004 0.948777
Si Si6 0.567896 0.943818 0.690060
Si Si7 0.743224 0.302250 0.480312
Si Si8 0.468366 0.495720 0.247122
O O1 0.452792 0.069578 0.304558
O O2 0.166722 0.198489 0.138382
O O3 0.237181 0.193658 0.060446
O O4 0.097900 0.020795 0.017343
O O5 0.605167 0.004833 0.296220
O O6 0.707628 0.183030 0.426914
O O7 0.813719 0.000013 0.568746
O O8 0.289669 0.361632 0.296615
O O9 0.266818 0.570518 0.296029
O O10 0.348994 0.500042 0.230599
O O11 0.255955 0.837044 0.831896
O O12 0.952250 0.721191 0.584250
O O13 0.613937 0.401052 0.849168
O O14 0.934476 0.480329 0.042467
O O15 0.457196 0.831295 0.614303
O O16 0.585403 0.383681 0.330511
#
# Coordination Sequence:
#
# PCOD8054299 Si02
#       8
#     4   4   4   4   4   4   4   4
#     4  10  19  30  54  87 116 142 185 241 294 345
#     4  11  20  32  59  86 117 150 195 238 310 351
#     4  10  20  36  55  80 119 149 193 243 289 344
#     4  11  20  35  58  89 116 155 196 242 298 355
#     4  10  23  36  56  84 124 154 192 240 303 358
#     4   9  21  36  53  83 118 154 189 247 291 354
#     4   9  18  36  53  83 117 152 189 242 302 347
#     4  10  21  35  56  86 121 156 189 245 299 356
#
# _framework density 19.465536
#
# number of rings (size 3 to 8) (size 9 to 14) (size 15 to 20)
#    0.000    2.000    1.250    4.500    5.250    0.000 
#    0.000    0.000    2.750    0.000    0.000    0.000 
#    0.000    0.000    0.000    0.000    0.000    0.000 
#
# Total GULP energy -198222.914529 kJ/mol
# GULP energy per Si atom -12388.932158 kJ/mol
# Density = 1.942123 g / cm^3
# Si number density = 19.465536 Si / 1000 Ang^3
#
#
#
# Elastic Constant Matrix: (Units=GPa)
#
#
# Indices 1 2 3 4 5 6 
#
# 1 110.2558 49.1473 45.4965 0.0077 17.0719 0.0073
# 2 49.1473 43.6051 35.3016 0.0155 1.9637 0.0073
# 3 45.4965 35.3016 120.8893 0.0002 8.1920 0.0015
# 4 0.0077 0.0155 0.0002 22.0210 0.0051 4.2390
# 5 17.0719 1.9637 8.1920 0.0051 27.8402 0.0000
# 6 0.0073 0.0073 0.0015 4.2390 0.0000 31.0560
#
#
#
# Elastic Compliance Matrix: (Units=1/GPa)
#
#
# Indices 1 2 3 4 5 6 
#
# 1 0.021343 -0.023132 -0.000511 0.000012 -0.011306 -0.000001
# 2 -0.023132 0.055112 -0.008250 -0.000033 0.012725 -0.000003
# 3 -0.000511 -0.008250 0.011033 0.000006 -0.002351 0.000001
# 4 0.000012 -0.000033 0.000006 0.046637 -0.000015 -0.006366
# 5 -0.011306 0.012725 -0.002351 -0.000015 0.042646 0.000002
# 6 -0.000001 -0.000003 0.000001 -0.006366 0.000002 0.033069
#
#
# Mechanical properties :
#
#
# Convention : Reuss Voigt Hill
#
# Bulk Modulus (GPa) = 42.19397 59.40457 50.79927
# Shear Modulus (GPa) = 17.76036 25.83709 21.79872
#
# Velocity S-wave (km/s) = 3.02387 3.64720 3.35007
# Velocity P-wave (km/s) = 5.82366 6.95127 6.41230
#
# Compressibility (1/GPa) = 0.02370007
#
# Stress axis : x y z
#
# Youngs Moduli (GPa) = 46.85430 18.14500 90.63860
#
# Poissons Ratio (x) = 0.41974 0.04633
# Poissons Ratio (y) = 1.08386 0.74776
# Poissons Ratio (z) = 0.02395 0.14969
#
# Static dielectric constant tensor:
#      x y z
#    x 3.723680 -0.000010 0.281410 
#    y -0.000010 3.253730 -0.000010 
#    z 0.281410 -0.000010 3.957100 
# 
# 
# High freq. dielectric constant tensor:
#      x y z
#    x 1.748140 0.000000 0.008540 
#    y 0.000000 1.706920 0.000000 
#    z 0.008540 0.000000 1.782020 
# 
# From -- ./inp_files/7595.got.cif
#   From: 2010.06.25/outbox.cif.g09.slc.cpg/sg9_4_cif.got.tgz:7595.got - 2010.06.27 21:40:51.
