data_PCOD8054978
_publ_section_title
;
Structure prediction by ZEFSAII (Michael W. Deem and Ramdas Pophale) SiO2 
 PCOD8054978
Probable space group: C C
;
_chemical_formula_sum "Si O2"
_cell_formula_units_Z 32
_cell_length_a 7.546150
_cell_length_b 22.612640
_cell_length_c 13.140892
_cell_angle_alpha 90.000000
_cell_angle_beta 43.158295
_cell_angle_gamma 90.000000
_cell_volume 1533.797444
_symmetry_space_group_name_H-M "C C"
_symmetry_group_IT_number 9
_symmetry_cell_setting 'monoclinic'
loop_
_space_group_symop_operation_xyz
x,y,z
x,-y,1/2+z
1/2+x,1/2+y,z
1/2+x,1/2-y,1/2+z
loop_
_atom_site_type_symbol
_atom_site_label
_atom_site_fract_x
_atom_site_fract_y
_atom_site_fract_z
Si Si1 0.965870 0.680917 0.747830
Si Si2 0.639926 0.292192 0.572875
Si Si3 0.774543 0.879738 0.633248
Si Si4 0.442826 0.323206 0.188746
Si Si5 0.705695 0.563405 0.826583
Si Si6 0.569106 0.455228 0.164819
Si Si7 0.527828 0.014534 0.330938
Si Si8 0.612129 0.794687 0.520939
O O1 0.838230 0.625941 0.744150
O O2 0.024693 0.727313 0.635244
O O3 0.213958 0.661064 0.707217
O O4 0.768611 0.710958 0.908785
O O5 0.411839 0.340257 0.662751
O O6 0.835826 0.307969 0.582960
O O7 0.646553 0.841644 0.596663
O O8 0.977499 0.926848 0.503050
O O9 0.560725 0.917553 0.782348
O O10 0.592497 0.384846 0.135477
O O11 0.339048 0.301093 0.342419
O O12 0.619231 0.271403 0.065538
O O13 0.593260 0.532718 0.774146
O O14 0.924198 0.520951 0.778278
O O15 0.294034 0.483598 0.252332
O O16 0.810199 0.487559 0.009885
#
# Coordination Sequence:
#
# PCOD8054978 Si02
#       8
#     4   4   4   4   4   4   4   4
#     4   9  19  40  64  91 136 167 214 271 338 397
#     4   9  21  37  62  95 129 172 208 272 329 405
#     4  11  24  42  67  95 134 177 219 280 341 406
#     4  10  21  41  65  98 136 176 218 280 341 406
#     4  11  24  44  69  94 133 185 220 285 344 399
#     4  12  27  45  74  97 139 182 234 283 347 405
#     4  12  28  48  67 102 136 178 239 290 331 415
#     4  10  22  39  66  98 137 173 220 275 345 407
#
# _framework density 20.863249
#
# number of rings (size 3 to 8) (size 9 to 14) (size 15 to 20)
#    0.000    1.500    3.750    0.000    5.250    2.000 
#    0.000    0.000    0.000    0.000    0.000    0.000 
#    0.000    0.000    0.000    0.000    0.000    0.000 
#
# Total GULP energy -198403.122937 kJ/mol
# GULP energy per Si atom -12400.195184 kJ/mol
# Density = 2.081576 g / cm^3
# Si number density = 20.863249 Si / 1000 Ang^3
#
#
#
# Elastic Constant Matrix: (Units=GPa)
#
#
# Indices 1 2 3 4 5 6 
#
# 1 101.6960 43.5090 17.8299 0.0000 6.5604 0.0000
# 2 43.5090 85.7660 33.2977 0.0000 1.1502 0.0000
# 3 17.8299 33.2977 48.8602 0.0000 -8.2381 0.0000
# 4 0.0000 0.0000 0.0000 33.8548 0.0000 -6.2835
# 5 6.5604 1.1502 -8.2381 0.0000 27.4846 0.0000
# 6 0.0000 0.0000 0.0000 -6.2835 0.0000 10.3055
#
#
#
# Elastic Compliance Matrix: (Units=1/GPa)
#
#
# Indices 1 2 3 4 5 6 
#
# 1 0.012807 -0.006031 -0.001091 0.000000 -0.003132 0.000000
# 2 -0.006031 0.019148 -0.011312 0.000000 -0.002752 0.000000
# 3 -0.001091 -0.011312 0.030225 0.000000 0.009793 0.000000
# 4 0.000000 0.000000 0.000000 0.033307 0.000000 0.020308
# 5 -0.003132 -0.002752 0.009793 0.000000 0.040182 0.000000
# 6 0.000000 0.000000 0.000000 0.020308 0.000000 0.109418
#
#
# Mechanical properties :
#
#
# Convention : Reuss Voigt Hill
#
# Bulk Modulus (GPa) = 39.50926 47.28839 43.39882
# Shear Modulus (GPa) = 17.21796 23.77469 20.49632
#
# Velocity S-wave (km/s) = 2.87588 3.37938 3.13775
# Velocity P-wave (km/s) = 5.47777 6.15971 5.82872
#
# Compressibility (1/GPa) = 0.02531052
#
# Stress axis : x y z
#
# Youngs Moduli (GPa) = 78.08250 52.22442 33.08492
#
# Poissons Ratio (x) = 0.31498 0.03610
# Poissons Ratio (y) = 0.47094 0.37427
# Poissons Ratio (z) = 0.08520 0.59078
#
# Static dielectric constant tensor:
#      x y z
#    x 3.890340 0.000000 -0.066060 
#    y 0.000000 3.839810 0.000000 
#    z -0.066060 0.000000 3.681260 
# 
# 
# High freq. dielectric constant tensor:
#      x y z
#    x 1.830880 0.000000 -0.001070 
#    y 0.000000 1.818460 0.000000 
#    z -0.001070 0.000000 1.805880 
# 
# From -- ./inp_files/23750.got.cif
#   From: 2010.06.25/outbox.cif.g09.slc.cpg/sg9_12_cif.got.tgz:23750.got - 2010.06.27 21:40:51.
