data_PCOD8054318
_publ_section_title
;
Structure prediction by ZEFSAII (Michael W. Deem and Ramdas Pophale) SiO2 
 PCOD8054318
Probable space group: C C
;
_chemical_formula_sum "Si O2"
_cell_formula_units_Z 32
_cell_length_a 8.707918
_cell_length_b 16.660859
_cell_length_c 12.395189
_cell_angle_alpha 90.000000
_cell_angle_beta 67.161760
_cell_angle_gamma 90.000000
_cell_volume 1657.331449
_symmetry_space_group_name_H-M "C C"
_symmetry_group_IT_number 9
_symmetry_cell_setting 'monoclinic'
loop_
_space_group_symop_operation_xyz
x,y,z
x,-y,1/2+z
1/2+x,1/2+y,z
1/2+x,1/2-y,1/2+z
loop_
_atom_site_type_symbol
_atom_site_label
_atom_site_fract_x
_atom_site_fract_y
_atom_site_fract_z
Si Si1 0.980040 0.650215 0.706390
Si Si2 0.726620 0.398445 0.991137
Si Si3 0.816364 0.248635 0.851206
Si Si4 0.457184 0.005928 0.581648
Si Si5 0.148554 0.043455 0.287869
Si Si6 0.507788 0.855763 0.448114
Si Si7 0.696273 0.697515 0.159931
Si Si8 0.600804 0.370241 0.244359
O O1 0.058911 0.580835 0.605998
O O2 0.783028 0.655033 0.737205
O O3 0.011867 0.624708 0.820383
O O4 0.066446 0.735111 0.654460
O O5 0.846258 0.327752 0.914269
O O6 0.623067 0.436384 0.920695
O O7 0.838318 0.465806 0.016697
O O8 0.597038 0.364120 0.115136
O O9 0.641111 0.212304 0.938669
O O10 0.808630 0.269748 0.727246
O O11 0.966867 0.188358 0.833348
O O12 0.344634 0.970166 0.709290
O O13 0.566191 0.934714 0.500122
O O14 0.090661 0.119342 0.229606
O O15 0.049347 0.961535 0.290160
O O16 0.321915 0.826454 0.529655
#
# Coordination Sequence:
#
# PCOD8054318 Si02
#       8
#     4   4   4   4   4   4   4   4
#     4   9  19  32  53  80 101 128 171 214 249 293
#     4   9  17  33  52  71 100 138 164 202 256 299
#     4  10  20  34  52  76 103 135 169 203 250 307
#     4   9  17  31  52  76 100 130 168 206 251 299
#     4   8  16  31  53  73  98 135 169 200 251 306
#     4  10  19  35  54  72 101 138 168 206 250 298
#     4   9  18  34  55  74  98 135 174 203 247 305
#     4  10  20  34  51  78 105 129 169 212 250 299
#
# _framework density 19.308147999999999
#
# number of rings (size 3 to 8) (size 9 to 14) (size 15 to 20)
#    0.000    3.000    0.000    2.250    0.000    2.000 
#    0.000    7.500    0.000    0.000    0.000    0.000 
#    0.000    0.000    0.000    0.000    0.000    0.000 
#
# Total GULP energy -198284.091639 kJ/mol
# GULP energy per Si atom -12392.755727 kJ/mol
# Density = 1.926420 g / cm^3
# Si number density = 19.308148 Si / 1000 Ang^3
#
#
#
# Elastic Constant Matrix: (Units=GPa)
#
#
# Indices 1 2 3 4 5 6 
#
# 1 41.8176 31.6038 18.8129 0.0000 -0.3404 0.0000
# 2 31.6038 132.0622 34.9162 0.0000 -0.2042 0.0000
# 3 18.8129 34.9162 84.2492 0.0000 7.2826 0.0000
# 4 0.0000 0.0000 0.0000 29.1241 0.0000 5.9160
# 5 -0.3404 -0.2042 7.2826 0.0000 15.4993 0.0000
# 6 0.0000 0.0000 0.0000 5.9160 0.0000 28.3364
#
#
#
# Elastic Compliance Matrix: (Units=1/GPa)
#
#
# Indices 1 2 3 4 5 6 
#
# 1 0.030600 -0.006121 -0.004532 0.000000 0.002721 0.000000
# 2 -0.006121 0.009779 -0.002799 0.000000 0.001310 0.000000
# 3 -0.004532 -0.002799 0.014648 0.000000 -0.007019 0.000000
# 4 0.000000 0.000000 0.000000 0.035856 0.000000 -0.007486
# 5 0.002721 0.001310 -0.007019 0.000000 0.067894 0.000000
# 6 0.000000 0.000000 0.000000 -0.007486 0.000000 0.036853
#
#
# Mechanical properties :
#
#
# Convention : Reuss Voigt Hill
#
# Bulk Modulus (GPa) = 35.55631 47.64386 41.60009
# Shear Modulus (GPa) = 21.56021 26.11168 23.83595
#
# Velocity S-wave (km/s) = 3.34524 3.68144 3.51736
# Velocity P-wave (km/s) = 5.77720 6.54215 6.17154
#
# Compressibility (1/GPa) = 0.02812440
#
# Stress axis : x y z
#
# Youngs Moduli (GPa) = 32.67995 102.25952 68.26711
#
# Poissons Ratio (x) = 0.62588 0.30936
# Poissons Ratio (y) = 0.20002 0.19110
# Poissons Ratio (z) = 0.14809 0.28626
#
# Static dielectric constant tensor:
#      x y z
#    x 2.963380 0.000000 0.101000 
#    y 0.000000 3.892370 0.000000 
#    z 0.101000 0.000000 3.583550 
# 
# 
# High freq. dielectric constant tensor:
#      x y z
#    x 1.691560 0.000000 0.013640 
#    y 0.000000 1.774130 0.000000 
#    z 0.013640 0.000000 1.756900 
# 
# From -- ./inp_files/14575.got.cif
#   From: 2010.06.25/outbox.cif.g09.slc.cpg/sg9_8_cif.got.tgz:14575.got - 2010.06.27 21:40:51.
