data_PCOD8054062
_publ_section_title
;
Structure prediction by ZEFSAII (Michael W. Deem and Ramdas Pophale) SiO2 
 PCOD8054062
Probable space group: C M
;
_chemical_formula_sum "Si O2"
_cell_formula_units_Z 32
_cell_length_a 14.346897
_cell_length_b 9.161876
_cell_length_c 14.205198
_cell_angle_alpha 90.000000
_cell_angle_beta 74.944768
_cell_angle_gamma 90.000000
_cell_volume 1803.105201
_symmetry_space_group_name_H-M "C M"
_symmetry_group_IT_number 8
_symmetry_cell_setting 'monoclinic'
loop_
_space_group_symop_operation_xyz
x,y,z
x,-y,z
1/2+x,1/2+y,z
1/2+x,1/2-y,z
loop_
_atom_site_type_symbol
_atom_site_label
_atom_site_fract_x
_atom_site_fract_y
_atom_site_fract_z
Si Si1 0.759060 0.672666 0.209720
Si Si2 0.171466 0.667233 0.403081
Si Si3 0.051910 0.326781 0.930214
Si Si4 0.783272 0.169956 0.561614
Si Si5 0.146303 0.837276 0.057466
Si Si6 0.978047 0.669841 0.562477
Si Si7 0.935034 0.836516 0.100561
Si Si8 0.093077 0.326574 0.709268
O O1 0.770424 0.500000 0.214061
O O2 0.691456 0.726634 0.311077
O O3 0.715142 0.722434 0.120955
O O4 0.862767 0.750125 0.187742
O O5 0.181204 0.500000 0.367460
O O6 0.248841 0.700361 0.464371
O O7 0.063295 0.699639 0.465886
O O8 0.043290 0.500000 0.939688
O O9 0.064901 0.271948 0.820206
O O10 0.144810 0.270578 0.966950
O O11 0.954131 0.252076 0.997220
O O12 0.882804 0.249707 0.554418
O O13 0.699993 0.230455 0.653792
O O14 0.800619 0.000000 0.574147
O O15 0.037312 0.844345 0.128570
O O16 0.178413 0.000000 0.016812
O O17 0.953699 0.500000 0.574687
O O18 0.013141 0.729360 0.655460
O O19 0.896573 0.000000 0.088647
O O20 0.096132 0.500000 0.701652
#
# Coordination Sequence:
#
# PCOD8054062 Si02
#       8
#     4   4   4   4   4   4   4   4
#     4  11  21  35  55  78 102 136 178 216 257 308
#     4   9  20  36  53  73 104 140 169 207 262 311
#     4   9  16  32  56  77 102 140 177 212 253 304
#     4   9  18  35  55  76 104 137 169 208 257 309
#     4   8  19  36  50  70 104 137 168 214 260 301
#     4   9  18  35  55  77 103 135 172 210 254 308
#     4   9  19  36  52  72 105 138 170 213 261 303
#     4   8  16  33  54  75 106 139 169 206 256 308
#
# _framework density 17.747161999999999
#
# number of rings (size 3 to 8) (size 9 to 14) (size 15 to 20)
#    0.750    2.250    0.000    2.250    0.000    3.000 
#    2.250    8.125    0.000    0.000    0.000    0.000 
#    0.000    0.000    0.000    0.000    0.000    0.000 
#
# Total GULP energy -198268.660367 kJ/mol
# GULP energy per Si atom -12391.791273 kJ/mol
# Density = 1.770677 g / cm^3
# Si number density = 17.747162 Si / 1000 Ang^3
#
#
#
# Elastic Constant Matrix: (Units=GPa)
#
#
# Indices 1 2 3 4 5 6 
#
# 1 90.3870 33.5900 19.9435 0.0000 0.8796 0.0000
# 2 33.5900 77.4794 41.2561 0.0000 -0.6353 0.0000
# 3 19.9435 41.2561 78.7260 0.0000 -3.6561 0.0000
# 4 0.0000 0.0000 0.0000 25.1209 0.0000 -0.2452
# 5 0.8796 -0.6353 -3.6561 0.0000 18.4394 0.0000
# 6 0.0000 0.0000 0.0000 -0.2452 0.0000 29.9001
#
#
#
# Elastic Compliance Matrix: (Units=1/GPa)
#
#
# Indices 1 2 3 4 5 6 
#
# 1 0.013217 -0.005454 -0.000533 0.000000 -0.000924 0.000000
# 2 -0.005454 0.020181 -0.009235 0.000000 -0.000876 0.000000
# 3 -0.000533 -0.009235 0.017827 0.000000 0.003242 0.000000
# 4 0.000000 0.000000 0.000000 0.039811 0.000000 0.000326
# 5 -0.000924 -0.000876 0.003242 0.000000 0.054889 0.000000
# 6 0.000000 0.000000 0.000000 0.000326 0.000000 0.033447
#
#
# Mechanical properties :
#
#
# Convention : Reuss Voigt Hill
#
# Bulk Modulus (GPa) = 48.11861 48.46350 48.29105
# Shear Modulus (GPa) = 23.06879 24.81228 23.94053
#
# Velocity S-wave (km/s) = 3.60927 3.74317 3.67683
# Velocity P-wave (km/s) = 6.67393 6.78593 6.73016
#
# Compressibility (1/GPa) = 0.02078198
#
# Stress axis : x y z
#
# Youngs Moduli (GPa) = 75.66082 49.55093 56.09320
#
# Poissons Ratio (x) = 0.27023 0.02991
# Poissons Ratio (y) = 0.41263 0.51802
# Poissons Ratio (z) = 0.04034 0.45760
#
# Static dielectric constant tensor:
#      x y z
#    x 3.166290 0.000000 0.012160 
#    y 0.000000 3.129900 0.000000 
#    z 0.012160 0.000000 3.237330 
# 
# 
# High freq. dielectric constant tensor:
#      x y z
#    x 1.678960 0.000000 -0.001290 
#    y 0.000000 1.678860 0.000000 
#    z -0.001290 0.000000 1.677290 
# 
# From -- ./inp_files/26422.got.cif
#   From: 2010.03.12/outbox.cif.g09.slc.cpg/sg8_14_cif.got.tgz:26422.got - 2010.03.31 10:45:26.
