data_PCOD8054727
_publ_section_title
;
Structure prediction by ZEFSAII (Michael W. Deem and Ramdas Pophale) SiO2 
 PCOD8054727
Probable space group: C C
;
_chemical_formula_sum "Si O2"
_cell_formula_units_Z 28
_cell_length_a 10.915783
_cell_length_b 9.483437
_cell_length_c 22.929315
_cell_angle_alpha 90.000000
_cell_angle_beta 148.822132
_cell_angle_gamma 90.000000
_cell_volume 1228.816460
_symmetry_space_group_name_H-M "C C"
_symmetry_group_IT_number 9
_symmetry_cell_setting 'monoclinic'
loop_
_space_group_symop_operation_xyz
x,y,z
x,-y,1/2+z
1/2+x,1/2+y,z
1/2+x,1/2-y,1/2+z
loop_
_atom_site_type_symbol
_atom_site_label
_atom_site_fract_x
_atom_site_fract_y
_atom_site_fract_z
Si Si1 0.025750 0.083859 0.062090
Si Si2 0.891682 0.329854 0.447469
Si Si3 0.191917 0.170163 0.253913
Si Si4 0.294622 0.878185 0.085968
Si Si5 0.739993 0.837468 0.992270
Si Si6 0.464584 0.605141 0.705243
Si Si7 0.469349 0.109121 0.534479
O O1 0.181174 0.126258 0.181562
O O2 0.918886 0.229605 0.992093
O O3 0.201221 0.004125 0.088613
O O4 0.801297 0.988408 0.987912
O O5 0.853404 0.281877 0.498072
O O6 0.668746 0.294862 0.315161
O O7 0.924452 0.499952 0.463109
O O8 0.119499 0.255871 0.513066
O O9 0.460969 0.185120 0.383794
O O10 0.051841 0.317058 0.209514
O O11 0.062684 0.050944 0.238356
O O12 0.313670 0.932935 0.027290
O O13 0.866592 0.823363 0.106279
O O14 0.249769 0.598376 0.664084
#
# Coordination Sequence:
#
# PCOD8054727 Si02
#       7
#     4   4   4   4   4   4   4
#     4   9  22  42  68 101 136 177 228 282 338 411
#     4  11  23  45  66 102 139 176 233 285 337 413
#     4  10  20  42  71  93 135 184 227 280 341 403
#     4  10  22  44  67 101 137 178 227 284 337 406
#     4  10  23  45  70  96 138 187 227 280 348 403
#     4  11  23  42  69  97 139 181 226 287 340 405
#     4  11  23  42  67 102 136 177 226 278 343 403
#
# _framework density 22.786155000000001
#
# number of rings (size 3 to 8) (size 9 to 14) (size 15 to 20)
#    0.000    1.714    1.429    2.571    6.000    0.000 
#    7.714    2.857    0.000    0.000    0.000    0.000 
#    0.000    0.000    0.000    0.000    0.000    0.000 
#
# Total GULP energy -173545.113989 kJ/mol
# GULP energy per Si atom -12396.079571 kJ/mol
# Density = 2.273429 g / cm^3
# Si number density = 22.786155 Si / 1000 Ang^3
#
#
#
# Elastic Constant Matrix: (Units=GPa)
#
#
# Indices 1 2 3 4 5 6 
#
# 1 115.5832 32.5484 26.6790 0.0001 16.1483 0.0000
# 2 32.5484 97.4817 23.8333 0.0000 -0.8135 0.0000
# 3 26.6790 23.8333 120.5132 0.0002 9.9983 0.0000
# 4 0.0001 0.0000 0.0002 11.2298 0.0000 1.9576
# 5 16.1483 -0.8135 9.9983 0.0000 31.8655 0.0000
# 6 0.0000 0.0000 0.0000 1.9576 0.0000 40.3189
#
#
#
# Elastic Compliance Matrix: (Units=1/GPa)
#
#
# Indices 1 2 3 4 5 6 
#
# 1 0.010568 -0.003258 -0.001277 0.000000 -0.005038 0.000000
# 2 -0.003258 0.011813 -0.001824 0.000000 0.002525 0.000000
# 3 -0.001277 -0.001824 0.009129 0.000000 -0.002264 0.000000
# 4 0.000000 0.000000 0.000000 0.089809 0.000000 -0.004361
# 5 -0.005038 0.002525 -0.002264 0.000000 0.034710 0.000000
# 6 0.000000 0.000000 0.000000 -0.004361 0.000000 0.025014
#
#
# Mechanical properties :
#
#
# Convention : Reuss Voigt Hill
#
# Bulk Modulus (GPa) = 53.21795 55.52217 54.37006
# Shear Modulus (GPa) = 24.99662 33.38398 29.19030
#
# Velocity S-wave (km/s) = 3.31571 3.83181 3.58306
# Velocity P-wave (km/s) = 6.16965 6.63299 6.40551
#
# Compressibility (1/GPa) = 0.01879065
#
# Stress axis : x y z
#
# Youngs Moduli (GPa) = 94.62541 84.64958 109.53850
#
# Poissons Ratio (x) = 0.27582 0.13990
# Poissons Ratio (y) = 0.30832 0.19985
# Poissons Ratio (z) = 0.12085 0.15444
#
# Static dielectric constant tensor:
#      x y z
#    x 4.249250 0.000000 0.176610 
#    y 0.000000 4.294950 0.000000 
#    z 0.176610 0.000000 4.028440 
# 
# 
# High freq. dielectric constant tensor:
#      x y z
#    x 1.913750 0.000000 0.013260 
#    y 0.000000 1.902670 0.000000 
#    z 0.013260 0.000000 1.880790 
# 
# From -- ./inp_files/20794.got.cif
#   From: 2010.06.25/outbox.cif.g09.slc.cpg/sg9_11_cif.got.tgz:20794.got - 2010.06.27 21:40:51.
