data_PCOD8054035
_publ_section_title
;
Structure prediction by ZEFSAII (Michael W. Deem and Ramdas Pophale) SiO2 
 PCOD8054035
Probable space group: C M
;
_chemical_formula_sum "Si O2"
_cell_formula_units_Z 20
_cell_length_a 9.822820
_cell_length_b 18.526875
_cell_length_c 5.033269
_cell_angle_alpha 90.000000
_cell_angle_beta 75.097666
_cell_angle_gamma 90.000000
_cell_volume 885.176677
_symmetry_space_group_name_H-M "C M"
_symmetry_group_IT_number 8
_symmetry_cell_setting 'monoclinic'
loop_
_space_group_symop_operation_xyz
x,y,z
x,-y,z
1/2+x,1/2+y,z
1/2+x,1/2-y,z
loop_
_atom_site_type_symbol
_atom_site_label
_atom_site_fract_x
_atom_site_fract_y
_atom_site_fract_z
Si Si1 0.039510 0.080860 0.337490
Si Si2 0.758082 0.082836 0.185238
Si Si3 0.110906 0.640966 0.759698
Si Si4 0.299736 0.853213 0.998747
Si Si5 0.171519 0.202058 0.553237
O O1 0.187641 0.081801 0.101329
O O2 0.050226 0.140154 0.570315
O O3 0.913962 0.104665 0.204840
O O4 0.013102 0.000000 0.464605
O O5 0.651134 0.094233 0.483303
O O6 0.751008 0.000000 0.099447
O O7 0.721060 0.129962 0.944312
O O8 0.099467 0.724066 0.675737
O O9 0.958105 0.616994 0.946419
O O10 0.263310 0.790498 0.235253
O O11 0.283860 0.821765 0.714659
#
# Coordination Sequence:
#
# PCOD8054035 Si02
#       5
#     4   4   4   4   4
#     4   9  24  47  72 102 141 184 234 282 346 421
#     4  11  26  45  71 104 142 188 229 289 355 412
#     4  12  25  45  71 102 148 180 236 291 345 417
#     4  10  24  43  67 105 131 188 232 280 353 397
#     4  10  24  42  71 101 139 178 237 282 348 401
#
# _framework density 22.594359000000001
#
# number of rings (size 3 to 8) (size 9 to 14) (size 15 to 20)
#    1.200    0.400    0.000    3.000    5.600    4.000 
#    0.000    0.000    0.000    0.000    0.000    0.000 
#    0.000    0.000    0.000    0.000    0.000    0.000 
#
# Total GULP energy -123942.138938 kJ/mol
# GULP energy per Si atom -12394.213894 kJ/mol
# Density = 2.254293 g / cm^3
# Si number density = 22.594359 Si / 1000 Ang^3
#
#
#
# Elastic Constant Matrix: (Units=GPa)
#
#
# Indices 1 2 3 4 5 6 
#
# 1 125.0781 58.1460 40.9545 0.0000 8.2829 0.0000
# 2 58.1460 109.8957 40.0988 0.0000 16.1568 0.0000
# 3 40.9545 40.0988 123.8389 0.0000 23.1313 0.0000
# 4 0.0000 0.0000 0.0000 35.1566 0.0000 7.1612
# 5 8.2829 16.1568 23.1313 0.0000 44.4096 0.0000
# 6 0.0000 0.0000 0.0000 7.1612 0.0000 24.2193
#
#
#
# Elastic Compliance Matrix: (Units=1/GPa)
#
#
# Indices 1 2 3 4 5 6 
#
# 1 0.011055 -0.005205 -0.002148 0.000000 0.000951 0.000000
# 2 -0.005205 0.012973 -0.001971 0.000000 -0.002722 0.000000
# 3 -0.002148 -0.001971 0.010208 0.000000 -0.004199 0.000000
# 4 0.000000 0.000000 0.000000 0.030267 0.000000 -0.008949
# 5 0.000951 -0.002722 -0.004199 0.000000 0.025518 0.000000
# 6 0.000000 0.000000 0.000000 -0.008949 0.000000 0.043935
#
#
# Mechanical properties :
#
#
# Convention : Reuss Voigt Hill
#
# Bulk Modulus (GPa) = 64.15267 70.80128 67.47697
# Shear Modulus (GPa) = 31.68547 35.39799 33.54173
#
# Velocity S-wave (km/s) = 3.74887 3.96242 3.85712
# Velocity P-wave (km/s) = 6.86976 7.23451 7.05449
#
# Compressibility (1/GPa) = 0.01558782
#
# Stress axis : x y z
#
# Youngs Moduli (GPa) = 90.45469 77.08322 97.96331
#
# Poissons Ratio (x) = 0.40124 0.21044
# Poissons Ratio (y) = 0.47084 0.19305
# Poissons Ratio (z) = 0.19431 0.15191
#
# Static dielectric constant tensor:
#      x y z
#    x 3.962520 0.000000 0.097880 
#    y 0.000000 3.816470 0.000000 
#    z 0.097880 0.000000 3.984290 
# 
# 
# High freq. dielectric constant tensor:
#      x y z
#    x 1.895620 0.000000 0.008600 
#    y 0.000000 1.871810 0.000000 
#    z 0.008600 0.000000 1.894080 
# 
# From -- ./inp_files/1407.got.cif
#   From: 2010.03.12/outbox.cif.g09.slc.cpg/sg8_1_cif.got.tgz:1407.got - 2010.03.31 10:45:26.
