data_PCOD8054805
_publ_section_title
;
Structure prediction by ZEFSAII (Michael W. Deem and Ramdas Pophale) SiO2 
 PCOD8054805
Probable space group: C C
;
_chemical_formula_sum "Si O2"
_cell_formula_units_Z 32
_cell_length_a 12.146977
_cell_length_b 11.395811
_cell_length_c 21.297847
_cell_angle_alpha 90.000000
_cell_angle_beta 33.156278
_cell_angle_gamma 90.000000
_cell_volume 1612.413985
_symmetry_space_group_name_H-M "C C"
_symmetry_group_IT_number 9
_symmetry_cell_setting 'monoclinic'
loop_
_space_group_symop_operation_xyz
x,y,z
x,-y,1/2+z
1/2+x,1/2+y,z
1/2+x,1/2-y,1/2+z
loop_
_atom_site_type_symbol
_atom_site_label
_atom_site_fract_x
_atom_site_fract_y
_atom_site_fract_z
Si Si1 0.699590 0.164628 0.061290
Si Si2 0.952397 0.877663 0.208233
Si Si3 0.540963 0.070377 0.683913
Si Si4 0.083475 0.349666 0.474857
Si Si5 0.617178 0.437905 0.333067
Si Si6 0.194842 0.957092 0.666477
Si Si7 0.431578 0.675671 0.458201
Si Si8 0.147217 0.298783 0.251934
O O1 0.639802 0.286629 0.122865
O O2 0.590033 0.066761 0.155718
O O3 0.604152 0.154151 0.038816
O O4 0.940473 0.149994 0.939644
O O5 0.794356 0.861729 0.339771
O O6 0.844222 0.854660 0.192840
O O7 0.055496 0.005890 0.172702
O O8 0.322356 0.108925 0.764972
O O9 0.699372 0.139382 0.564009
O O10 0.564108 0.102146 0.745678
O O11 0.931016 0.459387 0.533253
O O12 0.976992 0.226822 0.505684
O O13 0.640734 0.448236 0.246544
O O14 0.579140 0.566858 0.378358
O O15 0.167282 0.823934 0.704536
O O16 0.478134 0.777618 0.385847
#
# Coordination Sequence:
#
# PCOD8054805 Si02
#       8
#     4   4   4   4   4   4   4   4
#     4  11  21  40  62  92 124 170 212 264 328 393
#     4  11  23  41  66  94 125 169 223 263 325 392
#     4  11  19  39  64  85 129 166 208 262 330 392
#     4  11  19  39  65  88 121 168 219 258 320 389
#     4  10  21  37  61  95 121 163 211 262 326 379
#     4  11  20  39  65  91 120 165 223 262 308 391
#     4   9  20  36  64  87 114 174 209 250 318 386
#     4  10  21  39  63  90 126 169 211 263 321 386
#
# _framework density 19.846018999999998
#
# number of rings (size 3 to 8) (size 9 to 14) (size 15 to 20)
#    0.000    1.500    5.000    1.500    0.000    0.000 
#    4.500   11.250    0.000    0.000    0.000    0.000 
#    0.000    0.000    0.000    0.000    0.000    0.000 
#
# Total GULP energy -198244.774220 kJ/mol
# GULP energy per Si atom -12390.298389 kJ/mol
# Density = 1.980085 g / cm^3
# Si number density = 19.846019 Si / 1000 Ang^3
#
#
#
# Elastic Constant Matrix: (Units=GPa)
#
#
# Indices 1 2 3 4 5 6 
#
# 1 118.2041 62.3866 39.4470 0.0002 -14.3068 -0.0001
# 2 62.3866 72.4200 39.0929 -0.0006 -4.1564 -0.0001
# 3 39.4470 39.0929 114.5817 -0.0037 -21.7802 -0.0014
# 4 0.0002 -0.0006 -0.0037 24.9398 -0.0009 -2.2482
# 5 -14.3068 -4.1564 -21.7802 -0.0009 32.0089 0.0004
# 6 -0.0001 -0.0001 -0.0014 -2.2482 0.0004 33.5895
#
#
#
# Elastic Compliance Matrix: (Units=1/GPa)
#
#
# Indices 1 2 3 4 5 6 
#
# 1 0.016439 -0.013927 0.000167 0.000000 0.005653 0.000000
# 2 -0.013927 0.028835 -0.006334 0.000000 -0.006791 0.000000
# 3 0.000167 -0.006334 0.012277 0.000002 0.007606 0.000001
# 4 0.000000 0.000000 0.000002 0.040340 0.000002 0.002700
# 5 0.005653 -0.006791 0.007606 0.000002 0.038061 0.000000
# 6 0.000000 0.000000 0.000001 0.002700 0.000000 0.029952
#
#
# Mechanical properties :
#
#
# Convention : Reuss Voigt Hill
#
# Bulk Modulus (GPa) = 57.59677 65.22877 61.41277
# Shear Modulus (GPa) = 23.59818 29.05957 26.32888
#
# Velocity S-wave (km/s) = 3.45202 3.83071 3.64628
# Velocity P-wave (km/s) = 6.70622 7.24600 6.98133
#
# Compressibility (1/GPa) = 0.01736208
#
# Stress axis : x y z
#
# Youngs Moduli (GPa) = 60.83101 34.67969 81.45419
#
# Poissons Ratio (x) = 0.48298 -0.01357
# Poissons Ratio (y) = 0.84719 0.51594
# Poissons Ratio (z) = -0.01014 0.21967
#
# Static dielectric constant tensor:
#      x y z
#    x 3.612170 0.000000 0.065830 
#    y 0.000000 3.565910 0.000000 
#    z 0.065830 0.000000 4.020740 
# 
# 
# High freq. dielectric constant tensor:
#      x y z
#    x 1.763890 0.000000 0.003310 
#    y 0.000000 1.746410 0.000000 
#    z 0.003310 0.000000 1.795770 
# 
# From -- ./inp_files/16503.got.cif
#   From: 2010.06.25/outbox.cif.g09.slc.cpg/sg9_9_cif.got.tgz:16503.got - 2010.06.27 21:40:51.
