data_PCOD8054115
_publ_section_title
;
Structure prediction by ZEFSAII (Michael W. Deem and Ramdas Pophale) SiO2 
 PCOD8054115
Probable space group: C M
;
_chemical_formula_sum "Si O2"
_cell_formula_units_Z 20
_cell_length_a 5.235106
_cell_length_b 33.686131
_cell_length_c 4.871285
_cell_angle_alpha 90.000000
_cell_angle_beta 99.062109
_cell_angle_gamma 90.000000
_cell_volume 848.330836
_symmetry_space_group_name_H-M "C M"
_symmetry_group_IT_number 8
_symmetry_cell_setting 'monoclinic'
loop_
_space_group_symop_operation_xyz
x,y,z
x,-y,z
1/2+x,1/2+y,z
1/2+x,1/2-y,z
loop_
_atom_site_type_symbol
_atom_site_label
_atom_site_fract_x
_atom_site_fract_y
_atom_site_fract_z
Si Si1 0.200550 0.068434 0.590480
Si Si2 0.195755 0.879066 0.088125
Si Si3 0.557901 0.000000 0.725412
Si Si4 0.366236 0.500000 0.285691
Si Si5 0.226231 0.275280 0.533403
Si Si6 0.695015 0.171031 0.029962
O O1 0.306436 0.097371 0.370546
O O2 0.414517 0.040822 0.772567
O O3 0.998296 0.040244 0.404243
O O4 0.083417 0.093255 0.824309
O O5 0.436539 0.854839 0.008141
O O6 0.955492 0.852718 0.152120
O O7 0.594642 0.000000 0.402227
O O8 0.821972 0.000000 0.950317
O O9 0.507525 0.255382 0.592707
O O10 0.167608 0.290458 0.217927
O O11 0.223527 0.313939 0.724618
#
# Coordination Sequence:
#
# PCOD8054115 Si02
#       6
#     4   4   2   2   4   4
#     4  11  26  43  66 103 130 192 232 296 346 411
#     4  12  26  44  70  98 148 181 230 281 358 410
#     4  11  24  43  70  95 135 174 252 289 344 409
#     4  11  24  43  70  95 135 174 252 289 344 409
#     4  12  24  45  74 101 138 179 228 279 338 401
#     4  12  26  45  68 107 138 181 228 279 340 425
#
# _framework density 23.575707999999999
#
# number of rings (size 3 to 8) (size 9 to 14) (size 15 to 20)
#    0.000    0.400    0.000    8.400    8.400    3.200 
#    0.000    0.000    0.000    0.000    0.000    0.000 
#    0.000    0.000    0.000    0.000    0.000    0.000 
#
# Total GULP energy -124026.018935 kJ/mol
# GULP energy per Si atom -12402.601894 kJ/mol
# Density = 2.352205 g / cm^3
# Si number density = 23.575708 Si / 1000 Ang^3
#
#
#
# Elastic Constant Matrix: (Units=GPa)
#
#
# Indices 1 2 3 4 5 6 
#
# 1 122.9670 42.8128 15.8795 0.0000 -1.2390 0.0000
# 2 42.8128 107.3932 34.1013 0.0000 -1.9575 0.0000
# 3 15.8795 34.1013 111.7639 0.0000 0.7277 0.0000
# 4 0.0000 0.0000 0.0000 9.0971 0.0000 -48.9012
# 5 -1.2390 -1.9575 0.7277 0.0000 39.1100 0.0000
# 6 0.0000 0.0000 0.0000 -48.9012 0.0000 -26.3436
#
#
#
# Elastic Compliance Matrix: (Units=1/GPa)
#
#
# Indices 1 2 3 4 5 6 
#
# 1 0.009448 -0.003696 -0.000215 0.000000 0.000118 0.000000
# 2 -0.003696 0.011769 -0.003069 0.000000 0.000529 0.000000
# 3 -0.000215 -0.003069 0.009917 0.000000 -0.000345 0.000000
# 4 0.000000 0.000000 0.000000 0.010013 0.000000 -0.018587
# 5 0.000118 0.000529 -0.000345 0.000000 0.025606 0.000000
# 6 0.000000 0.000000 0.000000 -0.018587 0.000000 -0.003458
#
#
# Mechanical properties :
#
#
# Convention : Reuss Voigt Hill
#
# Bulk Modulus (GPa) = 58.23217 58.63460 58.43338
# Shear Modulus (GPa) = 60.25506 20.99473 40.62490
#
# Velocity S-wave (km/s) = 5.06099 2.98740 4.15561
# Velocity P-wave (km/s) = 7.67497 6.06829 6.91843
#
# Compressibility (1/GPa) = 0.01717264
#
# Stress axis : x y z
#
# Youngs Moduli (GPa) = 105.84161 84.96708 100.83886
#
# Poissons Ratio (x) = 0.31403 0.02173
# Poissons Ratio (y) = 0.39119 0.30951
# Poissons Ratio (z) = 0.02280 0.26079
#
# Static dielectric constant tensor:
#      x y z
#    x 4.086810 0.000000 -0.174810 
#    y 0.000000 4.563980 0.000000 
#    z -0.174810 0.000000 4.250150 
# 
# 
# High freq. dielectric constant tensor:
#      x y z
#    x 1.929160 0.000000 -0.009470 
#    y 0.000000 1.948870 0.000000 
#    z -0.009470 0.000000 1.948760 
# 
# From -- ./inp_files/537.got.cif
#   From: 2010.03.12/outbox.cif.g09.slc.cpg/sg8_1_cif.got.tgz:537.got - 2010.03.31 10:45:26.
