data_PCOD8054851
_publ_section_title
;
Structure prediction by ZEFSAII (Michael W. Deem and Ramdas Pophale) SiO2 
 PCOD8054851
Probable space group: C C
;
_chemical_formula_sum "Si O2"
_cell_formula_units_Z 28
_cell_length_a 15.370227
_cell_length_b 18.168116
_cell_length_c 5.616057
_cell_angle_alpha 90.000000
_cell_angle_beta 59.799794
_cell_angle_gamma 90.000000
_cell_volume 1355.416054
_symmetry_space_group_name_H-M "C C"
_symmetry_group_IT_number 9
_symmetry_cell_setting 'monoclinic'
loop_
_space_group_symop_operation_xyz
x,y,z
x,-y,1/2+z
1/2+x,1/2+y,z
1/2+x,1/2-y,1/2+z
loop_
_atom_site_type_symbol
_atom_site_label
_atom_site_fract_x
_atom_site_fract_y
_atom_site_fract_z
Si Si1 0.055350 0.764442 0.791060
Si Si2 0.728305 0.956599 0.445707
Si Si3 0.422989 0.219619 0.591658
Si Si4 0.259029 0.184524 0.177994
Si Si5 0.530588 0.119385 0.084861
Si Si6 0.851011 0.813612 0.310847
Si Si7 0.342435 0.958909 0.717212
O O1 0.153508 0.815192 0.681988
O O2 0.025935 0.754660 0.555369
O O3 0.078063 0.681880 0.852059
O O4 0.962012 0.803878 0.048815
O O5 0.618702 0.919912 0.610268
O O6 0.817439 0.897359 0.336805
O O7 0.739405 0.004859 0.670923
O O8 0.449530 0.157555 0.367318
O O9 0.358908 0.287805 0.574028
O O10 0.356240 0.177980 0.876186
O O11 0.267138 0.260869 0.309671
O O12 0.268690 0.112596 0.329524
O O13 0.462048 0.060750 0.036744
O O14 0.317718 0.000337 0.501535
#
# Coordination Sequence:
#
# PCOD8054851 Si02
#       7
#     4   4   4   4   4   4   4
#     4  10  22  39  70 100 127 175 241 291 329 399
#     4  12  29  44  70 105 145 186 222 284 360 419
#     4  10  21  38  69  99 130 175 230 296 338 391
#     4  11  22  41  69  95 134 181 239 279 338 413
#     4  11  22  41  64 104 135 178 220 288 357 410
#     4  10  23  43  66  96 136 178 239 280 337 410
#     4  12  25  42  64  97 143 173 215 278 349 410
#
# _framework density 20.657862000000002
#
# number of rings (size 3 to 8) (size 9 to 14) (size 15 to 20)
#    0.000    1.143    5.714    1.714    8.000    0.000 
#    0.000    1.429    0.000    0.000    0.000    0.000 
#    0.000    0.000    0.000    0.000    0.000    0.000 
#
# Total GULP energy -173511.881575 kJ/mol
# GULP energy per Si atom -12393.705827 kJ/mol
# Density = 2.061084 g / cm^3
# Si number density = 20.657862 Si / 1000 Ang^3
#
#
#
# Elastic Constant Matrix: (Units=GPa)
#
#
# Indices 1 2 3 4 5 6 
#
# 1 135.0293 53.3980 35.6702 0.0000 6.6554 0.0000
# 2 53.3980 107.9971 36.0501 0.0000 8.0407 0.0000
# 3 35.6702 36.0501 58.5632 0.0000 27.6264 0.0000
# 4 0.0000 0.0000 0.0000 20.4798 0.0000 4.4633
# 5 6.6554 8.0407 27.6264 0.0000 35.4964 0.0000
# 6 0.0000 0.0000 0.0000 4.4633 0.0000 50.6656
#
#
#
# Elastic Compliance Matrix: (Units=1/GPa)
#
#
# Indices 1 2 3 4 5 6 
#
# 1 0.010042 -0.003344 -0.005574 0.000000 0.003212 0.000000
# 2 -0.003344 0.013275 -0.007920 0.000000 0.003784 0.000000
# 3 -0.005574 -0.007920 0.037934 0.000000 -0.026684 0.000000
# 4 0.000000 0.000000 0.000000 0.049784 0.000000 -0.004386
# 5 0.003212 0.003784 -0.026684 0.000000 0.047481 0.000000
# 6 0.000000 0.000000 0.000000 -0.004386 0.000000 0.020124
#
#
# Mechanical properties :
#
#
# Convention : Reuss Voigt Hill
#
# Bulk Modulus (GPa) = 36.26363 61.31403 48.78883
# Shear Modulus (GPa) = 22.57271 33.09311 27.83291
#
# Velocity S-wave (km/s) = 3.30918 4.00679 3.67458
# Velocity P-wave (km/s) = 5.67392 7.15199 6.45540
#
# Compressibility (1/GPa) = 0.02757584
#
# Stress axis : x y z
#
# Youngs Moduli (GPa) = 99.57981 75.33018 26.36172
#
# Poissons Ratio (x) = 0.25190 0.14693
# Poissons Ratio (y) = 0.33299 0.20878
# Poissons Ratio (z) = 0.55502 0.59661
#
# Static dielectric constant tensor:
#      x y z
#    x 3.994370 0.000000 0.344660 
#    y 0.000000 3.736850 0.000000 
#    z 0.344660 0.000000 3.568050 
# 
# 
# High freq. dielectric constant tensor:
#      x y z
#    x 1.822710 0.000000 0.018940 
#    y 0.000000 1.800250 0.000000 
#    z 0.018940 0.000000 1.791390 
# 
# From -- ./inp_files/2395.got.cif
#   From: 2010.06.25/outbox.cif.g09.slc.cpg/sg9_2_cif.got.tgz:2395.got - 2010.06.27 21:40:51.
