data_PCOD8054869
_publ_section_title
;
Structure prediction by ZEFSAII (Michael W. Deem and Ramdas Pophale) SiO2 
 PCOD8054869
Probable space group: C C
;
_chemical_formula_sum "Si O2"
_cell_formula_units_Z 32
_cell_length_a 9.117326
_cell_length_b 30.606013
_cell_length_c 5.030763
_cell_angle_alpha 90.000000
_cell_angle_beta 74.124374
_cell_angle_gamma 90.000000
_cell_volume 1350.264832
_symmetry_space_group_name_H-M "C C"
_symmetry_group_IT_number 9
_symmetry_cell_setting 'monoclinic'
loop_
_space_group_symop_operation_xyz
x,y,z
x,-y,1/2+z
1/2+x,1/2+y,z
1/2+x,1/2-y,1/2+z
loop_
_atom_site_type_symbol
_atom_site_label
_atom_site_fract_x
_atom_site_fract_y
_atom_site_fract_z
Si Si1 0.926200 0.830720 0.878150
Si Si2 0.495077 0.277764 0.339624
Si Si3 0.052965 0.970610 0.310700
Si Si4 0.580025 0.849898 0.098494
Si Si5 0.492663 0.898976 0.630651
Si Si6 0.204587 0.525473 0.968717
Si Si7 0.674883 0.612572 0.473791
Si Si8 0.814490 0.298218 0.133872
O O1 0.928928 0.814387 0.573312
O O2 0.026192 0.875298 0.867147
O O3 0.994530 0.793778 0.036465
O O4 0.753502 0.837111 0.053960
O O5 0.674762 0.270816 0.336127
O O6 0.396132 0.233672 0.381144
O O7 0.876234 0.956976 0.413409
O O8 0.096128 0.992427 0.570693
O O9 0.138716 0.924759 0.210445
O O10 0.545701 0.890260 0.304895
O O11 0.458073 0.811972 0.250574
O O12 0.544909 0.861116 0.808813
O O13 0.582566 0.942366 0.660550
O O14 0.310526 0.906219 0.722648
O O15 0.180422 0.516841 0.668389
O O16 0.736701 0.657130 0.572324
#
# Coordination Sequence:
#
# PCOD8054869 Si02
#       8
#     4   4   4   4   4   4   4   4
#     4  11  24  42  67  95 128 172 216 268 323 394
#     4  11  24  42  64  93 128 169 217 266 329 386
#     4  10  23  41  64  93 128 172 221 276 331 392
#     4  11  23  40  63  91 124 166 215 260 318 380
#     4  11  23  39  62  92 126 164 209 265 320 388
#     4  10  21  39  62  90 124 164 212 267 331 391
#     4  10  24  43  66  98 136 174 222 273 334 395
#     4  10  24  44  66  96 134 175 220 275 328 396
#
# _framework density 23.699052999999999
#
# number of rings (size 3 to 8) (size 9 to 14) (size 15 to 20)
#    0.000    1.500    0.000    3.750    0.000   15.000 
#    0.000    0.000    0.000    0.000    0.000    0.000 
#    0.000    0.000    0.000    0.000    0.000    0.000 
#
# Total GULP energy -198239.627037 kJ/mol
# GULP energy per Si atom -12389.976690 kJ/mol
# Density = 2.364511 g / cm^3
# Si number density = 23.699053 Si / 1000 Ang^3
#
#
#
# Elastic Constant Matrix: (Units=GPa)
#
#
# Indices 1 2 3 4 5 6 
#
# 1 139.4831 44.3860 34.8549 0.0000 -44.8456 0.0000
# 2 44.3860 88.8604 20.3864 0.0000 -27.0817 0.0000
# 3 34.8549 20.3864 86.7386 0.0000 -13.2152 0.0000
# 4 0.0000 0.0000 0.0000 40.3813 0.0000 -16.2824
# 5 -44.8456 -27.0817 -13.2152 0.0000 44.2826 0.0000
# 6 0.0000 0.0000 0.0000 -16.2824 0.0000 30.8301
#
#
#
# Elastic Compliance Matrix: (Units=1/GPa)
#
#
# Indices 1 2 3 4 5 6 
#
# 1 0.011654 -0.002277 -0.002684 0.000000 0.009608 0.000000
# 2 -0.002277 0.014635 -0.001585 0.000000 0.006172 0.000000
# 3 -0.002684 -0.001585 0.013010 0.000000 0.000195 0.000000
# 4 0.000000 0.000000 0.000000 0.031464 0.000000 0.016617
# 5 0.009608 0.006172 0.000195 0.000000 0.036146 0.000000
# 6 0.000000 0.000000 0.000000 0.016617 0.000000 0.041212
#
#
# Mechanical properties :
#
#
# Convention : Reuss Voigt Hill
#
# Bulk Modulus (GPa) = 38.15628 57.14852 47.65240
# Shear Modulus (GPa) = 29.42082 37.46244 33.44163
#
# Velocity S-wave (km/s) = 3.52722 3.98019 3.76053
# Velocity P-wave (km/s) = 5.72046 6.72972 6.24551
#
# Compressibility (1/GPa) = 0.02620801
#
# Stress axis : x y z
#
# Youngs Moduli (GPa) = 85.80868 68.32728 76.86654
#
# Poissons Ratio (x) = 0.15558 0.20630
# Poissons Ratio (y) = 0.19539 0.12180
# Poissons Ratio (z) = 0.23030 0.10827
#
# Static dielectric constant tensor:
#      x y z
#    x 4.722350 0.000000 -0.427610 
#    y 0.000000 4.139400 0.000000 
#    z -0.427610 0.000000 4.125070 
# 
# 
# High freq. dielectric constant tensor:
#      x y z
#    x 1.949290 0.000000 -0.022330 
#    y 0.000000 1.929200 0.000000 
#    z -0.022330 0.000000 1.933660 
# 
# From -- ./inp_files/1240.got.cif
#   From: 2010.06.25/outbox.cif.g09.slc.cpg/sg9_1_cif.got.tgz:1240.got - 2010.06.27 21:40:51.
