data_PCOD8054219
_publ_section_title
;
Structure prediction by ZEFSAII (Michael W. Deem and Ramdas Pophale) SiO2 
 PCOD8054219
Probable space group: C C
;
_chemical_formula_sum "Si O2"
_cell_formula_units_Z 28
_cell_length_a 11.861272
_cell_length_b 25.058704
_cell_length_c 5.237362
_cell_angle_alpha 90.000000
_cell_angle_beta 128.012617
_cell_angle_gamma 90.000000
_cell_volume 1226.478312
_symmetry_space_group_name_H-M "C C"
_symmetry_group_IT_number 9
_symmetry_cell_setting 'monoclinic'
loop_
_space_group_symop_operation_xyz
x,y,z
x,-y,1/2+z
1/2+x,1/2+y,z
1/2+x,1/2-y,1/2+z
loop_
_atom_site_type_symbol
_atom_site_label
_atom_site_fract_x
_atom_site_fract_y
_atom_site_fract_z
Si Si1 0.069100 0.186634 0.146680
Si Si2 0.037164 0.526197 0.682879
Si Si3 0.658916 0.638046 0.770664
Si Si4 0.941865 0.693070 0.072374
Si Si5 0.218132 0.018589 0.793594
Si Si6 0.318222 0.272669 0.567116
Si Si7 0.580869 0.849580 0.263774
O O1 0.066417 0.147031 0.387682
O O2 0.205975 0.225681 0.346713
O O3 0.066029 0.149058 0.894067
O O4 0.918987 0.219056 0.957937
O O5 0.108256 0.505288 0.043719
O O6 0.868183 0.512467 0.446884
O O7 0.071644 0.588209 0.687076
O O8 0.788070 0.678712 0.963083
O O9 0.733374 0.580389 0.878023
O O10 0.927830 0.754329 0.950538
O O11 0.981775 0.659112 0.873111
O O12 0.047198 0.684565 0.457751
O O13 0.133696 0.010083 0.408989
O O14 0.239464 0.327181 0.548105
#
# Coordination Sequence:
#
# PCOD8054219 Si02
#       7
#     4   4   4   4   4   4   4
#     4  11  26  43  65  95 141 179 228 277 336 412
#     4  10  20  36  61  98 133 169 226 289 341 396
#     4  11  23  39  65  97 134 174 224 281 345 394
#     4  11  23  41  64  99 136 183 229 279 343 417
#     4  10  18  33  60  92 129 159 218 282 331 385
#     4  11  26  45  66 100 140 187 230 281 337 421
#     4  12  24  41  71  99 143 185 229 291 353 397
#
# _framework density 22.829594
#
# number of rings (size 3 to 8) (size 9 to 14) (size 15 to 20)
#    0.000    1.143    1.429    6.857    2.000    3.429 
#    0.000    0.000    0.000    5.143    0.000    0.000 
#    0.000    0.000    0.000    0.000    0.000    0.000 
#
# Total GULP energy -173463.083469 kJ/mol
# GULP energy per Si atom -12390.220248 kJ/mol
# Density = 2.277763 g / cm^3
# Si number density = 22.829594 Si / 1000 Ang^3
#
#
#
# Elastic Constant Matrix: (Units=GPa)
#
#
# Indices 1 2 3 4 5 6 
#
# 1 110.4661 47.5912 52.9674 0.0000 -30.4821 0.0000
# 2 47.5912 135.3528 47.2790 0.0000 -11.2206 0.0000
# 3 52.9674 47.2790 97.3930 0.0000 -47.4202 0.0000
# 4 0.0000 0.0000 0.0000 31.1211 0.0000 -3.9131
# 5 -30.4821 -11.2206 -47.4202 0.0000 49.5369 0.0000
# 6 0.0000 0.0000 0.0000 -3.9131 0.0000 38.1487
#
#
#
# Elastic Compliance Matrix: (Units=1/GPa)
#
#
# Indices 1 2 3 4 5 6 
#
# 1 0.013251 -0.002965 -0.003979 0.000000 0.003674 0.000000
# 2 -0.002965 0.009997 -0.005668 0.000000 -0.004986 0.000000
# 3 -0.003979 -0.005668 0.025034 0.000000 0.020232 0.000000
# 4 0.000000 0.000000 0.000000 0.032552 0.000000 0.003339
# 5 0.003674 -0.004986 0.020232 0.000000 0.040686 0.000000
# 6 0.000000 0.000000 0.000000 0.003339 0.000000 0.026556
#
#
# Mechanical properties :
#
#
# Convention : Reuss Voigt Hill
#
# Bulk Modulus (GPa) = 43.36733 70.98746 57.17739
# Shear Modulus (GPa) = 27.62628 36.78629 32.20629
#
# Velocity S-wave (km/s) = 3.48243 4.01851 3.76004
# Velocity P-wave (km/s) = 5.93356 7.25901 6.62949
#
# Compressibility (1/GPa) = 0.02305883
#
# Stress axis : x y z
#
# Youngs Moduli (GPa) = 75.46343 100.02776 39.94552
#
# Poissons Ratio (x) = 0.29658 0.15893
# Poissons Ratio (y) = 0.22375 0.22642
# Poissons Ratio (z) = 0.30024 0.56699
#
# Static dielectric constant tensor:
#      x y z
#    x 4.201900 0.000000 -0.708430 
#    y 0.000000 4.045530 0.000000 
#    z -0.708430 0.000000 4.714050 
# 
# 
# High freq. dielectric constant tensor:
#      x y z
#    x 1.886120 0.000000 -0.044950 
#    y 0.000000 1.895960 0.000000 
#    z -0.044950 0.000000 1.896750 
# 
# From -- ./inp_files/2003.got.cif
#   From: 2010.06.25/outbox.cif.g09.slc.cpg/sg9_2_cif.got.tgz:2003.got - 2010.06.27 21:40:51.
