data_PCOD8054684
_publ_section_title
;
Structure prediction by ZEFSAII (Michael W. Deem and Ramdas Pophale) SiO2 
 PCOD8054684
Probable space group: C C
;
_chemical_formula_sum "Si O2"
_cell_formula_units_Z 32
_cell_length_a 18.682326
_cell_length_b 8.506071
_cell_length_c 9.748721
_cell_angle_alpha 90.000000
_cell_angle_beta 103.167993
_cell_angle_gamma 90.000000
_cell_volume 1508.466178
_symmetry_space_group_name_H-M "C C"
_symmetry_group_IT_number 9
_symmetry_cell_setting 'monoclinic'
loop_
_space_group_symop_operation_xyz
x,y,z
x,-y,1/2+z
1/2+x,1/2+y,z
1/2+x,1/2-y,1/2+z
loop_
_atom_site_type_symbol
_atom_site_label
_atom_site_fract_x
_atom_site_fract_y
_atom_site_fract_z
Si Si1 0.049540 0.106218 0.995640
Si Si2 0.660135 0.873343 0.420724
Si Si3 0.419220 0.173066 0.382054
Si Si4 0.190840 0.727193 0.467335
Si Si5 0.024097 0.173066 0.287649
Si Si6 0.283182 0.626656 0.748977
Si Si7 0.893776 0.606217 0.674062
Si Si8 0.252476 0.727196 0.202368
O O1 0.999442 0.250506 0.923699
O O2 0.024813 0.945525 0.914326
O O3 0.133624 0.143021 0.994101
O O4 0.042001 0.080451 0.155230
O O5 0.582530 0.812081 0.333960
O O6 0.721658 0.840297 0.334850
O O7 0.683249 0.782894 0.569355
O O8 0.650864 0.058428 0.443475
O O9 0.360786 0.312078 0.335740
O O10 0.401314 0.080451 0.514471
O O11 0.418504 0.054477 0.255376
O O12 0.260069 0.717100 0.600343
O O13 0.221656 0.782671 0.334851
O O14 0.943873 0.249495 0.246003
O O15 0.292451 0.441570 0.726231
O O16 0.809693 0.643014 0.675604
#
# Coordination Sequence:
#
# PCOD8054684 Si02
#       8
#     4   4   4   4   4   4   4   4
#     4  11  25  44  62  92 124 164 206 256 308 363
#     4  10  20  41  64  92 126 164 202 251 305 362
#     4  11  25  43  65  89 126 161 208 257 307 366
#     4  10  22  39  66  94 125 164 205 246 305 367
#     4  11  25  43  65  89 126 161 208 257 307 366
#     4  10  20  41  64  92 126 164 202 251 305 362
#     4  11  25  44  62  92 124 164 206 256 308 363
#     4  10  22  39  66  94 125 164 205 246 305 367
#
# _framework density 21.213601000000001
#
# number of rings (size 3 to 8) (size 9 to 14) (size 15 to 20)
#    0.000    1.500    2.500    1.500    3.500    3.000 
#    0.000    0.000    0.000    0.000    0.000    0.000 
#    0.000    0.000    0.000    0.000    0.000    0.000 
#
# Total GULP energy -198520.349709 kJ/mol
# GULP energy per Si atom -12407.521857 kJ/mol
# Density = 2.116532 g / cm^3
# Si number density = 21.213601 Si / 1000 Ang^3
#
#
#
# Elastic Constant Matrix: (Units=GPa)
#
#
# Indices 1 2 3 4 5 6 
#
# 1 59.6576 -3.8941 2.6648 0.0000 2.2456 0.0000
# 2 -3.8941 39.6280 7.2477 0.0000 2.8586 0.0000
# 3 2.6648 7.2477 84.8792 0.0000 9.8437 0.0000
# 4 0.0000 0.0000 0.0000 29.4015 0.0000 15.1172
# 5 2.2456 2.8586 9.8437 0.0000 24.7917 0.0000
# 6 0.0000 0.0000 0.0000 15.1172 0.0000 16.3802
#
#
#
# Elastic Compliance Matrix: (Units=1/GPa)
#
#
# Indices 1 2 3 4 5 6 
#
# 1 0.016966 0.001873 -0.000513 0.000000 -0.001549 0.000000
# 2 0.001873 0.025955 -0.002000 0.000000 -0.002368 0.000000
# 3 -0.000513 -0.002000 0.012512 0.000000 -0.004691 0.000000
# 4 0.000000 0.000000 0.000000 0.064725 0.000000 -0.059735
# 5 -0.001549 -0.002368 -0.004691 0.000000 0.042612 0.000000
# 6 0.000000 0.000000 0.000000 -0.059735 0.000000 0.116178
#
#
# Mechanical properties :
#
#
# Convention : Reuss Voigt Hill
#
# Bulk Modulus (GPa) = 18.46647 21.80021 20.13334
# Shear Modulus (GPa) = 16.76272 25.99110 21.37691
#
# Velocity S-wave (km/s) = 2.81408 3.50410 3.17787
# Velocity P-wave (km/s) = 4.39120 5.16434 4.79338
#
# Compressibility (1/GPa) = 0.05415221
#
# Stress axis : x y z
#
# Youngs Moduli (GPa) = 58.94221 38.52765 79.92076
#
# Poissons Ratio (x) = -0.07215 0.04099
# Poissons Ratio (y) = -0.11038 0.15988
# Poissons Ratio (z) = 0.03023 0.07707
#
# Static dielectric constant tensor:
#      x y z
#    x 3.724370 0.000000 0.095970 
#    y 0.000000 3.556250 0.000000 
#    z 0.095970 0.000000 4.071290 
# 
# 
# High freq. dielectric constant tensor:
#      x y z
#    x 1.830640 0.000000 0.005270 
#    y 0.000000 1.819370 0.000000 
#    z 0.005270 0.000000 1.848910 
# 
# From -- ./inp_files/11356.got.cif
#   From: 2010.06.25/outbox.cif.g09.slc.cpg/sg9_6_cif.got.tgz:11356.got - 2010.06.27 21:40:51.
