data_PCOD8054326
_publ_section_title
;
Structure prediction by ZEFSAII (Michael W. Deem and Ramdas Pophale) SiO2 
 PCOD8054326
Probable space group: C C
;
_chemical_formula_sum "Si O2"
_cell_formula_units_Z 32
_cell_length_a 16.320139
_cell_length_b 7.063397
_cell_length_c 27.645073
_cell_angle_alpha 90.000000
_cell_angle_beta 33.199469
_cell_angle_gamma 90.000000
_cell_volume 1744.951385
_symmetry_space_group_name_H-M "C C"
_symmetry_group_IT_number 9
_symmetry_cell_setting 'monoclinic'
loop_
_space_group_symop_operation_xyz
x,y,z
x,-y,1/2+z
1/2+x,1/2+y,z
1/2+x,1/2-y,1/2+z
loop_
_atom_site_type_symbol
_atom_site_label
_atom_site_fract_x
_atom_site_fract_y
_atom_site_fract_z
Si Si1 0.537920 0.779308 0.172190
Si Si2 0.683618 0.009763 0.766924
Si Si3 0.021843 0.976901 0.100158
Si Si4 0.685249 0.750981 0.955504
Si Si5 0.529190 0.696173 0.284264
Si Si6 0.694341 0.247675 0.342635
Si Si7 0.660030 0.077362 0.041275
Si Si8 0.500427 0.663102 0.855171
O O1 0.564643 0.588994 0.128036
O O2 0.595695 0.737884 0.198190
O O3 0.362175 0.830292 0.259568
O O4 0.630910 0.956883 0.104712
O O5 0.628086 0.214364 0.778371
O O6 0.853452 0.982110 0.665348
O O7 0.687300 0.966872 0.823158
O O8 0.563720 0.861716 0.802728
O O9 0.046368 0.753265 0.095570
O O10 0.124196 0.054921 0.006629
O O11 0.628032 0.768891 0.928867
O O12 0.862046 0.728511 0.870904
O O13 0.626634 0.935537 0.013195
O O14 0.531649 0.475088 0.294993
O O15 0.593962 0.385604 0.358192
O O16 0.826943 0.162020 0.956299
#
# Coordination Sequence:
#
# PCOD8054326 Si02
#       8
#     4   4   4   4   4   4   4   4
#     4   9  20  36  55  81 112 142 185 225 273 326
#     4   9  20  34  55  80 110 142 188 221 273 325
#     4  10  20  35  55  79 112 144 180 231 277 322
#     4   9  19  37  54  78 112 142 184 224 277 325
#     4  10  19  35  58  79 108 149 181 225 275 329
#     4   8  18  38  54  75 112 146 174 231 268 321
#     4  10  20  35  58  82 109 146 185 228 276 327
#     4   9  20  36  57  78 113 145 181 227 275 321
#
# _framework density 18.338621
#
# number of rings (size 3 to 8) (size 9 to 14) (size 15 to 20)
#    0.750    2.000    0.000    0.750    1.750    2.000 
#    2.250    3.750    0.000    0.000    0.000    0.000 
#    0.000    0.000    0.000    0.000    0.000    0.000 
#
# Total GULP energy -198230.172869 kJ/mol
# GULP energy per Si atom -12389.385804 kJ/mol
# Density = 1.829688 g / cm^3
# Si number density = 18.338621 Si / 1000 Ang^3
#
#
#
# Elastic Constant Matrix: (Units=GPa)
#
#
# Indices 1 2 3 4 5 6 
#
# 1 79.7163 20.4385 33.4353 -0.0033 12.8430 -0.0275
# 2 20.4385 79.4003 41.3606 0.0176 5.9964 -0.0193
# 3 33.4353 41.3606 81.6435 -0.0066 15.3008 0.0018
# 4 -0.0033 0.0176 -0.0066 24.7812 0.0023 -4.9488
# 5 12.8430 5.9964 15.3008 0.0023 30.4564 0.0024
# 6 -0.0275 -0.0193 0.0018 -4.9488 0.0024 22.7701
#
#
#
# Elastic Compliance Matrix: (Units=1/GPa)
#
#
# Indices 1 2 3 4 5 6 
#
# 1 0.015578 -0.001046 -0.005141 0.000006 -0.003780 0.000020
# 2 -0.001046 0.017213 -0.008543 -0.000013 0.001344 0.000011
# 3 -0.005141 -0.008543 0.019827 0.000009 -0.006111 -0.000012
# 4 0.000006 -0.000013 0.000009 0.042184 -0.000008 0.009168
# 5 -0.003780 0.001344 -0.006111 -0.000008 0.037233 -0.000009
# 6 0.000020 0.000011 -0.000012 0.009168 -0.000009 0.045910
#
#
# Mechanical properties :
#
#
# Convention : Reuss Voigt Hill
#
# Bulk Modulus (GPa) = 43.18517 47.91433 45.54975
# Shear Modulus (GPa) = 23.24229 25.30326 24.27277
#
# Velocity S-wave (km/s) = 3.56391 3.71857 3.64206
# Velocity P-wave (km/s) = 6.36672 6.67992 6.52520
#
# Compressibility (1/GPa) = 0.02315610
#
# Stress axis : x y z
#
# Youngs Moduli (GPa) = 64.19246 58.09710 50.43611
#
# Poissons Ratio (x) = 0.06079 0.25930
# Poissons Ratio (y) = 0.06717 0.43089
# Poissons Ratio (z) = 0.33002 0.49634
#
# Static dielectric constant tensor:
#      x y z
#    x 3.325550 0.000000 0.051870 
#    y 0.000000 3.155720 0.000000 
#    z 0.051870 0.000000 3.393720 
# 
# 
# High freq. dielectric constant tensor:
#      x y z
#    x 1.700250 0.000000 -0.001710 
#    y 0.000000 1.696470 0.000000 
#    z -0.001710 0.000000 1.712480 
# 
# From -- ./inp_files/33921.got.cif
#   From: 2010.06.25/outbox.cif.g09.slc.cpg/sg9_17_cif.got.tgz:33921.got - 2010.06.27 21:40:51.
