data_PCOD8054749
_publ_section_title
;
Structure prediction by ZEFSAII (Michael W. Deem and Ramdas Pophale) SiO2 
 PCOD8054749
Probable space group: C C
;
_chemical_formula_sum "Si O2"
_cell_formula_units_Z 32
_cell_length_a 9.175972
_cell_length_b 11.041029
_cell_length_c 16.813178
_cell_angle_alpha 90.000000
_cell_angle_beta 60.664688
_cell_angle_gamma 90.000000
_cell_volume 1484.950965
_symmetry_space_group_name_H-M "C C"
_symmetry_group_IT_number 9
_symmetry_cell_setting 'monoclinic'
loop_
_space_group_symop_operation_xyz
x,y,z
x,-y,1/2+z
1/2+x,1/2+y,z
1/2+x,1/2-y,1/2+z
loop_
_atom_site_type_symbol
_atom_site_label
_atom_site_fract_x
_atom_site_fract_y
_atom_site_fract_z
Si Si1 0.458950 0.187306 0.697870
Si Si2 0.964734 0.642351 0.242943
Si Si3 0.316112 0.579778 0.189675
Si Si4 0.243356 0.049524 0.872597
Si Si5 0.031693 0.502793 0.067516
Si Si6 0.389492 0.544716 0.505997
Si Si7 0.413117 0.822594 0.465490
Si Si8 0.210865 0.342205 0.270865
O O1 0.454166 0.332458 0.690200
O O2 0.291554 0.137315 0.786370
O O3 0.624945 0.162197 0.706384
O O4 0.479369 0.136779 0.600984
O O5 0.863292 0.569873 0.339103
O O6 0.876713 0.763433 0.236622
O O7 0.155744 0.667216 0.216959
O O8 0.973870 0.553580 0.166959
O O9 0.266111 0.480888 0.269318
O O10 0.390351 0.507508 0.094720
O O11 0.268318 0.126594 0.946809
O O12 0.053255 0.003399 0.916410
O O13 0.231484 0.509950 0.999894
O O14 0.934463 0.571831 0.024907
O O15 0.373517 0.691580 0.513982
O O16 0.582474 0.801746 0.372005
#
# Coordination Sequence:
#
# PCOD8054749 Si02
#       8
#     4   4   4   4   4   4   4   4
#     4  10  23  46  64  91 132 172 213 262 320 386
#     4  10  20  44  65  87 128 164 209 261 313 381
#     4  11  23  43  64  94 126 169 215 262 316 385
#     4  10  22  44  65  92 129 167 212 265 318 377
#     4  10  23  42  62  93 130 164 210 267 316 377
#     4  11  23  42  65  95 128 166 216 267 319 376
#     4  11  23  41  67  95 130 168 209 271 320 370
#     4  11  21  44  68  89 129 170 212 263 316 384
#
# _framework density 21.549531000000002
#
# number of rings (size 3 to 8) (size 9 to 14) (size 15 to 20)
#    0.000    1.500    6.250    0.750    1.750    3.000 
#   11.250    0.000    0.000    0.000    0.000    0.000 
#    0.000    0.000    0.000    0.000    0.000    0.000 
#
# Total GULP energy -198273.644353 kJ/mol
# GULP energy per Si atom -12392.102772 kJ/mol
# Density = 2.150048 g / cm^3
# Si number density = 21.549531 Si / 1000 Ang^3
#
#
#
# Elastic Constant Matrix: (Units=GPa)
#
#
# Indices 1 2 3 4 5 6 
#
# 1 55.3047 55.4147 36.0162 0.0000 -4.6512 0.0000
# 2 55.4147 141.6372 29.7979 0.0000 1.8114 0.0000
# 3 36.0162 29.7979 73.9614 0.0000 -7.9771 0.0000
# 4 0.0000 0.0000 0.0000 33.6255 0.0000 -2.9302
# 5 -4.6512 1.8114 -7.9771 0.0000 22.9655 0.0000
# 6 0.0000 0.0000 0.0000 -2.9302 0.0000 40.5850
#
#
#
# Elastic Compliance Matrix: (Units=1/GPa)
#
#
# Indices 1 2 3 4 5 6 
#
# 1 0.040639 -0.012993 -0.014085 0.000000 0.004363 0.000000
# 2 -0.012993 0.011937 0.001177 0.000000 -0.003164 0.000000
# 3 -0.014085 0.001177 0.020350 0.000000 0.004123 0.000000
# 4 0.000000 0.000000 0.000000 0.029928 0.000000 0.002161
# 5 0.004363 -0.003164 0.004123 0.000000 0.046109 0.000000
# 6 0.000000 0.000000 0.000000 0.002161 0.000000 0.024796
#
#
# Mechanical properties :
#
#
# Convention : Reuss Voigt Hill
#
# Bulk Modulus (GPa) = 47.33846 57.04010 52.18928
# Shear Modulus (GPa) = 21.49604 29.41349 25.45477
#
# Velocity S-wave (km/s) = 3.16178 3.69850 3.44062
# Velocity P-wave (km/s) = 5.94509 6.69069 6.32888
#
# Compressibility (1/GPa) = 0.02112447
#
# Stress axis : x y z
#
# Youngs Moduli (GPa) = 24.60666 83.77660 49.14026
#
# Poissons Ratio (x) = 1.08847 0.69212
# Poissons Ratio (y) = 0.31970 -0.05782
# Poissons Ratio (z) = 0.34658 -0.09857
#
# Static dielectric constant tensor:
#      x y z
#    x 3.740670 0.000000 -0.129140 
#    y 0.000000 4.200730 0.000000 
#    z -0.129140 0.000000 3.922750 
# 
# 
# High freq. dielectric constant tensor:
#      x y z
#    x 1.824250 0.000000 -0.019050 
#    y 0.000000 1.852830 0.000000 
#    z -0.019050 0.000000 1.847130 
# 
# From -- ./inp_files/29252.got.cif
#   From: 2010.06.25/outbox.cif.g09.slc.cpg/sg9_15_cif.got.tgz:29252.got - 2010.06.27 21:40:51.
