data_PCOD8054225
_publ_section_title
;
Structure prediction by ZEFSAII (Michael W. Deem and Ramdas Pophale) SiO2 
 PCOD8054225
Probable space group: C C
;
_chemical_formula_sum "Si O2"
_cell_formula_units_Z 32
_cell_length_a 10.680855
_cell_length_b 18.581022
_cell_length_c 8.618420
_cell_angle_alpha 90.000000
_cell_angle_beta 115.872594
_cell_angle_gamma 90.000000
_cell_volume 1538.980595
_symmetry_space_group_name_H-M "C C"
_symmetry_group_IT_number 9
_symmetry_cell_setting 'monoclinic'
loop_
_space_group_symop_operation_xyz
x,y,z
x,-y,1/2+z
1/2+x,1/2+y,z
1/2+x,1/2-y,1/2+z
loop_
_atom_site_type_symbol
_atom_site_label
_atom_site_fract_x
_atom_site_fract_y
_atom_site_fract_z
Si Si1 0.698290 0.267520 0.385280
Si Si2 0.604865 0.559720 0.289695
Si Si3 0.888986 0.947882 0.932266
Si Si4 0.188279 0.648409 0.152316
Si Si5 0.784250 0.521966 0.645634
Si Si6 0.884241 0.400648 0.478958
Si Si7 0.372116 0.392953 0.489890
Si Si8 0.903583 0.825841 0.183357
O O1 0.735481 0.224557 0.248684
O O2 0.753615 0.348003 0.405270
O O3 0.771140 0.223937 0.565700
O O4 0.530905 0.274350 0.305404
O O5 0.492956 0.528517 0.350945
O O6 0.735009 0.575525 0.477135
O O7 0.653182 0.501928 0.185030
O O8 0.525375 0.624843 0.154125
O O9 0.746011 0.918867 0.781135
O O10 0.947628 0.883148 0.073939
O O11 0.855209 0.020805 0.006849
O O12 0.248207 0.647580 0.011166
O O13 0.022702 0.645143 0.071407
O O14 0.861155 0.453798 0.611309
O O15 0.894346 0.560225 0.817168
O O16 0.356809 0.371640 0.305364
#
# Coordination Sequence:
#
# PCOD8054225 Si02
#       8
#     4   4   4   4   4   4   4   4
#     4  11  23  45  66  87 131 179 214 254 323 393
#     4  10  18  34  57  98 124 153 207 250 332 364
#     4  10  21  37  68  96 127 162 208 277 323 368
#     4  10  24  42  60  94 127 176 212 252 329 389
#     4  10  22  36  64 100 124 162 204 271 326 383
#     4  11  23  44  65  92 133 165 216 262 329 386
#     4  11  22  39  66  98 124 160 221 276 314 378
#     4  11  23  43  68  95 128 175 216 264 320 387
#
# _framework density 20.792985000000002
#
# number of rings (size 3 to 8) (size 9 to 14) (size 15 to 20)
#    0.000    1.500    2.500    3.000    5.250    0.000 
#    2.250    3.750    0.000    0.000    0.000    0.000 
#    0.000    0.000    0.000    0.000    0.000    0.000 
#
# Total GULP energy -198213.604413 kJ/mol
# GULP energy per Si atom -12388.350276 kJ/mol
# Density = 2.074566 g / cm^3
# Si number density = 20.792985 Si / 1000 Ang^3
#
#
#
# Elastic Constant Matrix: (Units=GPa)
#
#
# Indices 1 2 3 4 5 6 
#
# 1 57.2303 12.6028 35.4741 0.0000 5.1968 0.0000
# 2 12.6028 79.3956 38.7908 0.0000 -3.5223 0.0000
# 3 35.4741 38.7908 131.1587 0.0000 -7.7081 0.0000
# 4 0.0000 0.0000 0.0000 30.1556 0.0000 3.2634
# 5 5.1968 -3.5223 -7.7081 0.0000 30.6204 0.0000
# 6 0.0000 0.0000 0.0000 3.2634 0.0000 20.0844
#
#
#
# Elastic Compliance Matrix: (Units=1/GPa)
#
#
# Indices 1 2 3 4 5 6 
#
# 1 0.021838 -0.000776 -0.005989 0.000000 -0.005303 0.000000
# 2 -0.000776 0.014761 -0.004109 0.000000 0.000795 0.000000
# 3 -0.005989 -0.004109 0.010649 0.000000 0.003224 0.000000
# 4 0.000000 0.000000 0.000000 0.033755 0.000000 -0.005485
# 5 -0.005303 0.000795 0.003224 0.000000 0.034461 0.000000
# 6 0.000000 0.000000 0.000000 -0.005485 0.000000 0.050681
#
#
# Mechanical properties :
#
#
# Convention : Reuss Voigt Hill
#
# Bulk Modulus (GPa) = 39.21453 49.05776 44.13615
# Shear Modulus (GPa) = 25.45929 28.23321 26.84625
#
# Velocity S-wave (km/s) = 3.50296 3.68886 3.59711
# Velocity P-wave (km/s) = 5.93814 6.46438 6.20684
#
# Compressibility (1/GPa) = 0.02550075
#
# Stress axis : x y z
#
# Youngs Moduli (GPa) = 45.79249 67.74512 93.90685
#
# Poissons Ratio (x) = 0.05255 0.56237
# Poissons Ratio (y) = 0.03552 0.38588
# Poissons Ratio (z) = 0.27423 0.27837
#
# Static dielectric constant tensor:
#      x y z
#    x 3.526370 0.000000 0.057740 
#    y 0.000000 3.555840 0.000000 
#    z 0.057740 0.000000 4.200360 
# 
# 
# High freq. dielectric constant tensor:
#      x y z
#    x 1.792710 0.000000 0.001580 
#    y 0.000000 1.786930 0.000000 
#    z 0.001580 0.000000 1.842800 
# 
# From -- ./inp_files/8036.got.cif
#   From: 2010.06.25/outbox.cif.g09.slc.cpg/sg9_5_cif.got.tgz:8036.got - 2010.06.27 21:40:51.
