data_PCOD8054649
_publ_section_title
;
Structure prediction by ZEFSAII (Michael W. Deem and Ramdas Pophale) SiO2 
 PCOD8054649
Probable space group: C C
;
_chemical_formula_sum "Si O2"
_cell_formula_units_Z 32
_cell_length_a 17.684170
_cell_length_b 8.569226
_cell_length_c 21.150057
_cell_angle_alpha 90.000000
_cell_angle_beta 27.267879
_cell_angle_gamma 90.000000
_cell_volume 1468.408032
_symmetry_space_group_name_H-M "C C"
_symmetry_group_IT_number 9
_symmetry_cell_setting 'monoclinic'
loop_
_space_group_symop_operation_xyz
x,y,z
x,-y,1/2+z
1/2+x,1/2+y,z
1/2+x,1/2-y,1/2+z
loop_
_atom_site_type_symbol
_atom_site_label
_atom_site_fract_x
_atom_site_fract_y
_atom_site_fract_z
Si Si1 0.777460 0.905375 0.490260
Si Si2 0.645155 0.079756 0.955337
Si Si3 0.584205 0.413400 0.942815
Si Si4 0.826246 0.609911 0.684526
Si Si5 0.347126 0.550750 0.209811
Si Si6 0.116641 0.245597 0.727152
Si Si7 0.322215 0.316754 0.042952
Si Si8 0.577512 0.927558 0.316914
O O1 0.649227 0.897558 0.527555
O O2 0.717909 0.784895 0.588510
O O3 0.957647 0.858654 0.330748
O O4 0.780727 0.084800 0.511052
O O5 0.507220 0.955223 0.035402
O O6 0.611810 0.240422 0.945256
O O7 0.822474 0.009974 0.799944
O O8 0.745494 0.480379 0.789694
O O9 0.525336 0.513630 0.047180
O O10 0.444660 0.425533 0.992818
O O11 0.827598 0.764988 0.724957
O O12 0.735503 0.649441 0.686074
O O13 0.201892 0.454440 0.282190
O O14 0.046333 0.406883 0.807622
O O15 0.157305 0.300875 0.208442
O O16 0.403024 0.147942 0.968576
#
# Coordination Sequence:
#
# PCOD8054649 Si02
#       8
#     4   4   4   4   4   4   4   4
#     4  11  26  44  65 100 139 176 222 282 352 402
#     4  12  26  42  68 102 137 173 228 289 347 402
#     4  11  22  39  67  99 129 172 229 279 332 405
#     4  11  24  43  72  95 131 183 233 280 334 417
#     4  10  22  40  65  97 131 175 229 277 336 400
#     4  10  24  44  69  94 133 183 228 271 338 415
#     4  10  20  40  61  94 130 167 219 273 322 400
#     4   9  20  36  65  95 124 167 228 271 315 391
#
# _framework density 21.792307000000001
#
# number of rings (size 3 to 8) (size 9 to 14) (size 15 to 20)
#    0.000    1.500    2.500    2.250    8.750    1.000 
#    4.500    1.250    0.000    0.000    0.000    0.000 
#    0.000    0.000    0.000    0.000    0.000    0.000 
#
# Total GULP energy -198356.409350 kJ/mol
# GULP energy per Si atom -12397.275584 kJ/mol
# Density = 2.174271 g / cm^3
# Si number density = 21.792307 Si / 1000 Ang^3
#
#
#
# Elastic Constant Matrix: (Units=GPa)
#
#
# Indices 1 2 3 4 5 6 
#
# 1 66.4359 54.2900 40.5654 0.0015 12.7145 -0.0002
# 2 54.2900 90.6692 26.5156 -0.0017 8.0894 0.0003
# 3 40.5654 26.5156 76.4655 -0.0022 15.1954 -0.0002
# 4 0.0015 -0.0017 -0.0022 43.1258 0.0003 11.7970
# 5 12.7145 8.0894 15.1954 0.0003 25.9391 0.0003
# 6 -0.0002 0.0003 -0.0002 11.7970 0.0003 17.5205
#
#
#
# Elastic Compliance Matrix: (Units=1/GPa)
#
#
# Indices 1 2 3 4 5 6 
#
# 1 0.040664 -0.019874 -0.013526 -0.000004 -0.005810 0.000003
# 2 -0.019874 0.022040 0.002638 0.000002 0.001323 -0.000002
# 3 -0.013526 0.002638 0.020581 0.000002 -0.006249 -0.000001
# 4 -0.000004 0.000002 0.000002 0.028423 0.000000 -0.019138
# 5 -0.005810 0.001323 -0.006249 0.000000 0.044648 -0.000001
# 6 0.000003 -0.000002 -0.000001 -0.019138 -0.000001 0.069962
#
#
# Mechanical properties :
#
#
# Convention : Reuss Voigt Hill
#
# Bulk Modulus (GPa) = 45.95756 52.92362 49.44059
# Shear Modulus (GPa) = 16.94365 24.79704 20.87034
#
# Velocity S-wave (km/s) = 2.79140 3.37691 3.09802
# Velocity P-wave (km/s) = 5.61462 6.28831 5.96099
#
# Compressibility (1/GPa) = 0.02175921
#
# Stress axis : x y z
#
# Youngs Moduli (GPa) = 24.59188 45.37261 48.58954
#
# Poissons Ratio (x) = 0.90175 0.65723
# Poissons Ratio (y) = 0.48875 -0.12817
# Poissons Ratio (z) = 0.33263 -0.11969
#
# Static dielectric constant tensor:
#      x y z
#    x 3.648480 0.000000 0.227690 
#    y 0.000000 3.786690 0.000010 
#    z 0.227690 0.000010 4.137920 
# 
# 
# High freq. dielectric constant tensor:
#      x y z
#    x 1.822870 0.000000 0.022470 
#    y 0.000000 1.859900 0.000000 
#    z 0.022470 0.000000 1.870060 
# 
# From -- ./inp_files/11354.got.cif
#   From: 2010.06.25/outbox.cif.g09.slc.cpg/sg9_6_cif.got.tgz:11354.got - 2010.06.27 21:40:51.
