data_PCOD8054533
_publ_section_title
;
Structure prediction by ZEFSAII (Michael W. Deem and Ramdas Pophale) SiO2 
 PCOD8054533
Probable space group: C C
;
_chemical_formula_sum "Si O2"
_cell_formula_units_Z 32
_cell_length_a 13.927702
_cell_length_b 20.802067
_cell_length_c 11.196494
_cell_angle_alpha 90.000000
_cell_angle_beta 150.808698
_cell_angle_gamma 90.000000
_cell_volume 1582.140064
_symmetry_space_group_name_H-M "C C"
_symmetry_group_IT_number 9
_symmetry_cell_setting 'monoclinic'
loop_
_space_group_symop_operation_xyz
x,y,z
x,-y,1/2+z
1/2+x,1/2+y,z
1/2+x,1/2-y,1/2+z
loop_
_atom_site_type_symbol
_atom_site_label
_atom_site_fract_x
_atom_site_fract_y
_atom_site_fract_z
Si Si1 0.233040 0.561528 0.925820
Si Si2 0.973382 0.434854 0.359075
Si Si3 0.593673 0.842912 0.087176
Si Si4 0.315213 0.432234 0.891196
Si Si5 0.387440 0.611880 0.726455
Si Si6 0.168506 0.802302 0.659439
Si Si7 0.649980 0.395169 0.846127
Si Si8 0.638529 0.505891 0.127476
O O1 0.124412 0.621807 0.746765
O O2 0.249451 0.504587 0.849229
O O3 0.113985 0.534274 0.909928
O O4 0.451237 0.585639 0.200966
O O5 0.841344 0.488156 0.281478
O O6 0.129725 0.400580 0.618524
O O7 0.824073 0.384986 0.132098
O O8 0.681178 0.885438 0.074094
O O9 0.699081 0.773394 0.205336
O O10 0.363540 0.834511 0.817724
O O11 0.352653 0.388519 0.047326
O O12 0.516671 0.441459 0.033416
O O13 0.501966 0.677444 0.883865
O O14 0.506522 0.548459 0.894444
O O15 0.115768 0.830472 0.733220
O O16 0.703856 0.453396 0.814148
#
# Coordination Sequence:
#
# PCOD8054533 Si02
#       8
#     4   4   4   4   4   4   4   4
#     4  11  22  38  58  90 127 155 203 252 309 366
#     4  12  22  33  58  84 121 165 204 233 302 369
#     4  12  21  41  65  98 118 153 204 267 318 352
#     4  11  23  37  54  86 128 169 192 243 297 378
#     4  11  23  39  61  90 129 159 203 256 307 367
#     4  11  22  38  67  93 120 154 204 263 319 354
#     4  10  20  37  55  87 122 157 195 257 300 359
#     4  10  21  37  54  86 125 160 201 249 302 361
#
# _framework density 20.225769
#
# number of rings (size 3 to 8) (size 9 to 14) (size 15 to 20)
#    0.000    1.000    6.250    3.750    1.750    1.000 
#    0.000    0.000    0.000    1.500    0.000    0.000 
#    0.000    0.000    0.000    0.000    0.000    0.000 
#
# Total GULP energy -198346.328184 kJ/mol
# GULP energy per Si atom -12396.645512 kJ/mol
# Density = 2.017973 g / cm^3
# Si number density = 20.225769 Si / 1000 Ang^3
#
#
#
# Elastic Constant Matrix: (Units=GPa)
#
#
# Indices 1 2 3 4 5 6 
#
# 1 129.6244 28.4582 43.3086 0.0000 17.2515 0.0000
# 2 28.4582 61.9069 21.2017 0.0000 -5.3567 0.0000
# 3 43.3086 21.2017 127.3805 0.0000 -12.0537 0.0000
# 4 0.0000 0.0000 0.0000 18.2554 0.0000 8.7602
# 5 17.2515 -5.3567 -12.0537 0.0000 42.3472 0.0000
# 6 0.0000 0.0000 0.0000 8.7602 0.0000 22.5960
#
#
#
# Elastic Compliance Matrix: (Units=1/GPa)
#
#
# Indices 1 2 3 4 5 6 
#
# 1 0.010555 -0.004175 -0.003443 0.000000 -0.005808 0.000000
# 2 -0.004175 0.018862 -0.001370 0.000000 0.003697 0.000000
# 3 -0.003443 -0.001370 0.009625 0.000000 0.003969 0.000000
# 4 0.000000 0.000000 0.000000 0.067299 0.000000 -0.026091
# 5 -0.005808 0.003697 0.003969 0.000000 0.027578 0.000000
# 6 0.000000 0.000000 0.000000 -0.026091 0.000000 0.054371
#
#
# Mechanical properties :
#
#
# Convention : Reuss Voigt Hill
#
# Bulk Modulus (GPa) = 47.47389 56.09431 51.78410
# Shear Modulus (GPa) = 23.44267 31.70261 27.57264
#
# Velocity S-wave (km/s) = 3.40817 3.96338 3.69622
# Velocity P-wave (km/s) = 6.24584 6.98132 6.62379
#
# Compressibility (1/GPa) = 0.02106421
#
# Stress axis : x y z
#
# Youngs Moduli (GPa) = 94.74551 53.01749 103.89878
#
# Poissons Ratio (x) = 0.22136 0.35774
# Poissons Ratio (y) = 0.39558 0.14235
# Poissons Ratio (z) = 0.32622 0.07264
#
# Static dielectric constant tensor:
#      x y z
#    x 3.846240 0.000000 0.225430 
#    y 0.000000 3.338970 0.000000 
#    z 0.225430 0.000000 3.877840 
# 
# 
# High freq. dielectric constant tensor:
#      x y z
#    x 1.797240 0.000000 0.022100 
#    y 0.000000 1.738380 0.000000 
#    z 0.022100 0.000000 1.803680 
# 
# From -- ./inp_files/18618.got.cif
#   From: 2010.06.25/outbox.cif.g09.slc.cpg/sg9_10_cif.got.tgz:18618.got - 2010.06.27 21:40:51.
