data_PCOD8054828
_publ_section_title
;
Structure prediction by ZEFSAII (Michael W. Deem and Ramdas Pophale) SiO2 
 PCOD8054828
Probable space group: C C
;
_chemical_formula_sum "Si O2"
_cell_formula_units_Z 32
_cell_length_a 11.246859
_cell_length_b 11.128578
_cell_length_c 13.052195
_cell_angle_alpha 90.000000
_cell_angle_beta 89.055515
_cell_angle_gamma 90.000000
_cell_volume 1633.410974
_symmetry_space_group_name_H-M "C C"
_symmetry_group_IT_number 9
_symmetry_cell_setting 'monoclinic'
loop_
_space_group_symop_operation_xyz
x,y,z
x,-y,1/2+z
1/2+x,1/2+y,z
1/2+x,1/2-y,1/2+z
loop_
_atom_site_type_symbol
_atom_site_label
_atom_site_fract_x
_atom_site_fract_y
_atom_site_fract_z
Si Si1 0.104160 0.907246 0.320260
Si Si2 0.023213 0.855433 0.920988
Si Si3 0.963823 0.204208 0.997773
Si Si4 0.741828 0.019803 0.739082
Si Si5 0.988503 0.016583 0.624312
Si Si6 0.769029 0.204527 0.364109
Si Si7 0.207263 0.352451 0.442060
Si Si8 0.628366 0.906940 0.039345
O O1 0.231394 0.840307 0.333309
O O2 0.006316 0.826160 0.381167
O O3 0.083716 0.921998 0.198782
O O4 0.100035 0.040860 0.365881
O O5 0.115213 0.752872 0.940255
O O6 0.911891 0.810625 0.853886
O O7 0.967017 0.897550 0.028363
O O8 0.821557 0.185776 0.008136
O O9 0.000543 0.340999 0.025921
O O10 0.026971 0.114266 0.079221
O O11 0.704934 0.890059 0.787206
O O12 0.867391 0.002092 0.685659
O O13 0.754937 0.115739 0.829317
O O14 0.648515 0.075108 0.660174
O O15 0.726080 0.177273 0.481224
O O16 0.132819 0.461424 0.490919
#
# Coordination Sequence:
#
# PCOD8054828 Si02
#       8
#     4   4   4   4   4   4   4   4
#     4  10  21  38  60  89 115 157 210 248 300 368
#     4  11  23  38  59  92 128 159 199 257 309 363
#     4  10  21  38  61  85 119 158 203 257 300 362
#     4  11  19  37  65  85 114 163 211 246 304 372
#     4  11  19  37  65  85 114 163 211 246 304 372
#     4  10  21  38  61  85 119 158 203 257 300 362
#     4  11  23  38  59  92 128 159 199 257 309 363
#     4  10  21  38  60  89 115 157 210 248 300 368
#
# _framework density 19.590906
#
# number of rings (size 3 to 8) (size 9 to 14) (size 15 to 20)
#    0.000    1.500    5.000    1.500    3.500    1.000 
#    0.000    0.000    0.000    1.500    0.000    0.000 
#    0.000    0.000    0.000    0.000    0.000    0.000 
#
# Total GULP energy -198315.518667 kJ/mol
# GULP energy per Si atom -12394.719917 kJ/mol
# Density = 1.954632 g / cm^3
# Si number density = 19.590906 Si / 1000 Ang^3
#
#
#
# Elastic Constant Matrix: (Units=GPa)
#
#
# Indices 1 2 3 4 5 6 
#
# 1 73.0879 68.5407 25.5812 0.0000 12.4173 0.0000
# 2 68.5407 111.3323 23.9472 0.0000 19.9181 0.0000
# 3 25.5812 23.9472 95.9305 0.0000 16.8478 0.0000
# 4 0.0000 0.0000 0.0000 23.3176 0.0000 2.2010
# 5 12.4173 19.9181 16.8478 0.0000 28.3352 0.0000
# 6 0.0000 0.0000 0.0000 2.2010 0.0000 34.0865
#
#
#
# Elastic Compliance Matrix: (Units=1/GPa)
#
#
# Indices 1 2 3 4 5 6 
#
# 1 0.033877 -0.020281 -0.004318 0.000000 0.001978 0.000000
# 2 -0.020281 0.022599 0.001112 0.000000 -0.007659 0.000000
# 3 -0.004318 0.001112 0.012398 0.000000 -0.006261 0.000000
# 4 0.000000 0.000000 0.000000 0.043149 0.000000 -0.002786
# 5 0.001978 -0.007659 -0.006261 0.000000 0.043532 0.000000
# 6 0.000000 0.000000 0.000000 -0.002786 0.000000 0.029517
#
#
# Mechanical properties :
#
#
# Convention : Reuss Voigt Hill
#
# Bulk Modulus (GPa) = 45.66480 57.38767 51.52623
# Shear Modulus (GPa) = 20.89034 27.96664 24.42849
#
# Velocity S-wave (km/s) = 3.26901 3.78237 3.53502
# Velocity P-wave (km/s) = 6.13257 6.95929 6.55896
#
# Compressibility (1/GPa) = 0.02189871
#
# Stress axis : x y z
#
# Youngs Moduli (GPa) = 29.51892 44.24979 80.65984
#
# Poissons Ratio (x) = 0.89742 0.34832
# Poissons Ratio (y) = 0.59867 -0.08969
# Poissons Ratio (z) = 0.12747 -0.04920
#
# Static dielectric constant tensor:
#      x y z
#    x 3.639520 0.000000 -0.068970 
#    y 0.000000 3.660270 0.000000 
#    z -0.068970 0.000000 4.361160 
# 
# 
# High freq. dielectric constant tensor:
#      x y z
#    x 1.732800 0.000000 -0.000160 
#    y 0.000000 1.758760 0.000000 
#    z -0.000160 0.000000 1.774740 
# 
# From -- ./inp_files/16179.got.cif
#   From: 2010.06.25/outbox.cif.g09.slc.cpg/sg9_9_cif.got.tgz:16179.got - 2010.06.27 21:40:51.
