data_PCOD8054711
_publ_section_title
;
Structure prediction by ZEFSAII (Michael W. Deem and Ramdas Pophale) SiO2 
 PCOD8054711
Probable space group: C C
;
_chemical_formula_sum "Si O2"
_cell_formula_units_Z 24
_cell_length_a 28.646613
_cell_length_b 8.262758
_cell_length_c 9.799027
_cell_angle_alpha 90.000000
_cell_angle_beta 30.668403
_cell_angle_gamma 90.000000
_cell_volume 1183.068539
_symmetry_space_group_name_H-M "C C"
_symmetry_group_IT_number 9
_symmetry_cell_setting 'monoclinic'
loop_
_space_group_symop_operation_xyz
x,y,z
x,-y,1/2+z
1/2+x,1/2+y,z
1/2+x,1/2-y,1/2+z
loop_
_atom_site_type_symbol
_atom_site_label
_atom_site_fract_x
_atom_site_fract_y
_atom_site_fract_z
Si Si1 0.782470 0.192239 0.343690
Si Si2 0.925057 0.413245 0.859381
Si Si3 0.777566 0.819770 0.391939
Si Si4 0.472325 0.161261 0.954478
Si Si5 0.258270 0.873124 0.682416
Si Si6 0.656192 0.690394 0.934068
O O1 0.761314 0.309015 0.522336
O O2 0.698750 0.205379 0.449843
O O3 0.793151 0.010048 0.367344
O O4 0.876415 0.250090 0.035669
O O5 0.980040 0.497409 0.844822
O O6 0.993007 0.372667 0.562804
O O7 0.851425 0.535592 0.982082
O O8 0.746295 0.775000 0.317376
O O9 0.697151 0.756773 0.690503
O O10 0.871171 0.733548 0.198617
O O11 0.547007 0.286682 0.709641
O O12 0.174602 0.999291 0.905539
#
# Coordination Sequence:
#
# PCOD8054711 Si02
#       6
#     4   4   4   4   4   4
#     4  11  21  41  67  91 127 167 212 268 317 374
#     4  10  20  42  66  90 127 167 208 257 325 376
#     4  11  23  42  63  94 127 164 219 262 315 380
#     4  11  23  42  66  93 126 169 211 259 321 384
#     4  10  20  42  67  87 124 173 207 262 320 370
#     4  11  23  41  63  91 127 170 215 258 318 378
#
# _framework density 20.28623
#
# number of rings (size 3 to 8) (size 9 to 14) (size 15 to 20)
#    0.000    1.333    5.000    3.000    2.333    0.000 
#    6.000    0.000    0.000    0.000    0.000    0.000 
#    0.000    0.000    0.000    0.000    0.000    0.000 
#
# Total GULP energy -148833.476558 kJ/mol
# GULP energy per Si atom -12402.789713 kJ/mol
# Density = 2.024006 g / cm^3
# Si number density = 20.286230 Si / 1000 Ang^3
#
#
#
# Elastic Constant Matrix: (Units=GPa)
#
#
# Indices 1 2 3 4 5 6 
#
# 1 49.1607 6.6266 34.8950 0.0000 22.3644 0.0000
# 2 6.6266 97.0143 26.6779 0.0000 2.5920 0.0000
# 3 34.8950 26.6779 129.2069 0.0000 11.0361 0.0000
# 4 0.0000 0.0000 0.0000 23.7490 0.0000 6.7693
# 5 22.3644 2.5920 11.0361 0.0000 27.1778 0.0000
# 6 0.0000 0.0000 0.0000 6.7693 0.0000 28.9438
#
#
#
# Elastic Compliance Matrix: (Units=1/GPa)
#
#
# Indices 1 2 3 4 5 6 
#
# 1 0.039358 0.000348 -0.008217 0.000000 -0.029084 0.000000
# 2 0.000348 0.010932 -0.002318 0.000000 -0.000388 0.000000
# 3 -0.008217 -0.002318 0.010195 0.000000 0.002843 0.000000
# 4 0.000000 0.000000 0.000000 0.045115 0.000000 -0.010551
# 5 -0.029084 -0.000388 0.002843 0.000000 0.059610 0.000000
# 6 0.000000 0.000000 0.000000 -0.010551 0.000000 0.037017
#
#
# Mechanical properties :
#
#
# Convention : Reuss Voigt Hill
#
# Bulk Modulus (GPa) = 24.93103 45.75345 35.34224
# Shear Modulus (GPa) = 21.18902 29.78627 25.48765
#
# Velocity S-wave (km/s) = 3.23538 3.83600 3.54842
# Velocity P-wave (km/s) = 5.12574 6.49790 5.85218
#
# Compressibility (1/GPa) = 0.04011066
#
# Stress axis : x y z
#
# Youngs Moduli (GPa) = 25.40756 91.47646 98.09185
#
# Poissons Ratio (x) = -0.03186 0.80605
# Poissons Ratio (y) = -0.00885 0.22738
# Poissons Ratio (z) = 0.20878 0.21205
#
# Static dielectric constant tensor:
#      x y z
#    x 3.721410 0.000000 0.337730 
#    y 0.000000 3.688620 0.000000 
#    z 0.337730 0.000000 3.668270 
# 
# 
# High freq. dielectric constant tensor:
#      x y z
#    x 1.788520 0.000000 0.027390 
#    y 0.000000 1.789810 0.000000 
#    z 0.027390 0.000000 1.791880 
# 
# From -- ./inp_files/8708.got.cif
#   From: 2010.06.25/outbox.cif.g09.slc.cpg/sg9_5_cif.got.tgz:8708.got - 2010.06.27 21:40:51.
