data_PCOD8054309
_publ_section_title
;
Structure prediction by ZEFSAII (Michael W. Deem and Ramdas Pophale) SiO2 
 PCOD8054309
Probable space group: C C
;
_chemical_formula_sum "Si O2"
_cell_formula_units_Z 32
_cell_length_a 19.705901
_cell_length_b 14.999858
_cell_length_c 13.007405
_cell_angle_alpha 90.000000
_cell_angle_beta 24.600795
_cell_angle_gamma 90.000000
_cell_volume 1600.566199
_symmetry_space_group_name_H-M "C C"
_symmetry_group_IT_number 9
_symmetry_cell_setting 'monoclinic'
loop_
_space_group_symop_operation_xyz
x,y,z
x,-y,1/2+z
1/2+x,1/2+y,z
1/2+x,1/2-y,1/2+z
loop_
_atom_site_type_symbol
_atom_site_label
_atom_site_fract_x
_atom_site_fract_y
_atom_site_fract_z
Si Si1 0.380030 0.595380 0.332580
Si Si2 0.344145 0.094704 0.212360
Si Si3 0.796057 0.867869 0.728788
Si Si4 0.953421 0.568741 0.668082
Si Si5 0.180838 0.804615 0.462811
Si Si6 0.049340 0.041561 0.746259
Si Si7 0.235854 0.085278 0.143363
Si Si8 0.113263 0.723936 0.767866
O O1 0.310616 0.573678 0.314189
O O2 0.445373 0.508841 0.301729
O O3 0.246973 0.644658 0.587714
O O4 0.531871 0.661558 0.098700
O O5 0.267217 0.050609 0.215327
O O6 0.194070 0.102100 0.499415
O O7 0.471462 0.028054 0.091777
O O8 0.442741 0.186451 0.051308
O O9 0.803450 0.762261 0.737744
O O10 0.934498 0.886849 0.456915
O O11 0.622014 0.883410 0.914754
O O12 0.789495 0.612109 0.846690
O O13 0.913508 0.573455 0.844840
O O14 0.091778 0.753297 0.679375
O O15 0.106417 0.972831 0.756636
O O16 0.173937 0.187530 0.243408
#
# Coordination Sequence:
#
# PCOD8054309 Si02
#       8
#     4   4   4   4   4   4   4   4
#     4  11  19  37  61  87 112 149 198 248 283 329
#     4  11  21  38  59  84 124 155 185 240 299 345
#     4  11  22  34  60  89 117 152 193 242 291 342
#     4  10  21  39  59  92 113 148 204 243 282 344
#     4  10  19  39  62  87 114 148 200 249 283 333
#     4  11  23  37  55  87 124 152 191 234 296 357
#     4  10  20  37  61  85 113 154 194 246 290 335
#     4  10  19  33  63  89 113 144 203 244 286 335
#
# _framework density 19.992925
#
# number of rings (size 3 to 8) (size 9 to 14) (size 15 to 20)
#    0.000    1.500    3.750    6.000    0.000    0.000 
#    0.000    2.500    0.000    0.000    0.000    0.000 
#    0.000    0.000    0.000    0.000    0.000    0.000 
#
# Total GULP energy -198252.775467 kJ/mol
# GULP energy per Si atom -12390.798467 kJ/mol
# Density = 1.994742 g / cm^3
# Si number density = 19.992925 Si / 1000 Ang^3
#
#
#
# Elastic Constant Matrix: (Units=GPa)
#
#
# Indices 1 2 3 4 5 6 
#
# 1 65.9278 13.7640 28.7409 -0.0002 1.7510 0.0001
# 2 13.7640 68.3098 43.1217 -0.0001 13.7895 0.0002
# 3 28.7409 43.1217 121.7036 0.0006 4.0739 0.0001
# 4 -0.0002 -0.0001 0.0006 37.9938 0.0002 1.8425
# 5 1.7510 13.7895 4.0739 0.0002 25.0635 -0.0002
# 6 0.0001 0.0002 0.0001 1.8425 -0.0002 13.3284
#
#
#
# Elastic Compliance Matrix: (Units=1/GPa)
#
#
# Indices 1 2 3 4 5 6 
#
# 1 0.016978 -0.001154 -0.003602 0.000000 0.000034 0.000000
# 2 -0.001154 0.021393 -0.006954 0.000000 -0.010559 0.000000
# 3 -0.003602 -0.006954 0.011457 0.000000 0.002215 0.000000
# 4 0.000000 0.000000 0.000000 0.026498 0.000000 -0.003663
# 5 0.000034 -0.010559 0.002215 0.000000 0.045346 0.000001
# 6 0.000000 0.000000 0.000000 -0.003663 0.000001 0.075534
#
#
# Mechanical properties :
#
#
# Convention : Reuss Voigt Hill
#
# Bulk Modulus (GPa) = 37.86649 47.46605 42.66627
# Shear Modulus (GPa) = 21.79328 26.63143 24.21236
#
# Velocity S-wave (km/s) = 3.30517 3.65368 3.48378
# Velocity P-wave (km/s) = 5.79194 6.44919 6.12938
#
# Compressibility (1/GPa) = 0.02640857
#
# Stress axis : x y z
#
# Youngs Moduli (GPa) = 58.89860 46.74409 87.28320
#
# Poissons Ratio (x) = 0.05396 0.31436
# Poissons Ratio (y) = 0.06799 0.60696
# Poissons Ratio (z) = 0.21213 0.32505
#
# Static dielectric constant tensor:
#      x y z
#    x 3.621590 0.000000 -0.017150 
#    y 0.000000 3.506390 0.000000 
#    z -0.017150 0.000000 3.729540 
# 
# 
# High freq. dielectric constant tensor:
#      x y z
#    x 1.776820 0.000000 -0.016040 
#    y 0.000000 1.759770 0.000000 
#    z -0.016040 0.000000 1.776430 
# 
# From -- ./inp_files/27815.got.cif
#   From: 2010.06.25/outbox.cif.g09.slc.cpg/sg9_14_cif.got.tgz:27815.got - 2010.06.27 21:40:51.
