data_PCOD8054186
_publ_section_title
;
Structure prediction by ZEFSAII (Michael W. Deem and Ramdas Pophale) SiO2 
 PCOD8054186
Probable space group: C C
;
_chemical_formula_sum "Si O2"
_cell_formula_units_Z 28
_cell_length_a 15.864989
_cell_length_b 11.905769
_cell_length_c 9.453230
_cell_angle_alpha 90.000000
_cell_angle_beta 51.154210
_cell_angle_gamma 90.000000
_cell_volume 1390.669709
_symmetry_space_group_name_H-M "C C"
_symmetry_group_IT_number 9
_symmetry_cell_setting 'monoclinic'
loop_
_space_group_symop_operation_xyz
x,y,z
x,-y,1/2+z
1/2+x,1/2+y,z
1/2+x,1/2-y,1/2+z
loop_
_atom_site_type_symbol
_atom_site_label
_atom_site_fract_x
_atom_site_fract_y
_atom_site_fract_z
Si Si1 0.971940 0.398817 0.396520
Si Si2 0.738124 0.813188 0.840058
Si Si3 0.889895 0.918902 0.888655
Si Si4 0.786931 0.737148 0.193493
Si Si5 0.582696 0.020357 0.056819
Si Si6 0.770823 0.848804 0.493630
Si Si7 0.102152 0.190562 0.192888
O O1 0.851914 0.374138 0.576996
O O2 0.979287 0.494077 0.267175
O O3 0.048968 0.427787 0.445210
O O4 0.013246 0.287362 0.277065
O O5 0.852068 0.855522 0.785221
O O6 0.758242 0.783586 0.655444
O O7 0.651126 0.910495 0.951073
O O8 0.690753 0.703176 0.972623
O O9 0.022336 0.917973 0.764581
O O10 0.856204 0.049533 0.921942
O O11 0.826279 0.855217 0.082729
O O12 0.805584 0.755840 0.341156
O O13 0.664677 0.703896 0.277052
O O14 0.654561 0.107951 0.066879
#
# Coordination Sequence:
#
# PCOD8054186 Si02
#       7
#     4   4   4   4   4   4   4
#     4  10  19  33  56  82 107 145 184 228 275 328
#     4   9  18  30  52  81 107 138 180 229 267 321
#     4   9  18  32  55  79 108 146 180 222 275 329
#     4  10  20  34  55  81 115 145 183 225 284 331
#     4  10  17  32  55  81 107 138 189 229 271 317
#     4  11  18  32  57  85 106 134 189 236 261 318
#     4   9  18  35  52  79 112 144 175 221 283 328
#
# _framework density 20.134184000000001
#
# number of rings (size 3 to 8) (size 9 to 14) (size 15 to 20)
#    0.000    2.286    2.857    2.571    0.000    0.000 
#    2.571    1.429    9.429    0.000    0.000    0.000 
#    0.000    0.000    0.000    0.000    0.000    0.000 
#
# Total GULP energy -173460.608824 kJ/mol
# GULP energy per Si atom -12390.043487 kJ/mol
# Density = 2.008836 g / cm^3
# Si number density = 20.134184 Si / 1000 Ang^3
#
#
#
# Elastic Constant Matrix: (Units=GPa)
#
#
# Indices 1 2 3 4 5 6 
#
# 1 79.8619 12.3479 36.8114 0.0000 4.5981 0.0000
# 2 12.3479 27.4834 18.6064 0.0000 -4.8334 0.0000
# 3 36.8114 18.6064 99.1083 0.0000 19.4087 0.0000
# 4 0.0000 0.0000 0.0000 7.5657 0.0000 1.8549
# 5 4.5981 -4.8334 19.4087 0.0000 43.3554 0.0000
# 6 0.0000 0.0000 0.0000 1.8549 0.0000 25.4468
#
#
#
# Elastic Compliance Matrix: (Units=1/GPa)
#
#
# Indices 1 2 3 4 5 6 
#
# 1 0.015398 -0.003387 -0.005140 0.000000 0.000290 0.000000
# 2 -0.003387 0.045844 -0.009229 0.000000 0.009602 0.000000
# 3 -0.005140 -0.009229 0.015155 0.000000 -0.007268 0.000000
# 4 0.000000 0.000000 0.000000 0.134580 0.000000 -0.009810
# 5 0.000290 0.009602 -0.007268 0.000000 0.027358 0.000000
# 6 0.000000 0.000000 0.000000 -0.009810 0.000000 0.040013
#
#
# Mechanical properties :
#
#
# Convention : Reuss Voigt Hill
#
# Bulk Modulus (GPa) = 24.45902 37.99834 31.22868
# Shear Modulus (GPa) = 15.26768 24.51945 19.89357
#
# Velocity S-wave (km/s) = 2.75671 3.49349 3.14674
# Velocity P-wave (km/s) = 4.72302 5.93179 5.36158
#
# Compressibility (1/GPa) = 0.04088470
#
# Stress axis : x y z
#
# Youngs Moduli (GPa) = 64.94395 21.81313 65.98432
#
# Poissons Ratio (x) = 0.07388 0.33917
# Poissons Ratio (y) = 0.21997 0.60896
# Poissons Ratio (z) = 0.33382 0.20131
#
# Static dielectric constant tensor:
#      x y z
#    x 3.722930 0.000000 0.060550 
#    y 0.000000 3.374650 0.000000 
#    z 0.060550 0.000000 3.826580 
# 
# 
# High freq. dielectric constant tensor:
#      x y z
#    x 1.787020 0.000000 0.009570 
#    y 0.000000 1.735980 0.000000 
#    z 0.009570 0.000000 1.779050 
# 
# From -- ./inp_files/7330.got.cif
#   From: 2010.06.25/outbox.cif.g09.slc.cpg/sg9_4_cif.got.tgz:7330.got - 2010.06.27 21:40:51.
