data_PCOD8054023
_publ_section_title
;
Structure prediction by ZEFSAII (Michael W. Deem and Ramdas Pophale) SiO2 
 PCOD8054023
Probable space group: C M
;
_chemical_formula_sum "Si O2"
_cell_formula_units_Z 20
_cell_length_a 11.246047
_cell_length_b 9.818165
_cell_length_c 11.402901
_cell_angle_alpha 90.000000
_cell_angle_beta 133.689987
_cell_angle_gamma 90.000000
_cell_volume 910.409231
_symmetry_space_group_name_H-M "C M"
_symmetry_group_IT_number 8
_symmetry_cell_setting 'monoclinic'
loop_
_space_group_symop_operation_xyz
x,y,z
x,-y,z
1/2+x,1/2+y,z
1/2+x,1/2-y,z
loop_
_atom_site_type_symbol
_atom_site_label
_atom_site_fract_x
_atom_site_fract_y
_atom_site_fract_z
Si Si1 0.835871 0.000000 0.691300
Si Si2 0.535733 0.289750 0.469220
Si Si3 0.649060 0.500000 0.368208
Si Si4 0.324706 0.733647 0.831138
Si Si5 0.541469 0.000000 0.021559
Si Si6 0.980315 0.500000 0.456278
Si Si7 0.817622 0.000000 0.010184
Si Si8 0.783335 0.000000 0.380134
O O1 0.919616 0.139238 0.795750
O O2 0.787064 0.000000 0.522781
O O3 0.659120 0.000000 0.642866
O O4 0.635193 0.363511 0.434939
O O5 0.650133 0.284947 0.662342
O O6 0.371326 0.366057 0.392606
O O7 0.478900 0.141103 0.381328
O O8 0.832777 0.500000 0.446482
O O9 0.509654 0.500000 0.175430
O O10 0.434142 0.865012 0.931256
O O11 0.292371 0.641107 0.923286
O O12 0.697818 0.000000 0.040828
O O13 0.602943 0.000000 0.198947
#
# Coordination Sequence:
#
# PCOD8054023 Si02
#       8
#     2   4   2   4   2   2   2   2
#     4   9  23  46  66 105 135 178 234 279 323 423
#     4  10  23  44  66 105 127 185 228 276 328 408
#     4  11  24  44  71  96 145 176 232 280 335 402
#     4  10  25  43  68 100 137 179 225 272 348 399
#     4  12  25  47  70  99 139 185 211 291 347 390
#     4  10  24  38  73  96 134 177 225 278 338 380
#     4  11  26  46  66 102 143 172 227 282 341 408
#     4  11  24  43  70 102 142 168 239 282 326 409
#
# _framework density 21.968142
#
# number of rings (size 3 to 8) (size 9 to 14) (size 15 to 20)
#    0.000    1.600    2.000    1.800   11.200    4.800 
#    0.000    0.000    0.000    0.000    0.000    0.000 
#    0.000    0.000    0.000    0.000    0.000    0.000 
#
# Total GULP energy -123881.209826 kJ/mol
# GULP energy per Si atom -12388.120983 kJ/mol
# Density = 2.191814 g / cm^3
# Si number density = 21.968142 Si / 1000 Ang^3
#
#
#
# Elastic Constant Matrix: (Units=GPa)
#
#
# Indices 1 2 3 4 5 6 
#
# 1 82.4335 40.7094 8.8906 0.0000 0.7412 0.0000
# 2 40.7094 203.3946 45.6633 0.0000 0.4578 0.0000
# 3 8.8906 45.6633 100.5019 0.0000 -3.0384 0.0000
# 4 0.0000 0.0000 0.0000 -51.1730 0.0000 24.9899
# 5 0.7412 0.4578 -3.0384 0.0000 33.0778 0.0000
# 6 0.0000 0.0000 0.0000 24.9899 0.0000 175.4153
#
#
#
# Elastic Compliance Matrix: (Units=1/GPa)
#
#
# Indices 1 2 3 4 5 6 
#
# 1 0.013464 -0.002701 0.000028 0.000000 -0.000262 0.000000
# 2 -0.002701 0.006020 -0.002504 0.000000 -0.000253 0.000000
# 3 0.000028 -0.002504 0.011117 0.000000 0.001055 0.000000
# 4 0.000000 0.000000 0.000000 -0.018270 0.000000 0.002603
# 5 -0.000262 -0.000253 0.001055 0.000000 0.030338 0.000000
# 6 0.000000 0.000000 0.000000 0.002603 0.000000 0.005330
#
#
# Mechanical properties :
#
#
# Convention : Reuss Voigt Hill
#
# Bulk Modulus (GPa) = 49.38721 64.09520 56.74120
# Shear Modulus (GPa) = 76.80441 50.86845 63.83643
#
# Velocity S-wave (km/s) = 5.91926 4.81724 5.39645
# Velocity P-wave (km/s) = 8.32147 7.75763 8.04449
#
# Compressibility (1/GPa) = 0.02024816
#
# Stress axis : x y z
#
# Youngs Moduli (GPa) = 74.27240 166.11966 89.95140
#
# Poissons Ratio (x) = 0.44861 -0.00252
# Poissons Ratio (y) = 0.20057 0.22522
# Poissons Ratio (z) = -0.00208 0.41594
#
# Static dielectric constant tensor:
#      x y z
#    x 3.805340 0.000000 -0.025230 
#    y 0.000000 4.212050 0.000000 
#    z -0.025230 0.000000 3.976280 
# 
# 
# High freq. dielectric constant tensor:
#      x y z
#    x 1.840080 0.000000 -0.000140 
#    y 0.000000 1.899140 0.000000 
#    z -0.000140 0.000000 1.859520 
# 
# From -- ./inp_files/20016.got.cif
#   From: 2010.03.12/outbox.cif.g09.slc.cpg/sg8_11_cif.got.tgz:20016.got - 2010.03.31 10:45:26.
