data_PCOD8054452
_publ_section_title
;
Structure prediction by ZEFSAII (Michael W. Deem and Ramdas Pophale) SiO2 
 PCOD8054452
Probable space group: C C
;
_chemical_formula_sum "Si O2"
_cell_formula_units_Z 28
_cell_length_a 11.231708
_cell_length_b 10.375421
_cell_length_c 15.785892
_cell_angle_alpha 90.000000
_cell_angle_beta 36.014196
_cell_angle_gamma 90.000000
_cell_volume 1081.651632
_symmetry_space_group_name_H-M "C C"
_symmetry_group_IT_number 9
_symmetry_cell_setting 'monoclinic'
loop_
_space_group_symop_operation_xyz
x,y,z
x,-y,1/2+z
1/2+x,1/2+y,z
1/2+x,1/2-y,1/2+z
loop_
_atom_site_type_symbol
_atom_site_label
_atom_site_fract_x
_atom_site_fract_y
_atom_site_fract_z
Si Si1 0.337850 0.179507 0.316620
Si Si2 0.137684 0.448576 0.132791
Si Si3 0.411719 0.549712 0.833462
Si Si4 0.300415 0.066046 0.032048
Si Si5 0.038743 0.222463 0.066147
Si Si6 0.892958 0.213866 0.600666
Si Si7 0.656665 0.894390 0.849685
O O1 0.431080 0.295908 0.318766
O O2 0.328766 0.219028 0.223877
O O3 0.113408 0.146963 0.481358
O O4 0.474571 0.055024 0.249797
O O5 0.222598 0.391546 0.172963
O O6 0.030549 0.336683 0.140088
O O7 0.328717 0.507406 0.972437
O O8 0.628436 0.485034 0.694980
O O9 0.255353 0.505053 0.851025
O O10 0.414644 0.180324 0.014591
O O11 0.207972 0.118567 0.997508
O O12 0.456493 0.951210 0.920076
O O13 0.818588 0.154819 0.187630
O O14 0.093668 0.271827 0.942266
#
# Coordination Sequence:
#
# PCOD8054452 Si02
#       7
#     4   4   4   4   4   4   4
#     4  12  22  46  67 103 143 182 234 299 346 424
#     4  10  22  42  67 103 137 183 240 287 343 431
#     4  10  21  42  67  96 138 183 230 292 346 412
#     4  10  20  41  70  94 131 179 224 277 344 417
#     4   9  21  39  69  99 130 176 225 277 339 408
#     4  11  23  43  75 100 135 191 232 281 372 415
#     4  10  19  43  67  95 134 174 223 281 340 401
#
# _framework density 25.886337000000001
#
# number of rings (size 3 to 8) (size 9 to 14) (size 15 to 20)
#    0.000    1.714    2.857    1.714    0.000    3.429 
#   12.857    0.000    0.000    0.000    0.000    0.000 
#    0.000    0.000    0.000    0.000    0.000    0.000 
#
# Total GULP energy -173698.501628 kJ/mol
# GULP energy per Si atom -12407.035831 kJ/mol
# Density = 2.582742 g / cm^3
# Si number density = 25.886337 Si / 1000 Ang^3
#
#
#
# Elastic Constant Matrix: (Units=GPa)
#
#
# Indices 1 2 3 4 5 6 
#
# 1 68.5584 40.2639 34.5593 -0.0001 -10.5334 -0.0001
# 2 40.2639 125.4209 44.3827 -0.0005 -25.9014 0.0001
# 3 34.5593 44.3827 103.4367 -0.0027 -32.0188 0.0008
# 4 -0.0001 -0.0005 -0.0027 56.4221 0.0010 -17.0186
# 5 -10.5334 -25.9014 -32.0188 0.0010 39.8044 -0.0002
# 6 -0.0001 0.0001 0.0008 -17.0186 -0.0002 36.4229
#
#
#
# Elastic Compliance Matrix: (Units=1/GPa)
#
#
# Indices 1 2 3 4 5 6 
#
# 1 0.019763 -0.004969 -0.005130 0.000000 -0.002131 0.000000
# 2 -0.004969 0.011109 -0.001699 0.000000 0.004547 0.000000
# 3 -0.005130 -0.001699 0.015111 0.000001 0.009692 0.000000
# 4 0.000000 0.000000 0.000001 0.020631 0.000000 0.009640
# 5 -0.002131 0.004547 0.009692 0.000000 0.035314 0.000000
# 6 0.000000 0.000000 0.000000 0.009640 0.000000 0.031959
#
#
# Mechanical properties :
#
#
# Convention : Reuss Voigt Hill
#
# Bulk Modulus (GPa) = 44.67003 59.53642 52.10322
# Shear Modulus (GPa) = 30.31283 38.41057 34.36170
#
# Velocity S-wave (km/s) = 3.42570 3.85621 3.64731
# Velocity P-wave (km/s) = 5.73941 6.54800 6.15699
#
# Compressibility (1/GPa) = 0.02238637
#
# Stress axis : x y z
#
# Youngs Moduli (GPa) = 50.59889 90.02079 66.17688
#
# Poissons Ratio (x) = 0.44732 0.33952
# Poissons Ratio (y) = 0.25143 0.11241
# Poissons Ratio (z) = 0.25960 0.15292
#
# Static dielectric constant tensor:
#      x y z
#    x 4.368240 0.000000 -0.120990 
#    y 0.000000 4.825570 0.000000 
#    z -0.120990 0.000000 4.640430 
# 
# 
# High freq. dielectric constant tensor:
#      x y z
#    x 2.021270 0.000000 -0.002110 
#    y 0.000000 2.046650 0.000000 
#    z -0.002110 0.000000 2.047940 
# 
# From -- ./inp_files/30043.got.cif
#   From: 2010.06.25/outbox.cif.g09.slc.cpg/sg9_16_cif.got.tgz:30043.got - 2010.06.27 21:40:51.
