data_PCOD8054030
_publ_section_title
;
Structure prediction by ZEFSAII (Michael W. Deem and Ramdas Pophale) SiO2 
 PCOD8054030
Probable space group: C M
;
_chemical_formula_sum "Si O2"
_cell_formula_units_Z 28
_cell_length_a 9.031838
_cell_length_b 28.510912
_cell_length_c 4.975612
_cell_angle_alpha 90.000000
_cell_angle_beta 119.481648
_cell_angle_gamma 90.000000
_cell_volume 1115.344947
_symmetry_space_group_name_H-M "C M"
_symmetry_group_IT_number 8
_symmetry_cell_setting 'monoclinic'
loop_
_space_group_symop_operation_xyz
x,y,z
x,-y,z
1/2+x,1/2+y,z
1/2+x,1/2-y,z
loop_
_atom_site_type_symbol
_atom_site_label
_atom_site_fract_x
_atom_site_fract_y
_atom_site_fract_z
Si Si1 0.048400 0.603960 0.763990
Si Si2 0.289590 0.552245 0.637896
Si Si3 0.814629 0.447175 0.932866
Si Si4 0.693122 0.776901 0.327224
Si Si5 0.102372 0.077497 0.242458
Si Si6 0.870152 0.135684 0.313761
Si Si7 0.965754 0.702254 0.620956
O O1 0.099944 0.566123 0.580721
O O2 0.920560 0.645956 0.562903
O O3 0.985579 0.578258 0.979521
O O4 0.216942 0.633910 0.966843
O O5 0.274288 0.500000 0.498551
O O6 0.359181 0.590173 0.493620
O O7 0.431116 0.550062 0.001858
O O8 0.853590 0.500000 0.060930
O O9 0.686673 0.449567 0.566480
O O10 0.739208 0.418954 0.122044
O O11 0.849203 0.814811 0.442963
O O12 0.608674 0.783640 0.537712
O O13 0.785608 0.726789 0.399610
O O14 0.541939 0.781857 0.976431
O O15 0.045722 0.129530 0.301318
#
# Coordination Sequence:
#
# PCOD8054030 Si02
#       7
#     4   4   4   4   4   4   4
#     4  10  25  43  65  99 138 175 227 282 338 407
#     4  11  21  41  69  95 131 183 230 270 327 401
#     4  12  25  42  63  98 141 180 224 284 345 401
#     4  11  24  46  73 104 140 178 229 289 350 417
#     4  11  25  42  65  95 135 180 230 281 332 397
#     4  10  23  45  69  98 134 179 232 277 330 410
#     4  11  24  47  72 103 139 179 228 291 349 417
#
# _framework density 25.104341999999999
#
# number of rings (size 3 to 8) (size 9 to 14) (size 15 to 20)
#    0.000    1.143    2.857    2.571    2.000    4.571 
#    2.571    0.000    0.000    0.000    0.000    0.000 
#    0.000    0.000    0.000    0.000    0.000    0.000 
#
# Total GULP energy -173512.979329 kJ/mol
# GULP energy per Si atom -12393.784238 kJ/mol
# Density = 2.504720 g / cm^3
# Si number density = 25.104342 Si / 1000 Ang^3
#
#
#
# Elastic Constant Matrix: (Units=GPa)
#
#
# Indices 1 2 3 4 5 6 
#
# 1 131.6610 12.2250 -16.6316 0.0000 -25.1533 0.0000
# 2 12.2250 61.4521 19.2960 0.0000 -14.7890 0.0000
# 3 -16.6316 19.2960 30.5930 0.0000 -10.0186 0.0000
# 4 0.0000 0.0000 0.0000 23.2027 0.0000 -5.4016
# 5 -25.1533 -14.7890 -10.0186 0.0000 40.6412 0.0000
# 6 0.0000 0.0000 0.0000 -5.4016 0.0000 26.1850
#
#
#
# Elastic Compliance Matrix: (Units=1/GPa)
#
#
# Indices 1 2 3 4 5 6 
#
# 1 0.010834 -0.003609 0.010804 0.000000 0.008055 0.000000
# 2 -0.003609 0.022317 -0.015349 0.000000 0.002103 0.000000
# 3 0.010804 -0.015349 0.052871 0.000000 0.014135 0.000000
# 4 0.000000 0.000000 0.000000 0.045273 0.000000 0.009339
# 5 0.008055 0.002103 0.014135 0.000000 0.033841 0.000000
# 6 0.000000 0.000000 0.000000 0.009339 0.000000 0.040116
#
#
# Mechanical properties :
#
#
# Convention : Reuss Voigt Hill
#
# Bulk Modulus (GPa) = 14.34438 28.16498 21.25468
# Shear Modulus (GPa) = 20.42501 31.92688 26.17595
#
# Velocity S-wave (km/s) = 2.85547 3.57005 3.23257
# Velocity P-wave (km/s) = 4.07405 5.31387 4.73472
#
# Compressibility (1/GPa) = 0.06971371
#
# Stress axis : x y z
#
# Youngs Moduli (GPa) = 92.30041 44.80953 18.91396
#
# Poissons Ratio (x) = 0.16173 -0.20435
# Poissons Ratio (y) = 0.33314 0.29031
# Poissons Ratio (z) = -0.99725 0.68779
#
# Static dielectric constant tensor:
#      x y z
#    x 4.666540 0.000000 0.008260 
#    y 0.000000 4.563730 0.000000 
#    z 0.008260 0.000000 4.617740 
# 
# 
# High freq. dielectric constant tensor:
#      x y z
#    x 2.009010 0.000000 -0.003350 
#    y 0.000000 1.989680 0.000000 
#    z -0.003350 0.000000 2.003900 
# 
# From -- ./inp_files/2030.got.cif
#   From: 2010.03.12/outbox.cif.g09.slc.cpg/sg8_2_cif.got.tgz:2030.got - 2010.03.31 10:45:26.
