data_PCOD8054306
_publ_section_title
;
Structure prediction by ZEFSAII (Michael W. Deem and Ramdas Pophale) SiO2 
 PCOD8054306
Probable space group: C C
;
_chemical_formula_sum "Si O2"
_cell_formula_units_Z 32
_cell_length_a 11.825999
_cell_length_b 29.562226
_cell_length_c 5.150601
_cell_angle_alpha 90.000000
_cell_angle_beta 114.911939
_cell_angle_gamma 90.000000
_cell_volume 1633.124229
_symmetry_space_group_name_H-M "C C"
_symmetry_group_IT_number 9
_symmetry_cell_setting 'monoclinic'
loop_
_space_group_symop_operation_xyz
x,y,z
x,-y,1/2+z
1/2+x,1/2+y,z
1/2+x,1/2-y,1/2+z
loop_
_atom_site_type_symbol
_atom_site_label
_atom_site_fract_x
_atom_site_fract_y
_atom_site_fract_z
Si Si1 0.029760 0.173613 0.723010
Si Si2 0.812845 0.655324 0.030202
Si Si3 0.640194 0.181455 0.840113
Si Si4 0.909338 0.384596 0.124880
Si Si5 0.044297 0.473515 0.283536
Si Si6 0.539295 0.223594 0.240829
Si Si7 0.405203 0.367723 0.600460
Si Si8 0.330650 0.529880 0.029471
O O1 0.987398 0.225575 0.692245
O O2 0.977924 0.148827 0.421720
O O3 0.178376 0.176221 0.858042
O O4 0.981834 0.146274 0.922938
O O5 0.815685 0.630622 0.309421
O O6 0.913683 0.694818 0.113769
O O7 0.840131 0.619035 0.832110
O O8 0.535370 0.143671 0.743047
O O9 0.624402 0.213044 0.573173
O O10 0.626685 0.213533 0.077562
O O11 0.770933 0.155860 0.963070
O O12 0.945835 0.435900 0.108627
O O13 0.020809 0.485676 0.560959
O O14 0.185508 0.456751 0.385493
O O15 0.401421 0.422279 0.603349
O O16 0.367034 0.499178 0.311373
#
# Coordination Sequence:
#
# PCOD8054306 Si02
#       8
#     4   4   4   4   4   4   4   4
#     4  12  26  41  61  91 123 170 210 254 297 373
#     4  10  23  39  61  81 119 165 202 239 301 361
#     4  10  21  38  62  89 119 156 198 248 309 369
#     4  10  19  39  60  84 118 157 191 247 300 360
#     4  10  19  32  58  93 121 144 189 251 316 369
#     4  10  23  41  61  87 119 160 205 255 304 347
#     4  12  24  40  65  95 126 162 207 261 312 373
#     4  10  21  38  62  92 127 158 196 261 325 374
#
# _framework density 19.594346000000002
#
# number of rings (size 3 to 8) (size 9 to 14) (size 15 to 20)
#    0.000    1.500    1.250    3.750    3.500    0.000 
#    0.000    0.000    0.000   15.000    0.000    0.000 
#    0.000    0.000    0.000    0.000    0.000    0.000 
#
# Total GULP energy -198439.427257 kJ/mol
# GULP energy per Si atom -12402.464204 kJ/mol
# Density = 1.954975 g / cm^3
# Si number density = 19.594346 Si / 1000 Ang^3
#
#
#
# Elastic Constant Matrix: (Units=GPa)
#
#
# Indices 1 2 3 4 5 6 
#
# 1 73.6466 32.5354 47.1050 0.0000 -9.3070 0.0000
# 2 32.5354 128.9690 52.4444 0.0000 -10.4798 0.0000
# 3 47.1050 52.4444 154.7497 0.0000 -17.7594 0.0000
# 4 0.0000 0.0000 0.0000 18.7504 0.0000 6.2129
# 5 -9.3070 -10.4798 -17.7594 0.0000 31.6836 0.0000
# 6 0.0000 0.0000 0.0000 6.2129 0.0000 23.7966
#
#
#
# Elastic Compliance Matrix: (Units=1/GPa)
#
#
# Indices 1 2 3 4 5 6 
#
# 1 0.017704 -0.002561 -0.004298 0.000000 0.001944 0.000000
# 2 -0.002561 0.009418 -0.002288 0.000000 0.001080 0.000000
# 3 -0.004298 -0.002288 0.008886 0.000000 0.002961 0.000000
# 4 0.000000 0.000000 0.000000 0.058383 0.000000 -0.015243
# 5 0.001944 0.001080 0.002961 0.000000 0.034150 0.000000
# 6 0.000000 0.000000 0.000000 -0.015243 0.000000 0.046002
#
#
# Mechanical properties :
#
#
# Convention : Reuss Voigt Hill
#
# Bulk Modulus (GPa) = 56.45237 69.05944 62.75591
# Shear Modulus (GPa) = 25.15813 29.86483 27.51148
#
# Velocity S-wave (km/s) = 3.58711 3.90828 3.75113
# Velocity P-wave (km/s) = 6.78451 7.46239 7.13151
#
# Compressibility (1/GPa) = 0.01771405
#
# Stress axis : x y z
#
# Youngs Moduli (GPa) = 56.48292 106.17863 112.53943
#
# Poissons Ratio (x) = 0.27187 0.48372
# Poissons Ratio (y) = 0.14462 0.25753
# Poissons Ratio (z) = 0.24278 0.24298
#
# Static dielectric constant tensor:
#      x y z
#    x 3.509640 0.000000 -0.178920 
#    y 0.000000 3.485100 0.000000 
#    z -0.178920 0.000000 3.797970 
# 
# 
# High freq. dielectric constant tensor:
#      x y z
#    x 1.754000 0.000000 -0.012350 
#    y 0.000000 1.763620 0.000000 
#    z -0.012350 0.000000 1.780630 
# 
# From -- ./inp_files/2094.got.cif
#   From: 2010.06.25/outbox.cif.g09.slc.cpg/sg9_2_cif.got.tgz:2094.got - 2010.06.27 21:40:51.
