data_PCOD8054102
_publ_section_title
;
Structure prediction by ZEFSAII (Michael W. Deem and Ramdas Pophale) SiO2 
 PCOD8054102
Probable space group: C M
;
_chemical_formula_sum "Si O2"
_cell_formula_units_Z 24
_cell_length_a 16.823264
_cell_length_b 14.049738
_cell_length_c 9.672819
_cell_angle_alpha 90.000000
_cell_angle_beta 149.933042
_cell_angle_gamma 90.000000
_cell_volume 1145.458711
_symmetry_space_group_name_H-M "C M"
_symmetry_group_IT_number 8
_symmetry_cell_setting 'monoclinic'
loop_
_space_group_symop_operation_xyz
x,y,z
x,-y,z
1/2+x,1/2+y,z
1/2+x,1/2-y,z
loop_
_atom_site_type_symbol
_atom_site_label
_atom_site_fract_x
_atom_site_fract_y
_atom_site_fract_z
Si Si1 0.403960 0.696550 0.521660
Si Si2 0.908786 0.699109 0.022579
Si Si3 0.580727 0.000000 0.693784
Si Si4 0.088661 0.300281 0.573384
Si Si5 0.947140 0.500000 0.935583
Si Si6 0.094227 0.195516 0.080765
Si Si7 0.761989 0.500000 0.371410
Si Si8 0.265770 0.500000 0.257744
O O1 0.448261 0.761327 0.458216
O O2 0.236437 0.732542 0.326901
O O3 0.385003 0.587848 0.449548
O O4 0.537275 0.709052 0.838369
O O5 0.036320 0.702519 0.336353
O O6 0.899937 0.592334 0.951709
O O7 0.954238 0.775461 0.973654
O O8 0.737866 0.731054 0.821178
O O9 0.627443 0.091616 0.674222
O O10 0.393176 0.000000 0.447363
O O11 0.682451 0.000000 0.985200
O O12 0.134365 0.500000 0.181553
O O13 0.846855 0.500000 0.645498
O O14 0.145509 0.088464 0.184074
#
# Coordination Sequence:
#
# PCOD8054102 Si02
#       8
#     4   4   2   4   2   4   2   2
#     4  12  24  44  70 100 132 176 227 272 326 395
#     4  12  26  44  67  99 137 174 218 274 339 396
#     4  11  23  43  69  97 134 177 219 275 338 385
#     4  12  26  44  67  99 137 174 218 274 339 396
#     4  11  23  43  69  97 134 177 219 275 338 385
#     4  12  24  44  70 100 132 176 227 272 326 395
#     4  11  23  41  71 101 128 171 233 279 316 389
#     4  11  23  41  71 101 128 171 233 279 316 389
#
# _framework density 20.952304999999999
#
# number of rings (size 3 to 8) (size 9 to 14) (size 15 to 20)
#    0.000    0.333    3.333    7.000    0.000    1.333 
#    0.000    3.333    0.000    0.000    0.000    0.000 
#    0.000    0.000    0.000    0.000    0.000    0.000 
#
# Total GULP energy -148904.292038 kJ/mol
# GULP energy per Si atom -12408.691003 kJ/mol
# Density = 2.090462 g / cm^3
# Si number density = 20.952305 Si / 1000 Ang^3
#
#
#
# Elastic Constant Matrix: (Units=GPa)
#
#
# Indices 1 2 3 4 5 6 
#
# 1 75.2839 34.2011 26.2651 0.0000 -9.5931 0.0000
# 2 34.2011 156.4560 50.3043 0.0000 -10.7577 0.0000
# 3 26.2651 50.3043 101.2785 0.0000 -7.3797 0.0000
# 4 0.0000 0.0000 0.0000 34.4276 0.0000 -3.6453
# 5 -9.5931 -10.7577 -7.3797 0.0000 30.5916 0.0000
# 6 0.0000 0.0000 0.0000 -3.6453 0.0000 38.9335
#
#
#
# Elastic Compliance Matrix: (Units=1/GPa)
#
#
# Indices 1 2 3 4 5 6 
#
# 1 0.015716 -0.002342 -0.002660 0.000000 0.003463 0.000000
# 2 -0.002342 0.008053 -0.003298 0.000000 0.001302 0.000000
# 3 -0.002660 -0.003298 0.012272 0.000000 0.000967 0.000000
# 4 0.000000 0.000000 0.000000 0.029337 0.000000 0.002747
# 5 0.003463 0.001302 0.000967 0.000000 0.034466 0.000000
# 6 0.000000 0.000000 0.000000 0.002747 0.000000 0.025942
#
#
# Mechanical properties :
#
#
# Convention : Reuss Voigt Hill
#
# Bulk Modulus (GPa) = 51.43589 61.61772 56.52681
# Shear Modulus (GPa) = 33.58685 35.60706 34.59696
#
# Velocity S-wave (km/s) = 4.00811 4.12689 4.06793
# Velocity P-wave (km/s) = 6.78397 7.22362 7.00725
#
# Compressibility (1/GPa) = 0.01944168
#
# Stress axis : x y z
#
# Youngs Moduli (GPa) = 63.62757 124.17098 81.48590
#
# Poissons Ratio (x) = 0.29083 0.21677
# Poissons Ratio (y) = 0.14903 0.26872
# Poissons Ratio (z) = 0.16926 0.40949
#
# Static dielectric constant tensor:
#      x y z
#    x 3.708080 0.000000 -0.051470 
#    y 0.000000 3.936940 0.000000 
#    z -0.051470 0.000000 3.768430 
# 
# 
# High freq. dielectric constant tensor:
#      x y z
#    x 1.820180 0.000000 -0.005050 
#    y 0.000000 1.838220 0.000000 
#    z -0.005050 0.000000 1.831750 
# 
# From -- ./inp_files/15206.got.cif
#   From: 2010.03.12/outbox.cif.g09.slc.cpg/sg8_8_cif.got.tgz:15206.got - 2010.03.31 10:45:26.
