data_PCOD8054953
_publ_section_title
;
Structure prediction by ZEFSAII (Michael W. Deem and Ramdas Pophale) SiO2 
 PCOD8054953
Probable space group: C C
;
_chemical_formula_sum "Si O2"
_cell_formula_units_Z 32
_cell_length_a 15.176512
_cell_length_b 10.358153
_cell_length_c 20.676159
_cell_angle_alpha 90.000000
_cell_angle_beta 153.753499
_cell_angle_gamma 90.000000
_cell_volume 1437.395243
_symmetry_space_group_name_H-M "C C"
_symmetry_group_IT_number 9
_symmetry_cell_setting 'monoclinic'
loop_
_space_group_symop_operation_xyz
x,y,z
x,-y,1/2+z
1/2+x,1/2+y,z
1/2+x,1/2-y,1/2+z
loop_
_atom_site_type_symbol
_atom_site_label
_atom_site_fract_x
_atom_site_fract_y
_atom_site_fract_z
Si Si1 0.194770 0.438004 0.476390
Si Si2 0.472033 0.618279 0.576652
Si Si3 0.894406 0.030887 0.727840
Si Si4 0.270704 0.142401 0.501863
Si Si5 0.176124 0.652447 0.704001
Si Si6 0.035829 0.887856 0.530912
Si Si7 0.878251 0.531831 0.180108
Si Si8 0.119025 0.759545 0.293857
O O1 0.355679 0.518441 0.543818
O O2 0.225045 0.463638 0.572207
O O3 0.226846 0.293061 0.474097
O O4 0.978814 0.491814 0.314343
O O5 0.548170 0.534944 0.566110
O O6 0.342404 0.740114 0.466772
O O7 0.636658 0.680398 0.733201
O O8 0.784640 0.061203 0.723088
O O9 0.986111 0.159447 0.756778
O O10 0.072425 0.929718 0.849734
O O11 0.455598 0.102070 0.577173
O O12 0.328488 0.101045 0.611886
O O13 0.135617 0.794762 0.649470
O O14 0.316666 0.657173 0.861286
O O15 0.177288 0.887491 0.561142
O O16 0.018036 0.617811 0.225474
#
# Coordination Sequence:
#
# PCOD8054953 Si02
#       8
#     4   4   4   4   4   4   4   4
#     4  10  23  42  68 101 141 184 235 287 359 415
#     4  10  22  43  66 105 135 185 227 290 346 416
#     4  11  24  44  71 105 138 190 238 289 353 423
#     4  12  24  46  71 101 143 189 231 297 359 417
#     4  12  27  44  73 105 136 184 244 287 350 433
#     4  12  26  45  69 107 143 180 243 297 348 423
#     4  11  23  44  70  97 145 186 229 299 350 415
#     4  10  21  40  70  97 137 180 235 282 349 414
#
# _framework density 22.262492999999999
#
# number of rings (size 3 to 8) (size 9 to 14) (size 15 to 20)
#    0.000    1.000    3.750    3.000    3.500    0.000 
#    2.250    2.500    0.000    0.000    0.000    0.000 
#    0.000    0.000    0.000    0.000    0.000    0.000 
#
# Total GULP energy -198331.891093 kJ/mol
# GULP energy per Si atom -12395.743193 kJ/mol
# Density = 2.221182 g / cm^3
# Si number density = 22.262493 Si / 1000 Ang^3
#
#
#
# Elastic Constant Matrix: (Units=GPa)
#
#
# Indices 1 2 3 4 5 6 
#
# 1 69.1805 28.0292 37.7455 0.0022 -8.0102 -0.0002
# 2 28.0292 95.7616 69.5991 0.0136 -17.8315 -0.0037
# 3 37.7455 69.5991 111.6845 0.0071 -13.6403 -0.0029
# 4 0.0022 0.0136 0.0071 41.1529 0.0009 -12.6720
# 5 -8.0102 -17.8315 -13.6403 0.0009 30.8489 -0.0002
# 6 -0.0002 -0.0037 -0.0029 -12.6720 -0.0002 27.2994
#
#
#
# Elastic Compliance Matrix: (Units=1/GPa)
#
#
# Indices 1 2 3 4 5 6 
#
# 1 0.017924 -0.001241 -0.005078 0.000000 0.001692 0.000000
# 2 -0.001241 0.020327 -0.011472 -0.000005 0.006355 -0.000001
# 3 -0.005078 -0.011472 0.017810 0.000001 -0.000075 0.000001
# 4 0.000000 -0.000005 0.000001 0.028352 -0.000003 0.013161
# 5 0.001692 0.006355 -0.000075 -0.000003 0.036496 0.000000
# 6 0.000000 -0.000001 0.000001 0.013161 0.000000 0.042740
#
#
# Mechanical properties :
#
#
# Convention : Reuss Voigt Hill
#
# Bulk Modulus (GPa) = 48.82851 60.81934 54.82392
# Shear Modulus (GPa) = 24.26542 29.27712 26.77127
#
# Velocity S-wave (km/s) = 3.30505 3.63035 3.47151
# Velocity P-wave (km/s) = 6.04526 6.70456 6.38342
#
# Compressibility (1/GPa) = 0.02047984
#
# Stress axis : x y z
#
# Youngs Moduli (GPa) = 55.79092 49.19680 56.14941
#
# Poissons Ratio (x) = 0.06104 0.28512
# Poissons Ratio (y) = 0.06922 0.64412
# Poissons Ratio (z) = 0.28330 0.56436
#
# Static dielectric constant tensor:
#      x y z
#    x 4.015820 -0.000010 -0.200120 
#    y -0.000010 4.129310 -0.000020 
#    z -0.200120 -0.000020 4.297640 
# 
# 
# High freq. dielectric constant tensor:
#      x y z
#    x 1.862900 0.000000 -0.009940 
#    y 0.000000 1.877890 0.000000 
#    z -0.009940 0.000000 1.887010 
# 
# From -- ./inp_files/27366.got.cif
#   From: 2010.06.25/outbox.cif.g09.slc.cpg/sg9_14_cif.got.tgz:27366.got - 2010.06.27 21:40:51.
