data_PCOD8054888
_publ_section_title
;
Structure prediction by ZEFSAII (Michael W. Deem and Ramdas Pophale) SiO2 
 PCOD8054888
Probable space group: C C
;
_chemical_formula_sum "Si O2"
_cell_formula_units_Z 32
_cell_length_a 7.078039
_cell_length_b 22.968144
_cell_length_c 8.834107
_cell_angle_alpha 90.000000
_cell_angle_beta 104.739418
_cell_angle_gamma 90.000000
_cell_volume 1388.895990
_symmetry_space_group_name_H-M "C C"
_symmetry_group_IT_number 9
_symmetry_cell_setting 'monoclinic'
loop_
_space_group_symop_operation_xyz
x,y,z
x,-y,1/2+z
1/2+x,1/2+y,z
1/2+x,1/2-y,1/2+z
loop_
_atom_site_type_symbol
_atom_site_label
_atom_site_fract_x
_atom_site_fract_y
_atom_site_fract_z
Si Si1 0.205100 0.456866 0.982190
Si Si2 0.365813 0.782153 0.280182
Si Si3 0.142130 0.085548 0.240578
Si Si4 0.613921 0.546937 0.699868
Si Si5 0.220209 0.689629 0.032143
Si Si6 0.187242 0.426668 0.644319
Si Si7 0.896549 0.616900 0.565795
Si Si8 0.088281 0.141836 0.932081
O O1 0.119483 0.445961 0.797186
O O2 0.110303 0.407447 0.068330
O O3 0.440535 0.454681 0.039108
O O4 0.139885 0.521109 0.020477
O O5 0.290362 0.720924 0.200338
O O6 0.564400 0.769867 0.413051
O O7 0.204912 0.811547 0.355569
O O8 0.418746 0.819777 0.142215
O O9 0.253798 0.120428 0.393238
O O10 0.911250 0.093859 0.202587
O O11 0.183168 0.016811 0.265260
O O12 0.214067 0.114726 0.097298
O O13 0.807195 0.574753 0.673078
O O14 0.530599 0.584681 0.822442
O O15 0.093537 0.632074 0.056380
O O16 0.395274 0.674218 0.953032
#
# Coordination Sequence:
#
# PCOD8054888 Si02
#       8
#     4   4   4   4   4   4   4   4
#     4  11  24  39  65  99 139 178 218 289 347 422
#     4  11  28  47  72 100 137 181 247 285 346 410
#     4  10  21  39  66  98 137 180 216 280 348 418
#     4  10  21  40  62  99 137 181 218 270 349 420
#     4  11  27  47  73 100 137 188 237 295 345 416
#     4  10  25  42  67  98 142 176 231 280 361 415
#     4  11  24  39  67  97 133 178 230 279 346 409
#     4  10  24  43  70  99 142 174 233 288 342 412
#
# _framework density 23.039881999999999
#
# number of rings (size 3 to 8) (size 9 to 14) (size 15 to 20)
#    0.000    1.500    1.250    1.500   17.500    3.000 
#    0.000    0.000    0.000    0.000    0.000    0.000 
#    0.000    0.000    0.000    0.000    0.000    0.000 
#
# Total GULP energy -198395.372009 kJ/mol
# GULP energy per Si atom -12399.710751 kJ/mol
# Density = 2.298744 g / cm^3
# Si number density = 23.039882 Si / 1000 Ang^3
#
#
#
# Elastic Constant Matrix: (Units=GPa)
#
#
# Indices 1 2 3 4 5 6 
#
# 1 57.4355 19.2778 26.3026 0.0000 -14.9763 0.0000
# 2 19.2778 94.4536 43.6760 0.0000 -17.8652 0.0000
# 3 26.3026 43.6760 128.6599 0.0000 -7.2677 0.0000
# 4 0.0000 0.0000 0.0000 46.7021 0.0000 -2.4702
# 5 -14.9763 -17.8652 -7.2677 0.0000 38.6004 0.0000
# 6 0.0000 0.0000 0.0000 -2.4702 0.0000 25.5600
#
#
#
# Elastic Compliance Matrix: (Units=1/GPa)
#
#
# Indices 1 2 3 4 5 6 
#
# 1 0.021293 -0.001424 -0.003477 0.000000 0.006948 0.000000
# 2 -0.001424 0.013716 -0.004081 0.000000 0.005027 0.000000
# 3 -0.003477 -0.004081 0.009790 0.000000 -0.001395 0.000000
# 4 0.000000 0.000000 0.000000 0.021522 0.000000 0.002080
# 5 0.006948 0.005027 -0.001395 0.000000 0.030666 0.000000
# 6 0.000000 0.000000 0.000000 0.002080 0.000000 0.039325
#
#
# Mechanical properties :
#
#
# Convention : Reuss Voigt Hill
#
# Bulk Modulus (GPa) = 37.26579 51.00687 44.13633
# Shear Modulus (GPa) = 30.63345 34.92533 32.77939
#
# Velocity S-wave (km/s) = 3.65030 3.89763 3.77599
# Velocity P-wave (km/s) = 5.82888 6.51475 6.18134
#
# Compressibility (1/GPa) = 0.02683426
#
# Stress axis : x y z
#
# Youngs Moduli (GPa) = 46.96446 72.90893 102.14629
#
# Poissons Ratio (x) = 0.10381 0.35518
# Poissons Ratio (y) = 0.06687 0.41686
# Poissons Ratio (z) = 0.16330 0.29754
#
# Static dielectric constant tensor:
#      x y z
#    x 3.936540 0.000000 -0.122410 
#    y 0.000000 4.148450 0.000000 
#    z -0.122410 0.000000 4.321470 
# 
# 
# High freq. dielectric constant tensor:
#      x y z
#    x 1.906250 0.000000 -0.003280 
#    y 0.000000 1.902260 0.000000 
#    z -0.003280 0.000000 1.921150 
# 
# From -- ./inp_files/6077.got.cif
#   From: 2010.06.25/outbox.cif.g09.slc.cpg/sg9_4_cif.got.tgz:6077.got - 2010.06.27 21:40:51.
