data_PCOD8054455
_publ_section_title
;
Structure prediction by ZEFSAII (Michael W. Deem and Ramdas Pophale) SiO2 
 PCOD8054455
Probable space group: C C
;
_chemical_formula_sum "Si O2"
_cell_formula_units_Z 32
_cell_length_a 14.106854
_cell_length_b 18.588659
_cell_length_c 10.466788
_cell_angle_alpha 90.000000
_cell_angle_beta 32.264779
_cell_angle_gamma 90.000000
_cell_volume 1465.199595
_symmetry_space_group_name_H-M "C C"
_symmetry_group_IT_number 9
_symmetry_cell_setting 'monoclinic'
loop_
_space_group_symop_operation_xyz
x,y,z
x,-y,1/2+z
1/2+x,1/2+y,z
1/2+x,1/2-y,1/2+z
loop_
_atom_site_type_symbol
_atom_site_label
_atom_site_fract_x
_atom_site_fract_y
_atom_site_fract_z
Si Si1 0.017630 0.657051 0.126060
Si Si2 0.026213 0.081183 0.028795
Si Si3 0.842544 0.389937 0.570665
Si Si4 0.063994 0.933940 0.068982
Si Si5 0.843642 0.806719 0.391518
Si Si6 0.814556 0.541416 0.494549
Si Si7 0.808292 0.674466 0.847061
Si Si8 0.205357 0.317223 0.823919
O O1 0.980811 0.631828 0.023835
O O2 0.931066 0.733488 0.250740
O O3 0.963237 0.602140 0.301940
O O4 0.226693 0.667324 0.904533
O O5 0.155682 0.070734 0.762194
O O6 0.149248 0.119976 0.993920
O O7 0.847061 0.122128 0.197279
O O8 0.947224 0.003715 0.165779
O O9 0.901813 0.467687 0.446139
O O10 0.838665 0.329483 0.465122
O O11 0.642489 0.394966 0.853728
O O12 0.978449 0.873308 0.257346
O O13 0.231706 0.970476 0.948918
O O14 0.733817 0.791688 0.645782
O O15 0.741000 0.752497 0.881197
O O16 0.001139 0.655874 0.564953
#
# Coordination Sequence:
#
# PCOD8054455 Si02
#       8
#     4   4   4   4   4   4   4   4
#     4  11  25  42  71  99 138 184 228 295 336 412
#     4  11  22  43  67 100 135 174 223 287 348 403
#     4  10  24  44  66  98 140 183 220 277 356 414
#     4  10  22  43  73  93 133 181 219 290 341 409
#     4  12  24  46  68 104 131 176 248 280 345 408
#     4  10  19  43  70  93 134 176 227 276 346 403
#     4  12  25  42  64 102 139 177 226 277 353 411
#     4  12  25  41  71 101 134 183 227 292 341 408
#
# _framework density 21.840026999999999
#
# number of rings (size 3 to 8) (size 9 to 14) (size 15 to 20)
#    0.000    1.000    3.750    3.750    0.000    3.000 
#    4.500    0.000    0.000    0.000    0.000    0.000 
#    0.000    0.000    0.000    0.000    0.000    0.000 
#
# Total GULP energy -198295.568366 kJ/mol
# GULP energy per Si atom -12393.473023 kJ/mol
# Density = 2.179032 g / cm^3
# Si number density = 21.840027 Si / 1000 Ang^3
#
#
#
# Elastic Constant Matrix: (Units=GPa)
#
#
# Indices 1 2 3 4 5 6 
#
# 1 102.2732 43.8012 15.3451 1.3653 2.5581 0.6730
# 2 43.8012 116.1996 14.4765 3.1922 6.6849 1.5920
# 3 15.3451 14.4765 43.5453 2.6352 -1.0684 1.2858
# 4 1.3653 3.1922 2.6352-2392.5725 -3.0265-1230.9311
# 5 2.5581 6.6849 -1.0684 -3.0265 38.7532 -1.5306
# 6 0.6730 1.5920 1.2858-1230.9311 -1.5306 -591.1423
#
#
#
# Elastic Compliance Matrix: (Units=1/GPa)
#
#
# Indices 1 2 3 4 5 6 
#
# 1 0.011988 -0.004155 -0.002847 -0.000001 -0.000153 -0.000001
# 2 -0.004155 0.010522 -0.002074 0.000008 -0.001597 0.000007
# 3 -0.002847 -0.002074 0.024686 0.000003 0.001228 0.000036
# 4 -0.000001 0.000008 0.000003 0.005862 -0.000025 -0.012207
# 5 -0.000153 -0.001597 0.001228 -0.000025 0.026121 -0.000016
# 6 -0.000001 0.000007 0.000036 -0.012207 -0.000016 0.023726
#
#
# Mechanical properties :
#
#
# Convention : Reuss Voigt Hill
#
# Bulk Modulus (GPa) = 34.42947 45.47373 39.95160
# Shear Modulus (GPa) = 38.24396 -576.43262 -269.09433
#
# Velocity S-wave (km/s) = 4.18915 -16.26367 -11.11211
# Velocity P-wave (km/s) = 6.26077 18.21564 12.09571
#
# Compressibility (1/GPa) = 0.02904489
#
# Stress axis : x y z
#
# Youngs Moduli (GPa) = 83.41384 95.03736 40.50877
#
# Poissons Ratio (x) = 0.39493 0.11532
# Poissons Ratio (y) = 0.34663 0.08400
# Poissons Ratio (z) = 0.23746 0.19707
#
# Static dielectric constant tensor:
#      x y z
#    x 4.086650 -0.000350 0.024780 
#    y -0.000350 9.064820 0.001290 
#    z 0.024780 0.001290 3.796410 
# 
# 
# High freq. dielectric constant tensor:
#      x y z
#    x 1.867940 0.000000 0.003610 
#    y 0.000000 1.869550 0.000000 
#    z 0.003610 0.000000 1.838320 
# 
# From -- ./inp_files/8034.got.cif
#   From: 2010.06.25/outbox.cif.g09.slc.cpg/sg9_5_cif.got.tgz:8034.got - 2010.06.27 21:40:51.
