data_PCOD8054663
_publ_section_title
;
Structure prediction by ZEFSAII (Michael W. Deem and Ramdas Pophale) SiO2 
 PCOD8054663
Probable space group: C C
;
_chemical_formula_sum "Si O2"
_cell_formula_units_Z 32
_cell_length_a 11.273101
_cell_length_b 13.437382
_cell_length_c 22.578289
_cell_angle_alpha 90.000000
_cell_angle_beta 152.891296
_cell_angle_gamma 90.000000
_cell_volume 1558.508545
_symmetry_space_group_name_H-M "C C"
_symmetry_group_IT_number 9
_symmetry_cell_setting 'monoclinic'
loop_
_space_group_symop_operation_xyz
x,y,z
x,-y,1/2+z
1/2+x,1/2+y,z
1/2+x,1/2-y,1/2+z
loop_
_atom_site_type_symbol
_atom_site_label
_atom_site_fract_x
_atom_site_fract_y
_atom_site_fract_z
Si Si1 0.798800 0.313267 0.954260
Si Si2 0.057854 0.425448 0.871461
Si Si3 0.067020 0.091339 0.238324
Si Si4 0.744661 0.277944 0.063357
Si Si5 0.242495 0.232311 0.911172
Si Si6 0.513291 0.130511 0.792525
Si Si7 0.002341 0.819247 0.125781
Si Si8 0.864270 0.113340 0.682473
O O1 0.626121 0.377137 0.832089
O O2 0.769657 0.198647 0.918297
O O3 0.712370 0.325107 0.983973
O O4 0.085223 0.357608 0.081334
O O5 0.825437 0.436183 0.816032
O O6 0.076738 0.515934 0.833462
O O7 0.031971 0.323536 0.821728
O O8 0.334932 0.416850 0.029315
O O9 0.909499 0.175886 0.133336
O O10 0.879509 0.996341 0.161991
O O11 0.893223 0.355236 0.173365
O O12 0.453810 0.254964 0.954769
O O13 0.082466 0.130395 0.830371
O O14 0.396838 0.222947 0.042516
O O15 0.305964 0.166350 0.749418
O O16 0.948520 0.804484 0.170851
#
# Coordination Sequence:
#
# PCOD8054663 Si02
#       8
#     4   4   4   4   4   4   4   4
#     4  11  24  39  60  94 129 169 199 261 332 370
#     4  10  20  40  66  94 116 159 223 260 297 373
#     4  11  24  39  68  94 123 164 222 261 306 374
#     4  10  23  42  61  88 134 168 198 260 324 377
#     4   9  22  38  60  93 126 156 208 257 318 363
#     4  10  21  41  65  91 122 163 217 260 307 375
#     4   9  20  37  62  90 118 156 209 256 309 355
#     4  12  22  38  64  96 124 161 212 265 313 373
#
# _framework density 20.532451999999999
#
# number of rings (size 3 to 8) (size 9 to 14) (size 15 to 20)
#    0.750    1.000    2.500    1.500    3.500    1.000 
#    2.250    1.250    0.000    0.000    0.000    0.000 
#    0.000    0.000    0.000    0.000    0.000    0.000 
#
# Total GULP energy -198231.989654 kJ/mol
# GULP energy per Si atom -12389.499353 kJ/mol
# Density = 2.048572 g / cm^3
# Si number density = 20.532452 Si / 1000 Ang^3
#
#
#
# Elastic Constant Matrix: (Units=GPa)
#
#
# Indices 1 2 3 4 5 6 
#
# 1 94.9058 19.6024 20.6618 0.0005 -3.8217 -0.0002
# 2 19.6024 71.3197 17.2633 0.0003 3.9685 0.0003
# 3 20.6618 17.2633 66.8343 0.0057 6.6245 -0.0005
# 4 0.0005 0.0003 0.0057 22.1715 0.0019 0.4059
# 5 -3.8217 3.9685 6.6245 0.0019 32.6406 0.0006
# 6 -0.0002 0.0003 -0.0005 0.4059 0.0006 22.8865
#
#
#
# Elastic Compliance Matrix: (Units=1/GPa)
#
#
# Indices 1 2 3 4 5 6 
#
# 1 0.011875 -0.002613 -0.003230 0.000000 0.002364 0.000000
# 2 -0.002613 0.015567 -0.003057 0.000001 -0.001578 0.000000
# 3 -0.003230 -0.003057 0.017095 -0.000004 -0.003476 0.000001
# 4 0.000000 0.000001 -0.000004 0.045118 -0.000002 -0.000800
# 5 0.002364 -0.001578 -0.003476 -0.000002 0.031811 -0.000001
# 6 0.000000 0.000000 0.000001 -0.000800 -0.000001 0.043708
#
#
# Mechanical properties :
#
#
# Convention : Reuss Voigt Hill
#
# Bulk Modulus (GPa) = 37.40203 38.67940 38.04072
# Shear Modulus (GPa) = 26.05695 27.24187 26.64941
#
# Velocity S-wave (km/s) = 3.56625 3.64644 3.60657
# Velocity P-wave (km/s) = 5.93407 6.05044 5.99253
#
# Compressibility (1/GPa) = 0.02673652
#
# Stress axis : x y z
#
# Youngs Moduli (GPa) = 84.21027 64.23677 58.49622
#
# Poissons Ratio (x) = 0.16788 0.18897
# Poissons Ratio (y) = 0.22008 0.17880
# Poissons Ratio (z) = 0.27203 0.19635
#
# Static dielectric constant tensor:
#      x y z
#    x 3.729650 0.000000 -0.091500 
#    y 0.000000 3.572770 -0.000020 
#    z -0.091500 -0.000020 3.749800 
# 
# 
# High freq. dielectric constant tensor:
#      x y z
#    x 1.801780 0.000000 -0.002970 
#    y 0.000000 1.773700 0.000000 
#    z -0.002970 0.000000 1.811350 
# 
# From -- ./inp_files/35424.got.cif
#   From: 2010.06.25/outbox.cif.g09.slc.cpg/sg9_18_cif.got.tgz:35424.got - 2010.06.27 21:40:51.
