data_PCOD8054095
_publ_section_title
;
Structure prediction by ZEFSAII (Michael W. Deem and Ramdas Pophale) SiO2 
 PCOD8054095
Probable space group: C M
;
_chemical_formula_sum "Si O2"
_cell_formula_units_Z 24
_cell_length_a 13.827565
_cell_length_b 15.648079
_cell_length_c 9.421550
_cell_angle_alpha 90.000000
_cell_angle_beta 30.407561
_cell_angle_gamma 90.000000
_cell_volume 1031.825511
_symmetry_space_group_name_H-M "C M"
_symmetry_group_IT_number 8
_symmetry_cell_setting 'monoclinic'
loop_
_space_group_symop_operation_xyz
x,y,z
x,-y,z
1/2+x,1/2+y,z
1/2+x,1/2-y,z
loop_
_atom_site_type_symbol
_atom_site_label
_atom_site_fract_x
_atom_site_fract_y
_atom_site_fract_z
Si Si1 0.955470 0.244363 0.389770
Si Si2 0.061823 0.638504 0.489532
Si Si3 0.970283 0.130720 0.927000
Si Si4 0.552169 0.181386 0.825827
Si Si5 0.354811 0.096418 0.320427
Si Si6 0.650022 0.409044 0.998888
O O1 0.751202 0.198798 0.654412
O O2 0.947893 0.330339 0.302445
O O3 0.020214 0.270743 0.465002
O O4 0.107738 0.174202 0.145362
O O5 0.100291 0.650794 0.607458
O O6 0.878388 0.579893 0.695540
O O7 0.255247 0.593393 0.181421
O O8 0.930965 0.231926 0.978808
O O9 0.121807 0.104394 0.613333
O O10 0.064219 0.099610 0.952680
O O11 0.431302 0.110483 0.063762
O O12 0.411902 0.000000 0.295801
O O13 0.575367 0.500000 0.158152
#
# Coordination Sequence:
#
# PCOD8054095 Si02
#       6
#     4   4   4   4   4   4
#     4  11  23  47  72 108 144 193 242 303 357 434
#     4  12  24  43  79 103 144 193 249 289 368 432
#     4  11  22  44  71 103 141 191 238 295 359 425
#     4  11  22  44  72 108 141 195 239 298 364 429
#     4  11  23  43  71 104 151 190 236 304 358 422
#     4  12  25  43  70 108 147 186 245 305 353 426
#
# _framework density 23.259747000000001
#
# number of rings (size 3 to 8) (size 9 to 14) (size 15 to 20)
#    0.000    0.667    6.667    2.500    0.000    2.667 
#    0.000    0.000    0.000    1.000    0.000    0.000 
#    0.000    0.000    0.000    0.000    0.000    0.000 
#
# Total GULP energy -148713.759037 kJ/mol
# GULP energy per Si atom -12392.813253 kJ/mol
# Density = 2.320681 g / cm^3
# Si number density = 23.259747 Si / 1000 Ang^3
#
#
#
# Elastic Constant Matrix: (Units=GPa)
#
#
# Indices 1 2 3 4 5 6 
#
# 1 83.3678 7.2223 56.1654 0.0058 -5.6717 -0.0114
# 2 7.2223 153.5647 51.0757 0.0051 6.6304 -0.0066
# 3 56.1654 51.0757 151.0953 0.0013 -3.1734 -0.0151
# 4 0.0058 0.0051 0.0013 -47.6282 -0.0028 -34.8372
# 5 -5.6717 6.6304 -3.1734 -0.0028 35.2799 0.0088
# 6 -0.0114 -0.0066 -0.0151 -34.8372 0.0088 -58.1395
#
#
#
# Elastic Compliance Matrix: (Units=1/GPa)
#
#
# Indices 1 2 3 4 5 6 
#
# 1 0.016379 0.001312 -0.006494 0.000005 0.001802 -0.000004
# 2 0.001312 0.007534 -0.003065 0.000002 -0.001481 -0.000002
# 3 -0.006494 -0.003065 0.010078 0.000000 0.000439 -0.000001
# 4 0.000005 0.000002 0.000000 -0.037378 -0.000008 0.022397
# 5 0.001802 -0.001481 0.000439 -0.000008 0.028952 0.000009
# 6 -0.000004 -0.000002 -0.000001 0.022397 0.000009 -0.030620
#
#
# Mechanical properties :
#
#
# Convention : Reuss Voigt Hill
#
# Bulk Modulus (GPa) = 57.15840 68.55052 62.85446
# Shear Modulus (GPa) = 289.49058 4.14006 146.81532
#
# Velocity S-wave (km/s) = 11.16826 1.33559 7.95342
# Velocity P-wave (km/s) = 13.81789 5.64926 10.55576
#
# Compressibility (1/GPa) = 0.01749524
#
# Stress axis : x y z
#
# Youngs Moduli (GPa) = 61.05341 132.73693 99.22862
#
# Poissons Ratio (x) = -0.17412 0.64439
# Poissons Ratio (y) = -0.08009 0.30417
# Poissons Ratio (z) = 0.39648 0.40689
#
# Static dielectric constant tensor:
#      x y z
#    x 4.016480 0.000020 -0.212330 
#    y 0.000020 5.013080 -0.000050 
#    z -0.212330 -0.000050 4.587330 
# 
# 
# High freq. dielectric constant tensor:
#      x y z
#    x 1.900360 0.000000 -0.015550 
#    y 0.000000 1.912700 0.000000 
#    z -0.015550 0.000000 1.929780 
# 
# From -- ./inp_files/13534.got.cif
#   From: 2010.03.12/outbox.cif.g09.slc.cpg/sg8_7_cif.got.tgz:13534.got - 2010.03.31 10:45:26.
