data_PCOD8054549
_publ_section_title
;
Structure prediction by ZEFSAII (Michael W. Deem and Ramdas Pophale) SiO2 
 PCOD8054549
Probable space group: C C
;
_chemical_formula_sum "Si O2"
_cell_formula_units_Z 32
_cell_length_a 14.216515
_cell_length_b 19.918141
_cell_length_c 7.933328
_cell_angle_alpha 90.000000
_cell_angle_beta 42.218460
_cell_angle_gamma 90.000000
_cell_volume 1509.524916
_symmetry_space_group_name_H-M "C C"
_symmetry_group_IT_number 9
_symmetry_cell_setting 'monoclinic'
loop_
_space_group_symop_operation_xyz
x,y,z
x,-y,1/2+z
1/2+x,1/2+y,z
1/2+x,1/2-y,1/2+z
loop_
_atom_site_type_symbol
_atom_site_label
_atom_site_fract_x
_atom_site_fract_y
_atom_site_fract_z
Si Si1 0.695740 0.398525 0.173330
Si Si2 0.467403 0.924555 0.211102
Si Si3 0.138642 0.491457 0.235326
Si Si4 0.734637 0.129305 0.999556
Si Si5 0.453248 0.181005 0.455899
Si Si6 0.884621 0.900128 0.978949
Si Si7 0.172753 0.033258 0.055470
Si Si8 0.410773 0.668281 0.082749
O O1 0.675126 0.451765 0.049595
O O2 0.681361 0.447522 0.350409
O O3 0.573181 0.344277 0.328483
O O4 0.843681 0.359694 0.983482
O O5 0.566598 0.926720 0.242194
O O6 0.307755 0.938726 0.475418
O O7 0.478973 0.853695 0.102589
O O8 0.525275 0.985406 0.020996
O O9 0.170567 0.554468 0.069433
O O10 0.286312 0.465352 0.106565
O O11 0.604775 0.182266 0.162687
O O12 0.813121 0.131475 0.075973
O O13 0.837153 0.144456 0.704723
O O14 0.387954 0.252707 0.586712
O O15 0.874606 0.856084 0.820666
O O16 0.037027 0.930611 0.814534
#
# Coordination Sequence:
#
# PCOD8054549 Si02
#       8
#     4   4   4   4   4   4   4   4
#     4  10  22  37  64  88 123 166 201 264 323 373
#     4  10  20  37  62  88 124 166 201 264 322 380
#     4  11  20  37  61  97 127 157 209 267 331 375
#     4  11  23  41  66  96 129 165 212 270 322 380
#     4  10  22  43  64  86 127 174 216 250 315 388
#     4  11  24  38  65  99 126 165 212 271 318 378
#     4  10  21  36  56  94 124 153 207 259 328 376
#     4  11  24  43  64  90 128 176 212 257 315 378
#
# _framework density 21.198723000000001
#
# number of rings (size 3 to 8) (size 9 to 14) (size 15 to 20)
#    0.000    1.500    1.250    5.250    5.250    0.000 
#    0.000    6.250    2.750    0.000    0.000    0.000 
#    0.000    0.000    0.000    0.000    0.000    0.000 
#
# Total GULP energy -198305.158634 kJ/mol
# GULP energy per Si atom -12394.072415 kJ/mol
# Density = 2.115047 g / cm^3
# Si number density = 21.198723 Si / 1000 Ang^3
#
#
#
# Elastic Constant Matrix: (Units=GPa)
#
#
# Indices 1 2 3 4 5 6 
#
# 1 91.6353 28.7150 53.1140 0.0000 -15.1344 0.0000
# 2 28.7150 101.6804 29.5740 0.0000 -2.6114 0.0000
# 3 53.1140 29.5740 128.4834 0.0000 -20.0591 0.0000
# 4 0.0000 0.0000 0.0000 19.6369 0.0000 -4.7870
# 5 -15.1344 -2.6114 -20.0591 0.0000 33.5906 0.0000
# 6 0.0000 0.0000 0.0000 -4.7870 0.0000 28.3658
#
#
#
# Elastic Compliance Matrix: (Units=1/GPa)
#
#
# Indices 1 2 3 4 5 6 
#
# 1 0.015358 -0.002746 -0.005150 0.000000 0.003631 0.000000
# 2 -0.002746 0.011046 -0.001617 0.000000 -0.001344 0.000000
# 3 -0.005150 -0.001617 0.010921 0.000000 0.004075 0.000000
# 4 0.000000 0.000000 0.000000 0.053109 0.000000 0.008963
# 5 0.003631 -0.001344 0.004075 0.000000 0.033735 0.000000
# 6 0.000000 0.000000 0.000000 0.008963 0.000000 0.036766
#
#
# Mechanical properties :
#
#
# Convention : Reuss Voigt Hill
#
# Bulk Modulus (GPa) = 54.65024 60.51165 57.58095
# Shear Modulus (GPa) = 26.87286 30.34509 28.60897
#
# Velocity S-wave (km/s) = 3.56429 3.78757 3.67762
# Velocity P-wave (km/s) = 6.54025 6.90901 6.72716
#
# Compressibility (1/GPa) = 0.01829818
#
# Stress axis : x y z
#
# Youngs Moduli (GPa) = 65.11258 90.52979 91.57046
#
# Poissons Ratio (x) = 0.24860 0.47158
# Poissons Ratio (y) = 0.17880 0.14809
# Poissons Ratio (z) = 0.33533 0.14641
#
# Static dielectric constant tensor:
#      x y z
#    x 3.930250 0.000000 -0.183650 
#    y 0.000000 3.566830 0.000000 
#    z -0.183650 0.000000 3.985290 
# 
# 
# High freq. dielectric constant tensor:
#      x y z
#    x 1.836380 0.000000 -0.019470 
#    y 0.000000 1.804990 0.000000 
#    z -0.019470 0.000000 1.835530 
# 
# From -- ./inp_files/8032.got.cif
#   From: 2010.06.25/outbox.cif.g09.slc.cpg/sg9_5_cif.got.tgz:8032.got - 2010.06.27 21:40:51.
