data_PCOD8054428
_publ_section_title
;
Structure prediction by ZEFSAII (Michael W. Deem and Ramdas Pophale) SiO2 
 PCOD8054428
Probable space group: C C
;
_chemical_formula_sum "Si O2"
_cell_formula_units_Z 32
_cell_length_a 9.243912
_cell_length_b 17.013787
_cell_length_c 10.705219
_cell_angle_alpha 90.000000
_cell_angle_beta 80.867388
_cell_angle_gamma 90.000000
_cell_volume 1662.309471
_symmetry_space_group_name_H-M "C C"
_symmetry_group_IT_number 9
_symmetry_cell_setting 'monoclinic'
loop_
_space_group_symop_operation_xyz
x,y,z
x,-y,1/2+z
1/2+x,1/2+y,z
1/2+x,1/2-y,1/2+z
loop_
_atom_site_type_symbol
_atom_site_label
_atom_site_fract_x
_atom_site_fract_y
_atom_site_fract_z
Si Si1 0.651750 0.167351 0.973450
Si Si2 0.291506 0.817692 0.912667
Si Si3 0.704710 0.952784 0.794216
Si Si4 0.098856 0.291587 0.750029
Si Si5 0.663316 0.530212 0.497851
Si Si6 0.749875 0.360703 0.184926
Si Si7 0.842813 0.972496 0.515082
Si Si8 0.933792 0.444379 0.362345
O O1 0.700045 0.241081 0.881675
O O2 0.531026 0.117057 0.922367
O O3 0.576542 0.203390 0.105402
O O4 0.796301 0.116056 0.986564
O O5 0.444663 0.813700 0.826442
O O6 0.198587 0.897552 0.895672
O O7 0.324076 0.814483 0.058277
O O8 0.712212 0.858292 0.781473
O O9 0.787156 0.992831 0.663557
O O10 0.535665 0.981877 0.810812
O O11 0.774543 0.971003 0.919008
O O12 0.155024 0.203318 0.777015
O O13 0.651302 0.567791 0.639558
O O14 0.517608 0.482831 0.483930
O O15 0.799962 0.470663 0.469265
O O16 0.875743 0.400307 0.248511
#
# Coordination Sequence:
#
# PCOD8054428 Si02
#       8
#     4   4   4   4   4   4   4   4
#     4   9  22  40  60  90 119 165 202 244 314 370
#     4   9  20  39  62  83 124 160 201 245 309 358
#     4  10  22  39  64  91 126 167 203 256 316 376
#     4  10  19  40  63  84 127 164 195 256 308 369
#     4  10  23  38  61  92 122 159 207 258 301 369
#     4   9  23  37  60  90 121 154 210 250 303 369
#     4  10  23  38  62  93 126 156 209 259 310 363
#     4  11  22  39  66  89 121 159 211 252 305 378
#
# _framework density 19.250326999999999
#
# number of rings (size 3 to 8) (size 9 to 14) (size 15 to 20)
#    0.750    1.500    1.250    0.000   10.500    2.000 
#    0.000    1.250    0.000    0.000    0.000    0.000 
#    0.000    0.000    0.000    0.000    0.000    0.000 
#
# Total GULP energy -198236.307976 kJ/mol
# GULP energy per Si atom -12389.769248 kJ/mol
# Density = 1.920651 g / cm^3
# Si number density = 19.250327 Si / 1000 Ang^3
#
#
#
# Elastic Constant Matrix: (Units=GPa)
#
#
# Indices 1 2 3 4 5 6 
#
# 1 129.1975 54.4418 35.3842 0.0000 -5.1804 0.0000
# 2 54.4418 100.7817 25.1987 0.0000 7.4737 0.0000
# 3 35.3842 25.1987 65.9154 0.0000 -2.6464 0.0000
# 4 0.0000 0.0000 0.0000 17.7168 0.0000 -13.1623
# 5 -5.1804 7.4737 -2.6464 0.0000 26.4274 0.0000
# 6 0.0000 0.0000 0.0000 -13.1623 0.0000 11.0688
#
#
#
# Elastic Compliance Matrix: (Units=1/GPa)
#
#
# Indices 1 2 3 4 5 6 
#
# 1 0.011162 -0.005318 -0.003826 0.000000 0.003309 0.000000
# 2 -0.005318 0.013845 -0.002647 0.000000 -0.005223 0.000000
# 3 -0.003826 -0.002647 0.018310 0.000000 0.001832 0.000000
# 4 0.000000 0.000000 0.000000 0.484270 0.000000 0.575865
# 5 0.003309 -0.005223 0.001832 0.000000 0.040149 0.000000
# 6 0.000000 0.000000 0.000000 0.575865 0.000000 0.775129
#
#
# Mechanical properties :
#
#
# Convention : Reuss Voigt Hill
#
# Bulk Modulus (GPa) = 50.67475 58.43822 54.55649
# Shear Modulus (GPa) = 3.64159 23.10060 13.37110
#
# Velocity S-wave (km/s) = 1.37688 3.46788 2.63837
# Velocity P-wave (km/s) = 5.37671 6.81599 6.13868
#
# Compressibility (1/GPa) = 0.01973369
#
# Stress axis : x y z
#
# Youngs Moduli (GPa) = 89.59322 72.23047 54.61407
#
# Poissons Ratio (x) = 0.38414 0.20894
# Poissons Ratio (y) = 0.47648 0.14459
# Poissons Ratio (z) = 0.34276 0.19122
#
# Static dielectric constant tensor:
#      x y z
#    x 3.277840 0.000000 -0.092360 
#    y 0.000000 3.908240 0.000000 
#    z -0.092360 0.000000 3.460490 
# 
# 
# High freq. dielectric constant tensor:
#      x y z
#    x 1.731280 0.000000 -0.012450 
#    y 0.000000 1.759190 0.000000 
#    z -0.012450 0.000000 1.738070 
# 
# From -- ./inp_files/15070.got.cif
#   From: 2010.06.25/outbox.cif.g09.slc.cpg/sg9_8_cif.got.tgz:15070.got - 2010.06.27 21:40:51.
