data_PCOD8054434
_publ_section_title
;
Structure prediction by ZEFSAII (Michael W. Deem and Ramdas Pophale) SiO2 
 PCOD8054434
Probable space group: C C
;
_chemical_formula_sum "Si O2"
_cell_formula_units_Z 28
_cell_length_a 11.745025
_cell_length_b 7.939220
_cell_length_c 26.108133
_cell_angle_alpha 90.000000
_cell_angle_beta 27.301484
_cell_angle_gamma 90.000000
_cell_volume 1116.632766
_symmetry_space_group_name_H-M "C C"
_symmetry_group_IT_number 9
_symmetry_cell_setting 'monoclinic'
loop_
_space_group_symop_operation_xyz
x,y,z
x,-y,1/2+z
1/2+x,1/2+y,z
1/2+x,1/2-y,1/2+z
loop_
_atom_site_type_symbol
_atom_site_label
_atom_site_fract_x
_atom_site_fract_y
_atom_site_fract_z
Si Si1 0.389350 0.696191 0.790550
Si Si2 0.000328 0.372017 0.146686
Si Si3 0.668917 0.390791 0.729821
Si Si4 0.668585 0.214090 0.468624
Si Si5 0.907341 0.979147 0.686806
Si Si6 0.776228 0.012229 0.127952
Si Si7 0.915182 0.392646 0.529035
O O1 0.563659 0.568826 0.751665
O O2 0.318645 0.609897 0.764457
O O3 0.536085 0.868658 0.725901
O O4 0.128396 0.733230 0.922975
O O5 0.204413 0.377733 0.111594
O O6 0.854629 0.550430 0.201314
O O7 0.804536 0.214714 0.233602
O O8 0.154975 0.339880 0.033040
O O9 0.455253 0.266692 0.836100
O O10 0.815586 0.311667 0.622725
O O11 0.526418 0.387940 0.513240
O O12 0.541917 0.072895 0.485098
O O13 0.825665 0.064636 0.665444
O O14 0.202093 0.933489 0.572503
#
# Coordination Sequence:
#
# PCOD8054434 Si02
#       7
#     4   4   4   4   4   4   4
#     4  10  19  40  65  86 125 165 204 250 314 371
#     4  10  21  38  62  94 127 157 205 259 311 367
#     4   9  17  39  62  88 117 166 204 246 308 366
#     4   9  18  39  63  87 122 164 202 252 305 368
#     4  10  20  42  60  90 128 160 202 261 307 366
#     4  11  21  39  62  94 125 160 203 257 309 370
#     4   9  18  37  66  85 116 170 204 247 308 366
#
# _framework density 25.075388
#
# number of rings (size 3 to 8) (size 9 to 14) (size 15 to 20)
#    0.000    2.286    5.714    0.000    0.000    2.286 
#   15.429    2.857    0.000    0.000    0.000    0.000 
#    0.000    0.000    0.000    0.000    0.000    0.000 
#
# Total GULP energy -173506.635254 kJ/mol
# GULP energy per Si atom -12393.331090 kJ/mol
# Density = 2.501831 g / cm^3
# Si number density = 25.075388 Si / 1000 Ang^3
#
#
#
# Elastic Constant Matrix: (Units=GPa)
#
#
# Indices 1 2 3 4 5 6 
#
# 1 175.1252 44.3446 30.6455 -0.0035 0.1860 0.0015
# 2 44.3446 42.7132 19.9745 -0.0019 10.5480 0.0016
# 3 30.6455 19.9745 142.7465 -0.0034 3.3370 0.0067
# 4 -0.0035 -0.0019 -0.0034 19.2785 0.0064 -4.9655
# 5 0.1860 10.5480 3.3370 0.0064 16.6906 -0.0028
# 6 0.0015 0.0016 0.0067 -4.9655 -0.0028 60.9950
#
#
#
# Elastic Compliance Matrix: (Units=1/GPa)
#
#
# Indices 1 2 3 4 5 6 
#
# 1 0.008313 -0.009931 -0.000542 -0.000002 0.006292 0.000000
# 2 -0.009931 0.041448 -0.003072 0.000010 -0.025469 -0.000001
# 3 -0.000542 -0.003072 0.007541 0.000001 0.000440 -0.000001
# 4 -0.000002 0.000010 0.000001 0.052982 -0.000026 0.004313
# 5 0.006292 -0.025469 0.000440 -0.000026 0.075852 0.000002
# 6 0.000000 -0.000001 -0.000001 0.004313 0.000002 0.016746
#
#
# Mechanical properties :
#
#
# Convention : Reuss Voigt Hill
#
# Bulk Modulus (GPa) = 33.09923 61.16822 47.13373
# Shear Modulus (GPa) = 20.82951 37.10086 28.96518
#
# Velocity S-wave (km/s) = 2.88527 3.85069 3.40240
# Velocity P-wave (km/s) = 4.93237 6.64960 5.85429
#
# Compressibility (1/GPa) = 0.03021218
#
# Stress axis : x y z
#
# Youngs Moduli (GPa) = 120.29336 24.12637 132.60026
#
# Poissons Ratio (x) = 0.23959 0.07189
# Poissons Ratio (y) = 1.19460 0.40741
# Poissons Ratio (z) = 0.06522 0.07413
#
# Static dielectric constant tensor:
#      x y z
#    x 4.799860 -0.000010 -0.052190 
#    y -0.000010 4.666610 -0.000010 
#    z -0.052190 -0.000010 4.695540 
# 
# 
# High freq. dielectric constant tensor:
#      x y z
#    x 2.019660 0.000000 -0.005930 
#    y 0.000000 2.017610 0.000000 
#    z -0.005930 0.000000 1.971830 
# 
# From -- ./inp_files/29779.got.cif
#   From: 2010.06.25/outbox.cif.g09.slc.cpg/sg9_15_cif.got.tgz:29779.got - 2010.06.27 21:40:51.
