data_PCOD8054027
_publ_section_title
;
Structure prediction by ZEFSAII (Michael W. Deem and Ramdas Pophale) SiO2 
 PCOD8054027
Probable space group: C M
;
_chemical_formula_sum "Si O2"
_cell_formula_units_Z 20
_cell_length_a 9.008351
_cell_length_b 15.969754
_cell_length_c 7.863421
_cell_angle_alpha 90.000000
_cell_angle_beta 123.424276
_cell_angle_gamma 90.000000
_cell_volume 944.150019
_symmetry_space_group_name_H-M "C M"
_symmetry_group_IT_number 8
_symmetry_cell_setting 'monoclinic'
loop_
_space_group_symop_operation_xyz
x,y,z
x,-y,z
1/2+x,1/2+y,z
1/2+x,1/2-y,z
loop_
_atom_site_type_symbol
_atom_site_label
_atom_site_fract_x
_atom_site_fract_y
_atom_site_fract_z
Si Si1 0.477730 0.168204 0.122920
Si Si2 0.244093 0.671615 0.989806
Si Si3 0.815286 0.500000 0.890033
Si Si4 0.435868 0.500000 0.745413
Si Si5 0.853043 0.500000 0.523759
Si Si6 0.463043 0.500000 0.139312
Si Si7 0.128228 0.626958 0.562584
O O1 0.361178 0.247873 0.089339
O O2 0.584738 0.181405 0.019373
O O3 0.602285 0.171710 0.367381
O O4 0.370157 0.081256 0.034887
O O5 0.343151 0.583249 0.092759
O O6 0.167177 0.683336 0.751180
O O7 0.602059 0.500000 0.721871
O O8 0.902050 0.500000 0.756278
O O9 0.309513 0.578220 0.641329
O O10 0.529247 0.500000 0.988399
O O11 0.639842 0.500000 0.366202
O O12 0.947077 0.578371 0.494463
#
# Coordination Sequence:
#
# PCOD8054027 Si02
#       7
#     4   4   2   2   2   2   4
#     4  12  27  45  72 101 141 182 229 284 345 405
#     4  11  27  46  68 104 136 183 233 285 334 415
#     4  12  24  43  72 105 138 177 237 278 344 410
#     4   9  21  40  69 100 125 182 226 278 332 411
#     4  11  22  41  74 103 133 186 229 283 339 413
#     4  10  23  44  71  92 142 179 232 275 345 396
#     4  10  23  46  68  95 144 180 227 279 347 396
#
# _framework density 21.183073
#
# number of rings (size 3 to 8) (size 9 to 14) (size 15 to 20)
#    0.000    1.200    2.000    3.600   11.200    3.200 
#    0.000    0.000    0.000    0.000    0.000    0.000 
#    0.000    0.000    0.000    0.000    0.000    0.000 
#
# Total GULP energy -123916.680182 kJ/mol
# GULP energy per Si atom -12391.668018 kJ/mol
# Density = 2.113486 g / cm^3
# Si number density = 21.183073 Si / 1000 Ang^3
#
#
#
# Elastic Constant Matrix: (Units=GPa)
#
#
# Indices 1 2 3 4 5 6 
#
# 1 98.7887 22.1648 20.0479 0.0000 9.1842 0.0000
# 2 22.1648 119.7704 27.1960 0.0000 7.8948 0.0000
# 3 20.0479 27.1960 134.5625 0.0000 -7.8966 0.0000
# 4 0.0000 0.0000 0.0000 13.6982 0.0000 -7.4265
# 5 9.1842 7.8948 -7.8966 0.0000 36.5793 0.0000
# 6 0.0000 0.0000 0.0000 -7.4265 0.0000 10.2894
#
#
#
# Elastic Compliance Matrix: (Units=1/GPa)
#
#
# Indices 1 2 3 4 5 6 
#
# 1 0.011024 -0.001518 -0.001498 0.000000 -0.002764 0.000000
# 2 -0.001518 0.009155 -0.001740 0.000000 -0.001970 0.000000
# 3 -0.001498 -0.001740 0.008154 0.000000 0.002512 0.000000
# 4 0.000000 0.000000 0.000000 0.119934 0.000000 0.086564
# 5 -0.002764 -0.001970 0.002512 0.000000 0.028999 0.000000
# 6 0.000000 0.000000 0.000000 0.086564 0.000000 0.159667
#
#
# Mechanical properties :
#
#
# Convention : Reuss Voigt Hill
#
# Bulk Modulus (GPa) = 53.12963 54.65989 53.89476
# Shear Modulus (GPa) = 14.17564 31.02756 22.60160
#
# Velocity S-wave (km/s) = 2.58969 3.83134 3.26999
# Velocity P-wave (km/s) = 5.83760 6.74031 6.30513
#
# Compressibility (1/GPa) = 0.01882189
#
# Stress axis : x y z
#
# Youngs Moduli (GPa) = 90.71063 109.22832 122.64418
#
# Poissons Ratio (x) = 0.16579 0.18370
# Poissons Ratio (y) = 0.13768 0.21338
# Poissons Ratio (z) = 0.13587 0.19004
#
# Static dielectric constant tensor:
#      x y z
#    x 3.801380 0.000000 -0.082900 
#    y 0.000000 3.589380 0.000000 
#    z -0.082900 0.000000 3.959670 
# 
# 
# High freq. dielectric constant tensor:
#      x y z
#    x 1.843770 0.000000 -0.004070 
#    y 0.000000 1.818180 0.000000 
#    z -0.004070 0.000000 1.844110 
# 
# From -- ./inp_files/8100.got.cif
#   From: 2010.03.12/outbox.cif.g09.slc.cpg/sg8_5_cif.got.tgz:8100.got - 2010.03.31 10:45:26.
