data_PCOD8054329
_publ_section_title
;
Structure prediction by ZEFSAII (Michael W. Deem and Ramdas Pophale) SiO2 
 PCOD8054329
Probable space group: C C
;
_chemical_formula_sum "Si O2"
_cell_formula_units_Z 28
_cell_length_a 29.389112
_cell_length_b 8.500969
_cell_length_c 5.266677
_cell_angle_alpha 90.000000
_cell_angle_beta 117.135615
_cell_angle_gamma 90.000000
_cell_volume 1170.973772
_symmetry_space_group_name_H-M "C C"
_symmetry_group_IT_number 9
_symmetry_cell_setting 'monoclinic'
loop_
_space_group_symop_operation_xyz
x,y,z
x,-y,1/2+z
1/2+x,1/2+y,z
1/2+x,1/2-y,1/2+z
loop_
_atom_site_type_symbol
_atom_site_label
_atom_site_fract_x
_atom_site_fract_y
_atom_site_fract_z
Si Si1 0.032160 0.557834 0.133060
Si Si2 0.405017 0.592233 0.316568
Si Si3 0.643390 0.076766 0.968536
Si Si4 0.795403 0.102071 0.946467
Si Si5 0.135021 0.059035 0.509298
Si Si6 0.745477 0.422683 0.845324
Si Si7 0.517087 0.400035 0.017641
O O1 0.001575 0.520824 0.317706
O O2 0.083416 0.456691 0.318456
O O3 0.049119 0.739520 0.139248
O O4 0.403967 0.554429 0.614470
O O5 0.352130 0.683386 0.115289
O O6 0.459175 0.674434 0.393437
O O7 0.669630 0.006556 0.780588
O O8 0.651467 0.263552 0.005828
O O9 0.787929 0.976525 0.152637
O O10 0.753239 0.236725 0.867229
O O11 0.103439 0.975594 0.194253
O O12 0.184597 0.953732 0.702037
O O13 0.770707 0.499879 0.659722
O O14 0.526400 0.532538 0.257223
#
# Coordination Sequence:
#
# PCOD8054329 Si02
#       7
#     4   4   4   4   4   4   4
#     4  10  21  38  55  81 115 144 181 228 275 329
#     4   8  16  30  52  80 110 142 182 222 266 320
#     4  10  21  40  60  81 109 144 181 228 279 332
#     4  10  19  35  58  83 110 147 187 226 268 323
#     4  10  21  40  60  81 109 144 181 228 279 332
#     4  10  21  38  55  81 115 144 181 228 275 329
#     4  10  19  35  58  83 110 147 187 226 268 323
#
# _framework density 23.911722000000001
#
# number of rings (size 3 to 8) (size 9 to 14) (size 15 to 20)
#    0.000    2.286    0.000    2.571    0.000    0.000 
#    0.000   35.714    0.000    0.000    0.000    0.000 
#    0.000    0.000    0.000    0.000    0.000    0.000 
#
# Total GULP energy -173467.351728 kJ/mol
# GULP energy per Si atom -12390.525123 kJ/mol
# Density = 2.385730 g / cm^3
# Si number density = 23.911722 Si / 1000 Ang^3
#
#
#
# Elastic Constant Matrix: (Units=GPa)
#
#
# Indices 1 2 3 4 5 6 
#
# 1 52.7532 39.4540 55.6619 0.0000 -17.8404 0.0000
# 2 39.4540 128.7249 51.1191 0.0000 -17.0239 0.0000
# 3 55.6619 51.1191 136.3371 0.0000 -59.7675 0.0000
# 4 0.0000 0.0000 0.0000 36.2967 0.0000 -13.1126
# 5 -17.8404 -17.0239 -59.7675 0.0000 58.0919 0.0000
# 6 0.0000 0.0000 0.0000 -13.1126 0.0000 20.5504
#
#
#
# Elastic Compliance Matrix: (Units=1/GPa)
#
#
# Indices 1 2 3 4 5 6 
#
# 1 0.038658 -0.006218 -0.016478 0.000000 -0.006903 0.000000
# 2 -0.006218 0.010204 -0.001482 0.000000 -0.000444 0.000000
# 3 -0.016478 -0.001482 0.022240 0.000000 0.017386 0.000000
# 4 0.000000 0.000000 0.000000 0.035804 0.000000 0.022846
# 5 -0.006903 -0.000444 0.017386 0.000000 0.032852 0.000000
# 6 0.000000 0.000000 0.000000 0.022846 0.000000 0.063238
#
#
# Mechanical properties :
#
#
# Convention : Reuss Voigt Hill
#
# Bulk Modulus (GPa) = 43.96245 67.80947 55.88596
# Shear Modulus (GPa) = 19.30996 34.42647 26.86821
#
# Velocity S-wave (km/s) = 2.84483 3.79850 3.35571
# Velocity P-wave (km/s) = 5.40518 6.90347 6.19975
#
# Compressibility (1/GPa) = 0.02274668
#
# Stress axis : x y z
#
# Youngs Moduli (GPa) = 25.86758 97.99925 44.96495
#
# Poissons Ratio (x) = 0.60937 0.74091
# Poissons Ratio (y) = 0.16085 0.06664
# Poissons Ratio (z) = 0.42624 0.14524
#
# Static dielectric constant tensor:
#      x y z
#    x 5.049950 0.000000 -0.737990 
#    y 0.000000 3.796370 0.000000 
#    z -0.737990 0.000000 5.470550 
# 
# 
# High freq. dielectric constant tensor:
#      x y z
#    x 1.950940 0.000000 -0.030640 
#    y 0.000000 1.916150 0.000000 
#    z -0.030640 0.000000 1.976050 
# 
# From -- ./inp_files/3435.got.cif
#   From: 2010.06.25/outbox.cif.g09.slc.cpg/sg9_2_cif.got.tgz:3435.got - 2010.06.27 21:40:51.
