data_PCOD8054291
_publ_section_title
;
Structure prediction by ZEFSAII (Michael W. Deem and Ramdas Pophale) SiO2 
 PCOD8054291
Probable space group: C C
;
_chemical_formula_sum "Si O2"
_cell_formula_units_Z 28
_cell_length_a 18.141207
_cell_length_b 5.311208
_cell_length_c 17.512153
_cell_angle_alpha 90.000000
_cell_angle_beta 43.194155
_cell_angle_gamma 90.000000
_cell_volume 1154.928733
_symmetry_space_group_name_H-M "C C"
_symmetry_group_IT_number 9
_symmetry_cell_setting 'monoclinic'
loop_
_space_group_symop_operation_xyz
x,y,z
x,-y,1/2+z
1/2+x,1/2+y,z
1/2+x,1/2-y,1/2+z
loop_
_atom_site_type_symbol
_atom_site_label
_atom_site_fract_x
_atom_site_fract_y
_atom_site_fract_z
Si Si1 0.634750 0.680831 0.171120
Si Si2 0.987898 0.192428 0.412477
Si Si3 0.453920 0.684728 0.186769
Si Si4 0.632779 0.818857 0.620652
Si Si5 0.924844 0.687175 0.386659
Si Si6 0.828826 0.314943 0.805363
Si Si7 0.088483 0.863234 0.992365
O O1 0.606491 0.691966 0.281955
O O2 0.514773 0.669718 0.222200
O O3 0.700446 0.430126 0.095208
O O4 0.698844 0.925748 0.090546
O O5 0.915764 0.431389 0.442808
O O6 0.008727 0.230995 0.486604
O O7 0.926814 0.928878 0.441133
O O8 0.369522 0.452473 0.242275
O O9 0.398061 0.953465 0.219706
O O10 0.545406 0.638652 0.052372
O O11 0.529909 0.824135 0.754145
O O12 0.588586 0.819904 0.567281
O O13 0.824967 0.701577 0.401756
O O14 0.708498 0.375018 0.868429
#
# Coordination Sequence:
#
# PCOD8054291 Si02
#       7
#     4   4   4   4   4   4   4
#     4   9  15  34  62  78 112 172 190 236 319 360
#     4  10  20  35  62  91 123 167 196 266 327 360
#     4  11  21  42  65  89 129 167 209 265 307 381
#     4   9  17  33  59  83 113 164 199 241 299 378
#     4  10  18  40  65  81 127 174 200 249 330 367
#     4  12  22  40  70  91 121 171 221 253 307 392
#     4  11  25  38  69  99 125 163 223 262 323 366
#
# _framework density 24.243921
#
# number of rings (size 3 to 8) (size 9 to 14) (size 15 to 20)
#    0.000    1.714    7.143    0.000    0.000    8.000 
#    0.000    0.000   25.143    0.000    0.000    0.000 
#    0.000    0.000    0.000    0.000    0.000    0.000 
#
# Total GULP energy -173440.242979 kJ/mol
# GULP energy per Si atom -12388.588784 kJ/mol
# Density = 2.418874 g / cm^3
# Si number density = 24.243921 Si / 1000 Ang^3
#
#
#
# Elastic Constant Matrix: (Units=GPa)
#
#
# Indices 1 2 3 4 5 6 
#
# 1 82.6529 28.1546 15.3809 0.0113 10.7084 -0.0124
# 2 28.1546 219.3490 15.7555 0.3484 7.7414 0.4985
# 3 15.3809 15.7555 39.5801 -0.0727 3.9411 0.0245
# 4 0.0113 0.3484 -0.0727 18.6454 -0.0060 8.5816
# 5 10.7084 7.7414 3.9411 -0.0060 38.5223 0.0058
# 6 -0.0124 0.4985 0.0245 8.5816 0.0058 16.6402
#
#
#
# Elastic Compliance Matrix: (Units=1/GPa)
#
#
# Indices 1 2 3 4 5 6 
#
# 1 0.013798 -0.001337 -0.004521 -0.000038 -0.003104 0.000078
# 2 -0.001337 0.004845 -0.001363 -0.000038 -0.000463 -0.000124
# 3 -0.004521 -0.001363 0.027695 0.000180 -0.001303 -0.000096
# 4 -0.000038 -0.000038 0.000180 0.070326 0.000016 -0.036268
# 5 -0.003104 -0.000463 -0.001303 0.000016 0.027048 -0.000004
# 6 0.000078 -0.000124 -0.000096 -0.036268 -0.000004 0.078803
#
#
# Mechanical properties :
#
#
# Convention : Reuss Voigt Hill
#
# Bulk Modulus (GPa) = 31.35173 51.12937 41.24055
# Shear Modulus (GPa) = 20.19480 33.58098 26.88789
#
# Velocity S-wave (km/s) = 2.88928 3.72577 3.33386
# Velocity P-wave (km/s) = 4.90820 6.29634 5.64510
#
# Compressibility (1/GPa) = 0.03189617
#
# Stress axis : x y z
#
# Youngs Moduli (GPa) = 72.47628 206.39347 36.10806
#
# Poissons Ratio (x) = 0.27592 0.16323
# Poissons Ratio (y) = 0.09689 0.04922
# Poissons Ratio (z) = 0.32764 0.28134
#
# Static dielectric constant tensor:
#      x y z
#    x 3.868770 -0.001130 0.060410 
#    y -0.001130 6.066640 -0.000730 
#    z 0.060410 -0.000730 4.159210 
# 
# 
# High freq. dielectric constant tensor:
#      x y z
#    x 1.916670 -0.000040 0.001520 
#    y -0.000040 1.986080 -0.000010 
#    z 0.001520 -0.000010 1.953840 
# 
# From -- ./inp_files/30846.got.cif
#   From: 2010.06.25/outbox.cif.g09.slc.cpg/sg9_16_cif.got.tgz:30846.got - 2010.06.27 21:40:51.
