data_PCOD8054302
_publ_section_title
;
Structure prediction by ZEFSAII (Michael W. Deem and Ramdas Pophale) SiO2 
 PCOD8054302
Probable space group: C C
;
_chemical_formula_sum "Si O2"
_cell_formula_units_Z 32
_cell_length_a 15.833992
_cell_length_b 15.249169
_cell_length_c 13.480488
_cell_angle_alpha 90.000000
_cell_angle_beta 32.320060
_cell_angle_gamma 90.000000
_cell_volume 1740.244884
_symmetry_space_group_name_H-M "C C"
_symmetry_group_IT_number 9
_symmetry_cell_setting 'monoclinic'
loop_
_space_group_symop_operation_xyz
x,y,z
x,-y,1/2+z
1/2+x,1/2+y,z
1/2+x,1/2-y,1/2+z
loop_
_atom_site_type_symbol
_atom_site_label
_atom_site_fract_x
_atom_site_fract_y
_atom_site_fract_z
Si Si1 0.737530 0.692593 0.422820
Si Si2 0.264417 0.357283 0.636693
Si Si3 0.227275 0.323221 0.268871
Si Si4 0.400872 0.498256 0.128258
Si Si5 0.872312 0.649469 0.092543
Si Si6 0.898801 0.320477 0.971380
Si Si7 0.197386 0.013772 0.702343
Si Si8 0.477187 0.570730 0.754799
O O1 0.713251 0.789678 0.397986
O O2 0.824362 0.630671 0.255215
O O3 0.846544 0.697900 0.410596
O O4 0.562798 0.654806 0.619524
O O5 0.283772 0.423843 0.709948
O O6 0.355565 0.267604 0.574966
O O7 0.337552 0.399699 0.465400
O O8 0.084034 0.336397 0.792755
O O9 0.341514 0.405616 0.144912
O O10 0.300853 0.243881 0.130359
O O11 0.059107 0.350354 0.392514
O O12 0.405478 0.494184 0.243047
O O13 0.575966 0.514211 0.913758
O O14 0.802733 0.573232 0.093240
O O15 0.808667 0.402321 0.108143
O O16 0.108826 0.017610 0.685327
#
# Coordination Sequence:
#
# PCOD8054302 Si02
#       8
#     4   4   4   4   4   4   4   4
#     4   9  20  32  55  86 113 141 178 236 283 325
#     4  11  24  36  58  83 115 150 185 238 279 335
#     4  10  20  30  56  83 113 147 179 227 285 332
#     4  11  20  37  55  83 114 149 187 229 285 332
#     4  10  19  32  51  84 114 143 179 223 285 330
#     4  11  22  38  55  85 117 141 193 227 287 333
#     4  10  21  37  56  81 114 151 184 234 280 336
#     4  10  20  36  58  83 114 150 189 232 282 331
#
# _framework density 18.388217000000001
#
# number of rings (size 3 to 8) (size 9 to 14) (size 15 to 20)
#    0.750    1.000    1.250    5.250    5.250    0.000 
#    0.000    0.000    0.000    9.000    0.000    0.000 
#    0.000    0.000    0.000    0.000    0.000    0.000 
#
# Total GULP energy -198372.409003 kJ/mol
# GULP energy per Si atom -12398.275563 kJ/mol
# Density = 1.834637 g / cm^3
# Si number density = 18.388217 Si / 1000 Ang^3
#
#
#
# Elastic Constant Matrix: (Units=GPa)
#
#
# Indices 1 2 3 4 5 6 
#
# 1 73.3684 59.5943 38.7494 0.0007 -21.4218 -0.0003
# 2 59.5943 141.1910 42.3548 0.0004 -7.9505 -0.0003
# 3 38.7494 42.3548 91.9746 0.0006 -21.7270 -0.0004
# 4 0.0007 0.0004 0.0006 35.2806 -0.0007 -5.0505
# 5 -21.4218 -7.9505 -21.7270 -0.0007 28.6502 0.0004
# 6 -0.0003 -0.0003 -0.0004 -5.0505 0.0004 31.0357
#
#
#
# Elastic Compliance Matrix: (Units=1/GPa)
#
#
# Indices 1 2 3 4 5 6 
#
# 1 0.028128 -0.009913 -0.003615 0.000000 0.015539 0.000000
# 2 -0.009913 0.011724 -0.002686 0.000000 -0.006196 0.000000
# 3 -0.003615 -0.002686 0.015615 0.000000 0.008394 0.000000
# 4 0.000000 0.000000 0.000000 0.029020 0.000001 0.004722
# 5 0.015539 -0.006196 0.008394 0.000001 0.051169 0.000000
# 6 0.000000 0.000000 0.000000 0.004722 0.000000 0.032989
#
#
# Mechanical properties :
#
#
# Convention : Reuss Voigt Hill
#
# Bulk Modulus (GPa) = 43.40369 65.32569 54.36469
# Shear Modulus (GPa) = 23.95188 30.04901 27.00045
#
# Velocity S-wave (km/s) = 3.61302 4.04684 3.83607
# Velocity P-wave (km/s) = 6.40785 7.57884 7.01781
#
# Compressibility (1/GPa) = 0.02303952
#
# Stress axis : x y z
#
# Youngs Moduli (GPa) = 35.55188 85.29842 64.04025
#
# Poissons Ratio (x) = 0.84556 0.23149
# Poissons Ratio (y) = 0.35242 0.17201
# Poissons Ratio (z) = 0.12851 0.22911
#
# Static dielectric constant tensor:
#      x y z
#    x 3.281670 0.000000 -0.136400 
#    y 0.000000 3.544460 0.000000 
#    z -0.136400 0.000000 3.296150 
# 
# 
# High freq. dielectric constant tensor:
#      x y z
#    x 1.694420 0.000000 -0.026900 
#    y 0.000000 1.713560 0.000000 
#    z -0.026900 0.000000 1.709140 
# 
# From -- ./inp_files/26885.got.cif
#   From: 2010.06.25/outbox.cif.g09.slc.cpg/sg9_14_cif.got.tgz:26885.got - 2010.06.27 21:40:51.
