data_PCOD8054483
_publ_section_title
;
Structure prediction by ZEFSAII (Michael W. Deem and Ramdas Pophale) SiO2 
 PCOD8054483
Probable space group: C C
;
_chemical_formula_sum "Si O2"
_cell_formula_units_Z 28
_cell_length_a 10.526470
_cell_length_b 24.214023
_cell_length_c 5.087609
_cell_angle_alpha 90.000000
_cell_angle_beta 104.036429
_cell_angle_gamma 90.000000
_cell_volume 1258.052061
_symmetry_space_group_name_H-M "C C"
_symmetry_group_IT_number 9
_symmetry_cell_setting 'monoclinic'
loop_
_space_group_symop_operation_xyz
x,y,z
x,-y,1/2+z
1/2+x,1/2+y,z
1/2+x,1/2-y,1/2+z
loop_
_atom_site_type_symbol
_atom_site_label
_atom_site_fract_x
_atom_site_fract_y
_atom_site_fract_z
Si Si1 0.034090 0.845004 0.298780
Si Si2 0.655478 0.198597 0.749380
Si Si3 0.798974 0.282251 0.524662
Si Si4 0.928725 0.534680 0.014725
Si Si5 0.439890 0.713489 0.226136
Si Si6 0.626849 0.535606 0.885683
Si Si7 0.561453 0.852488 0.700171
O O1 0.178075 0.823635 0.451541
O O2 0.037612 0.911165 0.286141
O O3 0.927576 0.828909 0.472800
O O4 0.999568 0.820075 0.001111
O O5 0.781045 0.238464 0.757510
O O6 0.530813 0.237602 0.672005
O O7 0.637010 0.152589 0.512555
O O8 0.665186 0.166738 0.029884
O O9 0.807310 0.244459 0.262549
O O10 0.933343 0.314134 0.636349
O O11 0.958204 0.514088 0.735693
O O12 0.778460 0.554074 0.954606
O O13 0.023379 0.584905 0.128207
O O14 0.594117 0.489333 0.653415
#
# Coordination Sequence:
#
# PCOD8054483 Si02
#       7
#     4   4   4   4   4   4   4
#     4  11  21  36  54  81 110 146 175 220 270 317
#     4  10  22  34  52  79 108 146 187 207 265 326
#     4  10  20  36  52  78 114 144 170 226 254 320
#     4  10  20  35  54  80 107 140 178 219 273 325
#     4  10  22  34  52  79 108 146 187 207 265 326
#     4  10  20  35  54  80 107 140 178 219 273 325
#     4  11  21  36  54  81 110 146 175 220 270 317
#
# _framework density 22.256629
#
# number of rings (size 3 to 8) (size 9 to 14) (size 15 to 20)
#    0.000    1.714    1.429    5.143    0.000   10.286 
#    0.000    0.000    0.000    0.000    0.000   20.000 
#    0.000    0.000    0.000    0.000    0.000    0.000 
#
# Total GULP energy -173551.557523 kJ/mol
# GULP energy per Si atom -12396.539823 kJ/mol
# Density = 2.220597 g / cm^3
# Si number density = 22.256629 Si / 1000 Ang^3
#
#
#
# Elastic Constant Matrix: (Units=GPa)
#
#
# Indices 1 2 3 4 5 6 
#
# 1 36.4099 11.0163 4.5047 0.0000 -16.1793 0.0000
# 2 11.0163 96.2652 14.8340 0.0000 -4.1931 0.0000
# 3 4.5047 14.8340 111.8468 0.0000 -10.3653 0.0000
# 4 0.0000 0.0000 0.0000 28.7527 0.0000 11.2627
# 5 -16.1793 -4.1931 -10.3653 0.0000 33.5594 0.0000
# 6 0.0000 0.0000 0.0000 11.2627 0.0000 28.1385
#
#
#
# Elastic Compliance Matrix: (Units=1/GPa)
#
#
# Indices 1 2 3 4 5 6 
#
# 1 0.036055 -0.003472 0.000596 0.000000 0.017133 0.000000
# 2 -0.003472 0.010966 -0.001382 0.000000 -0.000730 0.000000
# 3 0.000596 -0.001382 0.009379 0.000000 0.003012 0.000000
# 4 0.000000 0.000000 0.000000 0.041246 0.000000 -0.016509
# 5 0.017133 -0.000730 0.003012 0.000000 0.038897 0.000000
# 6 0.000000 0.000000 0.000000 -0.016509 0.000000 0.042146
#
#
# Mechanical properties :
#
#
# Convention : Reuss Voigt Hill
#
# Bulk Modulus (GPa) = 20.88348 33.91468 27.39908
# Shear Modulus (GPa) = 24.61028 32.36792 28.48910
#
# Velocity S-wave (km/s) = 3.32889 3.81767 3.58163
# Velocity P-wave (km/s) = 4.91719 5.89100 5.42599
#
# Compressibility (1/GPa) = 0.04788475
#
# Stress axis : x y z
#
# Youngs Moduli (GPa) = 27.73552 91.18729 106.61865
#
# Poissons Ratio (x) = 0.31657 -0.06355
# Poissons Ratio (y) = 0.09629 0.14738
# Poissons Ratio (z) = -0.01653 0.12605
#
# Static dielectric constant tensor:
#      x y z
#    x 4.151380 0.000000 -0.448720 
#    y 0.000000 3.869900 0.000000 
#    z -0.448720 0.000000 4.235800 
# 
# 
# High freq. dielectric constant tensor:
#      x y z
#    x 1.864180 0.000000 -0.014790 
#    y 0.000000 1.864550 0.000000 
#    z -0.014790 0.000000 1.897980 
# 
# From -- ./inp_files/1739.got.cif
#   From: 2010.06.25/outbox.cif.g09.slc.cpg/sg9_1_cif.got.tgz:1739.got - 2010.06.27 21:40:51.
