data_PCOD8054187
_publ_section_title
;
Structure prediction by ZEFSAII (Michael W. Deem and Ramdas Pophale) SiO2 
 PCOD8054187
Probable space group: C C
;
_chemical_formula_sum "Si O2"
_cell_formula_units_Z 32
_cell_length_a 15.139512
_cell_length_b 22.486376
_cell_length_c 10.107983
_cell_angle_alpha 90.000000
_cell_angle_beta 153.464633
_cell_angle_gamma 90.000000
_cell_volume 1537.306805
_symmetry_space_group_name_H-M "C C"
_symmetry_group_IT_number 9
_symmetry_cell_setting 'monoclinic'
loop_
_space_group_symop_operation_xyz
x,y,z
x,-y,1/2+z
1/2+x,1/2+y,z
1/2+x,1/2-y,1/2+z
loop_
_atom_site_type_symbol
_atom_site_label
_atom_site_fract_x
_atom_site_fract_y
_atom_site_fract_z
Si Si1 0.674790 0.303754 0.076070
Si Si2 0.549346 0.824806 0.432506
Si Si3 0.917025 0.698638 0.167579
Si Si4 0.119459 0.548566 0.928916
Si Si5 0.796403 0.825905 0.033136
Si Si6 0.046167 0.920620 0.999742
Si Si7 0.895865 0.500983 0.879526
Si Si8 0.152327 0.895730 0.437091
O O1 0.804591 0.296371 0.379743
O O2 0.816672 0.327258 0.151208
O O3 0.584792 0.240028 0.913747
O O4 0.510309 0.354027 0.891024
O O5 0.586657 0.879928 0.383760
O O6 0.690771 0.831252 0.749304
O O7 0.924794 0.766210 0.227476
O O8 0.133914 0.670189 0.432491
O O9 0.798579 0.660001 0.114670
O O10 0.053020 0.520271 0.979311
O O11 0.008272 0.513348 0.665389
O O12 0.353527 0.538826 0.217221
O O13 0.957037 0.878449 0.259659
O O14 0.082790 0.920719 0.204316
O O15 0.242762 0.945394 0.193708
O O16 0.771432 0.443717 0.677153
#
# Coordination Sequence:
#
# PCOD8054187 Si02
#       8
#     4   4   4   4   4   4   4   4
#     4   9  18  32  61  97 128 159 217 281 318 384
#     4  10  18  33  61  96 128 162 218 274 325 380
#     4   9  18  30  58  97 128 159 214 271 322 380
#     4  12  26  44  70  95 133 179 222 272 334 394
#     4  10  17  32  61  96 126 166 213 270 323 385
#     4  11  23  42  68  96 129 175 227 271 333 390
#     4  12  28  46  64  98 138 175 223 279 326 402
#     4  11  22  39  63  93 130 169 218 274 325 391
#
# _framework density 20.815622999999999
#
# number of rings (size 3 to 8) (size 9 to 14) (size 15 to 20)
#    0.000    1.500    5.000    0.750    5.250    1.000 
#    0.000    0.000    5.500    0.000    0.000    0.000 
#    0.000    0.000    0.000    0.000    0.000    0.000 
#
# Total GULP energy -198326.069586 kJ/mol
# GULP energy per Si atom -12395.379349 kJ/mol
# Density = 2.076825 g / cm^3
# Si number density = 20.815623 Si / 1000 Ang^3
#
#
#
# Elastic Constant Matrix: (Units=GPa)
#
#
# Indices 1 2 3 4 5 6 
#
# 1 71.1515 28.4198 45.7937 0.0000 18.1489 0.0000
# 2 28.4198 48.9202 24.1566 0.0000 -6.4815 0.0000
# 3 45.7937 24.1566 69.6931 0.0000 25.3879 0.0000
# 4 0.0000 0.0000 0.0000 33.8895 0.0000 8.5407
# 5 18.1489 -6.4815 25.3879 0.0000 30.6095 0.0000
# 6 0.0000 0.0000 0.0000 8.5407 0.0000 26.0864
#
#
#
# Elastic Compliance Matrix: (Units=1/GPa)
#
#
# Indices 1 2 3 4 5 6 
#
# 1 0.028803 -0.013224 -0.010176 0.000000 -0.011438 0.000000
# 2 -0.013224 0.039837 -0.015832 0.000000 0.029407 0.000000
# 3 -0.010176 -0.015832 0.036606 0.000000 -0.027680 0.000000
# 4 0.000000 0.000000 0.000000 0.032161 0.000000 -0.010530
# 5 -0.011438 0.029407 -0.027680 0.000000 0.068636 0.000000
# 6 0.000000 0.000000 0.000000 -0.010530 0.000000 0.041782
#
#
# Mechanical properties :
#
#
# Convention : Reuss Voigt Hill
#
# Bulk Modulus (GPa) = 37.33543 42.94502 40.14022
# Shear Modulus (GPa) = 14.91578 24.21006 19.56292
#
# Velocity S-wave (km/s) = 2.67978 3.41408 3.06897
# Velocity P-wave (km/s) = 5.24882 6.01807 5.64656
#
# Compressibility (1/GPa) = 0.02678421
#
# Stress axis : x y z
#
# Youngs Moduli (GPa) = 34.71840 25.10204 27.31826
#
# Poissons Ratio (x) = 0.33194 0.27798
# Poissons Ratio (y) = 0.45911 0.43249
# Poissons Ratio (z) = 0.35328 0.39740
#
# Static dielectric constant tensor:
#      x y z
#    x 3.912940 0.000000 0.620360 
#    y 0.000000 4.192600 0.000000 
#    z 0.620360 0.000000 3.681710 
# 
# 
# High freq. dielectric constant tensor:
#      x y z
#    x 1.796110 0.000000 0.045380 
#    y 0.000000 1.826930 0.000000 
#    z 0.045380 0.000000 1.786670 
# 
# From -- ./inp_files/19516.got.cif
#   From: 2010.06.25/outbox.cif.g09.slc.cpg/sg9_10_cif.got.tgz:19516.got - 2010.06.27 21:40:51.
