data_PCOD8054236
_publ_section_title
;
Structure prediction by ZEFSAII (Michael W. Deem and Ramdas Pophale) SiO2 
 PCOD8054236
Probable space group: C C
;
_chemical_formula_sum "Si O2"
_cell_formula_units_Z 28
_cell_length_a 36.324939
_cell_length_b 7.089220
_cell_length_c 5.294856
_cell_angle_alpha 90.000000
_cell_angle_beta 64.393338
_cell_angle_gamma 90.000000
_cell_volume 1229.586817
_symmetry_space_group_name_H-M "C C"
_symmetry_group_IT_number 9
_symmetry_cell_setting 'monoclinic'
loop_
_space_group_symop_operation_xyz
x,y,z
x,-y,1/2+z
1/2+x,1/2+y,z
1/2+x,1/2-y,1/2+z
loop_
_atom_site_type_symbol
_atom_site_label
_atom_site_fract_x
_atom_site_fract_y
_atom_site_fract_z
Si Si1 0.741570 0.388455 0.313740
Si Si2 0.832796 0.708123 0.532656
Si Si3 0.996340 0.203636 0.554431
Si Si4 0.077948 0.620753 0.738814
Si Si5 0.867092 0.282719 0.431105
Si Si6 0.668268 0.885413 0.026329
Si Si7 0.462209 0.720414 0.156079
O O1 0.739491 0.446053 0.613025
O O2 0.703389 0.260632 0.360027
O O3 0.784310 0.284299 0.141886
O O4 0.852527 0.499560 0.498076
O O5 0.845041 0.813971 0.755658
O O6 0.852482 0.816238 0.234611
O O7 0.045333 0.209546 0.371105
O O8 0.975243 0.315431 0.382950
O O9 0.977688 0.995438 0.639016
O O10 0.984879 0.313323 0.847912
O O11 0.071734 0.532805 0.479045
O O12 0.123453 0.708522 0.625579
O O13 0.914678 0.249327 0.254864
O O14 0.672937 0.047533 0.801316
#
# Coordination Sequence:
#
# PCOD8054236 Si02
#       7
#     4   4   4   4   4   4   4
#     4  12  21  40  68 102 130 163 222 271 321 379
#     4  10  19  35  58  84 122 157 205 249 298 365
#     4  10  21  40  57  87 116 163 193 264 301 370
#     4  10  21  42  64  89 121 164 210 245 310 385
#     4  10  18  35  55  81 111 168 197 248 298 364
#     4  10  23  43  68  94 135 174 209 262 324 403
#     4  10  21  37  60  79 125 155 200 251 320 354
#
# _framework density 22.771878000000001
#
# number of rings (size 3 to 8) (size 9 to 14) (size 15 to 20)
#    0.000    1.714    2.857    2.571    0.000    0.000 
#   20.571    0.000   18.857    0.000    0.000    0.000 
#    0.000    0.000    0.000    0.000    0.000    0.000 
#
# Total GULP energy -173460.832229 kJ/mol
# GULP energy per Si atom -12390.059445 kJ/mol
# Density = 2.272005 g / cm^3
# Si number density = 22.771878 Si / 1000 Ang^3
#
#
#
# Elastic Constant Matrix: (Units=GPa)
#
#
# Indices 1 2 3 4 5 6 
#
# 1 127.6415 10.0070 54.1608 0.0000 -10.2921 0.0000
# 2 10.0070 20.4592 4.6683 0.0000 -17.1963 0.0000
# 3 54.1608 4.6683 152.3201 0.0000 16.8058 0.0000
# 4 0.0000 0.0000 0.0000 -3.2794 0.0000 -17.3684
# 5 -10.2921 -17.1963 16.8058 0.0000 78.4574 0.0000
# 6 0.0000 0.0000 0.0000 -17.3684 0.0000 26.1365
#
#
#
# Elastic Compliance Matrix: (Units=1/GPa)
#
#
# Indices 1 2 3 4 5 6 
#
# 1 0.009650 -0.002728 -0.003504 0.000000 0.001418 0.000000
# 2 -0.002728 0.062419 -0.002471 0.000000 0.013853 0.000000
# 3 -0.003504 -0.002471 0.008191 0.000000 -0.002756 0.000000
# 4 0.000000 0.000000 0.000000 -0.067471 0.000000 -0.044836
# 5 0.001418 0.013853 -0.002756 0.000000 0.016558 0.000000
# 6 0.000000 0.000000 0.000000 -0.044836 0.000000 0.008466
#
#
# Mechanical properties :
#
#
# Convention : Reuss Voigt Hill
#
# Bulk Modulus (GPa) = 15.91020 48.67701 32.29360
# Shear Modulus (GPa) = 65.64240 35.70188 50.67214
#
# Velocity S-wave (km/s) = 5.37482 3.96385 4.72233
# Velocity P-wave (km/s) = 6.74686 6.50936 6.62918
#
# Compressibility (1/GPa) = 0.06285278
#
# Stress axis : x y z
#
# Youngs Moduli (GPa) = 103.63223 16.02071 122.08747
#
# Poissons Ratio (x) = 0.04370 0.42779
# Poissons Ratio (y) = 0.28271 0.30173
# Poissons Ratio (z) = 0.36313 0.03959
#
# Static dielectric constant tensor:
#      x y z
#    x 4.742380 0.000000 0.740940 
#    y 0.000000 3.407350 0.000000 
#    z 0.740940 0.000000 5.487940 
# 
# 
# High freq. dielectric constant tensor:
#      x y z
#    x 1.920070 0.000000 0.015630 
#    y 0.000000 1.842250 0.000000 
#    z 0.015630 0.000000 1.937330 
# 
# From -- ./inp_files/3378.got.cif
#   From: 2010.06.25/outbox.cif.g09.slc.cpg/sg9_2_cif.got.tgz:3378.got - 2010.06.27 21:40:51.
