data_PCOD8054419
_publ_section_title
;
Structure prediction by ZEFSAII (Michael W. Deem and Ramdas Pophale) SiO2 
 PCOD8054419
Probable space group: C C
;
_chemical_formula_sum "Si O2"
_cell_formula_units_Z 28
_cell_length_a 17.154891
_cell_length_b 13.146145
_cell_length_c 5.174368
_cell_angle_alpha 90.000000
_cell_angle_beta 80.979714
_cell_angle_gamma 90.000000
_cell_volume 1152.495501
_symmetry_space_group_name_H-M "C C"
_symmetry_group_IT_number 9
_symmetry_cell_setting 'monoclinic'
loop_
_space_group_symop_operation_xyz
x,y,z
x,-y,1/2+z
1/2+x,1/2+y,z
1/2+x,1/2-y,1/2+z
loop_
_atom_site_type_symbol
_atom_site_label
_atom_site_fract_x
_atom_site_fract_y
_atom_site_fract_z
Si Si1 0.768370 0.620820 0.093420
Si Si2 0.003949 0.448659 0.842156
Si Si3 0.199937 0.564049 0.888476
Si Si4 0.614369 0.272344 0.795535
Si Si5 0.883405 0.064223 0.797720
Si Si6 0.020915 0.217458 0.827477
Si Si7 0.831503 0.407580 0.055848
O O1 0.680055 0.660056 0.121468
O O2 0.767515 0.498271 0.126166
O O3 0.808466 0.666883 0.332277
O O4 0.822863 0.658223 0.822983
O O5 0.043616 0.516830 0.592783
O O6 0.010405 0.333820 0.749146
O O7 0.912000 0.468122 0.956905
O O8 0.181265 0.474404 0.690171
O O9 0.146768 0.660326 0.841863
O O10 0.291775 0.596939 0.839742
O O11 0.545826 0.278023 0.614706
O O12 0.583907 0.323573 0.080779
O O13 0.938046 0.160772 0.836111
O O14 0.903290 0.019722 0.505381
#
# Coordination Sequence:
#
# PCOD8054419 Si02
#       7
#     4   4   4   4   4   4   4
#     4  10  20  38  62  90 133 161 213 265 322 405
#     4  12  23  42  68 101 140 176 221 277 347 418
#     4  10  23  44  74  96 128 180 241 293 330 388
#     4  12  26  45  64 104 140 179 227 279 351 422
#     4  10  23  49  72  98 130 184 244 292 333 395
#     4  12  28  45  66 104 145 184 227 275 361 429
#     4  10  19  39  62  99 124 160 217 265 338 391
#
# _framework density 24.295105
#
# number of rings (size 3 to 8) (size 9 to 14) (size 15 to 20)
#    0.000    1.143    2.857    3.429    2.000    3.429 
#   20.571    0.000    0.000    0.000    0.000    0.000 
#    0.000    0.000    0.000    0.000    0.000    0.000 
#
# Total GULP energy -173458.163438 kJ/mol
# GULP energy per Si atom -12389.868817 kJ/mol
# Density = 2.423981 g / cm^3
# Si number density = 24.295105 Si / 1000 Ang^3
#
#
#
# Elastic Constant Matrix: (Units=GPa)
#
#
# Indices 1 2 3 4 5 6 
#
# 1 58.5655 17.2845 29.3115 0.0000 24.2506 0.0000
# 2 17.2845 43.9438 8.3625 0.0000 11.7715 0.0000
# 3 29.3115 8.3625 197.9744 0.0000 1.8930 0.0000
# 4 0.0000 0.0000 0.0000 29.5871 0.0000 6.1371
# 5 24.2506 11.7715 1.8930 0.0000 36.5887 0.0000
# 6 0.0000 0.0000 0.0000 6.1371 0.0000 30.6281
#
#
#
# Elastic Compliance Matrix: (Units=1/GPa)
#
#
# Indices 1 2 3 4 5 6 
#
# 1 0.027210 -0.005724 -0.003634 0.000000 -0.016005 0.000000
# 2 -0.005724 0.026296 -0.000219 0.000000 -0.004655 0.000000
# 3 -0.003634 -0.000219 0.005577 0.000000 0.002190 0.000000
# 4 0.000000 0.000000 0.000000 0.035264 0.000000 -0.007066
# 5 -0.016005 -0.004655 0.002190 0.000000 0.039323 0.000000
# 6 0.000000 0.000000 0.000000 -0.007066 0.000000 0.034066
#
#
# Mechanical properties :
#
#
# Convention : Reuss Voigt Hill
#
# Bulk Modulus (GPa) = 25.04300 45.60007 35.32154
# Shear Modulus (GPa) = 24.97500 35.72913 30.35206
#
# Velocity S-wave (km/s) = 3.20970 3.83904 3.53839
# Velocity P-wave (km/s) = 4.90576 6.20169 5.59140
#
# Compressibility (1/GPa) = 0.03993131
#
# Stress axis : x y z
#
# Youngs Moduli (GPa) = 36.75093 38.02817 179.29267
#
# Poissons Ratio (x) = 0.21766 0.65152
# Poissons Ratio (y) = 0.21035 0.03923
# Poissons Ratio (z) = 0.13355 0.00832
#
# Static dielectric constant tensor:
#      x y z
#    x 4.541180 0.000000 0.050830 
#    y 0.000000 3.899760 0.000000 
#    z 0.050830 0.000000 5.483110 
# 
# 
# High freq. dielectric constant tensor:
#      x y z
#    x 1.970510 0.000000 0.000420 
#    y 0.000000 1.927330 0.000000 
#    z 0.000420 0.000000 2.002550 
# 
# From -- ./inp_files/2875.got.cif
#   From: 2010.06.25/outbox.cif.g09.slc.cpg/sg9_2_cif.got.tgz:2875.got - 2010.06.27 21:40:51.
