data_PCOD8054698
_publ_section_title
;
Structure prediction by ZEFSAII (Michael W. Deem and Ramdas Pophale) SiO2 
 PCOD8054698
Probable space group: C C
;
_chemical_formula_sum "Si O2"
_cell_formula_units_Z 32
_cell_length_a 11.088241
_cell_length_b 10.747129
_cell_length_c 14.454291
_cell_angle_alpha 90.000000
_cell_angle_beta 110.727668
_cell_angle_gamma 90.000000
_cell_volume 1610.980991
_symmetry_space_group_name_H-M "C C"
_symmetry_group_IT_number 9
_symmetry_cell_setting 'monoclinic'
loop_
_space_group_symop_operation_xyz
x,y,z
x,-y,1/2+z
1/2+x,1/2+y,z
1/2+x,1/2-y,1/2+z
loop_
_atom_site_type_symbol
_atom_site_label
_atom_site_fract_x
_atom_site_fract_y
_atom_site_fract_z
Si Si1 0.788270 0.812151 0.291780
Si Si2 0.192902 0.764436 0.387652
Si Si3 0.070419 0.971770 0.117961
Si Si4 0.831178 0.644760 0.750475
Si Si5 0.009823 0.026678 0.897032
Si Si6 0.964719 0.610611 0.282482
Si Si7 0.038773 0.820297 0.761712
Si Si8 0.352592 0.719878 0.611495
O O1 0.878901 0.690415 0.332017
O O2 0.650765 0.784167 0.300719
O O3 0.773048 0.837562 0.176776
O O4 0.858805 0.931823 0.357079
O O5 0.302107 0.795994 0.342729
O O6 0.087385 0.874841 0.354772
O O7 0.255080 0.756323 0.504891
O O8 0.116852 0.636651 0.342075
O O9 0.069840 0.089057 0.185692
O O10 0.202458 0.896006 0.163615
O O11 0.066491 0.026162 0.014533
O O12 0.950509 0.882979 0.101358
O O13 0.932295 0.532494 0.789796
O O14 0.903576 0.749142 0.708782
O O15 0.028548 0.892595 0.855945
O O16 0.928941 0.656653 0.167881
#
# Coordination Sequence:
#
# PCOD8054698 Si02
#       8
#     4   4   4   4   4   4   4   4
#     4   9  19  41  64  89 129 166 213 268 323 383
#     4  11  20  40  68  95 126 174 217 266 334 381
#     4  12  22  45  63  93 137 171 217 277 326 388
#     4  12  23  39  65  93 131 171 214 274 320 390
#     4  11  22  40  72  91 130 178 210 275 332 379
#     4   9  19  40  63  87 129 168 206 273 319 381
#     4  12  23  40  66  95 129 170 217 272 324 391
#     4  10  20  41  69  89 129 180 210 273 334 379
#
# _framework density 19.863674
#
# number of rings (size 3 to 8) (size 9 to 14) (size 15 to 20)
#    0.750    0.500    5.000    2.250    0.000    3.000 
#    0.000    6.250    0.000    0.000    0.000    0.000 
#    0.000    0.000    0.000    0.000    0.000    0.000 
#
# Total GULP energy -198358.168474 kJ/mol
# GULP energy per Si atom -12397.385530 kJ/mol
# Density = 1.981846 g / cm^3
# Si number density = 19.863674 Si / 1000 Ang^3
#
#
#
# Elastic Constant Matrix: (Units=GPa)
#
#
# Indices 1 2 3 4 5 6 
#
# 1 97.6917 57.7769 30.7826 0.0000 14.8325 0.0000
# 2 57.7769 45.5301 20.9851 0.0000 9.4979 0.0000
# 3 30.7826 20.9851 114.6215 0.0000 15.8000 0.0000
# 4 0.0000 0.0000 0.0000 18.8460 0.0000 7.2309
# 5 14.8325 9.4979 15.8000 0.0000 19.1434 0.0000
# 6 0.0000 0.0000 0.0000 7.2309 0.0000 42.0051
#
#
#
# Elastic Compliance Matrix: (Units=1/GPa)
#
#
# Indices 1 2 3 4 5 6 
#
# 1 0.041895 -0.051430 -0.000991 0.000000 -0.006127 0.000000
# 2 -0.051430 0.088698 -0.002092 0.000000 -0.002432 0.000000
# 3 -0.000991 -0.002092 0.010296 0.000000 -0.006692 0.000000
# 4 0.000000 0.000000 0.000000 0.056814 0.000000 -0.009780
# 5 -0.006127 -0.002432 -0.006692 0.000000 0.063714 0.000000
# 6 0.000000 0.000000 0.000000 -0.009780 0.000000 0.025490
#
#
# Mechanical properties :
#
#
# Convention : Reuss Voigt Hill
#
# Bulk Modulus (GPa) = 31.38282 52.99249 42.18765
# Shear Modulus (GPa) = 12.29846 25.88545 19.09196
#
# Velocity S-wave (km/s) = 2.49096 3.61384 3.10360
# Velocity P-wave (km/s) = 4.90984 6.64448 5.84190
#
# Compressibility (1/GPa) = 0.03186457
#
# Stress axis : x y z
#
# Youngs Moduli (GPa) = 23.86905 11.27417 97.12537
#
# Poissons Ratio (x) = 0.57983 0.09625
# Poissons Ratio (y) = 1.22757 0.20318
# Poissons Ratio (z) = 0.02365 0.02358
#
# Static dielectric constant tensor:
#      x y z
#    x 3.646240 0.000000 0.040860 
#    y 0.000000 3.558910 0.000000 
#    z 0.040860 0.000000 3.415570 
# 
# 
# High freq. dielectric constant tensor:
#      x y z
#    x 1.778710 0.000000 0.004080 
#    y 0.000000 1.770620 0.000000 
#    z 0.004080 0.000000 1.757080 
# 
# From -- ./inp_files/24400.got.cif
#   From: 2010.06.25/outbox.cif.g09.slc.cpg/sg9_13_cif.got.tgz:24400.got - 2010.06.27 21:40:51.
