data_PCOD8054708
_publ_section_title
;
Structure prediction by ZEFSAII (Michael W. Deem and Ramdas Pophale) SiO2 
 PCOD8054708
Probable space group: C C
;
_chemical_formula_sum "Si O2"
_cell_formula_units_Z 32
_cell_length_a 15.937046
_cell_length_b 9.801752
_cell_length_c 9.298484
_cell_angle_alpha 90.000000
_cell_angle_beta 126.094649
_cell_angle_gamma 90.000000
_cell_volume 1173.705613
_symmetry_space_group_name_H-M "C C"
_symmetry_group_IT_number 9
_symmetry_cell_setting 'monoclinic'
loop_
_space_group_symop_operation_xyz
x,y,z
x,-y,1/2+z
1/2+x,1/2+y,z
1/2+x,1/2-y,1/2+z
loop_
_atom_site_type_symbol
_atom_site_label
_atom_site_fract_x
_atom_site_fract_y
_atom_site_fract_z
Si Si1 0.504820 0.912996 0.744730
Si Si2 0.246854 0.323984 0.677895
Si Si3 0.877065 0.260805 0.827150
Si Si4 0.216855 0.636899 0.454773
Si Si5 0.002351 0.344282 0.419462
Si Si6 0.108078 0.916904 0.353474
Si Si7 0.741007 0.485024 0.230580
Si Si8 0.920524 0.106066 0.159733
O O1 0.472048 0.782342 0.811790
O O2 0.624892 0.969514 0.891046
O O3 0.466268 0.888210 0.543467
O O4 0.450523 0.048543 0.754834
O O5 0.279379 0.386204 0.868499
O O6 0.125685 0.332374 0.536534
O O7 0.281889 0.163957 0.714381
O O8 0.301920 0.417450 0.603870
O O9 0.788126 0.170081 0.661795
O O10 0.834917 0.408903 0.824470
O O11 0.920044 0.182930 0.008439
O O12 0.126243 0.758149 0.333228
O O13 0.963133 0.194911 0.335864
O O14 0.197097 0.987609 0.346837
O O15 0.141403 0.958455 0.545605
O O16 0.989030 0.969473 0.210197
#
# Coordination Sequence:
#
# PCOD8054708 Si02
#       8
#     4   4   4   4   4   4   4   4
#     4  11  24  45  67  98 131 180 234 289 349 420
#     4  10  21  42  67  96 132 187 228 280 354 419
#     4  11  24  37  70 102 132 176 228 285 338 427
#     4   9  23  46  68  91 139 189 228 282 346 431
#     4  11  24  43  68  95 138 178 227 296 352 412
#     4  10  22  40  67  95 135 176 225 284 343 408
#     4  10  20  42  65  94 133 181 228 277 340 421
#     4  12  24  39  68 109 138 175 232 291 352 422
#
# _framework density 27.264078999999999
#
# number of rings (size 3 to 8) (size 9 to 14) (size 15 to 20)
#    0.000    1.500    1.250    3.000    3.500    5.000 
#    2.250    1.250    0.000    0.000    0.000    0.000 
#    0.000    0.000    0.000    0.000    0.000    0.000 
#
# Total GULP energy -198272.720192 kJ/mol
# GULP energy per Si atom -12392.045012 kJ/mol
# Density = 2.720202 g / cm^3
# Si number density = 27.264079 Si / 1000 Ang^3
#
#
#
# Elastic Constant Matrix: (Units=GPa)
#
#
# Indices 1 2 3 4 5 6 
#
# 1 122.0736 2.0807 24.1721 0.0000 -20.7312 0.0000
# 2 2.0807 62.4826 3.4250 0.0000 -14.3154 0.0000
# 3 24.1721 3.4250 90.5192 0.0000 -15.7253 0.0000
# 4 0.0000 0.0000 0.0000 33.7603 0.0000 2.3283
# 5 -20.7312 -14.3154 -15.7253 0.0000 35.5713 0.0000
# 6 0.0000 0.0000 0.0000 2.3283 0.0000 41.7171
#
#
#
# Elastic Compliance Matrix: (Units=1/GPa)
#
#
# Indices 1 2 3 4 5 6 
#
# 1 0.009371 0.000950 -0.001650 0.000000 0.005114 0.000000
# 2 0.000950 0.017758 0.000446 0.000000 0.007898 0.000000
# 3 -0.001650 0.000446 0.012278 0.000000 0.004646 0.000000
# 4 0.000000 0.000000 0.000000 0.029735 0.000000 -0.001660
# 5 0.005114 0.007898 0.004646 0.000000 0.036325 0.000000
# 6 0.000000 0.000000 0.000000 -0.001660 0.000000 0.024064
#
#
# Mechanical properties :
#
#
# Convention : Reuss Voigt Hill
#
# Bulk Modulus (GPa) = 25.70685 37.15899 31.43292
# Shear Modulus (GPa) = 34.96400 38.56958 36.76679
#
# Velocity S-wave (km/s) = 3.58497 3.76529 3.67624
# Velocity P-wave (km/s) = 5.15610 5.70632 5.43817
#
# Compressibility (1/GPa) = 0.03890014
#
# Stress axis : x y z
#
# Youngs Moduli (GPa) = 106.71423 56.31339 81.44530
#
# Poissons Ratio (x) = -0.05351 0.13437
# Poissons Ratio (y) = -0.10139 -0.03635
# Poissons Ratio (z) = 0.17606 -0.02514
#
# Static dielectric constant tensor:
#      x y z
#    x 5.418440 0.000000 -0.018090 
#    y 0.000000 5.455960 0.000000 
#    z -0.018090 0.000000 4.709780 
# 
# 
# High freq. dielectric constant tensor:
#      x y z
#    x 2.124550 0.000000 0.005940 
#    y 0.000000 2.113230 0.000000 
#    z 0.005940 0.000000 2.097600 
# 
# From -- ./inp_files/9329.got.cif
#   From: 2010.06.25/outbox.cif.g09.slc.cpg/sg9_5_cif.got.tgz:9329.got - 2010.06.27 21:40:51.
