data_PCOD8054301
_publ_section_title
;
Structure prediction by ZEFSAII (Michael W. Deem and Ramdas Pophale) SiO2 
 PCOD8054301
Probable space group: C C
;
_chemical_formula_sum "Si O2"
_cell_formula_units_Z 28
_cell_length_a 13.818793
_cell_length_b 17.756973
_cell_length_c 12.288078
_cell_angle_alpha 90.000000
_cell_angle_beta 30.015800
_cell_angle_gamma 90.000000
_cell_volume 1508.343920
_symmetry_space_group_name_H-M "C C"
_symmetry_group_IT_number 9
_symmetry_cell_setting 'monoclinic'
loop_
_space_group_symop_operation_xyz
x,y,z
x,-y,1/2+z
1/2+x,1/2+y,z
1/2+x,1/2-y,1/2+z
loop_
_atom_site_type_symbol
_atom_site_label
_atom_site_fract_x
_atom_site_fract_y
_atom_site_fract_z
Si Si1 0.573550 0.498967 0.283190
Si Si2 0.667271 0.942182 0.650898
Si Si3 0.455467 0.355665 0.003558
Si Si4 0.922926 0.543006 0.587769
Si Si5 0.404048 0.927814 0.344116
Si Si6 0.362400 0.193810 0.068934
Si Si7 0.620640 0.889187 0.468480
O O1 0.402122 0.439158 0.427282
O O2 0.456742 0.575717 0.418653
O O3 0.705679 0.469539 0.254554
O O4 0.719094 0.516241 0.041383
O O5 0.601975 0.886253 0.617065
O O6 0.595986 0.027004 0.692747
O O7 0.562272 0.914862 0.864378
O O8 0.674328 0.333491 0.817209
O O9 0.351947 0.282418 0.049095
O O10 0.347929 0.385459 0.216562
O O11 0.912694 0.592926 0.707593
O O12 0.018022 0.462568 0.519415
O O13 0.391088 0.852481 0.428855
O O14 0.528784 0.182482 0.997174
#
# Coordination Sequence:
#
# PCOD8054301 Si02
#       7
#     4   4   4   4   4   4   4
#     4  10  19  32  50  84 108 135 176 217 271 320
#     4  10  20  32  53  77 111 142 174 216 266 325
#     4  11  20  31  55  76 111 137 173 220 267 317
#     4  10  19  34  52  77 112 139 174 222 265 319
#     4   9  20  33  49  76 112 141 170 218 270 314
#     4  11  20  35  52  81 109 137 177 219 265 320
#     4  11  20  33  51  81 109 141 174 214 272 313
#
# _framework density 18.563407000000002
#
# number of rings (size 3 to 8) (size 9 to 14) (size 15 to 20)
#    0.000    1.714    7.143    0.000    2.000    1.143 
#    0.000    0.000    0.000    0.000    7.429    0.000 
#    0.000    0.000    0.000    0.000    0.000    0.000 
#
# Total GULP energy -173454.457500 kJ/mol
# GULP energy per Si atom -12389.604107 kJ/mol
# Density = 1.852116 g / cm^3
# Si number density = 18.563407 Si / 1000 Ang^3
#
#
#
# Elastic Constant Matrix: (Units=GPa)
#
#
# Indices 1 2 3 4 5 6 
#
# 1 109.2680 21.0559 66.5275 -0.0057 13.4979 0.0118
# 2 21.0559 37.0364 11.4923 -0.0016 3.9440 0.0125
# 3 66.5275 11.4923 113.2545 0.0060 5.4933 0.0032
# 4 -0.0057 -0.0016 0.0060 22.4980 0.0023 -1.8634
# 5 13.4979 3.9440 5.4933 0.0023 37.2186 -0.0064
# 6 0.0118 0.0125 0.0032 -1.8634 -0.0064 11.4055
#
#
#
# Elastic Compliance Matrix: (Units=1/GPa)
#
#
# Indices 1 2 3 4 5 6 
#
# 1 0.016048 -0.006031 -0.008626 0.000006 -0.003908 -0.000009
# 2 -0.006031 0.030388 0.000513 -0.000002 -0.001109 -0.000028
# 3 -0.008626 0.000513 0.013794 -0.000006 0.001038 0.000004
# 4 0.000006 -0.000002 -0.000006 0.045058 -0.000002 0.007362
# 5 -0.003908 -0.001109 0.001038 -0.000002 0.028250 0.000020
# 6 -0.000009 -0.000028 0.000004 0.007362 0.000020 0.088879
#
#
# Mechanical properties :
#
#
# Convention : Reuss Voigt Hill
#
# Bulk Modulus (GPa) = 31.30553 50.85671 41.08112
# Shear Modulus (GPa) = 19.13119 24.92331 22.02725
#
# Velocity S-wave (km/s) = 3.21376 3.66813 3.44844
# Velocity P-wave (km/s) = 5.53820 6.73765 6.16716
#
# Compressibility (1/GPa) = 0.03194324
#
# Stress axis : x y z
#
# Youngs Moduli (GPa) = 62.31154 32.90750 72.49503
#
# Poissons Ratio (x) = 0.19847 0.62531
# Poissons Ratio (y) = 0.37581 -0.03719
# Poissons Ratio (z) = 0.53747 -0.01688
#
# Static dielectric constant tensor:
#      x y z
#    x 3.399350 -0.000040 -0.091680 
#    y -0.000040 3.093160 0.000070 
#    z -0.091680 0.000070 3.800990 
# 
# 
# High freq. dielectric constant tensor:
#      x y z
#    x 1.705160 0.000000 -0.014480 
#    y 0.000000 1.670080 0.000000 
#    z -0.014480 0.000000 1.742810 
# 
# From -- ./inp_files/18499.got.cif
#   From: 2010.06.25/outbox.cif.g09.slc.cpg/sg9_10_cif.got.tgz:18499.got - 2010.06.27 21:40:51.
