data_PCOD8054893
_publ_section_title
;
Structure prediction by ZEFSAII (Michael W. Deem and Ramdas Pophale) SiO2 
 PCOD8054893
Probable space group: C C
;
_chemical_formula_sum "Si O2"
_cell_formula_units_Z 28
_cell_length_a 8.230358
_cell_length_b 20.525566
_cell_length_c 10.394796
_cell_angle_alpha 90.000000
_cell_angle_beta 45.018967
_cell_angle_gamma 90.000000
_cell_volume 1242.105717
_symmetry_space_group_name_H-M "C C"
_symmetry_group_IT_number 9
_symmetry_cell_setting 'monoclinic'
loop_
_space_group_symop_operation_xyz
x,y,z
x,-y,1/2+z
1/2+x,1/2+y,z
1/2+x,1/2-y,1/2+z
loop_
_atom_site_type_symbol
_atom_site_label
_atom_site_fract_x
_atom_site_fract_y
_atom_site_fract_z
Si Si1 0.055500 0.047229 0.662400
Si Si2 0.118530 0.500870 0.095755
Si Si3 0.759120 0.128406 0.657092
Si Si4 0.854338 0.183236 0.344498
Si Si5 0.098541 0.435148 0.859313
Si Si6 0.271515 0.824663 0.437407
Si Si7 0.124895 0.954254 0.405199
O O1 0.323072 0.065254 0.522925
O O2 0.968387 0.035066 0.861681
O O3 0.933052 0.111782 0.675001
O O4 0.009638 0.982080 0.601427
O O5 0.216650 0.435253 0.098204
O O6 0.190839 0.558471 0.159048
O O7 0.843274 0.500236 0.260316
O O8 0.175590 0.498949 0.907598
O O9 0.865157 0.178274 0.493583
O O10 0.525718 0.157980 0.846464
O O11 0.684211 0.132974 0.369108
O O12 0.765537 0.256356 0.364273
O O13 0.112188 0.174355 0.151259
O O14 0.187121 0.878692 0.382535
#
# Coordination Sequence:
#
# PCOD8054893 Si02
#       7
#     4   4   4   4   4   4   4
#     4  10  21  39  67  99 143 169 216 283 350 397
#     4   8  17  35  59  88 134 162 213 263 332 391
#     4  10  22  40  63  95 134 169 223 285 325 397
#     4  11  23  42  74  91 129 184 235 272 335 403
#     4   9  19  38  63  99 128 174 216 276 338 401
#     4  11  23  44  70  95 128 187 236 268 332 410
#     4   9  21  38  64  99 134 175 217 273 340 409
#
# _framework density 22.542362000000001
#
# number of rings (size 3 to 8) (size 9 to 14) (size 15 to 20)
#    0.000    2.286    1.429    0.857    4.000    1.143 
#    2.571    2.857    0.000    0.000    0.000    0.000 
#    0.000    0.000    0.000    0.000    0.000    0.000 
#
# Total GULP energy -173538.099992 kJ/mol
# GULP energy per Si atom -12395.578571 kJ/mol
# Density = 2.249105 g / cm^3
# Si number density = 22.542362 Si / 1000 Ang^3
#
#
#
# Elastic Constant Matrix: (Units=GPa)
#
#
# Indices 1 2 3 4 5 6 
#
# 1 156.0348 64.7929 72.9988 0.0000 15.1501 0.0000
# 2 64.7929 132.1029 43.4810 0.0000 13.7918 0.0000
# 3 72.9988 43.4810 192.0269 0.0000 12.7357 0.0000
# 4 0.0000 0.0000 0.0000 25.8483 0.0000 -2.5519
# 5 15.1501 13.7918 12.7357 0.0000 26.0384 0.0000
# 6 0.0000 0.0000 0.0000 -2.5519 0.0000 27.7112
#
#
#
# Elastic Compliance Matrix: (Units=1/GPa)
#
#
# Indices 1 2 3 4 5 6 
#
# 1 0.009281 -0.003459 -0.002593 0.000000 -0.002300 0.000000
# 2 -0.003459 0.009797 -0.000716 0.000000 -0.002827 0.000000
# 3 -0.002593 -0.000716 0.006439 0.000000 -0.001262 0.000000
# 4 0.000000 0.000000 0.000000 0.039042 0.000000 0.003595
# 5 -0.002300 -0.002827 -0.001262 0.000000 0.041857 0.000000
# 6 0.000000 0.000000 0.000000 0.003595 0.000000 0.036418
#
#
# Mechanical properties :
#
#
# Convention : Reuss Voigt Hill
#
# Bulk Modulus (GPa) = 83.45431 93.63445 88.54438
# Shear Modulus (GPa) = 31.17918 35.84571 33.51245
#
# Velocity S-wave (km/s) = 3.72309 3.99199 3.85988
# Velocity P-wave (km/s) = 7.45542 7.92939 7.69606
#
# Compressibility (1/GPa) = 0.01198260
#
# Stress axis : x y z
#
# Youngs Moduli (GPa) = 107.74374 102.07133 155.30422
#
# Poissons Ratio (x) = 0.35304 0.40263
# Poissons Ratio (y) = 0.37266 0.11121
# Poissons Ratio (z) = 0.27933 0.07309
#
# Static dielectric constant tensor:
#      x y z
#    x 4.561500 0.000000 -0.049200 
#    y 0.000000 3.956960 0.000000 
#    z -0.049200 0.000000 4.932360 
# 
# 
# High freq. dielectric constant tensor:
#      x y z
#    x 1.903600 0.000000 -0.026290 
#    y 0.000000 1.851510 0.000000 
#    z -0.026290 0.000000 1.937830 
# 
# From -- ./inp_files/5511.got.cif
#   From: 2010.06.25/outbox.cif.g09.slc.cpg/sg9_3_cif.got.tgz:5511.got - 2010.06.27 21:40:51.
