data_PCOD8054973
_publ_section_title
;
Structure prediction by ZEFSAII (Michael W. Deem and Ramdas Pophale) SiO2 
 PCOD8054973
Probable space group: C C
;
_chemical_formula_sum "Si O2"
_cell_formula_units_Z 32
_cell_length_a 8.095499
_cell_length_b 13.788862
_cell_length_c 12.968157
_cell_angle_alpha 90.000000
_cell_angle_beta 77.088953
_cell_angle_gamma 90.000000
_cell_volume 1411.007601
_symmetry_space_group_name_H-M "C C"
_symmetry_group_IT_number 9
_symmetry_cell_setting 'monoclinic'
loop_
_space_group_symop_operation_xyz
x,y,z
x,-y,1/2+z
1/2+x,1/2+y,z
1/2+x,1/2-y,1/2+z
loop_
_atom_site_type_symbol
_atom_site_label
_atom_site_fract_x
_atom_site_fract_y
_atom_site_fract_z
Si Si1 0.478330 0.798206 0.553080
Si Si2 0.502049 0.040566 0.370806
Si Si3 0.744993 0.883225 0.380077
Si Si4 0.910931 0.063872 0.060999
Si Si5 0.278811 0.991944 0.572444
Si Si6 0.866161 0.615722 0.737518
Si Si7 0.688694 0.802773 0.719766
Si Si8 0.749763 0.134736 0.645275
O O1 0.593169 0.808698 0.433958
O O2 0.397010 0.902338 0.588616
O O3 0.597717 0.764499 0.629882
O O4 0.333228 0.717350 0.561746
O O5 0.545900 0.137549 0.302603
O O6 0.678554 0.993781 0.382120
O O7 0.378543 0.065654 0.482211
O O8 0.399250 0.953590 0.328922
O O9 0.810949 0.852254 0.257167
O O10 0.885639 0.887304 0.451112
O O11 0.801918 0.966795 0.088707
O O12 0.848444 0.132818 0.162084
O O13 0.108082 0.044825 0.044753
O O14 0.244688 0.055729 0.677603
O O15 0.761736 0.713896 0.778340
O O16 0.047700 0.643710 0.662687
#
# Coordination Sequence:
#
# PCOD8054973 Si02
#       8
#     4   4   4   4   4   4   4   4
#     4  10  21  41  64  92 135 171 221 283 331 409
#     4  10  21  45  65  94 137 177 220 286 339 400
#     4   9  21  42  65  92 134 177 219 274 345 398
#     4  11  22  41  66  95 133 177 224 277 338 409
#     4  11  23  42  64  96 134 171 220 281 341 400
#     4  11  22  43  69  96 132 177 223 272 345 404
#     4  11  21  43  67  93 131 177 221 279 337 401
#     4  11  21  43  66  96 136 173 222 284 336 405
#
# _framework density 22.678830000000001
#
# number of rings (size 3 to 8) (size 9 to 14) (size 15 to 20)
#    0.000    1.500    3.750    3.000    0.000    2.000 
#   22.500    0.000    0.000    0.000    0.000    0.000 
#    0.000    0.000    0.000    0.000    0.000    0.000 
#
# Total GULP energy -198321.271768 kJ/mol
# GULP energy per Si atom -12395.079485 kJ/mol
# Density = 2.262721 g / cm^3
# Si number density = 22.678830 Si / 1000 Ang^3
#
#
#
# Elastic Constant Matrix: (Units=GPa)
#
#
# Indices 1 2 3 4 5 6 
#
# 1 82.7358 16.0986 17.3727 0.0000 8.6111 0.0000
# 2 16.0986 100.5126 19.8376 0.0000 2.7847 0.0000
# 3 17.3727 19.8376 64.0533 0.0000 7.0327 0.0000
# 4 0.0000 0.0000 0.0000 25.4448 0.0000 -5.7315
# 5 8.6111 2.7847 7.0327 0.0000 27.4952 0.0000
# 6 0.0000 0.0000 0.0000 -5.7315 0.0000 42.6335
#
#
#
# Elastic Compliance Matrix: (Units=1/GPa)
#
#
# Indices 1 2 3 4 5 6 
#
# 1 0.013305 -0.001490 -0.002784 0.000000 -0.003304 0.000000
# 2 -0.001490 0.010765 -0.002944 0.000000 0.000129 0.000000
# 3 -0.002784 -0.002944 0.017646 0.000000 -0.003343 0.000000
# 4 0.000000 0.000000 0.000000 0.040528 0.000000 0.005448
# 5 -0.003304 0.000129 -0.003343 0.000000 0.038247 0.000000
# 6 0.000000 0.000000 0.000000 0.005448 0.000000 0.024188
#
#
# Mechanical properties :
#
#
# Convention : Reuss Voigt Hill
#
# Bulk Modulus (GPa) = 36.65780 39.32438 37.99109
# Shear Modulus (GPa) = 29.72486 32.04756 30.88621
#
# Velocity S-wave (km/s) = 3.62427 3.76321 3.69439
# Velocity P-wave (km/s) = 5.80627 6.02160 5.91491
#
# Compressibility (1/GPa) = 0.02727933
#
# Stress axis : x y z
#
# Youngs Moduli (GPa) = 75.15901 92.89264 56.66974
#
# Poissons Ratio (x) = 0.13840 0.15779
# Poissons Ratio (y) = 0.11198 0.16684
# Poissons Ratio (z) = 0.20928 0.27349
#
# Static dielectric constant tensor:
#      x y z
#    x 4.068780 0.000000 0.003770 
#    y 0.000000 3.920630 0.000000 
#    z 0.003770 0.000000 4.113240 
# 
# 
# High freq. dielectric constant tensor:
#      x y z
#    x 1.892640 0.000000 0.001590 
#    y 0.000000 1.885210 0.000000 
#    z 0.001590 0.000000 1.887070 
# 
# From -- ./inp_files/23206.got.cif
#   From: 2010.06.25/outbox.cif.g09.slc.cpg/sg9_12_cif.got.tgz:23206.got - 2010.06.27 21:40:51.
