data_PCOD8054532
_publ_section_title
;
Structure prediction by ZEFSAII (Michael W. Deem and Ramdas Pophale) SiO2 
 PCOD8054532
Probable space group: C C
;
_chemical_formula_sum "Si O2"
_cell_formula_units_Z 28
_cell_length_a 8.336582
_cell_length_b 11.836222
_cell_length_c 19.605963
_cell_angle_alpha 90.000000
_cell_angle_beta 51.896342
_cell_angle_gamma 90.000000
_cell_volume 1522.321702
_symmetry_space_group_name_H-M "C C"
_symmetry_group_IT_number 9
_symmetry_cell_setting 'monoclinic'
loop_
_space_group_symop_operation_xyz
x,y,z
x,-y,1/2+z
1/2+x,1/2+y,z
1/2+x,1/2-y,1/2+z
loop_
_atom_site_type_symbol
_atom_site_label
_atom_site_fract_x
_atom_site_fract_y
_atom_site_fract_z
Si Si1 0.083700 0.870382 0.700790
Si Si2 0.833256 0.534053 0.025467
Si Si3 0.874251 0.231152 0.550525
Si Si4 0.186153 0.616136 0.474883
Si Si5 0.670243 0.244465 0.344213
Si Si6 0.269525 0.887555 0.921306
Si Si7 0.093295 0.005156 0.337450
O O1 0.245795 0.764963 0.652393
O O2 0.142739 0.947002 0.749812
O O3 0.857301 0.819880 0.758611
O O4 0.119994 0.948602 0.623531
O O5 0.947755 0.654468 0.992757
O O6 0.809117 0.501523 0.952962
O O7 0.965371 0.440778 0.030830
O O8 0.724016 0.161161 0.540586
O O9 0.081370 0.166411 0.512997
O O10 0.191528 0.720416 0.419537
O O11 0.351960 0.519469 0.412997
O O12 0.463180 0.193498 0.368537
O O13 0.668985 0.377143 0.327522
O O14 0.212726 0.914818 0.858887
#
# Coordination Sequence:
#
# PCOD8054532 Si02
#       7
#     4   4   4   4   4   4   4
#     4   9  22  36  52  81 116 134 176 223 282 292
#     4   9  19  35  55  80 105 138 177 226 257 315
#     4   9  19  35  55  80 105 138 177 226 257 315
#     4   9  18  34  58  74 102 144 184 210 264 318
#     4  10  20  37  54  80 108 143 174 223 262 325
#     4  10  20  38  60  79 102 146 192 201 268 324
#     4  10  20  37  54  80 108 143 174 223 262 325
#
# _framework density 18.392959000000001
#
# number of rings (size 3 to 8) (size 9 to 14) (size 15 to 20)
#    0.857    1.714    0.000    1.714    2.000    0.000 
#    5.143    0.000    0.000    0.000    0.000    0.000 
#    0.000    0.000    0.000    0.000    0.000    0.000 
#
# Total GULP energy -173448.899134 kJ/mol
# GULP energy per Si atom -12389.207081 kJ/mol
# Density = 1.835110 g / cm^3
# Si number density = 18.392959 Si / 1000 Ang^3
#
#
#
# Elastic Constant Matrix: (Units=GPa)
#
#
# Indices 1 2 3 4 5 6 
#
# 1 75.4025 24.2086 22.7178 -0.0001 -14.2951 0.0000
# 2 24.2086 79.7058 18.9203 -0.0001 -7.2376 0.0000
# 3 22.7178 18.9203 68.3424 -0.0001 -10.8494 0.0000
# 4 -0.0001 -0.0001 -0.0001 25.9464 0.0001 -4.2571
# 5 -14.2951 -7.2376 -10.8494 0.0001 24.6747 0.0000
# 6 0.0000 0.0000 0.0000 -4.2571 0.0000 20.3720
#
#
#
# Elastic Compliance Matrix: (Units=1/GPa)
#
#
# Indices 1 2 3 4 5 6 
#
# 1 0.016829 -0.003642 -0.003448 0.000000 0.007165 0.000000
# 2 -0.003642 0.014359 -0.002613 0.000000 0.000953 0.000000
# 3 -0.003448 -0.002613 0.017269 0.000000 0.004829 0.000000
# 4 0.000000 0.000000 0.000000 0.039909 0.000000 0.008340
# 5 0.007165 0.000953 0.004829 0.000000 0.047081 0.000000
# 6 0.000000 0.000000 0.000000 0.008340 0.000000 0.050830
#
#
# Mechanical properties :
#
#
# Convention : Reuss Voigt Hill
#
# Bulk Modulus (GPa) = 34.42469 39.46045 36.94257
# Shear Modulus (GPa) = 23.21619 24.70557 23.96088
#
# Velocity S-wave (km/s) = 3.55665 3.66896 3.61324
# Velocity P-wave (km/s) = 5.96851 6.28084 6.12667
#
# Compressibility (1/GPa) = 0.02904892
#
# Stress axis : x y z
#
# Youngs Moduli (GPa) = 59.42188 69.64173 57.90891
#
# Poissons Ratio (x) = 0.25365 0.19969
# Poissons Ratio (y) = 0.21642 0.15134
# Poissons Ratio (z) = 0.20491 0.18200
#
# Static dielectric constant tensor:
#      x y z
#    x 3.286190 0.000000 -0.044790 
#    y 0.000000 3.337700 0.000000 
#    z -0.044790 0.000000 3.211610 
# 
# 
# High freq. dielectric constant tensor:
#      x y z
#    x 1.709250 0.000000 -0.004500 
#    y 0.000000 1.714830 0.000000 
#    z -0.004500 0.000000 1.700010 
# 
# From -- ./inp_files/22591.got.cif
#   From: 2010.06.25/outbox.cif.g09.slc.cpg/sg9_12_cif.got.tgz:22591.got - 2010.06.27 21:40:51.
