data_PCOD8054453
_publ_section_title
;
Structure prediction by ZEFSAII (Michael W. Deem and Ramdas Pophale) SiO2 
 PCOD8054453
Probable space group: C C
;
_chemical_formula_sum "Si O2"
_cell_formula_units_Z 28
_cell_length_a 6.313668
_cell_length_b 17.367821
_cell_length_c 13.876037
_cell_angle_alpha 90.000000
_cell_angle_beta 57.212372
_cell_angle_gamma 90.000000
_cell_volume 1279.160610
_symmetry_space_group_name_H-M "C C"
_symmetry_group_IT_number 9
_symmetry_cell_setting 'monoclinic'
loop_
_space_group_symop_operation_xyz
x,y,z
x,-y,1/2+z
1/2+x,1/2+y,z
1/2+x,1/2-y,1/2+z
loop_
_atom_site_type_symbol
_atom_site_label
_atom_site_fract_x
_atom_site_fract_y
_atom_site_fract_z
Si Si1 0.446240 0.151494 0.887540
Si Si2 0.031403 0.128237 0.721283
Si Si3 0.736074 0.697706 0.129598
Si Si4 0.320157 0.133958 0.311793
Si Si5 0.370849 0.628557 0.557853
Si Si6 0.721393 0.764085 0.792442
Si Si7 0.398708 0.035605 0.738936
O O1 0.310603 0.226969 0.873076
O O2 0.364009 0.076056 0.850845
O O3 0.747731 0.154075 0.815893
O O4 0.366156 0.143716 0.018379
O O5 0.206529 0.196083 0.717872
O O6 0.137807 0.049743 0.744513
O O7 0.060068 0.113752 0.600527
O O8 0.845034 0.684582 0.209154
O O9 0.762489 0.786491 0.095361
O O10 0.439802 0.678256 0.202777
O O11 0.471935 0.182050 0.357258
O O12 0.034054 0.120812 0.419764
O O13 0.443510 0.053130 0.252275
O O14 0.138805 0.568139 0.619207
#
# Coordination Sequence:
#
# PCOD8054453 Si02
#       7
#     4   4   4   4   4   4   4
#     4  10  23  41  67  97 137 178 231 284 346 415
#     4  10  19  43  68  91 131 185 221 281 348 401
#     4  12  23  41  67 103 135 174 236 289 336 422
#     4  12  28  41  70 107 137 183 238 285 351 418
#     4  11  23  44  68  97 139 179 231 287 342 418
#     4  11  21  40  64 102 130 176 233 281 342 412
#     4  10  25  46  66  99 143 185 226 283 359 410
#
# _framework density 21.889354000000001
#
# number of rings (size 3 to 8) (size 9 to 14) (size 15 to 20)
#    0.000    1.143    5.714    1.714    2.000    9.143 
#    0.000    0.000    0.000    0.000    0.000    0.000 
#    0.000    0.000    0.000    0.000    0.000    0.000 
#
# Total GULP energy -173496.817927 kJ/mol
# GULP energy per Si atom -12392.629852 kJ/mol
# Density = 2.183953 g / cm^3
# Si number density = 21.889354 Si / 1000 Ang^3
#
#
#
# Elastic Constant Matrix: (Units=GPa)
#
#
# Indices 1 2 3 4 5 6 
#
# 1 111.8950 24.3978 31.9966 0.0000 3.0262 0.0000
# 2 24.3978 93.5230 22.0408 0.0000 -9.0221 0.0000
# 3 31.9966 22.0408 127.5536 0.0000 1.8054 0.0000
# 4 0.0000 0.0000 0.0000 23.9216 0.0000 -1.9277
# 5 3.0262 -9.0221 1.8054 0.0000 25.8869 0.0000
# 6 0.0000 0.0000 0.0000 -1.9277 0.0000 20.1672
#
#
#
# Elastic Compliance Matrix: (Units=1/GPa)
#
#
# Indices 1 2 3 4 5 6 
#
# 1 0.010094 -0.002314 -0.002106 0.000000 -0.001840 0.000000
# 2 -0.002314 0.012112 -0.001578 0.000000 0.004602 0.000000
# 3 -0.002106 -0.001578 0.008654 0.000000 -0.000907 0.000000
# 4 0.000000 0.000000 0.000000 0.042128 0.000000 0.004027
# 5 -0.001840 0.004602 -0.000907 0.000000 0.040512 0.000000
# 6 0.000000 0.000000 0.000000 0.004027 0.000000 0.049970
#
#
# Mechanical properties :
#
#
# Convention : Reuss Voigt Hill
#
# Bulk Modulus (GPa) = 53.01249 54.42690 53.71969
# Shear Modulus (GPa) = 27.50997 30.96424 29.23710
#
# Velocity S-wave (km/s) = 3.54895 3.76517 3.65866
# Velocity P-wave (km/s) = 6.40815 6.61971 6.51479
#
# Compressibility (1/GPa) = 0.01886348
#
# Stress axis : x y z
#
# Youngs Moduli (GPa) = 99.07333 82.56269 115.55938
#
# Poissons Ratio (x) = 0.19107 0.24337
# Poissons Ratio (y) = 0.22928 0.18230
# Poissons Ratio (z) = 0.20865 0.13024
#
# Static dielectric constant tensor:
#      x y z
#    x 4.206240 0.000000 0.143240 
#    y 0.000000 3.739310 0.000000 
#    z 0.143240 0.000000 3.991510 
# 
# 
# High freq. dielectric constant tensor:
#      x y z
#    x 1.872440 0.000000 0.001440 
#    y 0.000000 1.843110 0.000000 
#    z 0.001440 0.000000 1.847740 
# 
# From -- ./inp_files/13122.got.cif
#   From: 2010.06.25/outbox.cif.g09.slc.cpg/sg9_7_cif.got.tgz:13122.got - 2010.06.27 21:40:51.
