data_PCOD8054534
_publ_section_title
;
Structure prediction by ZEFSAII (Michael W. Deem and Ramdas Pophale) SiO2 
 PCOD8054534
Probable space group: C C
;
_chemical_formula_sum "Si O2"
_cell_formula_units_Z 32
_cell_length_a 12.864955
_cell_length_b 12.927485
_cell_length_c 21.702439
_cell_angle_alpha 90.000000
_cell_angle_beta 151.500313
_cell_angle_gamma 90.000000
_cell_volume 1722.223021
_symmetry_space_group_name_H-M "C C"
_symmetry_group_IT_number 9
_symmetry_cell_setting 'monoclinic'
loop_
_space_group_symop_operation_xyz
x,y,z
x,-y,1/2+z
1/2+x,1/2+y,z
1/2+x,1/2-y,1/2+z
loop_
_atom_site_type_symbol
_atom_site_label
_atom_site_fract_x
_atom_site_fract_y
_atom_site_fract_z
Si Si1 0.659340 0.632284 0.148040
Si Si2 0.685240 0.538840 0.883284
Si Si3 0.537003 0.630948 0.401723
Si Si4 0.586163 0.964991 0.664485
Si Si5 0.184512 0.302320 0.389700
Si Si6 0.343971 0.955833 0.156542
Si Si7 0.827603 0.374704 0.871167
Si Si8 0.244696 0.639387 0.657392
O O1 0.730836 0.539335 0.141494
O O2 0.785241 0.629077 0.277594
O O3 0.730949 0.739467 0.156839
O O4 0.398148 0.632216 0.019876
O O5 0.623226 0.458668 0.903455
O O6 0.710300 0.478677 0.832614
O O7 0.496975 0.621259 0.773424
O O8 0.911177 0.588193 0.026431
O O9 0.277098 0.618784 0.272636
O O10 0.602092 0.740987 0.407027
O O11 0.654247 0.615845 0.528543
O O12 0.486839 0.986788 0.679444
O O13 0.668495 0.074582 0.678157
O O14 0.235051 0.226057 0.358717
O O15 0.997281 0.382289 0.275907
O O16 0.086236 0.389073 0.018014
#
# Coordination Sequence:
#
# PCOD8054534 Si02
#       8
#     4   4   4   4   4   4   4   4
#     4  11  22  34  53  81 111 143 177 219 270 320
#     4   8  16  31  55  80 104 138 182 224 263 310
#     4   9  18  35  59  80 103 142 185 221 262 318
#     4   9  17  34  57  81 109 142 181 222 263 312
#     4  10  20  37  57  77 103 145 186 220 263 321
#     4  11  21  34  53  82 111 138 175 226 271 314
#     4   9  18  33  53  77 104 137 183 224 261 315
#     4   9  18  34  55  78 105 145 183 216 263 320
#
# _framework density 18.580635999999998
#
# number of rings (size 3 to 8) (size 9 to 14) (size 15 to 20)
#    0.000    2.500    0.000    4.500    0.000    6.000 
#    0.000    6.250    0.000    0.000    0.000    0.000 
#    0.000    0.000    0.000    0.000    0.000    0.000 
#
# Total GULP energy -198324.645098 kJ/mol
# GULP energy per Si atom -12395.290319 kJ/mol
# Density = 1.853835 g / cm^3
# Si number density = 18.580636 Si / 1000 Ang^3
#
#
#
# Elastic Constant Matrix: (Units=GPa)
#
#
# Indices 1 2 3 4 5 6 
#
# 1 66.7355 36.7994 49.9830 -0.0004 -4.4715 0.0002
# 2 36.7994 83.1832 64.9201 0.0028 6.3119 0.0003
# 3 49.9830 64.9201 160.6452 0.0112 11.5459 0.0012
# 4 -0.0004 0.0028 0.0112 29.9233 0.0008 4.6465
# 5 -4.4715 6.3119 11.5459 0.0008 33.8993 -0.0001
# 6 0.0002 0.0003 0.0012 4.6465 -0.0001 24.5884
#
#
#
# Elastic Compliance Matrix: (Units=1/GPa)
#
#
# Indices 1 2 3 4 5 6 
#
# 1 0.022658 -0.006774 -0.004734 0.000003 0.005862 0.000000
# 2 -0.006774 0.019611 -0.005628 0.000000 -0.002628 0.000000
# 3 -0.004734 -0.005628 0.010191 -0.000003 -0.003047 0.000000
# 4 0.000003 0.000000 -0.000003 0.034429 0.000001 -0.006506
# 5 0.005862 -0.002628 -0.003047 0.000001 0.031800 0.000000
# 6 0.000000 0.000000 0.000000 -0.006506 0.000000 0.041899
#
#
# Mechanical properties :
#
#
# Convention : Reuss Voigt Hill
#
# Bulk Modulus (GPa) = 54.98279 68.21878 61.60078
# Shear Modulus (GPa) = 24.88518 28.27295 26.57906
#
# Velocity S-wave (km/s) = 3.66362 3.90505 3.78626
# Velocity P-wave (km/s) = 6.89579 7.55825 7.23461
#
# Compressibility (1/GPa) = 0.01818751
#
# Stress axis : x y z
#
# Youngs Moduli (GPa) = 44.13440 50.99270 98.12299
#
# Poissons Ratio (x) = 0.34544 0.46447
# Poissons Ratio (y) = 0.29898 0.55228
# Poissons Ratio (z) = 0.20891 0.28701
#
# Static dielectric constant tensor:
#      x y z
#    x 3.285880 0.000000 0.195550 
#    y 0.000000 3.279680 -0.000010 
#    z 0.195550 -0.000010 3.940650 
# 
# 
# High freq. dielectric constant tensor:
#      x y z
#    x 1.699010 0.000000 0.002900 
#    y 0.000000 1.697610 0.000000 
#    z 0.002900 0.000000 1.745030 
# 
# From -- ./inp_files/16504.got.cif
#   From: 2010.06.25/outbox.cif.g09.slc.cpg/sg9_9_cif.got.tgz:16504.got - 2010.06.27 21:40:51.
