data_PCOD8054007
_publ_section_title
;
Structure prediction by ZEFSAII (Michael W. Deem and Ramdas Pophale) SiO2 
 PCOD8054007
Probable space group: C M
;
_chemical_formula_sum "Si O2"
_cell_formula_units_Z 32
_cell_length_a 15.485426
_cell_length_b 21.972004
_cell_length_c 9.883122
_cell_angle_alpha 90.000000
_cell_angle_beta 152.498112
_cell_angle_gamma 90.000000
_cell_volume 1552.816269
_symmetry_space_group_name_H-M "C M"
_symmetry_group_IT_number 8
_symmetry_cell_setting 'monoclinic'
loop_
_space_group_symop_operation_xyz
x,y,z
x,-y,z
1/2+x,1/2+y,z
1/2+x,1/2-y,z
loop_
_atom_site_type_symbol
_atom_site_label
_atom_site_fract_x
_atom_site_fract_y
_atom_site_fract_z
Si Si1 0.244850 0.276415 0.071040
Si Si2 0.340040 0.357745 0.708551
Si Si3 0.875230 0.658482 0.653024
Si Si4 0.452887 0.140332 0.064610
Si Si5 0.970902 0.783739 0.132885
Si Si6 0.171724 0.070282 0.856994
Si Si7 0.203679 0.931414 0.207445
Si Si8 0.976685 0.815881 0.632824
O O1 0.386516 0.306521 0.159583
O O2 0.352550 0.274370 0.362092
O O3 0.191104 0.208828 0.942339
O O4 0.041772 0.306237 0.809632
O O5 0.139482 0.386196 0.394300
O O6 0.386914 0.309647 0.655407
O O7 0.339323 0.317520 0.842371
O O8 0.487929 0.412067 0.923009
O O9 0.688650 0.698619 0.420670
O O10 0.833701 0.605667 0.488849
O O11 0.949095 0.630785 0.897189
O O12 0.439653 0.212010 0.075628
O O13 0.294020 0.098230 0.907266
O O14 0.267346 0.075659 0.138767
O O15 0.119247 0.000000 0.752074
O O16 0.984971 0.112974 0.598703
O O17 0.219599 0.000000 0.278464
#
# Coordination Sequence:
#
# PCOD8054007 Si02
#       8
#     4   4   4   4   4   4   4   4
#     4  12  25  39  66  98 135 169 211 261 335 386
#     4  10  23  38  63  92 131 167 210 272 323 383
#     4  11  25  41  64  98 135 168 212 269 327 388
#     4  12  21  39  60  98 131 163 214 266 321 388
#     4  11  24  39  60  96 138 170 206 263 325 394
#     4  10  23  42  67  92 126 173 222 268 319 384
#     4   9  22  46  66  86 123 174 223 265 322 387
#     4  11  23  42  62  96 129 172 212 268 326 392
#
# _framework density 20.607717999999998
#
# number of rings (size 3 to 8) (size 9 to 14) (size 15 to 20)
#    0.000    1.250    2.500    3.000    8.750    1.000 
#    0.000    0.625    0.000    0.000    0.000    0.000 
#    0.000    0.000    0.000    0.000    0.000    0.000 
#
# Total GULP energy -198298.283869 kJ/mol
# GULP energy per Si atom -12393.642742 kJ/mol
# Density = 2.056081 g / cm^3
# Si number density = 20.607718 Si / 1000 Ang^3
#
#
#
# Elastic Constant Matrix: (Units=GPa)
#
#
# Indices 1 2 3 4 5 6 
#
# 1 101.6447 23.1221 9.9972 0.0000 -3.2708 0.0000
# 2 23.1221 101.7571 24.2527 0.0000 -3.4333 0.0000
# 3 9.9972 24.2527 83.8522 0.0000 -11.3173 0.0000
# 4 0.0000 0.0000 0.0000 16.9026 0.0000 -5.3632
# 5 -3.2708 -3.4333 -11.3173 0.0000 30.5897 0.0000
# 6 0.0000 0.0000 0.0000 -5.3632 0.0000 27.5768
#
#
#
# Elastic Compliance Matrix: (Units=1/GPa)
#
#
# Indices 1 2 3 4 5 6 
#
# 1 0.010416 -0.002223 -0.000508 0.000000 0.000676 0.000000
# 2 -0.002223 0.011029 -0.002937 0.000000 -0.000086 0.000000
# 3 -0.000508 -0.002937 0.013456 0.000000 0.004594 0.000000
# 4 0.000000 0.000000 0.000000 0.063053 0.000000 0.012263
# 5 0.000676 -0.000086 0.004594 0.000000 0.034453 0.000000
# 6 0.000000 0.000000 0.000000 0.012263 0.000000 0.038647
#
#
# Mechanical properties :
#
#
# Convention : Reuss Voigt Hill
#
# Bulk Modulus (GPa) = 42.43327 44.66645 43.54986
# Shear Modulus (GPa) = 26.28199 30.33929 28.31064
#
# Velocity S-wave (km/s) = 3.57507 3.84113 3.71049
# Velocity P-wave (km/s) = 6.13818 6.43382 6.28773
#
# Compressibility (1/GPa) = 0.02356641
#
# Stress axis : x y z
#
# Youngs Moduli (GPa) = 96.01029 90.66631 74.31786
#
# Poissons Ratio (x) = 0.20154 0.03772
# Poissons Ratio (y) = 0.21342 0.21825
# Poissons Ratio (z) = 0.04873 0.26626
#
# Static dielectric constant tensor:
#      x y z
#    x 3.946060 0.000000 -0.063760 
#    y 0.000000 3.664760 0.000000 
#    z -0.063760 0.000000 3.783270 
# 
# 
# High freq. dielectric constant tensor:
#      x y z
#    x 1.821080 0.000000 -0.008190 
#    y 0.000000 1.784850 0.000000 
#    z -0.008190 0.000000 1.803740 
# 
# From -- ./inp_files/13828.got.cif
#   From: 2010.03.12/outbox.cif.g09.slc.cpg/sg8_7_cif.got.tgz:13828.got - 2010.03.31 10:45:26.
