data_PCOD8054755
_publ_section_title
;
Structure prediction by ZEFSAII (Michael W. Deem and Ramdas Pophale) SiO2 
 PCOD8054755
Probable space group: C C
;
_chemical_formula_sum "Si O2"
_cell_formula_units_Z 32
_cell_length_a 14.785274
_cell_length_b 10.944505
_cell_length_c 18.798410
_cell_angle_alpha 90.000000
_cell_angle_beta 150.119563
_cell_angle_gamma 90.000000
_cell_volume 1515.455271
_symmetry_space_group_name_H-M "C C"
_symmetry_group_IT_number 9
_symmetry_cell_setting 'monoclinic'
loop_
_space_group_symop_operation_xyz
x,y,z
x,-y,1/2+z
1/2+x,1/2+y,z
1/2+x,1/2-y,1/2+z
loop_
_atom_site_type_symbol
_atom_site_label
_atom_site_fract_x
_atom_site_fract_y
_atom_site_fract_z
Si Si1 0.033050 0.111192 0.575730
Si Si2 0.671546 0.890726 0.451586
Si Si3 0.014918 0.849325 0.591769
Si Si4 0.343556 0.292485 0.334878
Si Si5 0.063061 0.327658 0.860028
Si Si6 0.740662 0.935158 0.767504
Si Si7 0.812771 0.236099 0.189630
Si Si8 0.432033 0.198852 0.114492
O O1 0.154117 0.167552 0.596031
O O2 0.828942 0.099486 0.404520
O O3 0.036935 0.183970 0.652970
O O4 0.112967 0.979293 0.648211
O O5 0.820301 0.865990 0.493786
O O6 0.757107 0.844534 0.583829
O O7 0.498089 0.812566 0.308069
O O8 0.632159 0.036467 0.428472
O O9 0.987564 0.786127 0.496423
O O10 0.154688 0.768695 0.732028
O O11 0.421523 0.218351 0.321812
O O12 0.290168 0.429550 0.277338
O O13 0.957047 0.327291 0.714028
O O14 0.219677 0.224455 0.958886
O O15 0.830333 0.852468 0.768482
O O16 0.522074 0.913899 0.630211
#
# Coordination Sequence:
#
# PCOD8054755 Si02
#       8
#     4   4   4   4   4   4   4   4
#     4  10  20  44  68  95 134 181 222 273 339 407
#     4  12  25  45  69 102 136 176 235 280 337 405
#     4  11  23  45  65  92 140 175 220 281 341 401
#     4  11  25  43  64  96 137 177 221 282 342 400
#     4  12  25  43  71 103 137 178 235 282 335 408
#     4  10  22  43  65  99 136 175 226 269 347 407
#     4  11  24  41  71  98 134 176 225 283 333 405
#     4  11  22  44  69  97 134 180 224 284 330 407
#
# _framework density 21.115767000000002
#
# number of rings (size 3 to 8) (size 9 to 14) (size 15 to 20)
#    0.000    1.000    3.750    3.000    3.500    1.000 
#    4.500    0.000    0.000    0.000    0.000    0.000 
#    0.000    0.000    0.000    0.000    0.000    0.000 
#
# Total GULP energy -198310.203159 kJ/mol
# GULP energy per Si atom -12394.387697 kJ/mol
# Density = 2.106771 g / cm^3
# Si number density = 21.115767 Si / 1000 Ang^3
#
#
#
# Elastic Constant Matrix: (Units=GPa)
#
#
# Indices 1 2 3 4 5 6 
#
# 1 100.0209 43.5495 17.7347 0.0002 -1.5085 0.0000
# 2 43.5495 97.0179 31.5800 -0.0003 8.6279 -0.0003
# 3 17.7347 31.5800 45.7521 -0.0008 9.4680 -0.0004
# 4 0.0002 -0.0003 -0.0008 36.1416 0.0000 3.4350
# 5 -1.5085 8.6279 9.4680 0.0000 36.2544 0.0001
# 6 0.0000 -0.0003 -0.0004 3.4350 0.0001 33.2149
#
#
#
# Elastic Compliance Matrix: (Units=1/GPa)
#
#
# Indices 1 2 3 4 5 6 
#
# 1 0.012651 -0.005328 -0.001689 0.000000 0.002235 0.000000
# 2 -0.005328 0.015561 -0.008312 0.000000 -0.001754 0.000000
# 3 -0.001689 -0.008312 0.029446 0.000001 -0.005782 0.000000
# 4 0.000000 0.000000 0.000001 0.027944 0.000000 -0.002890
# 5 0.002235 -0.001754 -0.005782 0.000000 0.029603 0.000000
# 6 0.000000 0.000000 0.000000 -0.002890 0.000000 0.030406
#
#
# Mechanical properties :
#
#
# Convention : Reuss Voigt Hill
#
# Bulk Modulus (GPa) = 37.03852 47.61324 42.32588
# Shear Modulus (GPa) = 26.98795 31.11728 29.05262
#
# Velocity S-wave (km/s) = 3.57892 3.84298 3.71330
# Velocity P-wave (km/s) = 5.88702 6.50300 6.20266
#
# Compressibility (1/GPa) = 0.02699892
#
# Stress axis : x y z
#
# Youngs Moduli (GPa) = 79.04638 64.26469 33.96075
#
# Poissons Ratio (x) = 0.34239 0.05736
# Poissons Ratio (y) = 0.42114 0.28230
# Poissons Ratio (z) = 0.13350 0.53420
#
# Static dielectric constant tensor:
#      x y z
#    x 3.918970 0.000000 0.028700 
#    y 0.000000 3.969610 0.000000 
#    z 0.028700 0.000000 3.775160 
# 
# 
# High freq. dielectric constant tensor:
#      x y z
#    x 1.840770 0.000000 0.004220 
#    y 0.000000 1.832380 0.000000 
#    z 0.004220 0.000000 1.821860 
# 
# From -- ./inp_files/9270.got.cif
#   From: 2010.06.25/outbox.cif.g09.slc.cpg/sg9_5_cif.got.tgz:9270.got - 2010.06.27 21:40:51.
