data_PCOD8054814
_publ_section_title
;
Structure prediction by ZEFSAII (Michael W. Deem and Ramdas Pophale) SiO2 
 PCOD8054814
Probable space group: C C
;
_chemical_formula_sum "Si O2"
_cell_formula_units_Z 28
_cell_length_a 16.570661
_cell_length_b 16.383577
_cell_length_c 8.137641
_cell_angle_alpha 90.000000
_cell_angle_beta 145.233454
_cell_angle_gamma 90.000000
_cell_volume 1259.795946
_symmetry_space_group_name_H-M "C C"
_symmetry_group_IT_number 9
_symmetry_cell_setting 'monoclinic'
loop_
_space_group_symop_operation_xyz
x,y,z
x,-y,1/2+z
1/2+x,1/2+y,z
1/2+x,1/2-y,1/2+z
loop_
_atom_site_type_symbol
_atom_site_label
_atom_site_fract_x
_atom_site_fract_y
_atom_site_fract_z
Si Si1 0.694250 0.097631 0.818260
Si Si2 0.455818 0.811716 0.381963
Si Si3 0.817751 0.421074 0.908983
Si Si4 0.171705 0.250444 0.502422
Si Si5 0.569155 0.039483 0.278897
Si Si6 0.009177 0.900221 0.776583
Si Si7 0.137098 0.042780 0.814747
O O1 0.593413 0.081371 0.494014
O O2 0.706178 0.011440 0.939935
O O3 0.632691 0.173264 0.820823
O O4 0.846768 0.126110 0.009144
O O5 0.343807 0.760127 0.307847
O O6 0.594024 0.762722 0.550361
O O7 0.514881 0.891426 0.567249
O O8 0.358882 0.835853 0.062592
O O9 0.748521 0.481547 0.923228
O O10 0.717149 0.401870 0.584570
O O11 0.958382 0.466237 0.086206
O O12 0.100271 0.165229 0.321482
O O13 0.018843 0.989078 0.710683
O O14 0.067297 0.900340 0.061072
#
# Coordination Sequence:
#
# PCOD8054814 Si02
#       7
#     4   4   4   4   4   4   4
#     4  12  24  43  71 100 139 189 235 294 343 427
#     4  12  24  46  69  98 144 185 227 291 354 423
#     4  11  18  38  69  96 123 170 235 277 337 402
#     4  12  25  46  66  96 152 183 220 301 359 406
#     4  12  23  43  73 103 130 190 245 279 346 429
#     4  11  23  43  63  99 138 177 232 286 356 404
#     4  10  21  37  69  96 126 172 228 290 337 413
#
# _framework density 22.225821
#
# number of rings (size 3 to 8) (size 9 to 14) (size 15 to 20)
#    0.000    0.571    7.143    1.714    0.000    0.000 
#    5.143    0.000    0.000    0.000    0.000    0.000 
#    0.000    0.000    0.000    0.000    0.000    0.000 
#
# Total GULP energy -173527.571982 kJ/mol
# GULP energy per Si atom -12394.826570 kJ/mol
# Density = 2.217523 g / cm^3
# Si number density = 22.225821 Si / 1000 Ang^3
#
#
#
# Elastic Constant Matrix: (Units=GPa)
#
#
# Indices 1 2 3 4 5 6 
#
# 1 103.5493 31.3000 41.1273 0.0000 16.5475 0.0000
# 2 31.3000 99.4022 45.4994 0.0000 -4.2312 0.0000
# 3 41.1273 45.4994 71.5081 0.0000 -1.1358 0.0000
# 4 0.0000 0.0000 0.0000 19.4194 0.0000 1.8073
# 5 16.5475 -4.2312 -1.1358 0.0000 42.4569 0.0000
# 6 0.0000 0.0000 0.0000 1.8073 0.0000 40.7389
#
#
#
# Elastic Compliance Matrix: (Units=1/GPa)
#
#
# Indices 1 2 3 4 5 6 
#
# 1 0.013829 -0.001292 -0.007222 0.000000 -0.005712 0.000000
# 2 -0.001292 0.014373 -0.008375 0.000000 0.001712 0.000000
# 3 -0.007222 -0.008375 0.023509 0.000000 0.002609 0.000000
# 4 0.000000 0.000000 0.000000 0.051708 0.000000 -0.002294
# 5 -0.005712 0.001712 0.002609 0.000000 0.026020 0.000000
# 6 0.000000 0.000000 0.000000 -0.002294 0.000000 0.024648
#
#
# Mechanical properties :
#
#
# Convention : Reuss Voigt Hill
#
# Bulk Modulus (GPa) = 55.76576 56.70143 56.23360
# Shear Modulus (GPa) = 25.79383 30.95857 28.37620
#
# Velocity S-wave (km/s) = 3.41036 3.73622 3.57700
# Velocity P-wave (km/s) = 6.37592 6.64675 6.51275
#
# Compressibility (1/GPa) = 0.01793215
#
# Stress axis : x y z
#
# Youngs Moduli (GPa) = 72.31157 69.57274 42.53687
#
# Poissons Ratio (x) = 0.08987 0.30722
# Poissons Ratio (y) = 0.09341 0.35627
# Poissons Ratio (z) = 0.52227 0.58271
#
# Static dielectric constant tensor:
#      x y z
#    x 4.373850 0.000000 0.110790 
#    y 0.000000 4.081310 0.000000 
#    z 0.110790 0.000000 3.833580 
# 
# 
# High freq. dielectric constant tensor:
#      x y z
#    x 1.892210 0.000000 0.017380 
#    y 0.000000 1.871270 0.000000 
#    z 0.017380 0.000000 1.849830 
# 
# From -- ./inp_files/5367.got.cif
#   From: 2010.06.25/outbox.cif.g09.slc.cpg/sg9_3_cif.got.tgz:5367.got - 2010.06.27 21:40:51.
