data_PCOD8054069
_publ_section_title
;
Structure prediction by ZEFSAII (Michael W. Deem and Ramdas Pophale) SiO2 
 PCOD8054069
Probable space group: C M
;
_chemical_formula_sum "Si O2"
_cell_formula_units_Z 32
_cell_length_a 13.424424
_cell_length_b 18.001313
_cell_length_c 11.229033
_cell_angle_alpha 90.000000
_cell_angle_beta 34.121046
_cell_angle_gamma 90.000000
_cell_volume 1522.162537
_symmetry_space_group_name_H-M "C M"
_symmetry_group_IT_number 8
_symmetry_cell_setting 'monoclinic'
loop_
_space_group_symop_operation_xyz
x,y,z
x,-y,z
1/2+x,1/2+y,z
1/2+x,1/2-y,z
loop_
_atom_site_type_symbol
_atom_site_label
_atom_site_fract_x
_atom_site_fract_y
_atom_site_fract_z
Si Si1 0.691150 0.912434 0.158700
Si Si2 0.400505 0.182070 0.553435
Si Si3 0.529338 0.331171 0.794042
Si Si4 0.027563 0.836166 0.330533
Si Si5 0.654090 0.588280 0.439759
Si Si6 0.054399 0.412272 0.040062
Si Si7 0.681198 0.912747 0.659202
Si Si8 0.888764 0.321082 0.842019
O O1 0.526268 0.888601 0.404202
O O2 0.657309 0.885609 0.055679
O O3 0.712452 0.000000 0.148323
O O4 0.872256 0.872773 0.021939
O O5 0.206586 0.164416 0.695572
O O6 0.492565 0.251588 0.399624
O O7 0.385871 0.197959 0.706768
O O8 0.550006 0.373660 0.649510
O O9 0.474590 0.246234 0.830245
O O10 0.063631 0.889029 0.406665
O O11 0.853793 0.870109 0.437847
O O12 0.189247 0.838778 0.078901
O O13 0.641079 0.500000 0.468505
O O14 0.854745 0.619500 0.241050
O O15 0.039902 0.500000 0.051217
O O16 0.152769 0.384387 0.823846
O O17 0.510337 0.892766 0.748702
O O18 0.711579 0.000000 0.621596
#
# Coordination Sequence:
#
# PCOD8054069 Si02
#       8
#     4   4   4   4   4   4   4   4
#     4  11  24  43  69 102 138 182 229 279 337 399
#     4  12  27  45  68 102 138 180 224 275 341 413
#     4  12  24  44  70 100 138 179 227 282 338 402
#     4  12  24  44  70 100 138 179 227 282 338 402
#     4  11  21  39  73 108 134 169 227 291 339 388
#     4   9  19  37  67 102 135 169 219 283 334 384
#     4  11  24  43  69 102 138 182 229 279 337 399
#     4  12  27  45  68 102 138 180 224 275 341 413
#
# _framework density 21.022722999999999
#
# number of rings (size 3 to 8) (size 9 to 14) (size 15 to 20)
#    0.000    0.750    6.250    1.500    0.000    3.500 
#    2.250    0.000    0.000    0.000    0.000    0.000 
#    0.000    0.000    0.000    0.000    0.000    0.000 
#
# Total GULP energy -198493.651901 kJ/mol
# GULP energy per Si atom -12405.853244 kJ/mol
# Density = 2.097487 g / cm^3
# Si number density = 21.022723 Si / 1000 Ang^3
#
#
#
# Elastic Constant Matrix: (Units=GPa)
#
#
# Indices 1 2 3 4 5 6 
#
# 1 64.5326 20.2984 59.0503 0.0034 -9.4043 -0.0035
# 2 20.2984 79.1592 37.3337 -0.0026 -2.5111 -0.0228
# 3 59.0503 37.3337 126.6677 -0.0171 -34.8175 -0.0095
# 4 0.0034 -0.0026 -0.0171 35.4783 -0.0001 -5.8042
# 5 -9.4043 -2.5111 -34.8175 -0.0001 28.7534 0.0170
# 6 -0.0035 -0.0228 -0.0095 -5.8042 0.0170 27.9866
#
#
#
# Elastic Compliance Matrix: (Units=1/GPa)
#
#
# Indices 1 2 3 4 5 6 
#
# 1 0.028923 -0.000060 -0.016288 -0.000010 -0.010269 0.000002
# 2 -0.000060 0.015379 -0.006207 0.000000 -0.006192 0.000014
# 3 -0.016288 -0.006207 0.023539 0.000011 0.022634 -0.000011
# 4 -0.000010 0.000000 0.000011 0.029176 0.000006 0.006051
# 5 -0.010269 -0.006192 0.022634 0.000006 0.058286 -0.000033
# 6 0.000002 0.000014 -0.000011 0.006051 -0.000033 0.036986
#
#
# Mechanical properties :
#
#
# Convention : Reuss Voigt Hill
#
# Bulk Modulus (GPa) = 43.99469 55.96936 49.98203
# Shear Modulus (GPa) = 20.41006 28.68880 24.54943
#
# Velocity S-wave (km/s) = 3.11924 3.69813 3.42095
# Velocity P-wave (km/s) = 5.82628 6.70194 6.27939
#
# Compressibility (1/GPa) = 0.02273001
#
# Stress axis : x y z
#
# Youngs Moduli (GPa) = 34.57442 65.02328 42.48314
#
# Poissons Ratio (x) = 0.00392 0.69198
# Poissons Ratio (y) = 0.00209 0.26368
# Poissons Ratio (z) = 0.56316 0.40359
#
# Static dielectric constant tensor:
#      x y z
#    x 3.751370 -0.000010 -0.194070 
#    y -0.000010 3.703780 0.000030 
#    z -0.194070 0.000030 4.003150 
# 
# 
# High freq. dielectric constant tensor:
#      x y z
#    x 1.814620 0.000000 -0.020380 
#    y 0.000000 1.823960 0.000000 
#    z -0.020380 0.000000 1.837150 
# 
# From -- ./inp_files/22410.got.cif
#   From: 2010.03.12/outbox.cif.g09.slc.cpg/sg8_12_cif.got.tgz:22410.got - 2010.03.31 10:45:26.
