data_PCOD8054392
_publ_section_title
;
Structure prediction by ZEFSAII (Michael W. Deem and Ramdas Pophale) SiO2 
 PCOD8054392
Probable space group: C C
;
_chemical_formula_sum "Si O2"
_cell_formula_units_Z 32
_cell_length_a 12.226650
_cell_length_b 13.403564
_cell_length_c 18.055824
_cell_angle_alpha 90.000000
_cell_angle_beta 151.258986
_cell_angle_gamma 90.000000
_cell_volume 1422.839276
_symmetry_space_group_name_H-M "C C"
_symmetry_group_IT_number 9
_symmetry_cell_setting 'monoclinic'
loop_
_space_group_symop_operation_xyz
x,y,z
x,-y,1/2+z
1/2+x,1/2+y,z
1/2+x,1/2-y,1/2+z
loop_
_atom_site_type_symbol
_atom_site_label
_atom_site_fract_x
_atom_site_fract_y
_atom_site_fract_z
Si Si1 0.111400 0.680704 0.337740
Si Si2 0.428171 0.548271 0.610317
Si Si3 0.536524 0.155616 0.657133
Si Si4 0.349324 0.950601 0.568134
Si Si5 0.858205 0.337945 0.304563
Si Si6 0.756600 0.152568 0.940665
Si Si7 0.395199 0.620998 0.751849
Si Si8 0.523622 0.185725 0.050160
O O1 0.222484 0.625319 0.473471
O O2 0.313405 0.737386 0.415889
O O3 0.999833 0.596325 0.221832
O O4 0.924921 0.762053 0.250306
O O5 0.666822 0.584636 0.717478
O O6 0.397936 0.443653 0.550655
O O7 0.420900 0.547105 0.695724
O O8 0.729427 0.169163 0.835862
O O9 0.387529 0.253563 0.553906
O O10 0.657358 0.116018 0.653655
O O11 0.362109 0.069638 0.578686
O O12 0.444978 0.912104 0.546473
O O13 0.090046 0.915641 0.424336
O O14 0.741750 0.231154 0.219772
O O15 0.995750 0.365013 0.312460
O O16 0.062748 0.337920 0.486976
#
# Coordination Sequence:
#
# PCOD8054392 Si02
#       8
#     4   4   4   4   4   4   4   4
#     4  10  19  42  70 106 135 172 247 294 349 406
#     4  11  24  44  74 109 134 188 245 291 352 422
#     4  12  31  49  68 104 152 191 236 293 361 425
#     4  11  22  44  68 105 139 181 242 284 357 417
#     4  11  22  42  72  99 137 184 235 296 342 419
#     4  12  30  49  67 102 150 199 232 289 364 423
#     4  11  25  43  77 107 140 185 232 303 356 424
#     4  10  19  37  70 104 131 170 235 296 339 408
#
# _framework density 22.490241999999999
#
# number of rings (size 3 to 8) (size 9 to 14) (size 15 to 20)
#    0.000    1.000    5.000    2.250    7.000    3.000 
#    0.000    0.000    0.000    0.000    0.000    0.000 
#    0.000    0.000    0.000    0.000    0.000    0.000 
#
# Total GULP energy -198293.654151 kJ/mol
# GULP energy per Si atom -12393.353384 kJ/mol
# Density = 2.243905 g / cm^3
# Si number density = 22.490242 Si / 1000 Ang^3
#
#
#
# Elastic Constant Matrix: (Units=GPa)
#
#
# Indices 1 2 3 4 5 6 
#
# 1 92.5074 21.2241 36.6653 -0.0005 3.6350 -0.0004
# 2 21.2241 130.4098 40.6733 0.0006 -4.0460 -0.0003
# 3 36.6653 40.6733 93.9015 0.0019 -17.1367 -0.0016
# 4 -0.0005 0.0006 0.0019 32.9685 -0.0022 -7.4443
# 5 3.6350 -4.0460 -17.1367 -0.0022 32.8153 -0.0015
# 6 -0.0004 -0.0003 -0.0016 -7.4443 -0.0015 19.0363
#
#
#
# Elastic Compliance Matrix: (Units=1/GPa)
#
#
# Indices 1 2 3 4 5 6 
#
# 1 0.013433 -0.000498 -0.005872 0.000000 -0.004616 -0.000001
# 2 -0.000498 0.008915 -0.003820 0.000000 -0.000841 0.000000
# 3 -0.005872 -0.003820 0.016171 0.000000 0.008624 0.000002
# 4 0.000000 0.000000 0.000000 0.033270 0.000003 0.013010
# 5 -0.004616 -0.000841 0.008624 0.000003 0.035385 0.000004
# 6 -0.000001 0.000000 0.000002 0.013010 0.000004 0.057619
#
#
# Mechanical properties :
#
#
# Convention : Reuss Voigt Hill
#
# Bulk Modulus (GPa) = 55.13250 57.10490 56.11870
# Shear Modulus (GPa) = 26.14820 31.51443 28.83132
#
# Velocity S-wave (km/s) = 3.41346 3.74739 3.58431
# Velocity P-wave (km/s) = 6.33268 6.64605 6.49125
#
# Compressibility (1/GPa) = 0.01813812
#
# Stress axis : x y z
#
# Youngs Moduli (GPa) = 74.44466 112.17528 61.84017
#
# Poissons Ratio (x) = 0.05587 0.36310
# Poissons Ratio (y) = 0.03708 0.23625
# Poissons Ratio (z) = 0.43711 0.42854
#
# Static dielectric constant tensor:
#      x y z
#    x 3.985540 0.000010 -0.155050 
#    y 0.000010 4.045770 0.000030 
#    z -0.155050 0.000030 4.173600 
# 
# 
# High freq. dielectric constant tensor:
#      x y z
#    x 1.876660 0.000000 -0.016670 
#    y 0.000000 1.882030 0.000000 
#    z -0.016670 0.000000 1.894750 
# 
# From -- ./inp_files/30152.got.cif
#   From: 2010.06.25/outbox.cif.g09.slc.cpg/sg9_16_cif.got.tgz:30152.got - 2010.06.27 21:40:51.
