data_PCOD8054786
_publ_section_title
;
Structure prediction by ZEFSAII (Michael W. Deem and Ramdas Pophale) SiO2 
 PCOD8054786
Probable space group: C C
;
_chemical_formula_sum "Si O2"
_cell_formula_units_Z 32
_cell_length_a 10.546540
_cell_length_b 15.838767
_cell_length_c 8.291716
_cell_angle_alpha 90.000000
_cell_angle_beta 103.133945
_cell_angle_gamma 90.000000
_cell_volume 1348.851310
_symmetry_space_group_name_H-M "C C"
_symmetry_group_IT_number 9
_symmetry_cell_setting 'monoclinic'
loop_
_space_group_symop_operation_xyz
x,y,z
x,-y,1/2+z
1/2+x,1/2+y,z
1/2+x,1/2-y,1/2+z
loop_
_atom_site_type_symbol
_atom_site_label
_atom_site_fract_x
_atom_site_fract_y
_atom_site_fract_z
Si Si1 0.160970 0.123960 0.424180
Si Si2 0.388262 0.708195 0.415578
Si Si3 0.571350 0.017710 0.771999
Si Si4 0.511067 0.123963 0.024421
Si Si5 0.738533 0.072724 0.561215
Si Si6 0.100680 0.017704 0.676588
Si Si7 0.433497 0.427274 0.387369
Si Si8 0.283781 0.708198 0.033020
O O1 0.203461 0.063117 0.586411
O O2 0.255380 0.203584 0.433617
O O3 0.016309 0.152263 0.434500
O O4 0.160270 0.071088 0.257756
O O5 0.416659 0.796411 0.514988
O O6 0.282365 0.661489 0.497374
O O7 0.336040 0.728999 0.224294
O O8 0.511755 0.928920 0.690831
O O9 0.605708 0.080506 0.632210
O O10 0.705261 0.995765 0.913194
O O11 0.468573 0.063131 0.862175
O O12 0.655732 0.152271 0.014137
O O13 0.836017 0.035739 0.724292
O O14 0.066326 0.080502 0.816377
O O15 0.966765 0.995759 0.535399
O O16 0.389657 0.338507 0.451191
#
# Coordination Sequence:
#
# PCOD8054786 Si02
#       8
#     4   4   4   4   4   4   4   4
#     4  10  22  38  60  86 121 151 195 237 293 341
#     4  11  22  38  56  89 124 153 183 244 297 341
#     4  10  21  36  62  88 115 150 198 242 282 343
#     4  10  22  38  60  86 121 151 195 237 293 341
#     4  11  20  32  59  89 118 148 194 243 293 336
#     4  10  21  36  62  88 115 150 198 242 282 343
#     4  11  20  32  59  89 118 148 194 243 293 336
#     4  11  22  38  56  89 124 153 183 244 297 341
#
# _framework density 23.723890000000001
#
# number of rings (size 3 to 8) (size 9 to 14) (size 15 to 20)
#    0.000    1.500    5.000    0.750    3.500    0.000 
#    0.000    8.750    0.000    0.000    0.000    0.000 
#    0.000    0.000    0.000    0.000    0.000    0.000 
#
# Total GULP energy -198233.624652 kJ/mol
# GULP energy per Si atom -12389.601541 kJ/mol
# Density = 2.366989 g / cm^3
# Si number density = 23.723890 Si / 1000 Ang^3
#
#
#
# Elastic Constant Matrix: (Units=GPa)
#
#
# Indices 1 2 3 4 5 6 
#
# 1 18.3221 32.3557 15.9561 0.0000 -6.7255 0.0000
# 2 32.3557 153.6544 57.2133 0.0000 -4.6486 0.0000
# 3 15.9561 57.2133 123.9987 0.0000 -8.5710 0.0000
# 4 0.0000 0.0000 0.0000 17.9880 0.0000 6.4143
# 5 -6.7255 -4.6486 -8.5710 0.0000 18.9068 0.0000
# 6 0.0000 0.0000 0.0000 6.4143 0.0000 37.7156
#
#
#
# Elastic Compliance Matrix: (Units=1/GPa)
#
#
# Indices 1 2 3 4 5 6 
#
# 1 0.102920 -0.020046 -0.001863 0.000000 0.030837 0.000000
# 2 -0.020046 0.011764 -0.003243 0.000000 -0.005708 0.000000
# 3 -0.001863 -0.003243 0.010014 0.000000 0.003079 0.000000
# 4 0.000000 0.000000 0.000000 0.059182 0.000000 -0.010065
# 5 0.030837 -0.005708 0.003079 0.000000 0.063853 0.000000
# 6 0.000000 0.000000 0.000000 -0.010065 0.000000 0.028226
#
#
# Mechanical properties :
#
#
# Convention : Reuss Voigt Hill
#
# Bulk Modulus (GPa) = 13.44196 56.33616 34.88906
# Shear Modulus (GPa) = 14.24261 27.61876 20.93069
#
# Velocity S-wave (km/s) = 2.45286 3.41570 2.97351
# Velocity P-wave (km/s) = 3.70140 6.27329 5.15046
#
# Compressibility (1/GPa) = 0.07439391
#
# Stress axis : x y z
#
# Youngs Moduli (GPa) = 9.71630 85.00460 99.86464
#
# Poissons Ratio (x) = 1.70397 0.18605
# Poissons Ratio (y) = 0.19477 0.32387
# Poissons Ratio (z) = 0.01810 0.27568
#
# Static dielectric constant tensor:
#      x y z
#    x 3.768930 0.000000 -0.119420 
#    y 0.000000 4.165360 0.000000 
#    z -0.119420 0.000000 4.636930 
# 
# 
# High freq. dielectric constant tensor:
#      x y z
#    x 1.892720 0.000000 -0.013210 
#    y 0.000000 1.929110 0.000000 
#    z -0.013210 0.000000 1.961770 
# 
# From -- ./inp_files/7620.got.cif
#   From: 2010.06.25/outbox.cif.g09.slc.cpg/sg9_4_cif.got.tgz:7620.got - 2010.06.27 21:40:51.
