data_PCOD8054066
_publ_section_title
;
Structure prediction by ZEFSAII (Michael W. Deem and Ramdas Pophale) SiO2 
 PCOD8054066
Probable space group: C M
;
_chemical_formula_sum "Si O2"
_cell_formula_units_Z 32
_cell_length_a 18.987263
_cell_length_b 18.915725
_cell_length_c 11.357650
_cell_angle_alpha 90.000000
_cell_angle_beta 22.750177
_cell_angle_gamma 90.000000
_cell_volume 1577.478762
_symmetry_space_group_name_H-M "C M"
_symmetry_group_IT_number 8
_symmetry_cell_setting 'monoclinic'
loop_
_space_group_symop_operation_xyz
x,y,z
x,-y,z
1/2+x,1/2+y,z
1/2+x,1/2-y,z
loop_
_atom_site_type_symbol
_atom_site_label
_atom_site_fract_x
_atom_site_fract_y
_atom_site_fract_z
Si Si1 0.628540 0.164779 0.280080
Si Si2 0.943229 0.919958 0.867333
Si Si3 0.723943 0.578398 0.249170
Si Si4 0.429214 0.916768 0.387363
Si Si5 0.600747 0.334672 0.831784
Si Si6 0.033953 0.420891 0.958783
Si Si7 0.217707 0.302146 0.538939
Si Si8 0.391569 0.797761 0.854960
O O1 0.563279 0.129222 0.260672
O O2 0.458010 0.190529 0.619621
O O3 0.734048 0.104596 0.191406
O O4 0.769916 0.228085 0.040495
O O5 0.020340 0.911910 0.614732
O O6 0.061957 0.873212 0.770207
O O7 0.953815 0.000000 0.896374
O O8 0.747931 0.500000 0.156363
O O9 0.765834 0.636035 0.085640
O O10 0.849439 0.587484 0.170111
O O11 0.223574 0.887007 0.722300
O O12 0.435506 0.000000 0.409992
O O13 0.492178 0.901710 0.157434
O O14 0.719814 0.265376 0.620346
O O15 0.415313 0.311050 0.179114
O O16 0.112484 0.500000 0.828220
O O17 0.184931 0.370323 0.670232
O O18 0.064353 0.290670 0.675099
#
# Coordination Sequence:
#
# PCOD8054066 Si02
#       8
#     4   4   4   4   4   4   4   4
#     4  12  25  41  63  91 132 174 207 258 319 376
#     4  11  21  37  62  92 121 164 216 258 311 372
#     4   9  19  36  64  95 124 160 207 268 322 366
#     4  11  25  45  64  91 133 172 211 258 314 386
#     4  12  23  39  65  94 126 166 210 267 318 365
#     4   9  19  38  64  92 125 165 208 261 320 374
#     4  11  22  38  65  98 127 159 213 275 316 369
#     4  11  22  40  63  95 130 164 214 267 314 376
#
# _framework density 20.285536
#
# number of rings (size 3 to 8) (size 9 to 14) (size 15 to 20)
#    0.000    1.250    3.750    2.250    1.750    4.000 
#    0.000    1.250    0.000    0.000    0.000    0.000 
#    0.000    0.000    0.000    0.000    0.000    0.000 
#
# Total GULP energy -198409.260461 kJ/mol
# GULP energy per Si atom -12400.578779 kJ/mol
# Density = 2.023937 g / cm^3
# Si number density = 20.285536 Si / 1000 Ang^3
#
#
#
# Elastic Constant Matrix: (Units=GPa)
#
#
# Indices 1 2 3 4 5 6 
#
# 1 74.8536 55.3792 27.9696 -0.0091 -4.5188 0.0058
# 2 55.3792 148.2846 82.9076 -0.0118 6.6815 0.0004
# 3 27.9696 82.9076 115.3974 -0.0372 6.9208 0.0059
# 4 -0.0091 -0.0118 -0.0372 26.2958 0.0086 1.2649
# 5 -4.5188 6.6815 6.9208 0.0086 26.7924 -0.0056
# 6 0.0058 0.0004 0.0059 1.2649 -0.0056 33.9677
#
#
#
# Elastic Compliance Matrix: (Units=1/GPa)
#
#
# Indices 1 2 3 4 5 6 
#
# 1 0.019140 -0.007708 0.000599 0.000003 0.004996 -0.000003
# 2 -0.007708 0.014390 -0.008306 -0.000007 -0.002743 0.000002
# 3 0.000599 -0.008306 0.014583 0.000018 -0.001595 -0.000003
# 4 0.000003 -0.000007 0.000018 0.038097 -0.000015 -0.001419
# 5 0.004996 -0.002743 -0.001595 -0.000015 0.039263 0.000007
# 6 -0.000003 0.000002 -0.000003 -0.001419 0.000007 0.029493
#
#
# Mechanical properties :
#
#
# Convention : Reuss Voigt Hill
#
# Bulk Modulus (GPa) = 57.85703 74.56091 66.20897
# Shear Modulus (GPa) = 26.10201 28.89647 27.49924
#
# Velocity S-wave (km/s) = 3.59099 3.77833 3.68585
# Velocity P-wave (km/s) = 6.76586 7.47462 7.12905
#
# Compressibility (1/GPa) = 0.01728398
#
# Stress axis : x y z
#
# Youngs Moduli (GPa) = 52.24689 69.49270 68.57147
#
# Poissons Ratio (x) = 0.53567 -0.04110
# Poissons Ratio (y) = 0.40274 0.56953
# Poissons Ratio (z) = -0.03132 0.57719
#
# Static dielectric constant tensor:
#      x y z
#    x 3.447550 -0.000020 -0.023030 
#    y -0.000020 4.026790 0.000020 
#    z -0.023030 0.000020 3.711240 
# 
# 
# High freq. dielectric constant tensor:
#      x y z
#    x 1.760420 0.000000 0.004210 
#    y 0.000000 1.816010 0.000000 
#    z 0.004210 0.000000 1.793000 
# 
# From -- ./inp_files/24186.got.cif
#   From: 2010.03.12/outbox.cif.g09.slc.cpg/sg8_13_cif.got.tgz:24186.got - 2010.03.31 10:45:26.
