data_PCOD8054215
_publ_section_title
;
Structure prediction by ZEFSAII (Michael W. Deem and Ramdas Pophale) SiO2 
 PCOD8054215
Probable space group: C C
;
_chemical_formula_sum "Si O2"
_cell_formula_units_Z 32
_cell_length_a 38.411393
_cell_length_b 8.390601
_cell_length_c 5.201466
_cell_angle_alpha 90.000000
_cell_angle_beta 89.967302
_cell_angle_gamma 90.000000
_cell_volume 1676.404508
_symmetry_space_group_name_H-M "C C"
_symmetry_group_IT_number 9
_symmetry_cell_setting 'monoclinic'
loop_
_space_group_symop_operation_xyz
x,y,z
x,-y,1/2+z
1/2+x,1/2+y,z
1/2+x,1/2-y,1/2+z
loop_
_atom_site_type_symbol
_atom_site_label
_atom_site_fract_x
_atom_site_fract_y
_atom_site_fract_z
Si Si1 0.221100 0.601589 0.588820
Si Si2 0.141157 0.402830 0.075123
Si Si3 0.017065 0.157419 0.110631
Si Si4 0.771565 0.394383 0.575639
Si Si5 0.346275 0.903296 0.667303
Si Si6 0.487469 0.689490 0.610879
Si Si7 0.598023 0.592121 0.096040
Si Si8 0.921367 0.607407 0.081947
O O1 0.230351 0.514764 0.323429
O O2 0.180898 0.654885 0.600002
O O3 0.242879 0.761241 0.615616
O O4 0.133481 0.537009 0.287992
O O5 0.115002 0.261982 0.137373
O O6 0.008291 0.259700 0.364365
O O7 0.056592 0.103431 0.103239
O O8 0.991753 0.002051 0.116887
O O9 0.006747 0.261804 0.862312
O O10 0.766977 0.471413 0.294719
O O11 0.810094 0.311777 0.603234
O O12 0.382597 0.813116 0.603725
O O13 0.346142 0.054129 0.469994
O O14 0.447549 0.744367 0.605432
O O15 0.610877 0.479608 0.326871
O O16 0.926851 0.479171 0.309018
#
# Coordination Sequence:
#
# PCOD8054215 Si02
#       8
#     4   4   4   4   4   4   4   4
#     4  10  21  38  58  79 118 156 175 220 287 335
#     4  10  23  41  57  83 116 149 182 223 285 334
#     4  10  19  35  54  69  96 134 174 211 274 307
#     4  10  19  33  58  86 111 143 194 233 262 320
#     4   8  16  30  49  74 105 140 171 220 271 305
#     4  10  18  33  53  70  98 132 173 211 258 325
#     4  12  21  38  63  83 106 147 187 231 276 336
#     4  10  19  32  50  76 106 137 174 215 269 324
#
# _framework density 19.088470999999998
#
# number of rings (size 3 to 8) (size 9 to 14) (size 15 to 20)
#    0.000    2.000    2.500    2.250    0.000    1.000 
#    0.000    3.750    5.500    0.000    0.000    0.000 
#    0.000    0.000    0.000    0.000    0.000    0.000 
#
# Total GULP energy -198269.878638 kJ/mol
# GULP energy per Si atom -12391.867415 kJ/mol
# Density = 1.904502 g / cm^3
# Si number density = 19.088471 Si / 1000 Ang^3
#
#
#
# Elastic Constant Matrix: (Units=GPa)
#
#
# Indices 1 2 3 4 5 6 
#
# 1 91.5996 55.2815 23.1542 0.0000 -1.8778 0.0000
# 2 55.2815 53.2530 7.9806 0.0000 2.2815 0.0000
# 3 23.1542 7.9806 137.5152 0.0000 4.1859 0.0000
# 4 0.0000 0.0000 0.0000 17.2433 0.0000 -2.7622
# 5 -1.8778 2.2815 4.1859 0.0000 21.2165 0.0000
# 6 0.0000 0.0000 0.0000 -2.7622 0.0000 37.1013
#
#
#
# Elastic Compliance Matrix: (Units=1/GPa)
#
#
# Indices 1 2 3 4 5 6 
#
# 1 0.031691 -0.032652 -0.003655 0.000000 0.007037 0.000000
# 2 -0.032652 0.052656 0.002719 0.000000 -0.009089 0.000000
# 3 -0.003655 0.002719 0.007795 0.000000 -0.002154 0.000000
# 4 0.000000 0.000000 0.000000 0.058694 0.000000 0.004370
# 5 0.007037 -0.009089 -0.002154 0.000000 0.049158 0.000000
# 6 0.000000 0.000000 0.000000 0.004370 0.000000 0.027279
#
#
# Mechanical properties :
#
#
# Convention : Reuss Voigt Hill
#
# Bulk Modulus (GPa) = 40.05618 50.57781 45.31699
# Shear Modulus (GPa) = 16.51407 28.17565 22.34486
#
# Velocity S-wave (km/s) = 2.94451 3.84612 3.42511
# Velocity P-wave (km/s) = 5.70878 6.80276 6.27964
#
# Compressibility (1/GPa) = 0.02496494
#
# Stress axis : x y z
#
# Youngs Moduli (GPa) = 31.55446 18.99117 128.28449
#
# Poissons Ratio (x) = 0.62010 0.46892
# Poissons Ratio (y) = 1.03032 -0.34876
# Poissons Ratio (z) = 0.11534 -0.05163
#
# Static dielectric constant tensor:
#      x y z
#    x 3.676910 0.000000 0.023500 
#    y 0.000000 3.027280 0.000000 
#    z 0.023500 0.000000 4.854800 
# 
# 
# High freq. dielectric constant tensor:
#      x y z
#    x 1.750680 0.000000 0.000350 
#    y 0.000000 1.683040 0.000000 
#    z 0.000350 0.000000 1.781460 
# 
# From -- ./inp_files/3444.got.cif
#   From: 2010.06.25/outbox.cif.g09.slc.cpg/sg9_2_cif.got.tgz:3444.got - 2010.06.27 21:40:51.
