data_PCOD8054521
_publ_section_title
;
Structure prediction by ZEFSAII (Michael W. Deem and Ramdas Pophale) SiO2 
 PCOD8054521
Probable space group: C C
;
_chemical_formula_sum "Si O2"
_cell_formula_units_Z 32
_cell_length_a 14.139066
_cell_length_b 14.603291
_cell_length_c 19.815862
_cell_angle_alpha 90.000000
_cell_angle_beta 158.930390
_cell_angle_gamma 90.000000
_cell_volume 1470.908430
_symmetry_space_group_name_H-M "C C"
_symmetry_group_IT_number 9
_symmetry_cell_setting 'monoclinic'
loop_
_space_group_symop_operation_xyz
x,y,z
x,-y,1/2+z
1/2+x,1/2+y,z
1/2+x,1/2-y,1/2+z
loop_
_atom_site_type_symbol
_atom_site_label
_atom_site_fract_x
_atom_site_fract_y
_atom_site_fract_z
Si Si1 0.843080 0.669330 0.078950
Si Si2 0.341396 0.350669 0.765612
Si Si3 0.718160 0.330403 0.891151
Si Si4 0.960780 0.045825 0.598070
Si Si5 0.035867 0.848248 0.623301
Si Si6 0.905134 0.475830 0.506097
Si Si7 0.485399 0.840149 0.818593
Si Si8 0.948731 0.807339 0.978856
O O1 0.794440 0.647603 0.126102
O O2 0.136868 0.710794 0.272182
O O3 0.823390 0.578307 0.019937
O O4 0.635205 0.742972 0.913750
O O5 0.513370 0.336370 0.815063
O O6 0.527475 0.333191 0.954451
O O7 0.199796 0.449741 0.677175
O O8 0.090285 0.283556 0.597888
O O9 0.550310 0.336672 0.712462
O O10 0.918290 0.415791 0.031444
O O11 0.861156 0.233776 0.979367
O O12 0.198078 0.042051 0.808792
O O13 0.697982 0.078198 0.461522
O O14 0.037256 0.112391 0.587815
O O15 0.903982 0.947630 0.524839
O O16 0.319837 0.846122 0.776716
#
# Coordination Sequence:
#
# PCOD8054521 Si02
#       8
#     4   4   4   4   4   4   4   4
#     4  10  20  36  63  92 117 150 196 242 287 348
#     4  11  21  38  63  87 119 157 189 242 297 335
#     4  11  26  42  59  86 119 156 198 241 290 350
#     4  10  22  39  60  89 119 152 198 240 286 351
#     4  11  26  42  59  86 119 156 198 241 290 350
#     4  10  22  39  60  89 119 152 198 240 286 351
#     4  11  21  38  63  87 119 157 189 242 297 335
#     4  10  20  36  63  92 117 150 196 242 287 348
#
# _framework density 21.755262999999999
#
# number of rings (size 3 to 8) (size 9 to 14) (size 15 to 20)
#    0.000    1.500    0.000    6.750    0.000   10.000 
#    0.000    0.000    0.000    0.000    0.000    0.000 
#    0.000    0.000    0.000    0.000    0.000    0.000 
#
# Total GULP energy -198386.893931 kJ/mol
# GULP energy per Si atom -12399.180871 kJ/mol
# Density = 2.170575 g / cm^3
# Si number density = 21.755263 Si / 1000 Ang^3
#
#
#
# Elastic Constant Matrix: (Units=GPa)
#
#
# Indices 1 2 3 4 5 6 
#
# 1 121.5608 5.4784 16.6730 0.0478 -3.9495 0.0127
# 2 5.4784 95.3791 13.4393 0.1565 9.9257 0.0449
# 3 16.6730 13.4393 45.6132 0.3445 -7.4032 0.1775
# 4 0.0478 0.1565 0.3445 19.0962 0.1273 -10.2688
# 5 -3.9495 9.9257 -7.4032 0.1273 40.2986 0.0613
# 6 0.0127 0.0449 0.1775 -10.2688 0.0613 19.4835
#
#
#
# Elastic Compliance Matrix: (Units=1/GPa)
#
#
# Indices 1 2 3 4 5 6 
#
# 1 0.008664 -0.000094 -0.003091 0.000062 0.000304 0.000054
# 2 -0.000094 0.011407 -0.003901 0.000016 -0.003536 0.000029
# 3 -0.003091 -0.003901 0.025066 -0.000800 0.005266 -0.000656
# 4 0.000062 0.000016 -0.000800 0.073108 -0.000434 0.038540
# 5 0.000304 -0.003536 0.005266 -0.000434 0.026685 -0.000353
# 6 0.000054 0.000029 -0.000656 0.038540 -0.000353 0.071645
#
#
# Mechanical properties :
#
#
# Convention : Reuss Voigt Hill
#
# Bulk Modulus (GPa) = 32.29271 37.08162 34.68717
# Shear Modulus (GPa) = 20.74098 30.90648 25.82373
#
# Velocity S-wave (km/s) = 3.09103 3.77323 3.44904
# Velocity P-wave (km/s) = 5.25501 6.00541 5.64270
#
# Compressibility (1/GPa) = 0.03096674
#
# Stress axis : x y z
#
# Youngs Moduli (GPa) = 115.41567 87.66236 39.89495
#
# Poissons Ratio (x) = 0.00824 0.12330
# Poissons Ratio (y) = 0.01085 0.15562
# Poissons Ratio (z) = 0.35671 0.34195
#
# Static dielectric constant tensor:
#      x y z
#    x 4.174640 0.000070 -0.312270 
#    y 0.000070 4.269540 -0.000300 
#    z -0.312270 -0.000300 3.771340 
# 
# 
# High freq. dielectric constant tensor:
#      x y z
#    x 1.870310 0.000000 -0.019840 
#    y 0.000000 1.860230 -0.000020 
#    z -0.019840 -0.000020 1.836890 
# 
# From -- ./inp_files/33818.got.cif
#   From: 2010.06.25/outbox.cif.g09.slc.cpg/sg9_17_cif.got.tgz:33818.got - 2010.06.27 21:40:51.
