data_PCOD8054566
_publ_section_title
;
Structure prediction by ZEFSAII (Michael W. Deem and Ramdas Pophale) SiO2 
 PCOD8054566
Probable space group: C C
;
_chemical_formula_sum "Si O2"
_cell_formula_units_Z 32
_cell_length_a 11.140997
_cell_length_b 19.918637
_cell_length_c 10.983063
_cell_angle_alpha 90.000000
_cell_angle_beta 39.554944
_cell_angle_gamma 90.000000
_cell_volume 1552.109645
_symmetry_space_group_name_H-M "C C"
_symmetry_group_IT_number 9
_symmetry_cell_setting 'monoclinic'
loop_
_space_group_symop_operation_xyz
x,y,z
x,-y,1/2+z
1/2+x,1/2+y,z
1/2+x,1/2-y,1/2+z
loop_
_atom_site_type_symbol
_atom_site_label
_atom_site_fract_x
_atom_site_fract_y
_atom_site_fract_z
Si Si1 0.602280 0.885942 0.895060
Si Si2 0.486238 0.672343 0.741746
Si Si3 0.493665 0.179602 0.827065
Si Si4 0.057934 0.310021 0.550718
Si Si5 0.501077 0.634312 0.007700
Si Si6 0.160056 0.256733 0.995302
Si Si7 0.871860 0.440917 0.287198
Si Si8 0.828622 0.594120 0.388534
O O1 0.807356 0.907595 0.681976
O O2 0.446196 0.886779 0.914237
O O3 0.620097 0.808618 0.919149
O O4 0.536060 0.934191 0.056893
O O5 0.554271 0.744753 0.639090
O O6 0.610896 0.615122 0.578304
O O7 0.268220 0.660111 0.878867
O O8 0.511249 0.667532 0.866381
O O9 0.680824 0.203970 0.610324
O O10 0.441384 0.100879 0.852713
O O11 0.490230 0.205714 0.966725
O O12 0.358045 0.218187 0.835582
O O13 0.912837 0.365745 0.709126
O O14 0.509760 0.695153 0.098180
O O15 0.673756 0.583125 0.887333
O O16 0.844429 0.516088 0.350705
#
# Coordination Sequence:
#
# PCOD8054566 Si02
#       8
#     4   4   4   4   4   4   4   4
#     4  11  22  43  70  98 129 172 230 279 335 401
#     4  12  25  42  67 103 132 176 226 281 345 394
#     4  10  22  41  63  94 138 172 216 272 339 403
#     4  12  25  41  67 102 139 179 221 278 346 402
#     4  11  22  41  69  98 132 169 229 279 331 405
#     4  10  20  37  67  99 127 166 219 282 332 389
#     4  10  26  45  65  97 133 181 222 278 343 403
#     4  12  26  44  68  97 140 175 225 287 337 409
#
# _framework density 20.617101000000002
#
# number of rings (size 3 to 8) (size 9 to 14) (size 15 to 20)
#    0.000    1.000    5.000    1.500    1.750    1.000 
#    0.000    0.000    0.000    0.000    0.000    0.000 
#    0.000    0.000    0.000    0.000    0.000    0.000 
#
# Total GULP energy -198299.378339 kJ/mol
# GULP energy per Si atom -12393.711146 kJ/mol
# Density = 2.057018 g / cm^3
# Si number density = 20.617101 Si / 1000 Ang^3
#
#
#
# Elastic Constant Matrix: (Units=GPa)
#
#
# Indices 1 2 3 4 5 6 
#
# 1 92.2825 29.0933 40.5465 0.0001 11.9239 0.0002
# 2 29.0933 121.6732 48.2547 -0.0002 8.8908 0.0001
# 3 40.5465 48.2547 131.8064 0.0002 -3.6562 0.0002
# 4 0.0001 -0.0002 0.0002 21.9164 -0.0002 -2.1554
# 5 11.9239 8.8908 -3.6562 -0.0002 36.6180 -0.0002
# 6 0.0002 0.0001 0.0002 -2.1554 -0.0002 15.6066
#
#
#
# Elastic Compliance Matrix: (Units=1/GPa)
#
#
# Indices 1 2 3 4 5 6 
#
# 1 0.013507 -0.001415 -0.003760 0.000000 -0.004430 0.000000
# 2 -0.001415 0.010035 -0.003303 0.000000 -0.002306 0.000000
# 3 -0.003760 -0.003303 0.010037 0.000000 0.003028 0.000000
# 4 0.000000 0.000000 0.000000 0.046256 0.000000 0.006388
# 5 -0.004430 -0.002306 0.003028 0.000000 0.029614 0.000000
# 6 0.000000 0.000000 0.000000 0.006388 0.000000 0.064958
#
#
# Mechanical properties :
#
#
# Convention : Reuss Voigt Hill
#
# Bulk Modulus (GPa) = 60.15406 64.61680 62.38543
# Shear Modulus (GPa) = 25.39331 30.01938 27.70635
#
# Velocity S-wave (km/s) = 3.51331 3.81995 3.66984
# Velocity P-wave (km/s) = 6.76002 7.13200 6.94850
#
# Compressibility (1/GPa) = 0.01662398
#
# Stress axis : x y z
#
# Youngs Moduli (GPa) = 74.03722 99.64797 99.63482
#
# Poissons Ratio (x) = 0.14097 0.37462
# Poissons Ratio (y) = 0.10474 0.32907
# Poissons Ratio (z) = 0.27837 0.32911
#
# Static dielectric constant tensor:
#      x y z
#    x 3.679580 0.000000 -0.149580 
#    y 0.000000 3.558890 0.000000 
#    z -0.149580 0.000000 4.028400 
# 
# 
# High freq. dielectric constant tensor:
#      x y z
#    x 1.804480 0.000000 -0.002750 
#    y 0.000000 1.788520 0.000000 
#    z -0.002750 0.000000 1.826380 
# 
# From -- ./inp_files/17034.got.cif
#   From: 2010.06.25/outbox.cif.g09.slc.cpg/sg9_9_cif.got.tgz:17034.got - 2010.06.27 21:40:51.
