data_PCOD8054634
_publ_section_title
;
Structure prediction by ZEFSAII (Michael W. Deem and Ramdas Pophale) SiO2 
 PCOD8054634
Probable space group: C C
;
_chemical_formula_sum "Si O2"
_cell_formula_units_Z 32
_cell_length_a 21.891833
_cell_length_b 8.926571
_cell_length_c 17.270339
_cell_angle_alpha 90.000000
_cell_angle_beta 26.110886
_cell_angle_gamma 90.000000
_cell_volume 1485.349574
_symmetry_space_group_name_H-M "C C"
_symmetry_group_IT_number 9
_symmetry_cell_setting 'monoclinic'
loop_
_space_group_symop_operation_xyz
x,y,z
x,-y,1/2+z
1/2+x,1/2+y,z
1/2+x,1/2-y,1/2+z
loop_
_atom_site_type_symbol
_atom_site_label
_atom_site_fract_x
_atom_site_fract_y
_atom_site_fract_z
Si Si1 0.975390 0.167177 0.900440
Si Si2 0.781344 0.819043 0.354466
Si Si3 0.385134 0.184568 0.985802
Si Si4 0.304562 0.992823 0.333294
Si Si5 0.980246 0.437967 0.992748
Si Si6 0.138587 0.115156 0.154050
Si Si7 0.767553 0.047772 0.713233
Si Si8 0.975153 0.315319 0.744608
O O1 0.924041 0.269029 0.887626
O O2 0.036299 0.279399 0.896295
O O3 0.086974 0.043584 0.747639
O O4 0.839473 0.092205 0.091335
O O5 0.761056 0.650617 0.342774
O O6 0.799436 0.945366 0.268628
O O7 0.639196 0.844950 0.563293
O O8 0.918363 0.820653 0.253450
O O9 0.275470 0.164677 0.042785
O O10 0.321953 0.297061 0.119287
O O11 0.412738 0.029298 0.998609
O O12 0.525002 0.254185 0.789791
O O13 0.375124 0.899726 0.183491
O O14 0.175898 0.905159 0.519876
O O15 0.405311 0.031196 0.292826
O O16 0.103131 0.537438 0.888448
#
# Coordination Sequence:
#
# PCOD8054634 Si02
#       8
#     4   4   4   4   4   4   4   4
#     4  11  26  41  69 104 138 171 237 289 348 401
#     4  10  20  39  68  96 125 177 232 267 327 422
#     4  11  23  44  71  95 137 179 233 277 341 414
#     4  10  22  41  68  93 135 176 229 272 348 401
#     4  12  24  42  68 100 139 179 220 297 344 404
#     4  11  24  47  67 101 130 185 230 283 340 418
#     4  11  23  44  66 104 130 183 233 277 344 418
#     4  10  20  40  67  97 126 184 222 274 326 424
#
# _framework density 21.543748999999998
#
# number of rings (size 3 to 8) (size 9 to 14) (size 15 to 20)
#    0.750    0.500    5.000    0.750    5.250    0.000 
#    2.250    2.500    0.000    0.000    0.000    0.000 
#    0.000    0.000    0.000    0.000    0.000    0.000 
#
# Total GULP energy -198266.426445 kJ/mol
# GULP energy per Si atom -12391.651653 kJ/mol
# Density = 2.149471 g / cm^3
# Si number density = 21.543749 Si / 1000 Ang^3
#
#
#
# Elastic Constant Matrix: (Units=GPa)
#
#
# Indices 1 2 3 4 5 6 
#
# 1 79.6921 28.8628 45.1609 -0.0001 9.9451 0.0001
# 2 28.8628 69.8397 44.3531 0.0001 10.8357 -0.0001
# 3 45.1609 44.3531 143.8718 -0.0001 19.2034 0.0000
# 4 -0.0001 0.0001 -0.0001 17.3784 0.0001 1.7182
# 5 9.9451 10.8357 19.2034 0.0001 27.5351 0.0000
# 6 0.0001 -0.0001 0.0000 1.7182 0.0000 25.5213
#
#
#
# Elastic Compliance Matrix: (Units=1/GPa)
#
#
# Indices 1 2 3 4 5 6 
#
# 1 0.016323 -0.004190 -0.003600 0.000000 -0.001736 0.000000
# 2 -0.004190 0.019192 -0.004185 0.000000 -0.003121 0.000000
# 3 -0.003600 -0.004185 0.009899 0.000000 -0.003957 0.000000
# 4 0.000000 0.000000 0.000000 0.057928 0.000000 -0.003900
# 5 -0.001736 -0.003121 -0.003957 0.000000 0.040931 0.000000
# 6 0.000000 0.000000 0.000000 -0.003900 0.000000 0.039446
#
#
# Mechanical properties :
#
#
# Convention : Reuss Voigt Hill
#
# Bulk Modulus (GPa) = 46.59083 58.90637 52.74860
# Shear Modulus (GPa) = 23.27495 25.75543 24.51519
#
# Velocity S-wave (km/s) = 3.29045 3.46134 3.37698
# Velocity P-wave (km/s) = 6.00909 6.58609 6.30419
#
# Compressibility (1/GPa) = 0.02146345
#
# Stress axis : x y z
#
# Youngs Moduli (GPa) = 61.26450 52.10539 101.02092
#
# Poissons Ratio (x) = 0.21832 0.36370
# Poissons Ratio (y) = 0.25670 0.42275
# Poissons Ratio (z) = 0.22057 0.21805
#
# Static dielectric constant tensor:
#      x y z
#    x 3.662810 0.000000 0.071420 
#    y 0.000000 3.802240 0.000000 
#    z 0.071420 0.000000 3.920800 
# 
# 
# High freq. dielectric constant tensor:
#      x y z
#    x 1.833170 0.000000 0.008670 
#    y 0.000000 1.827920 0.000000 
#    z 0.008670 0.000000 1.857300 
# 
# From -- ./inp_files/31534.got.cif
#   From: 2010.06.25/outbox.cif.g09.slc.cpg/sg9_16_cif.got.tgz:31534.got - 2010.06.27 21:40:51.
