data_PCOD8054479
_publ_section_title
;
Structure prediction by ZEFSAII (Michael W. Deem and Ramdas Pophale) SiO2 
 PCOD8054479
Probable space group: C C
;
_chemical_formula_sum "Si O2"
_cell_formula_units_Z 32
_cell_length_a 19.675922
_cell_length_b 12.647919
_cell_length_c 7.967098
_cell_angle_alpha 90.000000
_cell_angle_beta 135.897628
_cell_angle_gamma 90.000000
_cell_volume 1379.836733
_symmetry_space_group_name_H-M "C C"
_symmetry_group_IT_number 9
_symmetry_cell_setting 'monoclinic'
loop_
_space_group_symop_operation_xyz
x,y,z
x,-y,1/2+z
1/2+x,1/2+y,z
1/2+x,1/2-y,1/2+z
loop_
_atom_site_type_symbol
_atom_site_label
_atom_site_fract_x
_atom_site_fract_y
_atom_site_fract_z
Si Si1 0.024120 0.208655 0.549840
Si Si2 0.380585 0.665783 0.003760
Si Si3 0.708566 0.031063 0.605673
Si Si4 0.825043 0.662050 0.166977
Si Si5 0.204727 0.331429 0.770986
Si Si6 0.029225 0.657354 0.391384
Si Si7 0.642144 0.537346 0.937631
Si Si8 0.068313 0.141057 0.137648
O O1 0.099325 0.277092 0.572018
O O2 0.001372 0.275854 0.676674
O O3 0.069438 0.096457 0.680363
O O4 0.928556 0.186662 0.269903
O O5 0.455216 0.626312 0.990204
O O6 0.295841 0.579483 0.873028
O O7 0.333542 0.775125 0.856710
O O8 0.711387 0.077650 0.425187
O O9 0.601913 0.060454 0.492955
O O10 0.720216 0.902361 0.630268
O O11 0.928220 0.613490 0.290215
O O12 0.784957 0.741336 0.950386
O O13 0.752803 0.566809 0.084777
O O14 0.084767 0.736577 0.620959
O O15 0.631192 0.408749 0.903575
O O16 0.606506 0.566454 0.057544
#
# Coordination Sequence:
#
# PCOD8054479 Si02
#       8
#     4   4   4   4   4   4   4   4
#     4   9  19  36  58  82 114 146 188 235 281 337
#     4  10  20  35  58  86 113 147 186 231 283 338
#     4  10  21  37  56  83 115 146 185 230 278 336
#     4   9  20  39  58  79 114 151 186 230 283 335
#     4   9  20  37  56  80 111 147 185 229 276 331
#     4   9  20  40  59  80 114 153 186 231 283 335
#     4  10  20  38  57  84 116 147 188 241 285 336
#     4  10  20  34  58  82 111 147 186 231 285 332
#
# _framework density 23.19115
#
# number of rings (size 3 to 8) (size 9 to 14) (size 15 to 20)
#    0.000    2.500    0.000    3.000    0.000   10.000 
#    0.000   12.500    0.000    0.000    0.000    0.000 
#    0.000    0.000    0.000    0.000    0.000    0.000 
#
# Total GULP energy -198237.052641 kJ/mol
# GULP energy per Si atom -12389.815790 kJ/mol
# Density = 2.313837 g / cm^3
# Si number density = 23.191150 Si / 1000 Ang^3
#
#
#
# Elastic Constant Matrix: (Units=GPa)
#
#
# Indices 1 2 3 4 5 6 
#
# 1 57.3036 3.7862 8.0540 0.0000 16.7413 0.0000
# 2 3.7862 30.9374 9.5578 0.0000 9.6404 0.0000
# 3 8.0540 9.5578 69.0615 0.0000 17.3259 0.0000
# 4 0.0000 0.0000 0.0000 24.5823 0.0000 -3.9446
# 5 16.7413 9.6404 17.3259 0.0000 28.0629 0.0000
# 6 0.0000 0.0000 0.0000 -3.9446 0.0000 25.6388
#
#
#
# Elastic Compliance Matrix: (Units=1/GPa)
#
#
# Indices 1 2 3 4 5 6 
#
# 1 0.021229 0.001413 0.000743 0.000000 -0.013608 0.000000
# 2 0.001413 0.036587 -0.002205 0.000000 -0.012050 0.000000
# 3 0.000743 -0.002205 0.017299 0.000000 -0.010366 0.000000
# 4 0.000000 0.000000 0.000000 0.041709 0.000000 0.006417
# 5 -0.013608 -0.012050 -0.010366 0.000000 0.054292 0.000000
# 6 0.000000 0.000000 0.000000 0.006417 0.000000 0.039991
#
#
# Mechanical properties :
#
#
# Convention : Reuss Voigt Hill
#
# Bulk Modulus (GPa) = 13.33056 22.23315 17.78186
# Shear Modulus (GPa) = 21.16757 24.71709 22.94233
#
# Velocity S-wave (km/s) = 3.02444 3.26820 3.14868
# Velocity P-wave (km/s) = 4.23756 4.88357 4.57199
#
# Compressibility (1/GPa) = 0.07501562
#
# Stress axis : x y z
#
# Youngs Moduli (GPa) = 47.10571 27.33241 57.80697
#
# Poissons Ratio (x) = -0.03862 -0.04294
# Poissons Ratio (y) = -0.06656 0.12747
# Poissons Ratio (z) = -0.03499 0.06027
#
# Static dielectric constant tensor:
#      x y z
#    x 4.120510 0.000000 -0.009550 
#    y 0.000000 4.024570 0.000000 
#    z -0.009550 0.000000 4.102020 
# 
# 
# High freq. dielectric constant tensor:
#      x y z
#    x 1.918070 0.000000 -0.000440 
#    y 0.000000 1.903000 0.000000 
#    z -0.000440 0.000000 1.906240 
# 
# From -- ./inp_files/11747.got.cif
#   From: 2010.06.25/outbox.cif.g09.slc.cpg/sg9_6_cif.got.tgz:11747.got - 2010.06.27 21:40:51.
