data_PCOD8054343
_publ_section_title
;
Structure prediction by ZEFSAII (Michael W. Deem and Ramdas Pophale) SiO2 
 PCOD8054343
Probable space group: C C
;
_chemical_formula_sum "Si O2"
_cell_formula_units_Z 32
_cell_length_a 15.965706
_cell_length_b 13.563632
_cell_length_c 9.154341
_cell_angle_alpha 90.000000
_cell_angle_beta 57.978993
_cell_angle_gamma 90.000000
_cell_volume 1680.784973
_symmetry_space_group_name_H-M "C C"
_symmetry_group_IT_number 9
_symmetry_cell_setting 'monoclinic'
loop_
_space_group_symop_operation_xyz
x,y,z
x,-y,1/2+z
1/2+x,1/2+y,z
1/2+x,1/2-y,1/2+z
loop_
_atom_site_type_symbol
_atom_site_label
_atom_site_fract_x
_atom_site_fract_y
_atom_site_fract_z
Si Si1 0.936430 0.289825 0.118970
Si Si2 0.436956 0.425225 0.594920
Si Si3 0.998332 0.898491 0.228414
Si Si4 0.404423 0.803333 0.815832
Si Si5 0.590148 0.094453 0.644216
Si Si6 0.075117 0.395277 0.502982
Si Si7 0.248705 0.684597 0.308510
Si Si8 0.183386 0.229732 0.569291
O O1 0.987370 0.181006 0.088193
O O2 0.820362 0.279054 0.270287
O O3 0.984757 0.369027 0.180662
O O4 0.946295 0.322722 0.940574
O O5 0.450758 0.447961 0.413132
O O6 0.493273 0.514850 0.616589
O O7 0.318226 0.413914 0.731623
O O8 0.930191 0.807401 0.240737
O O9 0.110476 0.863269 0.153628
O O10 0.460067 0.878445 0.655200
O O11 0.286890 0.815962 0.919452
O O12 0.673489 0.171268 0.511974
O O13 0.616271 0.989643 0.550209
O O14 0.585028 0.087215 0.821942
O O15 0.140720 0.301255 0.484173
O O16 0.190622 0.706387 0.211432
#
# Coordination Sequence:
#
# PCOD8054343 Si02
#       8
#     4   4   4   4   4   4   4   4
#     4   8  19  38  59  79 114 153 192 251 293 351
#     4   9  20  34  54  89 114 150 190 244 292 352
#     4  10  19  36  58  87 118 149 190 246 293 354
#     4   9  19  41  59  83 113 154 199 241 305 354
#     4  12  22  39  58  86 122 152 204 249 293 356
#     4  11  25  35  59  89 116 158 198 253 292 352
#     4   9  20  37  61  85 114 156 199 237 299 353
#     4  10  20  40  64  82 119 160 196 241 307 362
#
# _framework density 19.038723999999998
#
# number of rings (size 3 to 8) (size 9 to 14) (size 15 to 20)
#    0.750    1.500    1.250    3.750    1.750    4.000 
#    0.000    5.000    0.000    0.000    0.000    0.000 
#    0.000    0.000    0.000    0.000    0.000    0.000 
#
# Total GULP energy -198274.393187 kJ/mol
# GULP energy per Si atom -12392.149574 kJ/mol
# Density = 1.899539 g / cm^3
# Si number density = 19.038724 Si / 1000 Ang^3
#
#
#
# Elastic Constant Matrix: (Units=GPa)
#
#
# Indices 1 2 3 4 5 6 
#
# 1 95.2470 29.3542 44.7183 0.0000 -9.8778 0.0000
# 2 29.3542 49.8960 33.1856 0.0000 9.8693 0.0000
# 3 44.7183 33.1856 133.5881 0.0000 -0.5356 0.0000
# 4 0.0000 0.0000 0.0000 26.3319 0.0000 4.5938
# 5 -9.8778 9.8693 -0.5356 0.0000 35.1285 0.0000
# 6 0.0000 0.0000 0.0000 4.5938 0.0000 32.6926
#
#
#
# Elastic Compliance Matrix: (Units=1/GPa)
#
#
# Indices 1 2 3 4 5 6 
#
# 1 0.015100 -0.008174 -0.002998 0.000000 0.006497 0.000000
# 2 -0.008174 0.030196 -0.004808 0.000000 -0.010855 0.000000
# 3 -0.002998 -0.004808 0.009686 0.000000 0.000656 0.000000
# 4 0.000000 0.000000 0.000000 0.038931 0.000000 -0.005470
# 5 0.006497 -0.010855 0.000656 0.000000 0.033353 0.000000
# 6 0.000000 0.000000 0.000000 -0.005470 0.000000 0.031357
#
#
# Mechanical properties :
#
#
# Convention : Reuss Voigt Hill
#
# Bulk Modulus (GPa) = 43.43926 54.80526 49.12226
# Shear Modulus (GPa) = 25.21970 30.26213 27.74092
#
# Velocity S-wave (km/s) = 3.64353 3.99118 3.82131
# Velocity P-wave (km/s) = 6.36916 7.07729 6.73254
#
# Compressibility (1/GPa) = 0.02302065
#
# Stress axis : x y z
#
# Youngs Moduli (GPa) = 66.22726 33.11706 103.23831
#
# Poissons Ratio (x) = 0.27071 0.30949
# Poissons Ratio (y) = 0.54137 0.49641
# Poissons Ratio (z) = 0.19854 0.15924
#
# Static dielectric constant tensor:
#      x y z
#    x 3.360520 0.000000 -0.155810 
#    y 0.000000 3.285300 0.000000 
#    z -0.155810 0.000000 3.418020 
# 
# 
# High freq. dielectric constant tensor:
#      x y z
#    x 1.731400 0.000000 -0.011380 
#    y 0.000000 1.721360 0.000000 
#    z -0.011380 0.000000 1.738130 
# 
# From -- ./inp_files/9536.got.cif
#   From: 2010.06.25/outbox.cif.g09.slc.cpg/sg9_5_cif.got.tgz:9536.got - 2010.06.27 21:40:51.
