data_PCOD8054239
_publ_section_title
;
Structure prediction by ZEFSAII (Michael W. Deem and Ramdas Pophale) SiO2 
 PCOD8054239
Probable space group: C C
;
_chemical_formula_sum "Si O2"
_cell_formula_units_Z 28
_cell_length_a 25.695652
_cell_length_b 8.340790
_cell_length_c 5.392163
_cell_angle_alpha 90.000000
_cell_angle_beta 110.006017
_cell_angle_gamma 90.000000
_cell_volume 1085.923057
_symmetry_space_group_name_H-M "C C"
_symmetry_group_IT_number 9
_symmetry_cell_setting 'monoclinic'
loop_
_space_group_symop_operation_xyz
x,y,z
x,-y,1/2+z
1/2+x,1/2+y,z
1/2+x,1/2-y,1/2+z
loop_
_atom_site_type_symbol
_atom_site_label
_atom_site_fract_x
_atom_site_fract_y
_atom_site_fract_z
Si Si1 0.242120 0.076001 0.966150
Si Si2 0.109958 0.413501 0.098381
Si Si3 0.120594 0.053989 0.220168
Si Si4 0.351097 0.578514 0.235285
Si Si5 0.438407 0.185935 0.790820
Si Si6 0.732173 0.946431 0.001327
Si Si7 0.481998 0.158198 0.361735
O O1 0.268926 0.006633 0.755501
O O2 0.176692 0.046076 0.858407
O O3 0.252574 0.266284 0.998224
O O4 0.128523 0.539193 0.346242
O O5 0.134594 0.239594 0.206073
O O6 0.043871 0.403375 0.000947
O O7 0.087787 0.019452 0.426872
O O8 0.374177 0.526499 0.542111
O O9 0.374606 0.757113 0.222299
O O10 0.284321 0.566681 0.129945
O O11 0.464164 0.259915 0.576358
O O12 0.440758 0.994360 0.774098
O O13 0.474314 0.250867 0.087407
O O14 0.699097 0.976259 0.210020
#
# Coordination Sequence:
#
# PCOD8054239 Si02
#       7
#     4   4   4   4   4   4   4
#     4  10  21  42  68  93 133 168 207 264 328 395
#     4  12  21  40  67  93 130 170 224 265 313 384
#     4  10  23  43  61  94 138 165 212 263 330 382
#     4  10  21  37  60  84 132 153 210 258 313 365
#     4  10  18  35  58  86 118 161 204 255 303 370
#     4  10  21  40  69  95 127 167 215 265 320 391
#     4  10  19  35  61  83 120 162 208 250 313 367
#
# _framework density 25.784514000000001
#
# number of rings (size 3 to 8) (size 9 to 14) (size 15 to 20)
#    0.000    1.714    2.857    2.571    0.000    0.000 
#    0.000   21.429   75.429    0.000    0.000    0.000 
#    0.000    0.000    0.000    0.000    0.000    0.000 
#
# Total GULP energy -173477.365814 kJ/mol
# GULP energy per Si atom -12391.240415 kJ/mol
# Density = 2.572583 g / cm^3
# Si number density = 25.784514 Si / 1000 Ang^3
#
#
#
# Elastic Constant Matrix: (Units=GPa)
#
#
# Indices 1 2 3 4 5 6 
#
# 1 76.7238 36.9700 64.6733 0.0000 -21.8261 0.0000
# 2 36.9700 103.7476 43.9507 0.0000 -12.4081 0.0000
# 3 64.6733 43.9507 218.2715 0.0000 -73.0386 0.0000
# 4 0.0000 0.0000 0.0000 39.8845 0.0000 -5.9666
# 5 -21.8261 -12.4081 -73.0386 0.0000 58.0838 0.0000
# 6 0.0000 0.0000 0.0000 -5.9666 0.0000 31.9654
#
#
#
# Elastic Compliance Matrix: (Units=1/GPa)
#
#
# Indices 1 2 3 4 5 6 
#
# 1 0.019417 -0.004911 -0.004616 0.000000 0.000442 0.000000
# 2 -0.004911 0.011797 -0.001199 0.000000 -0.000833 0.000000
# 3 -0.004616 -0.001199 0.009538 0.000000 0.010003 0.000000
# 4 0.000000 0.000000 0.000000 0.025793 0.000000 0.004814
# 5 0.000442 -0.000833 0.010003 0.000000 0.029783 0.000000
# 6 0.000000 0.000000 0.000000 0.004814 0.000000 0.032183
#
#
# Mechanical properties :
#
#
# Convention : Reuss Voigt Hill
#
# Bulk Modulus (GPa) = 51.81472 76.65901 64.23687
# Shear Modulus (GPa) = 31.97013 42.86331 37.41672
#
# Velocity S-wave (km/s) = 3.52504 4.08164 3.81350
# Velocity P-wave (km/s) = 6.05861 7.21167 6.66014
#
# Compressibility (1/GPa) = 0.01929953
#
# Stress axis : x y z
#
# Youngs Moduli (GPa) = 51.50067 84.76704 104.84471
#
# Poissons Ratio (x) = 0.41626 0.48402
# Poissons Ratio (y) = 0.25290 0.12573
# Poissons Ratio (z) = 0.23775 0.10165
#
# Static dielectric constant tensor:
#      x y z
#    x 4.882690 0.000000 -1.044840 
#    y 0.000000 4.266120 0.000000 
#    z -1.044840 0.000000 6.199520 
# 
# 
# High freq. dielectric constant tensor:
#      x y z
#    x 2.025060 0.000000 -0.036310 
#    y 0.000000 1.994370 0.000000 
#    z -0.036310 0.000000 2.075710 
# 
# From -- ./inp_files/3369.got.cif
#   From: 2010.06.25/outbox.cif.g09.slc.cpg/sg9_2_cif.got.tgz:3369.got - 2010.06.27 21:40:51.
