data_PCOD8054788
_publ_section_title
;
Structure prediction by ZEFSAII (Michael W. Deem and Ramdas Pophale) SiO2 
 PCOD8054788
Probable space group: C C
;
_chemical_formula_sum "Si O2"
_cell_formula_units_Z 32
_cell_length_a 8.874999
_cell_length_b 11.365207
_cell_length_c 15.028722
_cell_angle_alpha 90.000000
_cell_angle_beta 80.223827
_cell_angle_gamma 90.000000
_cell_volume 1493.877239
_symmetry_space_group_name_H-M "C C"
_symmetry_group_IT_number 9
_symmetry_cell_setting 'monoclinic'
loop_
_space_group_symop_operation_xyz
x,y,z
x,-y,1/2+z
1/2+x,1/2+y,z
1/2+x,1/2-y,1/2+z
loop_
_atom_site_type_symbol
_atom_site_label
_atom_site_fract_x
_atom_site_fract_y
_atom_site_fract_z
Si Si1 0.736290 0.118497 0.093780
Si Si2 0.122878 0.650886 0.915330
Si Si3 0.547580 0.996478 0.754154
Si Si4 0.014352 0.744545 0.522781
Si Si5 0.846438 0.468159 0.120747
Si Si6 0.856392 0.726982 0.047112
Si Si7 0.049153 0.152412 0.659537
Si Si8 0.931129 0.254357 0.838594
O O1 0.692848 0.021414 0.172471
O O2 0.657985 0.237417 0.133016
O O3 0.917791 0.146663 0.074857
O O4 0.678034 0.082732 1.000000
O O5 0.105223 0.563312 0.834943
O O6 0.250629 0.747958 0.878889
O O7 0.961016 0.717499 0.947807
O O8 0.465347 0.878182 0.791653
O O9 0.417491 0.065406 0.710533
O O10 0.181777 0.745631 0.546680
O O11 0.928377 0.619079 0.542394
O O12 0.032021 0.765563 0.416057
O O13 0.883645 0.604170 0.096644
O O14 0.661671 0.458931 0.137070
O O15 0.914340 0.838472 0.099688
O O16 0.976440 0.151254 0.765103
#
# Coordination Sequence:
#
# PCOD8054788 Si02
#       8
#     4   4   4   4   4   4   4   4
#     4   8  18  42  58  89 126 157 200 264 297 366
#     4  10  21  36  65  87 123 166 201 250 312 361
#     4  11  21  37  69  88 123 163 209 251 315 374
#     4  10  23  39  67  88 124 166 208 252 316 366
#     4  11  22  40  66  87 121 170 201 252 324 360
#     4  11  22  44  61  92 125 163 211 257 299 379
#     4   9  20  39  63  89 126 160 204 258 309 360
#     4  10  21  41  59  90 130 157 200 266 300 362
#
# _framework density 21.420769
#
# number of rings (size 3 to 8) (size 9 to 14) (size 15 to 20)
#    0.000    2.000    3.750    1.500    3.500    1.000 
#    0.000    0.000    5.500    0.000    0.000    0.000 
#    0.000    0.000    0.000    0.000    0.000    0.000 
#
# Total GULP energy -198293.048402 kJ/mol
# GULP energy per Si atom -12393.315525 kJ/mol
# Density = 2.137201 g / cm^3
# Si number density = 21.420769 Si / 1000 Ang^3
#
#
#
# Elastic Constant Matrix: (Units=GPa)
#
#
# Indices 1 2 3 4 5 6 
#
# 1 161.4029 25.6641 54.6273 0.0000 -3.1439 0.0000
# 2 25.6641 40.8019 24.7253 0.0000 -2.2255 0.0000
# 3 54.6273 24.7253 141.9512 0.0000 -6.0664 0.0000
# 4 0.0000 0.0000 0.0000 22.8349 0.0000 1.8252
# 5 -3.1439 -2.2255 -6.0664 0.0000 21.2951 0.0000
# 6 0.0000 0.0000 0.0000 1.8252 0.0000 29.6837
#
#
#
# Elastic Compliance Matrix: (Units=1/GPa)
#
#
# Indices 1 2 3 4 5 6 
#
# 1 0.007506 -0.003318 -0.002306 0.000000 0.000104 0.000000
# 2 -0.003318 0.028916 -0.003697 0.000000 0.001479 0.000000
# 3 -0.002306 -0.003697 0.008650 0.000000 0.001737 0.000000
# 4 0.000000 0.000000 0.000000 0.044009 0.000000 -0.002706
# 5 0.000104 0.001479 0.001737 0.000000 0.047624 0.000000
# 6 0.000000 0.000000 0.000000 -0.002706 0.000000 0.033855
#
#
# Mechanical properties :
#
#
# Convention : Reuss Voigt Hill
#
# Bulk Modulus (GPa) = 37.83422 61.57663 49.70543
# Shear Modulus (GPa) = 25.25099 30.70536 27.97818
#
# Velocity S-wave (km/s) = 3.43710 3.79019 3.61795
# Velocity P-wave (km/s) = 5.78380 6.92551 6.38024
#
# Compressibility (1/GPa) = 0.02643110
#
# Stress axis : x y z
#
# Youngs Moduli (GPa) = 133.23061 34.58247 115.60338
#
# Poissons Ratio (x) = 0.11474 0.26659
# Poissons Ratio (y) = 0.44205 0.42734
# Poissons Ratio (z) = 0.30724 0.12784
#
# Static dielectric constant tensor:
#      x y z
#    x 4.057250 0.000000 -0.232620 
#    y 0.000000 3.601910 0.000000 
#    z -0.232620 0.000000 4.281820 
# 
# 
# High freq. dielectric constant tensor:
#      x y z
#    x 1.850020 0.000000 -0.009480 
#    y 0.000000 1.807670 0.000000 
#    z -0.009480 0.000000 1.849080 
# 
# From -- ./inp_files/23057.got.cif
#   From: 2010.06.25/outbox.cif.g09.slc.cpg/sg9_12_cif.got.tgz:23057.got - 2010.06.27 21:40:51.
