data_PCOD8054589
_publ_section_title
;
Structure prediction by ZEFSAII (Michael W. Deem and Ramdas Pophale) SiO2 
 PCOD8054589
Probable space group: C C
;
_chemical_formula_sum "Si O2"
_cell_formula_units_Z 28
_cell_length_a 17.191532
_cell_length_b 16.301461
_cell_length_c 10.016011
_cell_angle_alpha 90.000000
_cell_angle_beta 151.551597
_cell_angle_gamma 90.000000
_cell_volume 1337.142570
_symmetry_space_group_name_H-M "C C"
_symmetry_group_IT_number 9
_symmetry_cell_setting 'monoclinic'
loop_
_space_group_symop_operation_xyz
x,y,z
x,-y,1/2+z
1/2+x,1/2+y,z
1/2+x,1/2-y,1/2+z
loop_
_atom_site_type_symbol
_atom_site_label
_atom_site_fract_x
_atom_site_fract_y
_atom_site_fract_z
Si Si1 0.672340 0.854907 0.869930
Si Si2 0.022917 0.200185 0.215480
Si Si3 0.521582 0.596653 0.467902
Si Si4 0.269237 0.306122 0.747801
Si Si5 0.029391 0.905855 0.466341
Si Si6 0.376194 0.840519 0.565557
Si Si7 0.776605 0.299886 0.684940
O O1 0.640824 0.842776 0.663491
O O2 0.512628 0.898524 0.697797
O O3 0.677622 0.770477 0.960127
O O4 0.839464 0.903680 0.140081
O O5 0.970336 0.134328 0.247856
O O6 0.175567 0.255676 0.491764
O O7 0.874564 0.262295 0.958393
O O8 0.070832 0.146419 0.159892
O O9 0.375391 0.619857 0.347360
O O10 0.561078 0.501167 0.530188
O O11 0.691064 0.633903 0.768728
O O12 0.391802 0.248183 0.016618
O O13 0.150362 0.870819 0.536235
O O14 0.407492 0.835199 0.772819
#
# Coordination Sequence:
#
# PCOD8054589 Si02
#       7
#     4   4   4   4   4   4   4
#     4  10  20  38  65  91 118 166 214 253 307 377
#     4  10  22  38  64  94 124 166 220 256 304 376
#     4  11  24  39  62  94 133 164 204 266 323 367
#     4  10  20  39  66  90 123 165 214 255 303 378
#     4  11  24  39  62  94 133 164 204 266 323 367
#     4  10  20  38  65  91 118 166 214 253 307 377
#     4  10  20  39  66  90 123 165 214 255 303 378
#
# _framework density 20.940176000000001
#
# number of rings (size 3 to 8) (size 9 to 14) (size 15 to 20)
#    0.000    1.714    0.000    6.857    4.000    2.286 
#    2.571    1.429    0.000    0.000    0.000    0.000 
#    0.000    0.000    0.000    0.000    0.000    0.000 
#
# Total GULP energy -173478.916425 kJ/mol
# GULP energy per Si atom -12391.351173 kJ/mol
# Density = 2.089252 g / cm^3
# Si number density = 20.940176 Si / 1000 Ang^3
#
#
#
# Elastic Constant Matrix: (Units=GPa)
#
#
# Indices 1 2 3 4 5 6 
#
# 1 131.1098 19.5043 41.9038 0.0000 2.3773 0.0000
# 2 19.5043 66.1131 6.5663 0.0000 -3.1236 0.0000
# 3 41.9038 6.5663 74.2823 0.0000 -8.2255 0.0000
# 4 0.0000 0.0000 0.0000 14.9441 0.0000 4.8979
# 5 2.3773 -3.1236 -8.2255 0.0000 32.6485 0.0000
# 6 0.0000 0.0000 0.0000 4.8979 0.0000 22.9948
#
#
#
# Elastic Compliance Matrix: (Units=1/GPa)
#
#
# Indices 1 2 3 4 5 6 
#
# 1 0.009819 -0.002454 -0.005583 0.000000 -0.002356 0.000000
# 2 -0.002454 0.015915 0.000170 0.000000 0.001744 0.000000
# 3 -0.005583 0.000170 0.017121 0.000000 0.004736 0.000000
# 4 0.000000 0.000000 0.000000 0.071938 0.000000 -0.015323
# 5 -0.002356 0.001744 0.004736 0.000000 0.032161 0.000000
# 6 0.000000 0.000000 0.000000 -0.015323 0.000000 0.046752
#
#
# Mechanical properties :
#
#
# Convention : Reuss Voigt Hill
#
# Bulk Modulus (GPa) = 36.86975 45.27268 41.07122
# Shear Modulus (GPa) = 22.88538 27.68622 25.28580
#
# Velocity S-wave (km/s) = 3.30948 3.64009 3.47872
# Velocity P-wave (km/s) = 5.67882 6.27168 5.98260
#
# Compressibility (1/GPa) = 0.02712250
#
# Stress axis : x y z
#
# Youngs Moduli (GPa) = 101.83916 62.83401 58.40722
#
# Poissons Ratio (x) = 0.15417 0.32611
# Poissons Ratio (y) = 0.24988 -0.00996
# Poissons Ratio (z) = 0.56860 -0.01071
#
# Static dielectric constant tensor:
#      x y z
#    x 4.281610 0.000000 -0.081630 
#    y 0.000000 3.526910 0.000000 
#    z -0.081630 0.000000 3.705640 
# 
# 
# High freq. dielectric constant tensor:
#      x y z
#    x 1.844610 0.000000 -0.001790 
#    y 0.000000 1.782490 0.000000 
#    z -0.001790 0.000000 1.817740 
# 
# From -- ./inp_files/9950.got.cif
#   From: 2010.06.25/outbox.cif.g09.slc.cpg/sg9_5_cif.got.tgz:9950.got - 2010.06.27 21:40:51.
