data_PCOD8054536
_publ_section_title
;
Structure prediction by ZEFSAII (Michael W. Deem and Ramdas Pophale) SiO2 
 PCOD8054536
Probable space group: C C
;
_chemical_formula_sum "Si O2"
_cell_formula_units_Z 24
_cell_length_a 12.706763
_cell_length_b 13.659947
_cell_length_c 8.489712
_cell_angle_alpha 90.000000
_cell_angle_beta 47.919646
_cell_angle_gamma 90.000000
_cell_volume 1093.707460
_symmetry_space_group_name_H-M "C C"
_symmetry_group_IT_number 9
_symmetry_cell_setting 'monoclinic'
loop_
_space_group_symop_operation_xyz
x,y,z
x,-y,1/2+z
1/2+x,1/2+y,z
1/2+x,1/2-y,1/2+z
loop_
_atom_site_type_symbol
_atom_site_label
_atom_site_fract_x
_atom_site_fract_y
_atom_site_fract_z
Si Si1 0.318610 0.971889 0.184460
Si Si2 0.922360 0.286199 0.209386
Si Si3 0.202770 0.632340 0.553638
Si Si4 0.480333 0.775441 0.784212
Si Si5 0.115904 0.445125 0.458102
Si Si6 0.709429 0.367909 0.986094
O O1 0.323584 0.883840 0.308836
O O2 0.210801 0.058490 0.338385
O O3 0.262461 0.931834 0.078297
O O4 0.476534 0.015316 0.006987
O O5 0.839308 0.194520 0.364471
O O6 0.061697 0.302456 0.173989
O O7 0.971928 0.269089 0.980384
O O8 0.201319 0.534358 0.450055
O O9 0.214218 0.605973 0.727202
O O10 0.573019 0.869257 0.638821
O O11 0.552918 0.675070 0.655093
O O12 0.325278 0.779897 0.857763
#
# Coordination Sequence:
#
# PCOD8054536 Si02
#       6
#     4   4   4   4   4   4
#     4   9  18  34  58  81 110 149 190 228 279 345
#     4  10  20  38  59  85 115 152 193 238 284 340
#     4  11  22  38  61  87 116 152 195 238 285 342
#     4  10  21  38  61  84 113 153 195 238 284 339
#     4  10  21  39  62  84 114 159 197 227 283 359
#     4  10  20  37  59  83 110 147 190 233 281 337
#
# _framework density 21.943711
#
# number of rings (size 3 to 8) (size 9 to 14) (size 15 to 20)
#    0.000    2.000    0.000    7.000    0.000    4.000 
#    0.000    6.667    0.000    0.000    0.000    0.000 
#    0.000    0.000    0.000    0.000    0.000    0.000 
#
# Total GULP energy -148772.579274 kJ/mol
# GULP energy per Si atom -12397.714940 kJ/mol
# Density = 2.189377 g / cm^3
# Si number density = 21.943711 Si / 1000 Ang^3
#
#
#
# Elastic Constant Matrix: (Units=GPa)
#
#
# Indices 1 2 3 4 5 6 
#
# 1 25.4157 10.2304 33.7788 0.0000 0.8800 0.0000
# 2 10.2304 86.0874 79.3477 0.0000 -2.7536 0.0000
# 3 33.7788 79.3477 139.3510 0.0000 5.2112 0.0000
# 4 0.0000 0.0000 0.0000 51.9030 0.0000 -9.3492
# 5 0.8800 -2.7536 5.2112 0.0000 12.8458 0.0000
# 6 0.0000 0.0000 0.0000 -9.3492 0.0000 22.0938
#
#
#
# Elastic Compliance Matrix: (Units=1/GPa)
#
#
# Indices 1 2 3 4 5 6 
#
# 1 0.066585 0.015946 -0.025565 0.000000 0.009228 0.000000
# 2 0.015946 0.029916 -0.021424 0.000000 0.014011 0.000000
# 3 -0.025565 -0.021424 0.026074 0.000000 -0.013418 0.000000
# 4 0.000000 0.000000 0.000000 0.020856 0.000000 0.008826
# 5 0.009228 0.014011 -0.013418 0.000000 0.085661 0.000000
# 6 0.000000 0.000000 0.000000 0.008826 0.000000 0.048996
#
#
# Mechanical properties :
#
#
# Convention : Reuss Voigt Hill
#
# Bulk Modulus (GPa) = 16.53190 55.28533 35.90861
# Shear Modulus (GPa) = 13.87591 25.86832 19.87211
#
# Velocity S-wave (km/s) = 2.51737 3.43716 3.01257
# Velocity P-wave (km/s) = 3.99996 6.40320 5.33857
#
# Compressibility (1/GPa) = 0.06048912
#
# Stress axis : x y z
#
# Youngs Moduli (GPa) = 15.01837 33.42744 38.35284
#
# Poissons Ratio (x) = -0.53304 0.98050
# Poissons Ratio (y) = -0.23948 0.82165
# Poissons Ratio (z) = 0.38395 0.71613
#
# Static dielectric constant tensor:
#      x y z
#    x 3.631080 0.000000 0.004410 
#    y 0.000000 4.223010 0.000000 
#    z 0.004410 0.000000 3.978780 
# 
# 
# High freq. dielectric constant tensor:
#      x y z
#    x 1.833170 0.000000 0.015870 
#    y 0.000000 1.871970 0.000000 
#    z 0.015870 0.000000 1.858210 
# 
# From -- ./inp_files/7039.got.cif
#   From: 2010.06.25/outbox.cif.g09.slc.cpg/sg9_4_cif.got.tgz:7039.got - 2010.06.27 21:40:51.
