data_PCOD8054745
_publ_section_title
;
Structure prediction by ZEFSAII (Michael W. Deem and Ramdas Pophale) SiO2 
 PCOD8054745
Probable space group: C C
;
_chemical_formula_sum "Si O2"
_cell_formula_units_Z 32
_cell_length_a 7.467658
_cell_length_b 11.411143
_cell_length_c 15.956606
_cell_angle_alpha 90.000000
_cell_angle_beta 104.044944
_cell_angle_gamma 90.000000
_cell_volume 1319.086050
_symmetry_space_group_name_H-M "C C"
_symmetry_group_IT_number 9
_symmetry_cell_setting 'monoclinic'
loop_
_space_group_symop_operation_xyz
x,y,z
x,-y,1/2+z
1/2+x,1/2+y,z
1/2+x,1/2-y,1/2+z
loop_
_atom_site_type_symbol
_atom_site_label
_atom_site_fract_x
_atom_site_fract_y
_atom_site_fract_z
Si Si1 0.013910 0.497451 0.002080
Si Si2 0.811872 0.354627 0.197753
Si Si3 0.689725 0.892816 0.662929
Si Si4 0.095417 0.049929 0.424123
Si Si5 0.067395 0.683495 0.873037
Si Si6 0.158299 0.304712 0.117170
Si Si7 0.834372 0.916717 0.280864
Si Si8 0.555270 0.451810 0.598021
O O1 0.008895 0.565015 0.091432
O O2 0.141491 0.380752 0.029189
O O3 0.105325 0.589330 0.949448
O O4 0.813936 0.459192 0.950362
O O5 0.673935 0.244035 0.176633
O O6 0.691641 0.469214 0.168759
O O7 0.888033 0.355997 0.300841
O O8 0.976345 0.337704 0.150456
O O9 0.870421 0.926978 0.628164
O O10 0.704265 0.967428 0.751132
O O11 0.040606 0.185107 0.403611
O O12 0.009557 0.010272 0.503112
O O13 0.025980 0.966081 0.340107
O O14 0.248331 0.676134 0.835735
O O15 0.339948 0.346523 0.191798
O O16 0.166266 0.169271 0.095098
#
# Coordination Sequence:
#
# PCOD8054745 Si02
#       8
#     4   4   4   4   4   4   4   4
#     4  11  24  43  66  99 137 177 225 279 336 404
#     4  10  20  43  70  96 133 180 223 276 341 404
#     4  10  22  46  68  96 137 176 228 283 335 407
#     4  12  25  45  69 104 136 181 229 283 340 405
#     4  11  25  44  70  98 143 181 219 287 345 396
#     4   9  22  45  65  98 137 181 220 281 341 402
#     4  10  23  46  69  96 139 177 223 283 342 395
#     4  11  23  42  75  99 134 185 229 274 346 405
#
# _framework density 24.259219000000002
#
# number of rings (size 3 to 8) (size 9 to 14) (size 15 to 20)
#    0.000    1.500    2.500    1.500    5.250    0.000 
#   11.250    2.500    0.000    0.000    0.000    0.000 
#    0.000    0.000    0.000    0.000    0.000    0.000 
#
# Total GULP energy -198273.827871 kJ/mol
# GULP energy per Si atom -12392.114242 kJ/mol
# Density = 2.420400 g / cm^3
# Si number density = 24.259219 Si / 1000 Ang^3
#
#
#
# Elastic Constant Matrix: (Units=GPa)
#
#
# Indices 1 2 3 4 5 6 
#
# 1 42.1192 30.7370 32.7529 0.0000 12.2023 0.0000
# 2 30.7370 192.8028 65.8368 0.0000 17.7329 0.0000
# 3 32.7529 65.8368 139.6033 0.0000 38.2730 0.0000
# 4 0.0000 0.0000 0.0000 46.8346 0.0000 4.3684
# 5 12.2023 17.7329 38.2730 0.0000 38.5141 0.0000
# 6 0.0000 0.0000 0.0000 4.3684 0.0000 33.4622
#
#
#
# Elastic Compliance Matrix: (Units=1/GPa)
#
#
# Indices 1 2 3 4 5 6 
#
# 1 0.030664 -0.002906 -0.004848 0.000000 -0.003560 0.000000
# 2 -0.002906 0.006458 -0.002475 0.000000 0.000407 0.000000
# 3 -0.004848 -0.002475 0.012005 0.000000 -0.009254 0.000000
# 4 0.000000 0.000000 0.000000 0.021615 0.000000 -0.002822
# 5 -0.003560 0.000407 -0.009254 0.000000 0.036101 0.000000
# 6 0.000000 0.000000 0.000000 -0.002822 0.000000 0.030253
#
#
# Mechanical properties :
#
#
# Convention : Reuss Voigt Hill
#
# Bulk Modulus (GPa) = 34.88146 70.35320 52.61733
# Shear Modulus (GPa) = 29.92052 40.10876 35.01464
#
# Velocity S-wave (km/s) = 3.51574 4.07054 3.80327
# Velocity P-wave (km/s) = 5.55792 7.15234 6.40494
#
# Compressibility (1/GPa) = 0.02866853
#
# Stress axis : x y z
#
# Youngs Moduli (GPa) = 32.61178 154.85421 83.29854
#
# Poissons Ratio (x) = 0.44995 0.40383
# Poissons Ratio (y) = 0.09476 0.20619
# Poissons Ratio (z) = 0.15810 0.38332
#
# Static dielectric constant tensor:
#      x y z
#    x 3.975730 0.000000 0.250350 
#    y 0.000000 4.665770 0.000000 
#    z 0.250350 0.000000 4.718790 
# 
# 
# High freq. dielectric constant tensor:
#      x y z
#    x 1.935480 0.000000 0.021470 
#    y 0.000000 1.979090 0.000000 
#    z 0.021470 0.000000 1.971760 
# 
# From -- ./inp_files/22809.got.cif
#   From: 2010.06.25/outbox.cif.g09.slc.cpg/sg9_12_cif.got.tgz:22809.got - 2010.06.27 21:40:51.
