data_PCOD8054471
_publ_section_title
;
Structure prediction by ZEFSAII (Michael W. Deem and Ramdas Pophale) SiO2 
 PCOD8054471
Probable space group: C C
;
_chemical_formula_sum "Si O2"
_cell_formula_units_Z 32
_cell_length_a 19.441396
_cell_length_b 13.957246
_cell_length_c 8.350737
_cell_angle_alpha 90.000000
_cell_angle_beta 47.483205
_cell_angle_gamma 90.000000
_cell_volume 1670.191169
_symmetry_space_group_name_H-M "C C"
_symmetry_group_IT_number 9
_symmetry_cell_setting 'monoclinic'
loop_
_space_group_symop_operation_xyz
x,y,z
x,-y,1/2+z
1/2+x,1/2+y,z
1/2+x,1/2-y,1/2+z
loop_
_atom_site_type_symbol
_atom_site_label
_atom_site_fract_x
_atom_site_fract_y
_atom_site_fract_z
Si Si1 0.467420 0.902821 0.516330
Si Si2 0.909071 0.585860 0.453803
Si Si3 0.895821 0.971248 0.072464
Si Si4 0.583374 0.219169 0.618438
Si Si5 0.450564 0.359093 0.688169
Si Si6 0.587150 0.073143 0.349224
Si Si7 0.787812 0.898218 0.526695
Si Si8 0.790372 0.743654 0.780732
O O1 0.506309 0.803079 0.379340
O O2 0.406753 0.969545 0.486863
O O3 0.559304 0.962759 0.424762
O O4 0.404145 0.886000 0.773780
O O5 0.825735 0.636210 0.684978
O O6 0.007241 0.626373 0.370521
O O7 0.864237 0.902928 0.266863
O O8 0.960669 0.058416 0.037616
O O9 0.951949 0.906301 0.861581
O O10 0.806375 0.017450 0.125983
O O11 0.541694 0.292290 0.551643
O O12 0.599071 0.117918 0.507044
O O13 0.684534 0.258207 0.518768
O O14 0.357120 0.296335 0.804253
O O15 0.686901 0.082690 0.105800
O O16 0.793313 0.796015 0.604121
#
# Coordination Sequence:
#
# PCOD8054471 Si02
#       8
#     4   4   4   4   4   4   4   4
#     4  10  20  33  59  84 111 153 193 234 296 346
#     4  10  20  35  55  83 116 149 187 236 292 348
#     4   9  20  33  55  77 108 147 182 236 287 343
#     4  11  21  37  57  84 116 154 190 244 292 348
#     4  10  20  39  57  78 114 146 195 234 290 346
#     4   9  18  32  53  81 113 140 180 235 290 342
#     4   9  19  29  51  81 107 138 180 227 289 337
#     4  10  22  36  55  84 117 147 185 242 290 344
#
# _framework density 19.159482000000001
#
# number of rings (size 3 to 8) (size 9 to 14) (size 15 to 20)
#    0.750    1.500    2.500    0.000   10.500    0.000 
#    0.000    1.250    0.000    0.000    0.000    0.000 
#    0.000    0.000    0.000    0.000    0.000    0.000 
#
# Total GULP energy -198236.231291 kJ/mol
# GULP energy per Si atom -12389.764456 kJ/mol
# Density = 1.911587 g / cm^3
# Si number density = 19.159482 Si / 1000 Ang^3
#
#
#
# Elastic Constant Matrix: (Units=GPa)
#
#
# Indices 1 2 3 4 5 6 
#
# 1 69.6471 23.9130 18.9010 0.0000 -5.7007 0.0000
# 2 23.9130 63.1385 29.7757 0.0000 -8.2207 0.0000
# 3 18.9010 29.7757 65.4389 0.0000 13.3076 0.0000
# 4 0.0000 0.0000 0.0000 28.2838 0.0000 -0.0481
# 5 -5.7007 -8.2207 13.3076 0.0000 26.2277 0.0000
# 6 0.0000 0.0000 0.0000 -0.0481 0.0000 23.8346
#
#
#
# Elastic Compliance Matrix: (Units=1/GPa)
#
#
# Indices 1 2 3 4 5 6 
#
# 1 0.017212 -0.004004 -0.004076 0.000000 0.004554 0.000000
# 2 -0.004004 0.025366 -0.013186 0.000000 0.013771 0.000000
# 3 -0.004076 -0.013186 0.026180 0.000000 -0.018302 0.000000
# 4 0.000000 0.000000 0.000000 0.035356 0.000000 0.000071
# 5 0.004554 0.013771 -0.018302 0.000000 0.052720 0.000000
# 6 0.000000 0.000000 0.000000 0.000071 0.000000 0.041956
#
#
# Mechanical properties :
#
#
# Convention : Reuss Voigt Hill
#
# Bulk Modulus (GPa) = 38.12808 38.15597 38.14202
# Shear Modulus (GPa) = 19.99498 24.04488 22.01993
#
# Velocity S-wave (km/s) = 3.23400 3.54642 3.39381
# Velocity P-wave (km/s) = 5.82139 6.06033 5.94206
#
# Compressibility (1/GPa) = 0.02622739
#
# Stress axis : x y z
#
# Youngs Moduli (GPa) = 58.10044 39.42310 38.19664
#
# Poissons Ratio (x) = 0.15784 0.15568
# Poissons Ratio (y) = 0.23262 0.50365
# Poissons Ratio (z) = 0.23680 0.51983
#
# Static dielectric constant tensor:
#      x y z
#    x 3.383600 0.000000 0.082440 
#    y 0.000000 3.385250 0.000000 
#    z 0.082440 0.000000 3.250460 
# 
# 
# High freq. dielectric constant tensor:
#      x y z
#    x 1.730460 0.000000 0.012420 
#    y 0.000000 1.729850 0.000000 
#    z 0.012420 0.000000 1.719880 
# 
# From -- ./inp_files/11678.got.cif
#   From: 2010.06.25/outbox.cif.g09.slc.cpg/sg9_6_cif.got.tgz:11678.got - 2010.06.27 21:40:51.
