data_PCOD8054833
_publ_section_title
;
Structure prediction by ZEFSAII (Michael W. Deem and Ramdas Pophale) SiO2 
 PCOD8054833
Probable space group: C C
;
_chemical_formula_sum "Si O2"
_cell_formula_units_Z 28
_cell_length_a 5.204648
_cell_length_b 30.833199
_cell_length_c 8.248512
_cell_angle_alpha 90.000000
_cell_angle_beta 100.364238
_cell_angle_gamma 90.000000
_cell_volume 1302.090427
_symmetry_space_group_name_H-M "C C"
_symmetry_group_IT_number 9
_symmetry_cell_setting 'monoclinic'
loop_
_space_group_symop_operation_xyz
x,y,z
x,-y,1/2+z
1/2+x,1/2+y,z
1/2+x,1/2-y,1/2+z
loop_
_atom_site_type_symbol
_atom_site_label
_atom_site_fract_x
_atom_site_fract_y
_atom_site_fract_z
Si Si1 0.529520 0.197738 0.304010
Si Si2 0.585726 0.920761 0.332174
Si Si3 0.682977 0.285774 0.480505
Si Si4 0.565992 0.470028 0.274066
Si Si5 0.474203 0.559952 0.403158
Si Si6 0.981994 0.391208 0.958385
Si Si7 0.676811 0.168118 0.991992
O O1 0.651425 0.236901 0.418351
O O2 0.264269 0.213145 0.181005
O O3 0.487172 0.159980 0.429262
O O4 0.725250 0.179376 0.187486
O O5 0.354118 0.953476 0.360886
O O6 0.628001 0.883086 0.468634
O O7 0.854197 0.946908 0.362812
O O8 0.535734 0.898767 0.153293
O O9 0.424260 0.314432 0.419827
O O10 0.914359 0.307380 0.400051
O O11 0.513163 0.521209 0.280273
O O12 0.533578 0.459512 0.084152
O O13 0.188371 0.582002 0.370586
O O14 0.690120 0.595090 0.378190
#
# Coordination Sequence:
#
# PCOD8054833 Si02
#       7
#     4   4   4   4   4   4   4
#     4  10  26  42  66  92 125 162 211 254 316 364
#     4  10  21  39  61  91 124 164 203 250 308 357
#     4  10  25  40  64  91 127 154 215 251 314 366
#     4  10  21  38  61  89 124 161 203 251 300 364
#     4  10  22  39  59  92 121 162 204 248 309 355
#     4  10  23  38  63  88 125 160 204 256 304 366
#     4  10  24  40  62  93 122 163 208 248 313 366
#
# _framework density 21.503882999999998
#
# number of rings (size 3 to 8) (size 9 to 14) (size 15 to 20)
#    0.857    1.143    0.000    1.714    6.000    2.286 
#    0.000    0.000    0.000    0.000    0.000    0.000 
#    0.000    0.000    0.000    0.000    0.000    0.000 
#
# Total GULP energy -173532.205869 kJ/mol
# GULP energy per Si atom -12395.157562 kJ/mol
# Density = 2.145494 g / cm^3
# Si number density = 21.503883 Si / 1000 Ang^3
#
#
#
# Elastic Constant Matrix: (Units=GPa)
#
#
# Indices 1 2 3 4 5 6 
#
# 1 144.5604 17.0949 19.9797 0.0000 -5.8420 0.0000
# 2 17.0949 79.5865 21.2472 0.0000 -4.6527 0.0000
# 3 19.9797 21.2472 28.3894 0.0000 1.3163 0.0000
# 4 0.0000 0.0000 0.0000 38.2129 0.0000 -3.7952
# 5 -5.8420 -4.6527 1.3163 0.0000 13.2384 0.0000
# 6 0.0000 0.0000 0.0000 -3.7952 0.0000 33.1753
#
#
#
# Elastic Compliance Matrix: (Units=1/GPa)
#
#
# Indices 1 2 3 4 5 6 
#
# 1 0.007873 0.000097 -0.005803 0.000000 0.004085 0.000000
# 2 0.000097 0.016322 -0.012610 0.000000 0.007033 0.000000
# 3 -0.005803 -0.012610 0.049297 0.000000 -0.011894 0.000000
# 4 0.000000 0.000000 0.000000 0.026470 0.000000 0.003028
# 5 0.004085 0.007033 -0.011894 0.000000 0.080995 0.000000
# 6 0.000000 0.000000 0.000000 0.003028 0.000000 0.030489
#
#
# Mechanical properties :
#
#
# Convention : Reuss Voigt Hill
#
# Bulk Modulus (GPa) = 27.12924 41.02000 34.07462
# Shear Modulus (GPa) = 19.20379 29.87295 24.53837
#
# Velocity S-wave (km/s) = 2.99162 3.73123 3.38170
# Velocity P-wave (km/s) = 4.95746 6.13838 5.57925
#
# Compressibility (1/GPa) = 0.03686059
#
# Stress axis : x y z
#
# Youngs Moduli (GPa) = 127.01339 61.26793 20.28506
#
# Poissons Ratio (x) = -0.00594 0.11771
# Poissons Ratio (y) = -0.01231 0.25579
# Poissons Ratio (z) = 0.73705 0.77258
#
# Static dielectric constant tensor:
#      x y z
#    x 4.090080 0.000000 -0.018370 
#    y 0.000000 3.787560 0.000000 
#    z -0.018370 0.000000 3.537520 
# 
# 
# High freq. dielectric constant tensor:
#      x y z
#    x 1.853270 0.000000 -0.002520 
#    y 0.000000 1.850570 0.000000 
#    z -0.002520 0.000000 1.819380 
# 
# From -- ./inp_files/4091.got.cif
#   From: 2010.06.25/outbox.cif.g09.slc.cpg/sg9_3_cif.got.tgz:4091.got - 2010.06.27 21:40:51.
