data_PCOD8054760
_publ_section_title
;
Structure prediction by ZEFSAII (Michael W. Deem and Ramdas Pophale) SiO2 
 PCOD8054760
Probable space group: C C
;
_chemical_formula_sum "Si O2"
_cell_formula_units_Z 24
_cell_length_a 8.436610
_cell_length_b 12.693178
_cell_length_c 14.103235
_cell_angle_alpha 90.000000
_cell_angle_beta 136.756994
_cell_angle_gamma 90.000000
_cell_volume 1034.682961
_symmetry_space_group_name_H-M "C C"
_symmetry_group_IT_number 9
_symmetry_cell_setting 'monoclinic'
loop_
_space_group_symop_operation_xyz
x,y,z
x,-y,1/2+z
1/2+x,1/2+y,z
1/2+x,1/2-y,1/2+z
loop_
_atom_site_type_symbol
_atom_site_label
_atom_site_fract_x
_atom_site_fract_y
_atom_site_fract_z
Si Si1 0.546420 0.209129 0.430080
Si Si2 0.718162 0.572759 0.606806
Si Si3 0.328733 0.487761 0.072090
Si Si4 0.377305 0.547714 0.301974
Si Si5 0.700501 0.138257 0.853171
Si Si6 0.436428 0.151596 0.177274
O O1 0.330317 0.249662 0.399570
O O2 0.482303 0.217473 0.292088
O O3 0.765006 0.285540 0.535678
O O4 0.609124 0.090207 0.490321
O O5 0.521054 0.581694 0.601160
O O6 0.606056 0.592680 0.454204
O O7 0.925233 0.655840 0.716690
O O8 0.825601 0.457406 0.661816
O O9 0.431819 0.527963 0.215891
O O10 0.249018 0.589271 0.977584
O O11 0.304892 0.438187 0.318712
O O12 0.172329 0.632623 0.222382
#
# Coordination Sequence:
#
# PCOD8054760 Si02
#       6
#     4   4   4   4   4   4
#     4  12  22  44  73 103 135 187 246 295 347 432
#     4  10  20  45  68 101 142 185 237 284 363 428
#     4  11  22  42  76 101 142 192 229 300 365 411
#     4  10  21  43  71 101 138 196 226 291 373 414
#     4  10  22  43  70 106 142 188 239 292 359 430
#     4  11  23  43  72  96 141 184 241 292 355 423
#
# _framework density 23.195512000000001
#
# number of rings (size 3 to 8) (size 9 to 14) (size 15 to 20)
#    0.000    1.333    8.333    1.000    0.000    2.667 
#    3.000    1.667    3.667    0.000    0.000    0.000 
#    0.000    0.000    0.000    0.000    0.000    0.000 
#
# Total GULP energy -148831.936799 kJ/mol
# GULP energy per Si atom -12402.661400 kJ/mol
# Density = 2.314272 g / cm^3
# Si number density = 23.195512 Si / 1000 Ang^3
#
#
#
# Elastic Constant Matrix: (Units=GPa)
#
#
# Indices 1 2 3 4 5 6 
#
# 1 99.7973 43.7656 87.4531 0.0000 -9.7540 0.0000
# 2 43.7656 67.5909 34.3722 0.0001 4.5326 0.0000
# 3 87.4531 34.3722 187.2235 0.0003 0.9011 0.0001
# 4 0.0000 0.0001 0.0003 18.5584 0.0001 5.9785
# 5 -9.7540 4.5326 0.9011 0.0001 45.4921 0.0000
# 6 0.0000 0.0000 0.0001 5.9785 0.0000 38.5668
#
#
#
# Elastic Compliance Matrix: (Units=1/GPa)
#
#
# Indices 1 2 3 4 5 6 
#
# 1 0.023175 -0.010924 -0.008850 0.000000 0.006233 0.000000
# 2 -0.010924 0.021580 0.001162 0.000000 -0.004515 0.000000
# 3 -0.008850 0.001162 0.009272 0.000000 -0.002197 0.000000
# 4 0.000000 0.000000 0.000000 0.056716 0.000000 -0.008792
# 5 0.006233 -0.004515 -0.002197 0.000000 0.023812 0.000000
# 6 0.000000 0.000000 0.000000 -0.008792 0.000000 0.027292
#
#
# Mechanical properties :
#
#
# Convention : Reuss Voigt Hill
#
# Bulk Modulus (GPa) = 59.50603 76.19926 67.85265
# Shear Modulus (GPa) = 24.42954 33.12484 28.77719
#
# Velocity S-wave (km/s) = 3.24883 3.78308 3.52609
# Velocity P-wave (km/s) = 6.30737 7.21141 6.77449
#
# Compressibility (1/GPa) = 0.01680502
#
# Stress axis : x y z
#
# Youngs Moduli (GPa) = 43.14984 46.33988 107.85000
#
# Poissons Ratio (x) = 0.50620 0.95444
# Poissons Ratio (y) = 0.47135 -0.12537
# Poissons Ratio (z) = 0.38186 -0.05387
#
# Static dielectric constant tensor:
#      x y z
#    x 4.046570 0.000000 0.315890 
#    y 0.000000 3.950200 0.000000 
#    z 0.315890 0.000000 4.620790 
# 
# 
# High freq. dielectric constant tensor:
#      x y z
#    x 1.901230 0.000000 0.006990 
#    y 0.000000 1.894510 0.000000 
#    z 0.006990 0.000000 1.937730 
# 
# From -- ./inp_files/23446.got.cif
#   From: 2010.06.25/outbox.cif.g09.slc.cpg/sg9_12_cif.got.tgz:23446.got - 2010.06.27 21:40:51.
