data_PCOD8054403
_publ_section_title
;
Structure prediction by ZEFSAII (Michael W. Deem and Ramdas Pophale) SiO2 
 PCOD8054403
Probable space group: C C
;
_chemical_formula_sum "Si O2"
_cell_formula_units_Z 32
_cell_length_a 9.236433
_cell_length_b 14.096089
_cell_length_c 11.971448
_cell_angle_alpha 90.000000
_cell_angle_beta 108.557298
_cell_angle_gamma 90.000000
_cell_volume 1477.612732
_symmetry_space_group_name_H-M "C C"
_symmetry_group_IT_number 9
_symmetry_cell_setting 'monoclinic'
loop_
_space_group_symop_operation_xyz
x,y,z
x,-y,1/2+z
1/2+x,1/2+y,z
1/2+x,1/2-y,1/2+z
loop_
_atom_site_type_symbol
_atom_site_label
_atom_site_fract_x
_atom_site_fract_y
_atom_site_fract_z
Si Si1 0.341860 0.179570 0.500000
Si Si2 0.970709 0.405393 0.600106
Si Si3 0.393775 0.842678 0.344653
Si Si4 0.280218 0.681012 0.188977
Si Si5 0.229623 0.658400 0.844081
Si Si6 0.734887 0.527756 0.631712
Si Si7 0.652105 0.094165 0.589914
Si Si8 0.387245 0.470995 0.557299
O O1 0.311450 0.249061 0.594859
O O2 0.263545 0.229298 0.373422
O O3 0.265971 0.080059 0.519501
O O4 0.523243 0.168747 0.517240
O O5 0.880635 0.363388 0.471807
O O6 0.841267 0.432328 0.660016
O O7 0.098646 0.329667 0.671150
O O8 0.061842 0.500176 0.597722
O O9 0.358376 0.730403 0.315789
O O10 0.561791 0.869790 0.344125
O O11 0.273870 0.907203 0.247524
O O12 0.355980 0.581578 0.169191
O O13 0.243535 0.638512 0.716819
O O14 0.349644 0.594074 0.941530
O O15 0.560857 0.499890 0.594873
O O16 0.779630 0.065840 0.528729
#
# Coordination Sequence:
#
# PCOD8054403 Si02
#       8
#     4   4   4   4   4   4   4   4
#     4   9  18  36  61  87 115 159 203 248 311 367
#     4  10  19  38  65  87 119 163 208 254 307 376
#     4  11  19  38  65  86 123 167 208 249 321 375
#     4   9  18  36  61  87 115 159 203 248 311 367
#     4  11  19  38  65  86 123 167 208 249 321 375
#     4  10  22  40  62  94 123 156 215 261 305 371
#     4  10  19  38  65  87 119 163 208 254 307 376
#     4  10  22  40  62  94 123 156 215 261 305 371
#
# _framework density 21.656554
#
# number of rings (size 3 to 8) (size 9 to 14) (size 15 to 20)
#    0.000    2.000    7.500    0.000    0.000    1.000 
#    9.000    5.000    5.500    0.000    0.000    0.000 
#    0.000    0.000    0.000    0.000    0.000    0.000 
#
# Total GULP energy -198256.913565 kJ/mol
# GULP energy per Si atom -12391.057098 kJ/mol
# Density = 2.160726 g / cm^3
# Si number density = 21.656554 Si / 1000 Ang^3
#
#
#
# Elastic Constant Matrix: (Units=GPa)
#
#
# Indices 1 2 3 4 5 6 
#
# 1 134.9207 39.6163 14.0746 0.0000 38.6645 0.0000
# 2 39.6163 74.1665 34.3488 0.0000 14.2289 0.0000
# 3 14.0746 34.3488 80.2773 0.0000 19.1187 0.0000
# 4 0.0000 0.0000 0.0000 49.2988 0.0000 14.8796
# 5 38.6645 14.2289 19.1187 0.0000 32.7190 0.0000
# 6 0.0000 0.0000 0.0000 14.8796 0.0000 38.5165
#
#
#
# Elastic Compliance Matrix: (Units=1/GPa)
#
#
# Indices 1 2 3 4 5 6 
#
# 1 0.013063 -0.005841 0.003811 0.000000 -0.015124 0.000000
# 2 -0.005841 0.019803 -0.008180 0.000000 0.003071 0.000000
# 3 0.003811 -0.008180 0.018022 0.000000 -0.011477 0.000000
# 4 0.000000 0.000000 0.000000 0.022962 0.000000 -0.008871
# 5 -0.015124 0.003071 -0.011477 0.000000 0.053806 0.000000
# 6 0.000000 0.000000 0.000000 -0.008871 0.000000 0.029390
#
#
# Mechanical properties :
#
#
# Convention : Reuss Voigt Hill
#
# Bulk Modulus (GPa) = 32.82268 51.71597 42.26933
# Shear Modulus (GPa) = 26.64916 37.52851 32.08883
#
# Velocity S-wave (km/s) = 3.51170 4.16732 3.85348
# Velocity P-wave (km/s) = 5.62420 6.86202 6.27371
#
# Compressibility (1/GPa) = 0.03046673
#
# Stress axis : x y z
#
# Youngs Moduli (GPa) = 76.54948 50.49800 55.48723
#
# Poissons Ratio (x) = 0.29497 -0.21146
# Poissons Ratio (y) = 0.44715 0.45391
# Poissons Ratio (z) = -0.29172 0.41309
#
# Static dielectric constant tensor:
#      x y z
#    x 5.624120 0.000000 -0.769510 
#    y 0.000000 5.084730 0.000000 
#    z -0.769510 0.000000 4.781500 
# 
# 
# High freq. dielectric constant tensor:
#      x y z
#    x 1.836070 0.000000 0.022780 
#    y 0.000000 1.848550 0.000000 
#    z 0.022780 0.000000 1.829250 
# 
# From -- ./inp_files/23394.got.cif
#   From: 2010.06.25/outbox.cif.g09.slc.cpg/sg9_12_cif.got.tgz:23394.got - 2010.06.27 21:40:51.
