data_PCOD8054619
_publ_section_title
;
Structure prediction by ZEFSAII (Michael W. Deem and Ramdas Pophale) SiO2 
 PCOD8054619
Probable space group: C C
;
_chemical_formula_sum "Si O2"
_cell_formula_units_Z 28
_cell_length_a 19.435545
_cell_length_b 14.783815
_cell_length_c 9.874727
_cell_angle_alpha 90.000000
_cell_angle_beta 26.588870
_cell_angle_gamma 90.000000
_cell_volume 1269.943027
_symmetry_space_group_name_H-M "C C"
_symmetry_group_IT_number 9
_symmetry_cell_setting 'monoclinic'
loop_
_space_group_symop_operation_xyz
x,y,z
x,-y,1/2+z
1/2+x,1/2+y,z
1/2+x,1/2-y,1/2+z
loop_
_atom_site_type_symbol
_atom_site_label
_atom_site_fract_x
_atom_site_fract_y
_atom_site_fract_z
Si Si1 0.674870 0.683265 0.148390
Si Si2 0.553117 0.128609 0.905704
Si Si3 0.798596 0.587120 0.164081
Si Si4 0.129581 0.899651 0.454899
Si Si5 0.810588 0.026759 0.598290
Si Si6 0.348017 0.609013 0.809757
Si Si7 0.741390 0.697791 0.509015
O O1 0.664747 0.791429 0.158165
O O2 0.810971 0.648728 0.007380
O O3 0.521155 0.638350 0.478207
O O4 0.714934 0.647970 0.929094
O O5 0.647141 0.059683 0.830663
O O6 0.472010 0.077531 0.919727
O O7 0.418031 0.171785 0.236305
O O8 0.718918 0.492612 0.267220
O O9 0.693489 0.642970 0.457439
O O10 0.950205 0.910325 0.803044
O O11 0.131505 0.833697 0.322727
O O12 0.805073 0.030965 0.772781
O O13 0.835627 0.928686 0.485373
O O14 0.232316 0.694286 0.998762
#
# Coordination Sequence:
#
# PCOD8054619 Si02
#       7
#     4   4   4   4   4   4   4
#     4  10  20  39  63  93 123 167 212 261 321 380
#     4   9  23  40  65  87 130 167 208 264 319 376
#     4  10  20  39  67  86 127 171 209 254 326 385
#     4  11  22  37  68  93 121 167 219 262 312 393
#     4  11  23  41  66  97 128 165 217 268 321 376
#     4  10  22  40  64  95 130 168 209 270 320 383
#     4   9  22  42  63  91 127 169 210 257 327 379
#
# _framework density 22.048231999999999
#
# number of rings (size 3 to 8) (size 9 to 14) (size 15 to 20)
#    0.857    1.143    1.429    1.714    4.000    2.286 
#    0.000    4.286    0.000    0.000    0.000    0.000 
#    0.000    0.000    0.000    0.000    0.000    0.000 
#
# Total GULP energy -173498.712206 kJ/mol
# GULP energy per Si atom -12392.765158 kJ/mol
# Density = 2.199805 g / cm^3
# Si number density = 22.048232 Si / 1000 Ang^3
#
#
#
# Elastic Constant Matrix: (Units=GPa)
#
#
# Indices 1 2 3 4 5 6 
#
# 1 82.9355 -0.8549 2.7030 -0.0005 9.1252 0.0006
# 2 -0.8549 71.3939 7.2043 -0.0004 17.5429 0.0005
# 3 2.7030 7.2043 27.6650 -0.0002 12.0848 0.0003
# 4 -0.0005 -0.0004 -0.0002 13.9098 0.0003 3.8677
# 5 9.1252 17.5429 12.0848 0.0003 39.8502 -0.0005
# 6 0.0006 0.0005 0.0003 3.8677 -0.0005 29.2688
#
#
#
# Elastic Compliance Matrix: (Units=1/GPa)
#
#
# Indices 1 2 3 4 5 6 
#
# 1 0.012427 0.000952 -0.000041 0.000001 -0.003252 0.000000
# 2 0.000952 0.015815 -0.001239 0.000001 -0.006804 0.000000
# 3 -0.000041 -0.001239 0.041764 0.000001 -0.012110 -0.000001
# 4 0.000001 0.000001 0.000001 0.074634 -0.000002 -0.009862
# 5 -0.003252 -0.006804 -0.012110 -0.000002 0.032507 0.000001
# 6 0.000000 0.000000 -0.000001 -0.009862 0.000001 0.035469
#
#
# Mechanical properties :
#
#
# Convention : Reuss Voigt Hill
#
# Bulk Modulus (GPa) = 14.41998 22.23325 18.32661
# Shear Modulus (GPa) = 21.15163 28.13523 24.64343
#
# Velocity S-wave (km/s) = 3.10067 3.57610 3.34684
# Velocity P-wave (km/s) = 4.40151 5.21125 4.82340
#
# Compressibility (1/GPa) = 0.06934821
#
# Stress axis : x y z
#
# Youngs Moduli (GPa) = 80.47286 63.23026 23.94430
#
# Poissons Ratio (x) = -0.06020 0.00099
# Poissons Ratio (y) = -0.07662 0.02967
# Poissons Ratio (z) = 0.00334 0.07835
#
# Static dielectric constant tensor:
#      x y z
#    x 3.998650 0.000000 0.083160 
#    y 0.000000 3.905530 0.000000 
#    z 0.083160 0.000000 3.595480 
# 
# 
# High freq. dielectric constant tensor:
#      x y z
#    x 1.870520 0.000000 0.004700 
#    y 0.000000 1.859640 0.000000 
#    z 0.004700 0.000000 1.832990 
# 
# From -- ./inp_files/10881.got.cif
#   From: 2010.06.25/outbox.cif.g09.slc.cpg/sg9_6_cif.got.tgz:10881.got - 2010.06.27 21:40:51.
