data_PCOD8054882
_publ_section_title
;
Structure prediction by ZEFSAII (Michael W. Deem and Ramdas Pophale) SiO2 
 PCOD8054882
Probable space group: C C
;
_chemical_formula_sum "Si O2"
_cell_formula_units_Z 32
_cell_length_a 7.687297
_cell_length_b 12.009771
_cell_length_c 24.183825
_cell_angle_alpha 90.000000
_cell_angle_beta 136.777669
_cell_angle_gamma 90.000000
_cell_volume 1529.033135
_symmetry_space_group_name_H-M "C C"
_symmetry_group_IT_number 9
_symmetry_cell_setting 'monoclinic'
loop_
_space_group_symop_operation_xyz
x,y,z
x,-y,1/2+z
1/2+x,1/2+y,z
1/2+x,1/2-y,1/2+z
loop_
_atom_site_type_symbol
_atom_site_label
_atom_site_fract_x
_atom_site_fract_y
_atom_site_fract_z
Si Si1 0.211940 0.070686 0.782720
Si Si2 0.688192 0.026034 0.446230
Si Si3 0.551098 0.649129 0.204233
Si Si4 0.515906 0.662623 0.074371
Si Si5 0.369567 0.164475 0.450951
Si Si6 0.505049 0.808736 0.744854
Si Si7 0.403349 0.537635 0.375768
Si Si8 0.111297 0.674516 0.805080
O O1 0.418835 0.037926 0.877239
O O2 0.372374 0.097588 0.764975
O O3 0.050907 0.177426 0.762729
O O4 0.009459 0.971014 0.723714
O O5 0.906082 0.947636 0.521437
O O6 0.810592 0.067050 0.416732
O O7 0.616605 0.125141 0.472670
O O8 0.404234 0.666241 0.111782
O O9 0.857175 0.654025 0.266292
O O10 0.488006 0.752757 0.228224
O O11 0.824882 0.661452 0.150297
O O12 0.451076 0.772465 0.025246
O O13 0.201156 0.248387 0.375952
O O14 0.200989 0.060264 0.434026
O O15 0.763112 0.878205 0.800702
O O16 0.342588 0.410009 0.344088
#
# Coordination Sequence:
#
# PCOD8054882 Si02
#       8
#     4   4   4   4   4   4   4   4
#     4  11  20  40  66  91 122 171 214 264 317 388
#     4  11  22  43  66  92 136 167 216 275 325 386
#     4  10  23  39  61  93 126 171 208 269 328 374
#     4  10  23  42  59  98 139 160 219 277 328 384
#     4  12  23  41  67  96 127 175 217 269 325 394
#     4  10  21  39  65  89 129 167 206 272 327 371
#     4  11  22  44  69  97 127 172 230 266 320 401
#     4  11  20  40  65  94 122 163 228 260 308 406
#
# _framework density 20.928258
#
# number of rings (size 3 to 8) (size 9 to 14) (size 15 to 20)
#    0.750    0.500    7.500    0.000    3.500    0.000 
#    6.750    1.250    0.000    0.000    0.000    0.000 
#    0.000    0.000    0.000    0.000    0.000    0.000 
#
# Total GULP energy -198215.852027 kJ/mol
# GULP energy per Si atom -12388.490752 kJ/mol
# Density = 2.088062 g / cm^3
# Si number density = 20.928258 Si / 1000 Ang^3
#
#
#
# Elastic Constant Matrix: (Units=GPa)
#
#
# Indices 1 2 3 4 5 6 
#
# 1 52.3149 33.1616 21.6954 0.0000 -3.3134 0.0000
# 2 33.1616 125.9319 34.9820 0.0000 -11.8434 0.0000
# 3 21.6954 34.9820 96.4703 0.0000 -19.4173 0.0000
# 4 0.0000 0.0000 0.0000 32.4998 0.0000 -2.7144
# 5 -3.3134 -11.8434 -19.4173 0.0000 24.3013 0.0000
# 6 0.0000 0.0000 0.0000 -2.7144 0.0000 36.7881
#
#
#
# Elastic Compliance Matrix: (Units=1/GPa)
#
#
# Indices 1 2 3 4 5 6 
#
# 1 0.024060 -0.005481 -0.003933 0.000000 -0.002534 0.000000
# 2 -0.005481 0.010168 -0.001915 0.000000 0.002678 0.000000
# 3 -0.003933 -0.001915 0.013882 0.000000 0.009622 0.000000
# 4 0.000000 0.000000 0.000000 0.030960 0.000000 0.002284
# 5 -0.002534 0.002678 0.009622 0.000000 0.049798 0.000000
# 6 0.000000 0.000000 0.000000 0.002284 0.000000 0.027351
#
#
# Mechanical properties :
#
#
# Convention : Reuss Voigt Hill
#
# Bulk Modulus (GPa) = 39.29309 50.48834 44.89071
# Shear Modulus (GPa) = 26.68619 31.04307 28.86463
#
# Velocity S-wave (km/s) = 3.57477 3.85555 3.71781
# Velocity P-wave (km/s) = 5.98786 6.63304 6.31869
#
# Compressibility (1/GPa) = 0.02544977
#
# Stress axis : x y z
#
# Youngs Moduli (GPa) = 41.56226 98.34630 72.03731
#
# Poissons Ratio (x) = 0.53908 0.28334
# Poissons Ratio (y) = 0.22782 0.13799
# Poissons Ratio (z) = 0.16347 0.18838
#
# Static dielectric constant tensor:
#      x y z
#    x 3.595470 0.000000 -0.133560 
#    y 0.000000 3.880550 0.000000 
#    z -0.133560 0.000000 3.644090 
# 
# 
# High freq. dielectric constant tensor:
#      x y z
#    x 1.799680 0.000000 -0.011160 
#    y 0.000000 1.828810 0.000000 
#    z -0.011160 0.000000 1.803430 
# 
# From -- ./inp_files/32478.got.cif
#   From: 2010.06.25/outbox.cif.g09.slc.cpg/sg9_17_cif.got.tgz:32478.got - 2010.06.27 21:40:51.
