data_PCOD8054323
_publ_section_title
;
Structure prediction by ZEFSAII (Michael W. Deem and Ramdas Pophale) SiO2 
 PCOD8054323
Probable space group: C C
;
_chemical_formula_sum "Si O2"
_cell_formula_units_Z 32
_cell_length_a 12.122559
_cell_length_b 26.183128
_cell_length_c 5.136053
_cell_angle_alpha 90.000000
_cell_angle_beta 102.387677
_cell_angle_gamma 90.000000
_cell_volume 1592.262692
_symmetry_space_group_name_H-M "C C"
_symmetry_group_IT_number 9
_symmetry_cell_setting 'monoclinic'
loop_
_space_group_symop_operation_xyz
x,y,z
x,-y,1/2+z
1/2+x,1/2+y,z
1/2+x,1/2-y,1/2+z
loop_
_atom_site_type_symbol
_atom_site_label
_atom_site_fract_x
_atom_site_fract_y
_atom_site_fract_z
Si Si1 0.404020 0.640221 0.680850
Si Si2 0.795130 0.178146 0.110774
Si Si3 0.087112 0.779738 0.295914
Si Si4 0.566888 0.136382 0.906658
Si Si5 0.460208 0.823554 0.827022
Si Si6 0.239392 0.779627 0.870688
Si Si7 0.388556 0.476814 0.108510
Si Si8 0.634459 0.978222 0.465271
O O1 0.348889 0.673584 0.422096
O O2 0.522973 0.666450 0.811759
O O3 0.406549 0.583058 0.573423
O O4 0.334514 0.636871 0.915603
O O5 0.821840 0.233273 0.000847
O O6 0.659855 0.175387 0.070644
O O7 0.999577 0.732592 0.249603
O O8 0.151475 0.790321 0.057017
O O9 0.173840 0.768226 0.571435
O O10 0.532525 0.153511 0.601394
O O11 0.468506 0.139296 0.075950
O O12 0.629717 0.082092 0.923504
O O13 0.329660 0.824361 0.855267
O O14 0.450641 0.494640 0.402608
O O15 0.259187 0.496823 0.067928
O O16 0.569621 0.006229 0.196490
#
# Coordination Sequence:
#
# PCOD8054323 Si02
#       8
#     4   4   4   4   4   4   4   4
#     4  12  24  37  64  91 127 173 204 253 327 386
#     4  12  21  35  59  90 123 166 212 245 311 365
#     4  12  24  42  59  90 125 171 220 257 305 376
#     4  12  23  37  61  92 127 173 202 250 329 384
#     4  12  24  40  59  90 126 171 219 255 307 386
#     4  12  25  41  59  85 128 170 208 271 288 361
#     4  10  20  37  55  87 126 153 195 253 314 383
#     4  10  19  35  56  85 126 153 194 252 311 383
#
# _framework density 20.097185
#
# number of rings (size 3 to 8) (size 9 to 14) (size 15 to 20)
#    0.000    0.500    3.750    7.500    1.750    0.000 
#    0.000    0.000    0.000    0.000    0.000   17.500 
#    0.000    0.000    0.000    0.000    0.000    0.000 
#
# Total GULP energy -198276.973771 kJ/mol
# GULP energy per Si atom -12392.310861 kJ/mol
# Density = 2.005144 g / cm^3
# Si number density = 20.097185 Si / 1000 Ang^3
#
#
#
# Elastic Constant Matrix: (Units=GPa)
#
#
# Indices 1 2 3 4 5 6 
#
# 1 59.8046 22.2536 15.0905 0.0000 -14.5384 0.0000
# 2 22.2536 87.1071 7.4641 0.0000 -0.4569 0.0000
# 3 15.0905 7.4641 106.2423 0.0000 -23.6708 0.0000
# 4 0.0000 0.0000 0.0000 33.5144 0.0000 0.0819
# 5 -14.5384 -0.4569 -23.6708 0.0000 30.3896 0.0000
# 6 0.0000 0.0000 0.0000 0.0819 0.0000 24.4306
#
#
#
# Elastic Compliance Matrix: (Units=1/GPa)
#
#
# Indices 1 2 3 4 5 6 
#
# 1 0.021173 -0.005317 -0.000478 0.000000 0.009677 0.000000
# 2 -0.005317 0.012893 -0.000816 0.000000 -0.002985 0.000000
# 3 -0.000478 -0.000816 0.011475 0.000000 0.008698 0.000000
# 4 0.000000 0.000000 0.000000 0.029838 0.000000 -0.000100
# 5 0.009677 -0.002985 0.008698 0.000000 0.044265 0.000000
# 6 0.000000 0.000000 0.000000 -0.000100 0.000000 0.040933
#
#
# Mechanical properties :
#
#
# Convention : Reuss Voigt Hill
#
# Bulk Modulus (GPa) = 30.94114 38.08561 34.51338
# Shear Modulus (GPa) = 27.08975 31.55663 29.32319
#
# Velocity S-wave (km/s) = 3.67541 3.96688 3.82392
# Velocity P-wave (km/s) = 5.78279 6.32245 6.05863
#
# Compressibility (1/GPa) = 0.03231943
#
# Stress axis : x y z
#
# Youngs Moduli (GPa) = 47.23047 77.56264 87.14286
#
# Poissons Ratio (x) = 0.41243 0.04163
# Poissons Ratio (y) = 0.25114 0.07108
# Poissons Ratio (z) = 0.02256 0.06326
#
# Static dielectric constant tensor:
#      x y z
#    x 3.544940 0.000000 -0.531560 
#    y 0.000000 3.496310 0.000000 
#    z -0.531560 0.000000 4.501170 
# 
# 
# High freq. dielectric constant tensor:
#      x y z
#    x 1.748660 0.000000 -0.032820 
#    y 0.000000 1.768460 0.000000 
#    z -0.032820 0.000000 1.811970 
# 
# From -- ./inp_files/1961.got.cif
#   From: 2010.06.25/outbox.cif.g09.slc.cpg/sg9_1_cif.got.tgz:1961.got - 2010.06.27 21:40:51.
