data_PCOD8054136
_publ_section_title
;
Structure prediction by ZEFSAII (Michael W. Deem and Ramdas Pophale) SiO2 
 PCOD8054136
Probable space group: C M
;
_chemical_formula_sum "Si O2"
_cell_formula_units_Z 28
_cell_length_a 9.794093
_cell_length_b 30.159899
_cell_length_c 4.867449
_cell_angle_alpha 90.000000
_cell_angle_beta 122.374171
_cell_angle_gamma 90.000000
_cell_volume 1214.313585
_symmetry_space_group_name_H-M "C M"
_symmetry_group_IT_number 8
_symmetry_cell_setting 'monoclinic'
loop_
_space_group_symop_operation_xyz
x,y,z
x,-y,z
1/2+x,1/2+y,z
1/2+x,1/2-y,z
loop_
_atom_site_type_symbol
_atom_site_label
_atom_site_fract_x
_atom_site_fract_y
_atom_site_fract_z
Si Si1 0.366431 0.500000 0.936471
Si Si2 0.587836 0.500000 0.689396
Si Si3 0.280157 0.595131 0.734814
Si Si4 0.765227 0.591615 0.911490
Si Si5 0.339511 0.729022 0.071193
Si Si6 0.447137 0.121506 0.628699
Si Si7 0.448510 0.365782 0.393563
Si Si8 0.467090 0.221494 0.690352
O O1 0.529176 0.500000 0.937619
O O2 0.257275 0.542149 0.729809
O O3 0.429820 0.500000 0.319589
O O4 0.695572 0.543300 0.776551
O O5 0.319847 0.614133 0.475736
O O6 0.123679 0.618971 0.688584
O O7 0.431013 0.606799 0.093140
O O8 0.923573 0.594521 0.886423
O O9 0.631434 0.628598 0.691655
O O10 0.816411 0.601470 0.277201
O O11 0.416193 0.685345 0.291820
O O12 0.355340 0.766940 0.313096
O O13 0.435731 0.744360 0.904545
O O14 0.153083 0.722808 0.795903
O O15 0.415041 0.171459 0.696575
#
# Coordination Sequence:
#
# PCOD8054136 Si02
#       8
#     2   2   4   4   4   4   4   4
#     4  12  22  44  74 106 142 190 254 294 346 426
#     4  12  24  46  70 110 148 184 246 304 350 420
#     4  12  24  46  74 104 140 195 238 298 357 420
#     4  12  26  45  75 106 145 194 236 296 362 433
#     4  12  28  47  75 103 144 184 241 299 358 432
#     4  12  28  47  71 105 152 186 237 303 369 425
#     4  12  25  47  73 104 139 194 241 285 362 436
#     4  12  28  49  70 106 141 186 237 304 360 427
#
# _framework density 23.058292000000002
#
# number of rings (size 3 to 8) (size 9 to 14) (size 15 to 20)
#    0.000    0.000    4.286    5.143    8.000    1.143 
#    0.000    0.000    0.000    0.000    0.000    0.000 
#    0.000    0.000    0.000    0.000    0.000    0.000 
#
# Total GULP energy -173617.500338 kJ/mol
# GULP energy per Si atom -12401.250024 kJ/mol
# Density = 2.300581 g / cm^3
# Si number density = 23.058292 Si / 1000 Ang^3
#
#
#
# Elastic Constant Matrix: (Units=GPa)
#
#
# Indices 1 2 3 4 5 6 
#
# 1 86.0395 27.9417 5.4655 0.0000 -10.2766 0.0000
# 2 27.9417 118.4893 18.9892 0.0000 0.7217 0.0000
# 3 5.4655 18.9892 70.0775 0.0000 -8.7532 0.0000
# 4 0.0000 0.0000 0.0000 64.9272 0.0000 -4.6664
# 5 -10.2766 0.7217 -8.7532 0.0000 31.3927 0.0000
# 6 0.0000 0.0000 0.0000 -4.6664 0.0000 36.6389
#
#
#
# Elastic Compliance Matrix: (Units=1/GPa)
#
#
# Indices 1 2 3 4 5 6 
#
# 1 0.013173 -0.003198 0.000401 0.000000 0.004498 0.000000
# 2 -0.003198 0.009624 -0.002608 0.000000 -0.001995 0.000000
# 3 0.000401 -0.002608 0.015509 0.000000 0.004516 0.000000
# 4 0.000000 0.000000 0.000000 0.015544 0.000000 0.001980
# 5 0.004498 -0.001995 0.004516 0.000000 0.034632 0.000000
# 6 0.000000 0.000000 0.000000 0.001980 0.000000 0.027546
#
#
# Mechanical properties :
#
#
# Convention : Reuss Voigt Hill
#
# Bulk Modulus (GPa) = 36.36808 42.15545 39.26176
# Shear Modulus (GPa) = 36.76411 41.40577 39.08494
#
# Velocity S-wave (km/s) = 3.99732 4.24217 4.12156
# Velocity P-wave (km/s) = 6.09190 6.50511 6.30189
#
# Compressibility (1/GPa) = 0.02749664
#
# Stress axis : x y z
#
# Youngs Moduli (GPa) = 75.91361 103.90933 64.47755
#
# Poissons Ratio (x) = 0.33231 -0.02585
# Poissons Ratio (y) = 0.24277 0.16813
# Poissons Ratio (z) = -0.03044 0.27095
#
# Static dielectric constant tensor:
#      x y z
#    x 4.102360 0.000000 -0.182870 
#    y 0.000000 4.328190 0.000000 
#    z -0.182870 0.000000 4.260080 
# 
# 
# High freq. dielectric constant tensor:
#      x y z
#    x 1.913930 0.000000 -0.011300 
#    y 0.000000 1.923900 0.000000 
#    z -0.011300 0.000000 1.919190 
# 
# From -- ./inp_files/2041.got.cif
#   From: 2010.03.12/outbox.cif.g09.slc.cpg/sg8_2_cif.got.tgz:2041.got - 2010.03.31 10:45:26.
