data_PCOD8054899
_publ_section_title
;
Structure prediction by ZEFSAII (Michael W. Deem and Ramdas Pophale) SiO2 
 PCOD8054899
Probable space group: C C
;
_chemical_formula_sum "Si O2"
_cell_formula_units_Z 28
_cell_length_a 13.494254
_cell_length_b 9.161085
_cell_length_c 10.424848
_cell_angle_alpha 90.000000
_cell_angle_beta 69.222321
_cell_angle_gamma 90.000000
_cell_volume 1204.926036
_symmetry_space_group_name_H-M "C C"
_symmetry_group_IT_number 9
_symmetry_cell_setting 'monoclinic'
loop_
_space_group_symop_operation_xyz
x,y,z
x,-y,1/2+z
1/2+x,1/2+y,z
1/2+x,1/2-y,1/2+z
loop_
_atom_site_type_symbol
_atom_site_label
_atom_site_fract_x
_atom_site_fract_y
_atom_site_fract_z
Si Si1 0.359470 0.181673 0.495310
Si Si2 0.901405 0.094497 0.182270
Si Si3 0.973762 0.399700 0.463324
Si Si4 0.270117 0.756420 0.429838
Si Si5 0.463502 0.716098 0.710738
Si Si6 0.103958 0.230410 0.212186
Si Si7 0.667628 0.584249 0.741180
O O1 0.365764 0.336258 0.564866
O O2 0.367785 0.217939 0.340416
O O3 0.248986 0.105553 0.585143
O O4 0.458535 0.073913 0.484210
O O5 0.811951 0.115706 0.332903
O O6 0.005656 0.180943 0.173073
O O7 0.921276 0.923700 0.151352
O O8 0.866464 0.339696 0.451256
O O9 0.997665 0.337074 0.593090
O O10 0.072816 0.357185 0.327095
O O11 0.191019 0.701708 0.576542
O O12 0.213853 0.865856 0.355801
O O13 0.560332 0.672297 0.759067
O O14 0.147003 0.087959 0.266839
#
# Coordination Sequence:
#
# PCOD8054899 Si02
#       7
#     4   4   4   4   4   4   4
#     4  11  24  46  70 100 142 181 232 287 345 413
#     4   9  23  42  69  96 133 180 228 281 342 404
#     4  11  26  39  68 106 134 177 232 287 344 400
#     4  10  21  42  69  96 134 180 230 278 336 413
#     4  11  26  45  70 102 137 181 232 285 346 411
#     4  10  21  39  69  94 135 177 232 274 334 412
#     4  10  23  43  73  96 129 192 232 272 349 419
#
# _framework density 23.237939999999998
#
# number of rings (size 3 to 8) (size 9 to 14) (size 15 to 20)
#    0.000    1.714    1.429    0.857   16.000    1.143 
#    2.571    2.857    0.000    0.000    0.000    0.000 
#    0.000    0.000    0.000    0.000    0.000    0.000 
#
# Total GULP energy -173620.157665 kJ/mol
# GULP energy per Si atom -12401.439833 kJ/mol
# Density = 2.318505 g / cm^3
# Si number density = 23.237940 Si / 1000 Ang^3
#
#
#
# Elastic Constant Matrix: (Units=GPa)
#
#
# Indices 1 2 3 4 5 6 
#
# 1 57.3674 2.5487 22.8967 0.0000 -8.0896 0.0000
# 2 2.5487 75.8779 24.0366 0.0000 -9.0031 0.0000
# 3 22.8967 24.0366 164.3032 0.0000 -24.6196 0.0000
# 4 0.0000 0.0000 0.0000 32.6988 0.0000 -6.4280
# 5 -8.0896 -9.0031 -24.6196 0.0000 35.4904 0.0000
# 6 0.0000 0.0000 0.0000 -6.4280 0.0000 19.7956
#
#
#
# Elastic Compliance Matrix: (Units=1/GPa)
#
#
# Indices 1 2 3 4 5 6 
#
# 1 0.018706 0.000417 -0.002247 0.000000 0.002811 0.000000
# 2 0.000417 0.014006 -0.001742 0.000000 0.002440 0.000000
# 3 -0.002247 -0.001742 0.007267 0.000000 0.004087 0.000000
# 4 0.000000 0.000000 0.000000 0.032668 0.000000 0.010608
# 5 0.002811 0.002440 0.004087 0.000000 0.032271 0.000000
# 6 0.000000 0.000000 0.000000 0.010608 0.000000 0.053961
#
#
# Mechanical properties :
#
#
# Convention : Reuss Voigt Hill
#
# Bulk Modulus (GPa) = 30.45393 44.05692 37.25542
# Shear Modulus (GPa) = 28.25391 34.13472 31.19431
#
# Velocity S-wave (km/s) = 3.49069 3.83681 3.66784
# Velocity P-wave (km/s) = 5.42036 6.21517 5.83132
#
# Compressibility (1/GPa) = 0.03283649
#
# Stress axis : x y z
#
# Youngs Moduli (GPa) = 53.45862 71.39667 137.61690
#
# Poissons Ratio (x) = -0.02977 0.30917
# Poissons Ratio (y) = -0.02229 0.23966
# Poissons Ratio (z) = 0.12010 0.12434
#
# Static dielectric constant tensor:
#      x y z
#    x 4.043000 0.000000 -0.284060 
#    y 0.000000 4.130010 0.000000 
#    z -0.284060 0.000000 4.327690 
# 
# 
# High freq. dielectric constant tensor:
#      x y z
#    x 1.904200 0.000000 -0.007160 
#    y 0.000000 1.909330 0.000000 
#    z -0.007160 0.000000 1.933920 
# 
# From -- ./inp_files/17696.got.cif
#   From: 2010.06.25/outbox.cif.g09.slc.cpg/sg9_9_cif.got.tgz:17696.got - 2010.06.27 21:40:51.
