data_PCOD8054253
_publ_section_title
;
Structure prediction by ZEFSAII (Michael W. Deem and Ramdas Pophale) SiO2 
 PCOD8054253
Probable space group: C C
;
_chemical_formula_sum "Si O2"
_cell_formula_units_Z 32
_cell_length_a 12.856987
_cell_length_b 19.163180
_cell_length_c 8.245518
_cell_angle_alpha 90.000000
_cell_angle_beta 126.815053
_cell_angle_gamma 90.000000
_cell_volume 1626.395599
_symmetry_space_group_name_H-M "C C"
_symmetry_group_IT_number 9
_symmetry_cell_setting 'monoclinic'
loop_
_space_group_symop_operation_xyz
x,y,z
x,-y,1/2+z
1/2+x,1/2+y,z
1/2+x,1/2-y,1/2+z
loop_
_atom_site_type_symbol
_atom_site_label
_atom_site_fract_x
_atom_site_fract_y
_atom_site_fract_z
Si Si1 0.388250 0.271201 0.463820
Si Si2 0.539740 0.599942 0.053976
Si Si3 0.124204 0.272334 0.413392
Si Si4 0.290918 0.154694 0.156854
Si Si5 0.980356 0.601347 0.888777
Si Si6 0.714294 0.651792 0.711636
Si Si7 0.400464 0.974715 0.634253
Si Si8 0.621159 0.526515 0.433918
O O1 0.418795 0.347868 0.419306
O O2 0.258905 0.276922 0.446670
O O3 0.507529 0.243944 0.682484
O O4 0.372041 0.221125 0.292575
O O5 0.671672 0.645491 0.168923
O O6 0.530383 0.566804 0.223282
O O7 0.540571 0.540903 0.916730
O O8 0.128752 0.214108 0.558500
O O9 0.102182 0.347231 0.481376
O O10 0.383119 0.085857 0.254752
O O11 0.235673 0.163871 0.922672
O O12 0.852311 0.649445 0.746410
O O13 0.991668 0.538756 0.769865
O O14 0.969953 0.562563 0.050201
O O15 0.646968 0.576728 0.613464
O O16 0.254445 0.003967 0.466611
#
# Coordination Sequence:
#
# PCOD8054253 Si02
#       8
#     4   4   4   4   4   4   4   4
#     4  12  24  43  63  92 127 168 207 255 315 376
#     4  11  21  38  63  93 125 162 213 255 313 360
#     4  12  24  42  65  90 127 167 206 254 316 375
#     4  10  21  37  64  96 123 160 212 265 305 361
#     4  10  21  36  62  90 122 160 207 253 311 356
#     4  10  20  39  64  97 121 160 213 263 306 365
#     4   9  19  35  61  95 121 156 209 260 300 361
#     4  10  18  36  64  95 124 161 207 265 302 368
#
# _framework density 19.675409999999999
#
# number of rings (size 3 to 8) (size 9 to 14) (size 15 to 20)
#    0.000    1.500    3.750    3.750    3.500    2.000 
#    0.000    1.250    0.000    0.000    0.000    0.000 
#    0.000    0.000    0.000    0.000    0.000    0.000 
#
# Total GULP energy -198331.364760 kJ/mol
# GULP energy per Si atom -12395.710298 kJ/mol
# Density = 1.963063 g / cm^3
# Si number density = 19.675410 Si / 1000 Ang^3
#
#
#
# Elastic Constant Matrix: (Units=GPa)
#
#
# Indices 1 2 3 4 5 6 
#
# 1 78.1367 55.0252 35.2006 0.0000 1.3391 0.0000
# 2 55.0252 160.4892 58.2811 0.0000 -1.4467 0.0000
# 3 35.2006 58.2811 84.5030 0.0000 -9.4263 0.0000
# 4 0.0000 0.0000 0.0000 43.7944 0.0000 4.0307
# 5 1.3391 -1.4467 -9.4263 0.0000 19.5753 0.0000
# 6 0.0000 0.0000 0.0000 4.0307 0.0000 41.5319
#
#
#
# Elastic Compliance Matrix: (Units=1/GPa)
#
#
# Indices 1 2 3 4 5 6 
#
# 1 0.018264 -0.004502 -0.004945 0.000000 -0.003964 0.000000
# 2 -0.004502 0.009519 -0.004837 0.000000 -0.001318 0.000000
# 3 -0.004945 -0.004837 0.018206 0.000000 0.008748 0.000000
# 4 0.000000 0.000000 0.000000 0.023040 0.000000 -0.002236
# 5 -0.003964 -0.001318 0.008748 0.000000 0.055471 0.000000
# 6 0.000000 0.000000 0.000000 -0.002236 0.000000 0.024295
#
#
# Mechanical properties :
#
#
# Convention : Reuss Voigt Hill
#
# Bulk Modulus (GPa) = 57.40303 68.90473 63.15388
# Shear Modulus (GPa) = 27.29709 32.62181 29.95945
#
# Velocity S-wave (km/s) = 3.72878 4.07627 3.90639
# Velocity P-wave (km/s) = 6.91208 7.56647 7.24666
#
# Compressibility (1/GPa) = 0.01742068
#
# Stress axis : x y z
#
# Youngs Moduli (GPa) = 54.75196 105.05194 54.92776
#
# Poissons Ratio (x) = 0.47293 0.27164
# Poissons Ratio (y) = 0.24649 0.26568
# Poissons Ratio (z) = 0.27077 0.50813
#
# Static dielectric constant tensor:
#      x y z
#    x 3.399870 0.000000 -0.080500 
#    y 0.000000 4.004330 0.000000 
#    z -0.080500 0.000000 3.349350 
# 
# 
# High freq. dielectric constant tensor:
#      x y z
#    x 1.741870 0.000000 -0.027810 
#    y 0.000000 1.789180 0.000000 
#    z -0.027810 0.000000 1.742030 
# 
# From -- ./inp_files/8047.got.cif
#   From: 2010.06.25/outbox.cif.g09.slc.cpg/sg9_5_cif.got.tgz:8047.got - 2010.06.27 21:40:51.
