data_PCOD8054932
_publ_section_title
;
Structure prediction by ZEFSAII (Michael W. Deem and Ramdas Pophale) SiO2 
 PCOD8054932
Probable space group: C C
;
_chemical_formula_sum "Si O2"
_cell_formula_units_Z 32
_cell_length_a 12.671249
_cell_length_b 9.998695
_cell_length_c 12.323355
_cell_angle_alpha 90.000000
_cell_angle_beta 95.298826
_cell_angle_gamma 90.000000
_cell_volume 1554.647062
_symmetry_space_group_name_H-M "C C"
_symmetry_group_IT_number 9
_symmetry_cell_setting 'monoclinic'
loop_
_space_group_symop_operation_xyz
x,y,z
x,-y,1/2+z
1/2+x,1/2+y,z
1/2+x,1/2-y,1/2+z
loop_
_atom_site_type_symbol
_atom_site_label
_atom_site_fract_x
_atom_site_fract_y
_atom_site_fract_z
Si Si1 0.272850 0.415949 0.304180
Si Si2 0.184538 0.330570 0.520045
Si Si3 0.729525 0.449038 0.984686
Si Si4 0.390274 0.063991 0.684690
Si Si5 0.126291 0.770642 0.422522
Si Si6 0.602644 0.080693 0.604838
Si Si7 0.786001 0.803436 0.756416
Si Si8 0.900739 0.329093 0.836277
O O1 0.247218 0.396382 0.427242
O O2 0.166796 0.428391 0.222769
O O3 0.337687 0.556098 0.299915
O O4 0.341505 0.291684 0.268929
O O5 0.148493 0.178725 0.486787
O O6 0.092792 0.433823 0.546296
O O7 0.266071 0.315832 0.626518
O O8 0.786311 0.477112 0.105529
O O9 0.657347 0.574056 0.942649
O O10 0.821638 0.408866 0.908823
O O11 0.482615 0.124212 0.617620
O O12 0.363910 0.176327 0.774169
O O13 0.437302 0.934124 0.748966
O O14 0.162211 0.685737 0.531386
O O15 0.180770 0.720244 0.317782
O O16 0.001034 0.740353 0.403358
#
# Coordination Sequence:
#
# PCOD8054932 Si02
#       8
#     4   4   4   4   4   4   4   4
#     4  10  21  41  62  92 130 170 216 282 328 394
#     4   9  20  39  65  87 127 171 213 272 328 385
#     4  10  22  41  64  93 132 170 220 279 328 397
#     4  11  22  41  64  97 130 173 219 270 338 404
#     4  12  22  42  65  98 127 175 219 276 338 401
#     4  11  22  38  68  94 126 172 222 271 342 404
#     4  10  21  40  65  93 130 169 217 275 327 396
#     4  11  22  40  63  92 134 170 218 275 333 397
#
# _framework density 20.583449999999999
#
# number of rings (size 3 to 8) (size 9 to 14) (size 15 to 20)
#    0.000    1.500    3.750    2.250    0.000    0.000 
#    4.500    1.250    0.000    0.000    0.000    0.000 
#    0.000    0.000    0.000    0.000    0.000    0.000 
#
# Total GULP energy -198259.868183 kJ/mol
# GULP energy per Si atom -12391.241761 kJ/mol
# Density = 2.053660 g / cm^3
# Si number density = 20.583450 Si / 1000 Ang^3
#
#
#
# Elastic Constant Matrix: (Units=GPa)
#
#
# Indices 1 2 3 4 5 6 
#
# 1 77.9195 56.2763 26.5606 0.0000 -11.3048 0.0000
# 2 56.2763 184.7165 59.0725 0.0000 -4.6143 0.0000
# 3 26.5606 59.0725 98.6508 0.0000 -9.9458 0.0000
# 4 0.0000 0.0000 0.0000 39.1851 0.0000 -0.4742
# 5 -11.3048 -4.6143 -9.9458 0.0000 24.9070 0.0000
# 6 0.0000 0.0000 0.0000 -0.4742 0.0000 30.9098
#
#
#
# Elastic Compliance Matrix: (Units=1/GPa)
#
#
# Indices 1 2 3 4 5 6 
#
# 1 0.017708 -0.004847 -0.001194 0.000000 0.006663 0.000000
# 2 -0.004847 0.008026 -0.003723 0.000000 -0.002200 0.000000
# 3 -0.001194 -0.003723 0.013090 0.000000 0.003996 0.000000
# 4 0.000000 0.000000 0.000000 0.025525 0.000000 0.000392
# 5 0.006663 -0.002200 0.003996 0.000000 0.044362 0.000000
# 6 0.000000 0.000000 0.000000 0.000392 0.000000 0.032358
#
#
# Mechanical properties :
#
#
# Convention : Reuss Voigt Hill
#
# Bulk Modulus (GPa) = 51.82000 71.67838 61.74919
# Shear Modulus (GPa) = 29.93527 33.62555 31.78041
#
# Velocity S-wave (km/s) = 3.81771 4.04619 3.93361
# Velocity P-wave (km/s) = 6.68307 7.53179 7.12009
#
# Compressibility (1/GPa) = 0.01929757
#
# Stress axis : x y z
#
# Youngs Moduli (GPa) = 56.47240 124.59624 76.39305
#
# Poissons Ratio (x) = 0.60388 0.09119
# Poissons Ratio (y) = 0.27371 0.28439
# Poissons Ratio (z) = 0.06741 0.46384
#
# Static dielectric constant tensor:
#      x y z
#    x 3.281510 0.000000 -0.141560 
#    y 0.000000 4.321790 0.000000 
#    z -0.141560 0.000000 3.784940 
# 
# 
# High freq. dielectric constant tensor:
#      x y z
#    x 1.763290 0.000000 -0.013260 
#    y 0.000000 1.827540 0.000000 
#    z -0.013260 0.000000 1.815020 
# 
# From -- ./inp_files/17780.got.cif
#   From: 2010.06.25/outbox.cif.g09.slc.cpg/sg9_9_cif.got.tgz:17780.got - 2010.06.27 21:40:51.
