data_PCOD8054353
_publ_section_title
;
Structure prediction by ZEFSAII (Michael W. Deem and Ramdas Pophale) SiO2 
 PCOD8054353
Probable space group: C C
;
_chemical_formula_sum "Si O2"
_cell_formula_units_Z 32
_cell_length_a 17.289611
_cell_length_b 16.626661
_cell_length_c 5.153876
_cell_angle_alpha 90.000000
_cell_angle_beta 72.573056
_cell_angle_gamma 90.000000
_cell_volume 1413.572024
_symmetry_space_group_name_H-M "C C"
_symmetry_group_IT_number 9
_symmetry_cell_setting 'monoclinic'
loop_
_space_group_symop_operation_xyz
x,y,z
x,-y,1/2+z
1/2+x,1/2+y,z
1/2+x,1/2-y,1/2+z
loop_
_atom_site_type_symbol
_atom_site_label
_atom_site_fract_x
_atom_site_fract_y
_atom_site_fract_z
Si Si1 0.022150 0.214076 0.537940
Si Si2 0.256030 0.781314 0.454372
Si Si3 0.612226 0.045325 0.252142
Si Si4 0.015235 0.029127 0.565691
Si Si5 0.304296 0.547568 0.042208
Si Si6 0.844830 0.771092 0.382531
Si Si7 0.095501 0.716021 0.450683
Si Si8 0.193874 0.959825 0.471829
O O1 0.025364 0.120173 0.468285
O O2 0.084191 0.225310 0.714821
O O3 0.936126 0.248831 0.712478
O O4 0.043670 0.260308 0.253448
O O5 0.286890 0.757676 0.707587
O O6 0.189893 0.715183 0.435875
O O7 0.209499 0.866308 0.508506
O O8 0.325806 0.778681 0.165102
O O9 0.708016 0.055802 0.148184
O O10 0.569799 0.128147 0.377934
O O11 0.583452 0.979481 0.493465
O O12 0.967146 0.020716 0.888302
O O13 0.098042 0.981581 0.569483
O O14 0.334082 0.513695 0.288410
O O15 0.340714 0.634401 0.940950
O O16 0.234925 0.010520 0.664531
#
# Coordination Sequence:
#
# PCOD8054353 Si02
#       8
#     4   4   4   4   4   4   4   4
#     4  12  26  42  66  97 141 175 218 273 347 413
#     4  12  24  41  70  96 133 177 229 276 327 401
#     4  10  21  37  63  95 122 156 216 281 324 375
#     4  10  20  37  60  91 129 167 210 261 322 394
#     4  10  21  38  62  92 131 169 212 260 317 399
#     4  12  26  43  62 100 140 183 212 269 345 412
#     4  12  23  42  68  97 124 174 227 281 328 387
#     4  10  19  36  61  94 124 157 216 277 322 369
#
# _framework density 22.637689000000002
#
# number of rings (size 3 to 8) (size 9 to 14) (size 15 to 20)
#    0.000    1.000    1.250    7.500    3.500    1.000 
#    0.000    0.000    0.000   15.000    0.000    0.000 
#    0.000    0.000    0.000    0.000    0.000    0.000 
#
# Total GULP energy -198389.888416 kJ/mol
# GULP energy per Si atom -12399.368026 kJ/mol
# Density = 2.258616 g / cm^3
# Si number density = 22.637689 Si / 1000 Ang^3
#
#
#
# Elastic Constant Matrix: (Units=GPa)
#
#
# Indices 1 2 3 4 5 6 
#
# 1 39.9372 15.4596 21.2454 0.0000 10.4784 0.0000
# 2 15.4596 80.9336 39.6170 0.0000 -3.0762 0.0000
# 3 21.2454 39.6170 167.4609 0.0000 14.6651 0.0000
# 4 0.0000 0.0000 0.0000 50.7101 0.0000 5.2268
# 5 10.4784 -3.0762 14.6651 0.0000 41.3009 0.0000
# 6 0.0000 0.0000 0.0000 5.2268 0.0000 20.9801
#
#
#
# Elastic Compliance Matrix: (Units=1/GPa)
#
#
# Indices 1 2 3 4 5 6 
#
# 1 0.029944 -0.005031 -0.001972 0.000000 -0.007271 0.000000
# 2 -0.005031 0.015032 -0.003228 0.000000 0.003542 0.000000
# 3 -0.001972 -0.003228 0.007186 0.000000 -0.002292 0.000000
# 4 0.000000 0.000000 0.000000 0.020240 0.000000 -0.005042
# 5 -0.007271 0.003542 -0.002292 0.000000 0.027135 0.000000
# 6 0.000000 0.000000 0.000000 -0.005042 0.000000 0.048920
#
#
# Mechanical properties :
#
#
# Convention : Reuss Voigt Hill
#
# Bulk Modulus (GPa) = 31.54614 48.99731 40.27173
# Shear Modulus (GPa) = 27.85761 36.73221 32.29491
#
# Velocity S-wave (km/s) = 3.51178 4.03254 3.78113
# Velocity P-wave (km/s) = 5.51443 6.58581 6.07379
#
# Compressibility (1/GPa) = 0.03169960
#
# Stress axis : x y z
#
# Youngs Moduli (GPa) = 33.39621 66.52684 139.15794
#
# Poissons Ratio (x) = 0.33468 0.27441
# Poissons Ratio (y) = 0.16801 0.44920
# Poissons Ratio (z) = 0.06585 0.21475
#
# Static dielectric constant tensor:
#      x y z
#    x 3.863380 0.000000 0.208430 
#    y 0.000000 3.923570 0.000000 
#    z 0.208430 0.000000 4.896070 
# 
# 
# High freq. dielectric constant tensor:
#      x y z
#    x 1.866450 0.000000 0.012680 
#    y 0.000000 1.888800 0.000000 
#    z 0.012680 0.000000 1.930970 
# 
# From -- ./inp_files/2918.got.cif
#   From: 2010.06.25/outbox.cif.g09.slc.cpg/sg9_2_cif.got.tgz:2918.got - 2010.06.27 21:40:51.
