data_PCOD8054699
_publ_section_title
;
Structure prediction by ZEFSAII (Michael W. Deem and Ramdas Pophale) SiO2 
 PCOD8054699
Probable space group: C C
;
_chemical_formula_sum "Si O2"
_cell_formula_units_Z 32
_cell_length_a 5.893405
_cell_length_b 17.677828
_cell_length_c 14.494393
_cell_angle_alpha 90.000000
_cell_angle_beta 86.607221
_cell_angle_gamma 90.000000
_cell_volume 1507.416850
_symmetry_space_group_name_H-M "C C"
_symmetry_group_IT_number 9
_symmetry_cell_setting 'monoclinic'
loop_
_space_group_symop_operation_xyz
x,y,z
x,-y,1/2+z
1/2+x,1/2+y,z
1/2+x,1/2-y,1/2+z
loop_
_atom_site_type_symbol
_atom_site_label
_atom_site_fract_x
_atom_site_fract_y
_atom_site_fract_z
Si Si1 0.382080 0.828682 0.375000
Si Si2 0.354700 0.993228 0.394024
Si Si3 0.784688 0.270593 0.800277
Si Si4 0.925300 0.410511 0.073497
Si Si5 0.651186 0.816980 0.931894
Si Si6 0.567467 0.650124 0.711681
Si Si7 0.208106 0.520809 0.726841
Si Si8 0.994613 0.091990 0.301198
O O1 0.353876 0.906723 0.431703
O O2 0.634463 0.796905 0.348953
O O3 0.246440 0.767361 0.437081
O O4 0.272419 0.850295 0.279335
O O5 0.572308 0.996086 0.323151
O O6 0.377508 0.044063 0.482611
O O7 0.136787 0.022854 0.342600
O O8 0.637999 0.337382 0.756746
O O9 0.921861 0.314187 0.876888
O O10 0.953315 0.233956 0.719492
O O11 0.689266 0.372233 0.112881
O O12 0.041276 0.466412 0.144669
O O13 0.096897 0.343586 0.037970
O O14 0.829440 0.874454 0.882986
O O15 0.367195 0.592549 0.738898
O O16 0.363498 0.444813 0.715917
#
# Coordination Sequence:
#
# PCOD8054699 Si02
#       8
#     4   4   4   4   4   4   4   4
#     4  10  21  42  72  94 132 181 228 283 355 413
#     4  12  23  44  71 102 136 183 234 291 354 423
#     4  10  20  41  70  96 130 179 233 281 350 426
#     4  12  25  40  71 102 139 183 245 284 351 419
#     4  10  23  40  71  98 131 181 228 285 351 421
#     4  11  22  40  71  97 137 183 233 287 352 417
#     4  12  23  42  69 102 140 185 235 291 355 418
#     4  11  21  41  73  97 133 183 234 284 356 415
#
# _framework density 21.228369000000001
#
# number of rings (size 3 to 8) (size 9 to 14) (size 15 to 20)
#    0.000    1.000    6.250    0.000    1.750    0.000 
#    0.000    0.000   52.250    0.000    0.000    0.000 
#    0.000    0.000    0.000    0.000    0.000    0.000 
#
# Total GULP energy -198260.545316 kJ/mol
# GULP energy per Si atom -12391.284082 kJ/mol
# Density = 2.118005 g / cm^3
# Si number density = 21.228369 Si / 1000 Ang^3
#
#
#
# Elastic Constant Matrix: (Units=GPa)
#
#
# Indices 1 2 3 4 5 6 
#
# 1 102.8038 44.3879 35.0958 0.0000 -7.5093 0.0000
# 2 44.3879 126.9720 45.7814 0.0000 -10.9701 0.0000
# 3 35.0958 45.7814 94.5522 0.0000 -13.2315 0.0000
# 4 0.0000 0.0000 0.0000 36.3219 0.0000 1.3935
# 5 -7.5093 -10.9701 -13.2315 0.0000 18.9012 0.0000
# 6 0.0000 0.0000 0.0000 1.3935 0.0000 37.4261
#
#
#
# Elastic Compliance Matrix: (Units=1/GPa)
#
#
# Indices 1 2 3 4 5 6 
#
# 1 0.012121 -0.003124 -0.002845 0.000000 0.001011 0.000000
# 2 -0.003124 0.010459 -0.003579 0.000000 0.002323 0.000000
# 3 -0.002845 -0.003579 0.014319 0.000000 0.006816 0.000000
# 4 0.000000 0.000000 0.000000 0.027571 0.000000 -0.001027
# 5 0.001011 0.002323 0.006816 0.000000 0.059428 0.000000
# 6 0.000000 0.000000 0.000000 -0.001027 0.000000 0.026758
#
#
# Mechanical properties :
#
#
# Convention : Reuss Voigt Hill
#
# Bulk Modulus (GPa) = 56.17270 63.87313 60.02292
# Shear Modulus (GPa) = 28.45949 31.80071 30.13010
#
# Velocity S-wave (km/s) = 3.66544 3.87464 3.77149
# Velocity P-wave (km/s) = 6.66577 7.08315 6.87763
#
# Compressibility (1/GPa) = 0.01780224
#
# Stress axis : x y z
#
# Youngs Moduli (GPa) = 82.49908 95.60809 69.83654
#
# Poissons Ratio (x) = 0.29871 0.19868
# Poissons Ratio (y) = 0.25776 0.24998
# Poissons Ratio (z) = 0.23471 0.34223
#
# Static dielectric constant tensor:
#      x y z
#    x 4.197630 0.000000 -0.072670 
#    y 0.000000 4.411100 0.000000 
#    z -0.072670 0.000000 3.463880 
# 
# 
# High freq. dielectric constant tensor:
#      x y z
#    x 1.854650 0.000000 -0.004760 
#    y 0.000000 1.854790 0.000000 
#    z -0.004760 0.000000 1.783150 
# 
# From -- ./inp_files/21946.got.cif
#   From: 2010.06.25/outbox.cif.g09.slc.cpg/sg9_11_cif.got.tgz:21946.got - 2010.06.27 21:40:51.
