data_PCOD8054824
_publ_section_title
;
Structure prediction by ZEFSAII (Michael W. Deem and Ramdas Pophale) SiO2 
 PCOD8054824
Probable space group: C C
;
_chemical_formula_sum "Si O2"
_cell_formula_units_Z 28
_cell_length_a 8.788930
_cell_length_b 12.071155
_cell_length_c 16.180468
_cell_angle_alpha 90.000000
_cell_angle_beta 57.099539
_cell_angle_gamma 90.000000
_cell_volume 1441.306534
_symmetry_space_group_name_H-M "C C"
_symmetry_group_IT_number 9
_symmetry_cell_setting 'monoclinic'
loop_
_space_group_symop_operation_xyz
x,y,z
x,-y,1/2+z
1/2+x,1/2+y,z
1/2+x,1/2-y,1/2+z
loop_
_atom_site_type_symbol
_atom_site_label
_atom_site_fract_x
_atom_site_fract_y
_atom_site_fract_z
Si Si1 0.334260 0.803002 0.949170
Si Si2 0.611432 0.302959 0.171957
Si Si3 0.451289 0.865214 0.174048
Si Si4 0.678293 0.865186 0.947151
Si Si5 0.858578 0.602912 0.270010
Si Si6 0.042956 0.250096 0.310643
Si Si7 0.277570 0.602863 0.851154
O O1 0.529686 0.806212 0.934182
O O2 0.320518 0.892407 0.879608
O O3 0.307008 0.679032 0.923016
O O4 0.177136 0.832516 0.060564
O O5 0.776896 0.306097 0.186943
O O6 0.531825 0.178996 0.198091
O O7 0.458588 0.392376 0.241518
O O8 0.534016 0.783975 0.217706
O O9 0.393841 0.978993 0.233375
O O10 0.603010 0.888705 0.060604
O O11 0.848146 0.783792 0.903592
O O12 0.739900 0.978932 0.887770
O O13 0.682607 0.647887 0.273798
O O14 0.108985 0.352302 0.347466
#
# Coordination Sequence:
#
# PCOD8054824 Si02
#       7
#     4   4   4   4   4   4   4
#     4   9  19  36  57  81 111 147 184 224 271 324
#     4   9  19  36  57  81 111 147 184 224 271 324
#     4  11  22  37  58  82 111 146 183 225 275 326
#     4  11  22  37  58  82 111 146 183 225 275 326
#     4  10  21  38  59  80 112 147 182 227 271 324
#     4  10  22  36  56  86 112 140 184 230 270 322
#     4  10  21  38  59  80 112 147 182 227 271 324
#
# _framework density 19.426818000000001
#
# number of rings (size 3 to 8) (size 9 to 14) (size 15 to 20)
#    0.000    2.286    0.000    4.286    0.000    5.714 
#    0.000    1.429    0.000    5.143    0.000    0.000 
#    0.000    0.000    0.000    0.000    0.000    0.000 
#
# Total GULP energy -173629.601208 kJ/mol
# GULP energy per Si atom -12402.114372 kJ/mol
# Density = 1.938260 g / cm^3
# Si number density = 19.426818 Si / 1000 Ang^3
#
#
#
# Elastic Constant Matrix: (Units=GPa)
#
#
# Indices 1 2 3 4 5 6 
#
# 1 133.3137 42.8170 74.9773 0.0000 -0.5133 0.0000
# 2 42.8170 45.5243 44.0567 0.0000 -0.0698 0.0000
# 3 74.9773 44.0567 155.5627 0.0000 -0.7117 0.0000
# 4 0.0000 0.0000 0.0000 24.1094 0.0000 -0.2666
# 5 -0.5133 -0.0698 -0.7117 0.0000 33.9742 0.0000
# 6 0.0000 0.0000 0.0000 -0.2666 0.0000 19.3609
#
#
#
# Elastic Compliance Matrix: (Units=1/GPa)
#
#
# Indices 1 2 3 4 5 6 
#
# 1 0.012037 -0.007861 -0.003575 0.000000 0.000091 0.000000
# 2 -0.007861 0.035395 -0.006236 0.000000 -0.000177 0.000000
# 3 -0.003575 -0.006236 0.009918 0.000000 0.000141 0.000000
# 4 0.000000 0.000000 0.000000 0.041484 0.000000 0.000571
# 5 0.000091 -0.000177 0.000141 0.000000 0.029438 0.000000
# 6 0.000000 0.000000 0.000000 0.000571 0.000000 0.051658
#
#
# Mechanical properties :
#
#
# Convention : Reuss Voigt Hill
#
# Bulk Modulus (GPa) = 45.44305 73.12253 59.28279
# Shear Modulus (GPa) = 22.46092 26.99220 24.72656
#
# Velocity S-wave (km/s) = 3.40396 3.73155 3.57151
# Velocity P-wave (km/s) = 6.23634 7.50251 6.89853
#
# Compressibility (1/GPa) = 0.02200556
#
# Stress axis : x y z
#
# Youngs Moduli (GPa) = 83.07893 28.25268 100.82847
#
# Poissons Ratio (x) = 0.22211 0.36042
# Poissons Ratio (y) = 0.65312 0.62876
# Poissons Ratio (z) = 0.29697 0.17618
#
# Static dielectric constant tensor:
#      x y z
#    x 3.721680 0.000000 -0.004850 
#    y 0.000000 3.282100 0.000000 
#    z -0.004850 0.000000 3.809720 
# 
# 
# High freq. dielectric constant tensor:
#      x y z
#    x 1.771620 0.000000 0.000330 
#    y 0.000000 1.742570 0.000000 
#    z 0.000330 0.000000 1.765660 
# 
# From -- ./inp_files/22585.got.cif
#   From: 2010.06.25/outbox.cif.g09.slc.cpg/sg9_12_cif.got.tgz:22585.got - 2010.06.27 21:40:51.
