data_PCOD8054290
_publ_section_title
;
Structure prediction by ZEFSAII (Michael W. Deem and Ramdas Pophale) SiO2 
 PCOD8054290
Probable space group: C C
;
_chemical_formula_sum "Si O2"
_cell_formula_units_Z 32
_cell_length_a 22.873761
_cell_length_b 7.809759
_cell_length_c 15.562324
_cell_angle_alpha 90.000000
_cell_angle_beta 33.111112
_cell_angle_gamma 90.000000
_cell_volume 1518.632107
_symmetry_space_group_name_H-M "C C"
_symmetry_group_IT_number 9
_symmetry_cell_setting 'monoclinic'
loop_
_space_group_symop_operation_xyz
x,y,z
x,-y,1/2+z
1/2+x,1/2+y,z
1/2+x,1/2-y,1/2+z
loop_
_atom_site_type_symbol
_atom_site_label
_atom_site_fract_x
_atom_site_fract_y
_atom_site_fract_z
Si Si1 0.221700 0.478017 0.524140
Si Si2 0.026398 0.283402 0.709982
Si Si3 0.133004 0.495286 0.809517
Si Si4 0.036704 0.851899 0.951172
Si Si5 0.249802 0.331367 0.820433
Si Si6 0.865536 0.714397 0.272225
Si Si7 0.974295 0.804984 0.454374
Si Si8 0.174555 0.034032 0.429532
O O1 0.100555 0.439342 0.646229
O O2 0.221070 0.531094 0.625336
O O3 0.267407 0.610058 0.397499
O O4 0.290442 0.306628 0.433586
O O5 0.951977 0.229127 0.881478
O O6 0.091842 0.112836 0.600569
O O7 0.958560 0.369400 0.715977
O O8 0.053563 0.657431 0.899109
O O9 0.194395 0.474491 0.825958
O O10 0.064526 0.323983 0.878878
O O11 0.141883 0.890027 0.877986
O O12 0.022952 0.001829 0.898525
O O13 0.922626 0.854739 0.141071
O O14 0.364625 0.278170 0.640972
O O15 0.169649 0.170244 0.927532
O O16 0.797626 0.580593 0.300299
#
# Coordination Sequence:
#
# PCOD8054290 Si02
#       8
#     4   4   4   4   4   4   4   4
#     4  10  22  38  61  89 124 165 203 259 313 368
#     4   9  21  39  62  88 127 165 207 258 316 374
#     4  11  24  42  63  94 130 163 211 266 314 378
#     4  11  22  40  65  89 126 166 207 260 317 373
#     4  12  22  40  64  95 126 164 216 262 315 383
#     4  10  18  40  61  90 121 167 205 256 318 371
#     4  11  23  41  63  94 126 170 210 257 316 385
#     4  10  22  38  67  93 124 166 213 258 323 378
#
# _framework density 21.071594999999999
#
# number of rings (size 3 to 8) (size 9 to 14) (size 15 to 20)
#    0.000    1.500    2.500    3.750    1.750    0.000 
#    0.000    0.000    2.750    0.000    0.000    0.000 
#    0.000    0.000    0.000    0.000    0.000    0.000 
#
# Total GULP energy -198256.337658 kJ/mol
# GULP energy per Si atom -12391.021104 kJ/mol
# Density = 2.102363 g / cm^3
# Si number density = 21.071595 Si / 1000 Ang^3
#
#
#
# Elastic Constant Matrix: (Units=GPa)
#
#
# Indices 1 2 3 4 5 6 
#
# 1 68.2396 7.2501 18.1486 -0.0164 0.9989 0.0072
# 2 7.2501 80.5520 10.6475 0.0146 1.8385 -0.0017
# 3 18.1486 10.6475 88.3959 0.0064 5.9450 -0.0018
# 4 -0.0164 0.0146 0.0064 24.1330 -0.0189 -1.9687
# 5 0.9989 1.8385 5.9450 -0.0189 31.1523 0.0042
# 6 0.0072 -0.0017 -0.0018 -1.9687 0.0042 25.2791
#
#
#
# Elastic Compliance Matrix: (Units=1/GPa)
#
#
# Indices 1 2 3 4 5 6 
#
# 1 0.015579 -0.000997 -0.003088 0.000012 0.000149 -0.000004
# 2 -0.000997 0.012686 -0.001292 -0.000008 -0.000470 0.000000
# 3 -0.003088 -0.001292 0.012248 -0.000006 -0.002162 0.000002
# 4 0.000012 -0.000008 -0.000006 0.041702 0.000026 0.003248
# 5 0.000149 -0.000470 -0.002162 0.000026 0.032536 -0.000004
# 6 -0.000004 0.000000 0.000002 0.003248 -0.000004 0.039811
#
#
# Mechanical properties :
#
#
# Convention : Reuss Voigt Hill
#
# Bulk Modulus (GPa) = 33.60455 34.36443 33.98449
# Shear Modulus (GPa) = 28.53289 29.52229 29.02759
#
# Velocity S-wave (km/s) = 3.68379 3.74712 3.71559
# Velocity P-wave (km/s) = 5.83748 5.92157 5.87968
#
# Compressibility (1/GPa) = 0.02975787
#
# Stress axis : x y z
#
# Youngs Moduli (GPa) = 64.18715 78.82968 81.64708
#
# Poissons Ratio (x) = 0.07862 0.25217
# Poissons Ratio (y) = 0.06402 0.10546
# Poissons Ratio (z) = 0.19824 0.10182
#
# Static dielectric constant tensor:
#      x y z
#    x 3.871020 0.000000 0.068730 
#    y 0.000000 3.604970 0.000010 
#    z 0.068730 0.000010 3.889810 
# 
# 
# High freq. dielectric constant tensor:
#      x y z
#    x 1.827710 0.000000 -0.000780 
#    y 0.000000 1.808530 0.000000 
#    z -0.000780 0.000000 1.828520 
# 
# From -- ./inp_files/17927.got.cif
#   From: 2010.06.25/outbox.cif.g09.slc.cpg/sg9_9_cif.got.tgz:17927.got - 2010.06.27 21:40:51.
