data_PCOD8054686
_publ_section_title
;
Structure prediction by ZEFSAII (Michael W. Deem and Ramdas Pophale) SiO2 
 PCOD8054686
Probable space group: C C
;
_chemical_formula_sum "Si O2"
_cell_formula_units_Z 32
_cell_length_a 8.678661
_cell_length_b 16.002974
_cell_length_c 22.009268
_cell_angle_alpha 90.000000
_cell_angle_beta 152.531277
_cell_angle_gamma 90.000000
_cell_volume 1409.966847
_symmetry_space_group_name_H-M "C C"
_symmetry_group_IT_number 9
_symmetry_cell_setting 'monoclinic'
loop_
_space_group_symop_operation_xyz
x,y,z
x,-y,1/2+z
1/2+x,1/2+y,z
1/2+x,1/2-y,1/2+z
loop_
_atom_site_type_symbol
_atom_site_label
_atom_site_fract_x
_atom_site_fract_y
_atom_site_fract_z
Si Si1 0.221900 0.070266 0.541250
Si Si2 0.434860 0.637908 0.776022
Si Si3 0.250970 0.027978 0.787742
Si Si4 0.369348 0.428933 0.040525
Si Si5 0.689311 0.822596 0.396105
Si Si6 0.939337 0.229565 0.419322
Si Si7 0.161070 0.757350 0.129660
Si Si8 0.744429 0.385429 0.513853
O O1 0.536660 0.131381 0.639686
O O2 0.144373 0.050023 0.584490
O O3 0.910950 0.127350 0.406694
O O4 0.289978 0.984775 0.530054
O O5 0.575569 0.558721 0.787916
O O6 0.577574 0.723656 0.794246
O O7 0.551119 0.636649 0.885451
O O8 0.505209 0.093888 0.850000
O O9 0.971646 0.016070 0.636395
O O10 0.485254 0.948115 0.886184
O O11 0.396396 0.328520 0.061518
O O12 0.671702 0.758080 0.445075
O O13 0.060355 0.850685 0.509252
O O14 0.529350 0.781947 0.279782
O O15 0.148532 0.251444 0.553070
O O16 0.088793 0.666404 0.134071
#
# Coordination Sequence:
#
# PCOD8054686 Si02
#       8
#     4   4   4   4   4   4   4   4
#     4  11  23  41  70  95 132 177 227 288 340 407
#     4  10  23  41  64  93 138 173 219 292 337 411
#     4  10  21  40  66  95 135 179 228 285 339 409
#     4  10  21  42  67  97 134 182 229 281 347 414
#     4  10  20  41  65  91 132 174 224 278 341 406
#     4   9  21  41  65  91 128 174 223 270 346 411
#     4   9  21  41  60  88 134 175 218 281 344 403
#     4  11  22  41  65  96 129 170 228 275 338 407
#
# _framework density 22.695568000000002
#
# number of rings (size 3 to 8) (size 9 to 14) (size 15 to 20)
#    0.000    2.000    1.250    2.250    1.750    4.000 
#    4.500    7.500    0.000    0.000    0.000    0.000 
#    0.000    0.000    0.000    0.000    0.000    0.000 
#
# Total GULP energy -198218.474374 kJ/mol
# GULP energy per Si atom -12388.654648 kJ/mol
# Density = 2.264391 g / cm^3
# Si number density = 22.695568 Si / 1000 Ang^3
#
#
#
# Elastic Constant Matrix: (Units=GPa)
#
#
# Indices 1 2 3 4 5 6 
#
# 1 92.2916 14.2364 16.6693 -0.0105 0.2973 0.0038
# 2 14.2364 133.7107 23.1631 -0.0331 4.6281 -0.0135
# 3 16.6693 23.1631 57.5290 -0.0503 -1.6854 -0.0295
# 4 -0.0105 -0.0331 -0.0503 28.9727 -0.0320 1.6342
# 5 0.2973 4.6281 -1.6854 -0.0320 30.9667 -0.0120
# 6 0.0038 -0.0135 -0.0295 1.6342 -0.0120 25.7158
#
#
#
# Elastic Compliance Matrix: (Units=1/GPa)
#
#
# Indices 1 2 3 4 5 6 
#
# 1 0.011494 -0.000688 -0.003059 -0.000002 -0.000174 -0.000006
# 2 -0.000688 0.008140 -0.003119 0.000002 -0.001380 0.000000
# 3 -0.003059 -0.003119 0.019570 0.000030 0.001561 0.000020
# 4 -0.000002 0.000002 0.000030 0.034640 0.000036 -0.002201
# 5 -0.000174 -0.001380 0.001561 0.000036 0.032586 0.000014
# 6 -0.000006 0.000000 0.000020 -0.002201 0.000014 0.039026
#
#
# Mechanical properties :
#
#
# Convention : Reuss Voigt Hill
#
# Bulk Modulus (GPa) = 39.25522 43.51875 41.38698
# Shear Modulus (GPa) = 29.81906 32.42853 31.12380
#
# Velocity S-wave (km/s) = 3.62867 3.78411 3.70721
# Velocity P-wave (km/s) = 5.90680 6.18945 6.04978
#
# Compressibility (1/GPa) = 0.02547432
#
# Stress axis : x y z
#
# Youngs Moduli (GPa) = 86.99933 122.84905 51.09810
#
# Poissons Ratio (x) = 0.08451 0.15629
# Poissons Ratio (y) = 0.05985 0.15935
# Poissons Ratio (z) = 0.26610 0.38311
#
# Static dielectric constant tensor:
#      x y z
#    x 4.301100 -0.000020 -0.078520 
#    y -0.000020 4.301060 -0.000020 
#    z -0.078520 -0.000020 3.993070 
# 
# 
# High freq. dielectric constant tensor:
#      x y z
#    x 1.906600 0.000000 -0.007350 
#    y 0.000000 1.888690 0.000000 
#    z -0.007350 0.000000 1.864200 
# 
# From -- ./inp_files/14596.got.cif
#   From: 2010.06.25/outbox.cif.g09.slc.cpg/sg9_8_cif.got.tgz:14596.got - 2010.06.27 21:40:51.
