data_PCOD8054680
_publ_section_title
;
Structure prediction by ZEFSAII (Michael W. Deem and Ramdas Pophale) SiO2 
 PCOD8054680
Probable space group: C C
;
_chemical_formula_sum "Si O2"
_cell_formula_units_Z 32
_cell_length_a 9.997159
_cell_length_b 9.399657
_cell_length_c 29.529836
_cell_angle_alpha 90.000000
_cell_angle_beta 35.990401
_cell_angle_gamma 90.000000
_cell_volume 1630.677819
_symmetry_space_group_name_H-M "C C"
_symmetry_group_IT_number 9
_symmetry_cell_setting 'monoclinic'
loop_
_space_group_symop_operation_xyz
x,y,z
x,-y,1/2+z
1/2+x,1/2+y,z
1/2+x,1/2-y,1/2+z
loop_
_atom_site_type_symbol
_atom_site_label
_atom_site_fract_x
_atom_site_fract_y
_atom_site_fract_z
Si Si1 0.310280 0.399817 0.367490
Si Si2 0.094742 0.661778 0.531748
Si Si3 0.915041 0.150539 0.007001
Si Si4 0.706107 0.134111 0.596795
Si Si5 0.565626 0.845226 0.527497
Si Si6 0.298307 0.907564 0.271612
Si Si7 0.334599 0.272778 0.845967
Si Si8 0.602370 0.309026 0.853941
O O1 0.183566 0.339959 0.446230
O O2 0.578222 0.374531 0.301210
O O3 0.247674 0.563890 0.374079
O O4 0.229664 0.312214 0.346288
O O5 0.102385 0.716424 0.581500
O O6 0.987713 0.504512 0.560246
O O7 0.349124 0.656183 0.441410
O O8 0.920542 0.759981 0.551883
O O9 0.730048 0.211333 0.022340
O O10 0.871698 0.987328 0.031628
O O11 0.156888 0.162346 0.916360
O O12 0.508630 0.064410 0.680744
O O13 0.846750 0.244590 0.588306
O O14 0.364659 0.774297 0.285697
O O15 0.252793 0.047852 0.314259
O O16 0.569992 0.259414 0.810241
#
# Coordination Sequence:
#
# PCOD8054680 Si02
#       8
#     4   4   4   4   4   4   4   4
#     4  11  21  38  66  89 115 158 208 250 300 355
#     4  10  20  41  62  91 119 153 201 256 296 355
#     4  10  21  39  62  92 118 155 200 254 297 354
#     4  11  25  37  62  88 129 161 196 249 308 360
#     4  11  20  37  61  95 114 156 203 251 297 357
#     4  11  23  43  56  89 128 163 197 248 308 357
#     4  10  21  38  63  92 120 153 204 258 295 354
#     4  10  21  39  66  88 119 153 207 252 297 356
#
# _framework density 19.623743000000001
#
# number of rings (size 3 to 8) (size 9 to 14) (size 15 to 20)
#    0.000    1.500    6.250    0.750    0.000    9.000 
#    0.000    0.000    0.000    0.000    0.000    0.000 
#    0.000    0.000    0.000    0.000    0.000    0.000 
#
# Total GULP energy -198375.261859 kJ/mol
# GULP energy per Si atom -12398.453866 kJ/mol
# Density = 1.957908 g / cm^3
# Si number density = 19.623743 Si / 1000 Ang^3
#
#
#
# Elastic Constant Matrix: (Units=GPa)
#
#
# Indices 1 2 3 4 5 6 
#
# 1 135.7995 65.3191 18.1370 0.0032 13.1073 0.0003
# 2 65.3191 84.6302 26.2013 0.0030 1.7006 0.0003
# 3 18.1370 26.2013 58.1072 -0.0135 1.7630 -0.0019
# 4 0.0032 0.0030 -0.0135 14.7310 0.0015 7.1977
# 5 13.1073 1.7006 1.7630 0.0015 22.5006 0.0010
# 6 0.0003 0.0003 -0.0019 7.1977 0.0010 41.5872
#
#
#
# Elastic Compliance Matrix: (Units=1/GPa)
#
#
# Indices 1 2 3 4 5 6 
#
# 1 0.012651 -0.009845 0.000693 0.000001 -0.006680 0.000000
# 2 -0.009845 0.021401 -0.006718 -0.000009 0.004644 0.000001
# 3 0.000693 -0.006718 0.020067 0.000021 -0.001468 -0.000003
# 4 0.000001 -0.000009 0.000021 0.074155 -0.000006 -0.012834
# 5 -0.006680 0.004644 -0.001468 -0.000006 0.048099 0.000000
# 6 0.000000 0.000001 -0.000003 -0.012834 0.000000 0.026267
#
#
# Mechanical properties :
#
#
# Convention : Reuss Voigt Hill
#
# Bulk Modulus (GPa) = 44.68339 55.31687 50.00013
# Shear Modulus (GPa) = 20.67483 27.02239 23.84861
#
# Velocity S-wave (km/s) = 3.24938 3.71486 3.48989
# Velocity P-wave (km/s) = 6.07433 6.83009 6.46327
#
# Compressibility (1/GPa) = 0.02237968
#
# Stress axis : x y z
#
# Youngs Moduli (GPa) = 79.04313 46.72655 49.83281
#
# Poissons Ratio (x) = 0.46001 -0.03453
# Poissons Ratio (y) = 0.77817 0.33478
# Poissons Ratio (z) = -0.05478 0.31391
#
# Static dielectric constant tensor:
#      x y z
#    x 3.969310 -0.000010 0.205340 
#    y -0.000010 3.518240 0.000010 
#    z 0.205340 0.000010 3.294800 
# 
# 
# High freq. dielectric constant tensor:
#      x y z
#    x 1.780920 0.000000 0.014780 
#    y 0.000000 1.757010 0.000000 
#    z 0.014780 0.000000 1.737600 
# 
# From -- ./inp_files/29810.got.cif
#   From: 2010.06.25/outbox.cif.g09.slc.cpg/sg9_15_cif.got.tgz:29810.got - 2010.06.27 21:40:51.
