data_PCOD8054570
_publ_section_title
;
Structure prediction by ZEFSAII (Michael W. Deem and Ramdas Pophale) SiO2 
 PCOD8054570
Probable space group: C C
;
_chemical_formula_sum "Si O2"
_cell_formula_units_Z 32
_cell_length_a 5.183759
_cell_length_b 24.870440
_cell_length_c 14.099221
_cell_angle_alpha 90.000000
_cell_angle_beta 61.586107
_cell_angle_gamma 90.000000
_cell_volume 1598.731882
_symmetry_space_group_name_H-M "C C"
_symmetry_group_IT_number 9
_symmetry_cell_setting 'monoclinic'
loop_
_space_group_symop_operation_xyz
x,y,z
x,-y,1/2+z
1/2+x,1/2+y,z
1/2+x,1/2-y,1/2+z
loop_
_atom_site_type_symbol
_atom_site_label
_atom_site_fract_x
_atom_site_fract_y
_atom_site_fract_z
Si Si1 0.819190 0.727258 0.591920
Si Si2 0.483659 0.449199 0.059935
Si Si3 0.478432 0.238265 0.970967
Si Si4 0.367946 0.797138 0.767787
Si Si5 0.954430 0.392273 0.077466
Si Si6 0.916248 0.635778 0.084400
Si Si7 0.480264 0.098648 0.364824
Si Si8 0.865666 0.930485 0.627267
O O1 0.620587 0.727028 0.531593
O O2 0.667903 0.764423 0.697694
O O3 0.136228 0.751597 0.517165
O O4 0.848630 0.666802 0.625941
O O5 0.182958 0.415154 0.113257
O O6 0.400663 0.511283 0.076009
O O7 0.668309 0.431294 0.120880
O O8 0.678525 0.435667 0.931652
O O9 0.530693 0.174526 0.980186
O O10 0.625844 0.254999 0.846064
O O11 0.258730 0.825563 0.689718
O O12 0.419407 0.842219 0.837015
O O13 0.118016 0.391690 0.945450
O O14 0.689316 0.592583 0.085287
O O15 0.192836 0.606367 0.083115
O O16 0.697015 0.066073 0.257458
#
# Coordination Sequence:
#
# PCOD8054570 Si02
#       8
#     4   4   4   4   4   4   4   4
#     4  11  22  36  59  91 125 153 199 249 294 364
#     4  10  22  38  60  85 113 155 196 253 289 343
#     4  11  21  37  57  87 126 158 193 249 301 351
#     4  10  21  38  62  92 119 164 202 238 306 367
#     4  10  20  38  58  86 118 150 193 243 294 346
#     4  10  23  37  58  90 120 154 199 251 287 366
#     4   9  21  36  62  83 113 151 204 233 292 360
#     4  11  22  40  60  86 116 151 206 248 297 343
#
# _framework density 20.015865999999999
#
# number of rings (size 3 to 8) (size 9 to 14) (size 15 to 20)
#    0.750    1.000    1.250    4.500    5.250    2.000 
#    0.000    2.500    0.000    0.000    0.000    0.000 
#    0.000    0.000    0.000    0.000    0.000    0.000 
#
# Total GULP energy -198333.880988 kJ/mol
# GULP energy per Si atom -12395.867562 kJ/mol
# Density = 1.997031 g / cm^3
# Si number density = 20.015866 Si / 1000 Ang^3
#
#
#
# Elastic Constant Matrix: (Units=GPa)
#
#
# Indices 1 2 3 4 5 6 
#
# 1 84.8655 19.3949 14.4458 0.0000 -15.4377 0.0000
# 2 19.3949 123.6684 42.4089 0.0000 -6.7006 0.0000
# 3 14.4458 42.4089 74.1435 0.0000 -15.1903 0.0000
# 4 0.0000 0.0000 0.0000 39.8484 0.0000 -2.6233
# 5 -15.4377 -6.7006 -15.1903 0.0000 21.4643 0.0000
# 6 0.0000 0.0000 0.0000 -2.6233 0.0000 36.2915
#
#
#
# Elastic Compliance Matrix: (Units=1/GPa)
#
#
# Indices 1 2 3 4 5 6 
#
# 1 0.013890 -0.001748 0.000267 0.000000 0.009633 0.000000
# 2 -0.001748 0.010301 -0.006024 0.000000 -0.002304 0.000000
# 3 0.000267 -0.006024 0.019339 0.000000 0.011998 0.000000
# 4 0.000000 0.000000 0.000000 0.025215 0.000000 0.001823
# 5 0.009633 -0.002304 0.011998 0.000000 0.061289 0.000000
# 6 0.000000 0.000000 0.000000 0.001823 0.000000 0.027686
#
#
# Mechanical properties :
#
#
# Convention : Reuss Voigt Hill
#
# Bulk Modulus (GPa) = 35.06202 48.35297 41.70750
# Shear Modulus (GPa) = 27.43697 33.28268 30.35982
#
# Velocity S-wave (km/s) = 3.70640 4.08219 3.89882
# Velocity P-wave (km/s) = 5.98929 6.81387 6.41484
#
# Compressibility (1/GPa) = 0.02852089
#
# Stress axis : x y z
#
# Youngs Moduli (GPa) = 71.99567 97.07735 51.70961
#
# Poissons Ratio (x) = 0.16969 -0.01382
# Poissons Ratio (y) = 0.12585 0.31148
# Poissons Ratio (z) = -0.01924 0.58475
#
# Static dielectric constant tensor:
#      x y z
#    x 3.578350 0.000000 -0.044310 
#    y 0.000000 3.650240 0.000000 
#    z -0.044310 0.000000 3.548090 
# 
# 
# High freq. dielectric constant tensor:
#      x y z
#    x 1.785100 0.000000 -0.011840 
#    y 0.000000 1.784320 0.000000 
#    z -0.011840 0.000000 1.750620 
# 
# From -- ./inp_files/28861.got.cif
#   From: 2010.06.25/outbox.cif.g09.slc.cpg/sg9_15_cif.got.tgz:28861.got - 2010.06.27 21:40:51.
