data_PCOD8054592
_publ_section_title
;
Structure prediction by ZEFSAII (Michael W. Deem and Ramdas Pophale) SiO2 
 PCOD8054592
Probable space group: C C
;
_chemical_formula_sum "Si O2"
_cell_formula_units_Z 32
_cell_length_a 22.460430
_cell_length_b 7.684363
_cell_length_c 9.647411
_cell_angle_alpha 90.000000
_cell_angle_beta 104.250562
_cell_angle_gamma 90.000000
_cell_volume 1613.848985
_symmetry_space_group_name_H-M "C C"
_symmetry_group_IT_number 9
_symmetry_cell_setting 'monoclinic'
loop_
_space_group_symop_operation_xyz
x,y,z
x,-y,1/2+z
1/2+x,1/2+y,z
1/2+x,1/2-y,1/2+z
loop_
_atom_site_type_symbol
_atom_site_label
_atom_site_fract_x
_atom_site_fract_y
_atom_site_fract_z
Si Si1 0.875000 0.558436 0.539670
Si Si2 0.682035 0.695532 0.521131
Si Si3 0.302970 0.295880 0.933543
Si Si4 0.457412 0.942374 0.835124
Si Si5 0.685427 0.409533 0.319103
Si Si6 0.073465 0.583455 0.018862
Si Si7 0.800962 0.877185 0.619680
Si Si8 0.575278 0.804641 0.822464
O O1 0.840911 0.378009 0.487812
O O2 0.924469 0.530321 0.687414
O O3 0.908897 0.624787 0.420090
O O4 0.829164 0.710616 0.557526
O O5 0.701263 0.594288 0.393983
O O6 0.691754 0.566959 0.658101
O O7 0.611130 0.753577 0.478590
O O8 0.727221 0.860134 0.563288
O O9 0.231028 0.243868 0.895955
O O10 0.320949 0.373706 0.792682
O O11 0.319616 0.440466 0.058953
O O12 0.501605 0.780098 0.810103
O O13 0.501932 0.091414 0.929316
O O14 0.614927 0.368474 0.324645
O O15 0.103611 0.409691 0.969232
O O16 0.080750 0.575620 0.187966
#
# Coordination Sequence:
#
# PCOD8054592 Si02
#       8
#     4   4   4   4   4   4   4   4
#     4  12  22  42  66  90 132 169 217 254 315 384
#     4  10  21  38  59  90 127 160 206 261 318 376
#     4  11  25  41  64  97 128 167 213 264 320 380
#     4  10  20  38  66  82 122 174 207 257 309 375
#     4  10  21  38  59  90 126 161 206 260 320 374
#     4   9  18  35  58  85 113 155 204 249 304 362
#     4  11  25  41  64  97 127 169 212 263 322 375
#     4   9  18  35  58  85 113 155 205 248 304 360
#
# _framework density 19.828375000000001
#
# number of rings (size 3 to 8) (size 9 to 14) (size 15 to 20)
#    0.750    1.000    3.750    0.750    1.750    2.000 
#    0.000    2.500    0.000    0.000    0.000    0.000 
#    0.000    0.000    0.000    0.000    0.000    0.000 
#
# Total GULP energy -198221.985123 kJ/mol
# GULP energy per Si atom -12388.874070 kJ/mol
# Density = 1.978324 g / cm^3
# Si number density = 19.828375 Si / 1000 Ang^3
#
#
#
# Elastic Constant Matrix: (Units=GPa)
#
#
# Indices 1 2 3 4 5 6 
#
# 1 88.2348 20.7469 20.1600 0.0000 -7.2998 0.0000
# 2 20.7469 53.7491 14.2567 0.0000 -5.1607 0.0000
# 3 20.1600 14.2567 53.7721 0.0000 -10.1229 0.0000
# 4 0.0000 0.0000 0.0000 29.9059 0.0000 -5.1708
# 5 -7.2998 -5.1607 -10.1229 0.0000 35.3520 0.0000
# 6 0.0000 0.0000 0.0000 -5.1708 0.0000 28.3068
#
#
#
# Elastic Compliance Matrix: (Units=1/GPa)
#
#
# Indices 1 2 3 4 5 6 
#
# 1 0.013209 -0.004018 -0.003683 0.000000 0.001087 0.000000
# 2 -0.004018 0.021308 -0.003925 0.000000 0.001157 0.000000
# 3 -0.003683 -0.003925 0.021951 0.000000 0.004952 0.000000
# 4 0.000000 0.000000 0.000000 0.034529 0.000000 0.006307
# 5 0.001087 0.001157 0.004952 0.000000 0.030098 0.000000
# 6 0.000000 0.000000 0.000000 0.006307 0.000000 0.036479
#
#
# Mechanical properties :
#
#
# Convention : Reuss Voigt Hill
#
# Bulk Modulus (GPa) = 30.10525 34.00925 32.05725
# Shear Modulus (GPa) = 26.05553 28.08578 27.07065
#
# Velocity S-wave (km/s) = 3.62892 3.76765 3.69894
# Velocity P-wave (km/s) = 5.72491 6.00966 5.86901
#
# Compressibility (1/GPa) = 0.03321679
#
# Stress axis : x y z
#
# Youngs Moduli (GPa) = 75.70375 46.93070 45.55671
#
# Poissons Ratio (x) = 0.18855 0.16777
# Poissons Ratio (y) = 0.30415 0.17883
# Poissons Ratio (z) = 0.27879 0.18422
#
# Static dielectric constant tensor:
#      x y z
#    x 3.795470 0.000000 -0.085680 
#    y 0.000000 3.104920 0.000000 
#    z -0.085680 0.000000 3.754760 
# 
# 
# High freq. dielectric constant tensor:
#      x y z
#    x 1.782310 0.000000 -0.008040 
#    y 0.000000 1.728150 0.000000 
#    z -0.008040 0.000000 1.787410 
# 
# From -- ./inp_files/12026.got.cif
#   From: 2010.06.25/outbox.cif.g09.slc.cpg/sg9_7_cif.got.tgz:12026.got - 2010.06.27 21:40:51.
