data_PCOD8054246
_publ_section_title
;
Structure prediction by ZEFSAII (Michael W. Deem and Ramdas Pophale) SiO2 
 PCOD8054246
Probable space group: C C
;
_chemical_formula_sum "Si O2"
_cell_formula_units_Z 32
_cell_length_a 12.364930
_cell_length_b 8.152485
_cell_length_c 18.684007
_cell_angle_alpha 90.000000
_cell_angle_beta 62.572572
_cell_angle_gamma 90.000000
_cell_volume 1671.731516
_symmetry_space_group_name_H-M "C C"
_symmetry_group_IT_number 9
_symmetry_cell_setting 'monoclinic'
loop_
_space_group_symop_operation_xyz
x,y,z
x,-y,1/2+z
1/2+x,1/2+y,z
1/2+x,1/2-y,1/2+z
loop_
_atom_site_type_symbol
_atom_site_label
_atom_site_fract_x
_atom_site_fract_y
_atom_site_fract_z
Si Si1 0.882000 0.988857 0.140370
Si Si2 0.579664 0.665661 0.497010
Si Si3 0.524456 0.553077 0.226388
Si Si4 0.451559 0.774786 0.011407
Si Si5 0.667264 0.976117 0.991914
Si Si6 0.447596 0.502406 0.407269
Si Si7 0.231678 0.007906 0.063557
Si Si8 0.664734 0.159357 0.636633
O O1 0.742356 0.939920 0.171521
O O2 0.963508 0.838230 0.085586
O O3 0.922998 0.152261 0.085468
O O4 0.901066 0.017896 0.219095
O O5 0.534834 0.608499 0.432307
O O6 0.681709 0.543380 0.500159
O O7 0.637958 0.844179 0.471022
O O8 0.511401 0.496146 0.311075
O O9 0.634243 0.451830 0.154811
O O10 0.554144 0.749694 0.211592
O O11 0.589164 0.841049 0.973223
O O12 0.360715 0.927806 0.041271
O O13 0.436791 0.681598 0.940827
O O14 0.624319 0.971365 0.088594
O O15 0.810030 0.930009 0.941222
O O16 0.243968 0.205257 0.066844
#
# Coordination Sequence:
#
# PCOD8054246 Si02
#       8
#     4   4   4   4   4   4   4   4
#     4  10  18  36  62  85 116 154 195 250 285 358
#     4  10  19  36  64  87 115 155 202 247 290 358
#     4   9  22  38  58  86 127 154 197 253 313 343
#     4  11  20  37  63  91 117 155 212 243 292 368
#     4  12  21  36  66  89 115 162 202 244 301 358
#     4  11  23  41  58  91 127 155 196 261 308 348
#     4   9  19  38  63  88 116 161 203 248 289 365
#     4  10  18  36  60  87 113 156 201 244 290 356
#
# _framework density 19.141829000000001
#
# number of rings (size 3 to 8) (size 9 to 14) (size 15 to 20)
#    0.750    1.000    5.000    1.500    0.000    1.000 
#    2.250    0.000    5.500    0.000    0.000    0.000 
#    0.000    0.000    0.000    0.000    0.000    0.000 
#
# Total GULP energy -198244.264911 kJ/mol
# GULP energy per Si atom -12390.266557 kJ/mol
# Density = 1.909826 g / cm^3
# Si number density = 19.141829 Si / 1000 Ang^3
#
#
#
# Elastic Constant Matrix: (Units=GPa)
#
#
# Indices 1 2 3 4 5 6 
#
# 1 125.8288 36.9590 42.8046 0.0000 14.3364 0.0000
# 2 36.9590 73.0047 17.8036 0.0000 7.6152 0.0000
# 3 42.8046 17.8036 89.8448 0.0000 26.0828 0.0000
# 4 0.0000 0.0000 0.0000 15.0942 0.0000 1.4250
# 5 14.3364 7.6152 26.0828 0.0000 25.4242 0.0000
# 6 0.0000 0.0000 0.0000 1.4250 0.0000 41.2078
#
#
#
# Elastic Compliance Matrix: (Units=1/GPa)
#
#
# Indices 1 2 3 4 5 6 
#
# 1 0.010670 -0.004354 -0.004063 0.000000 -0.000545 0.000000
# 2 -0.004354 0.016240 -0.000633 0.000000 -0.001760 0.000000
# 3 -0.004063 -0.000633 0.017761 0.000000 -0.015741 0.000000
# 4 0.000000 0.000000 0.000000 0.066467 0.000000 -0.002298
# 5 -0.000545 -0.001760 -0.015741 0.000000 0.056315 0.000000
# 6 0.000000 0.000000 0.000000 -0.002298 0.000000 0.024347
#
#
# Mechanical properties :
#
#
# Convention : Reuss Voigt Hill
#
# Bulk Modulus (GPa) = 37.63368 53.75696 45.69532
# Shear Modulus (GPa) = 22.85636 29.08600 25.97118
#
# Velocity S-wave (km/s) = 3.45926 3.90230 3.68744
# Velocity P-wave (km/s) = 5.97146 6.96049 6.48486
#
# Compressibility (1/GPa) = 0.02657194
#
# Stress axis : x y z
#
# Youngs Moduli (GPa) = 93.71717 61.57622 56.30345
#
# Poissons Ratio (x) = 0.26813 0.22874
# Poissons Ratio (y) = 0.40808 0.03562
# Poissons Ratio (z) = 0.38074 0.03896
#
# Static dielectric constant tensor:
#      x y z
#    x 3.688650 0.000000 0.157980 
#    y 0.000000 3.393810 0.000000 
#    z 0.157980 0.000000 3.008340 
# 
# 
# High freq. dielectric constant tensor:
#      x y z
#    x 1.762910 0.000000 0.018770 
#    y 0.000000 1.736590 0.000000 
#    z 0.018770 0.000000 1.694000 
# 
# From -- ./inp_files/33073.got.cif
#   From: 2010.06.25/outbox.cif.g09.slc.cpg/sg9_17_cif.got.tgz:33073.got - 2010.06.27 21:40:51.
