data_PCOD8054800
_publ_section_title
;
Structure prediction by ZEFSAII (Michael W. Deem and Ramdas Pophale) SiO2 
 PCOD8054800
Probable space group: C C
;
_chemical_formula_sum "Si O2"
_cell_formula_units_Z 24
_cell_length_a 5.086344
_cell_length_b 27.010389
_cell_length_c 8.441603
_cell_angle_alpha 90.000000
_cell_angle_beta 64.679247
_cell_angle_gamma 90.000000
_cell_volume 1048.323173
_symmetry_space_group_name_H-M "C C"
_symmetry_group_IT_number 9
_symmetry_cell_setting 'monoclinic'
loop_
_space_group_symop_operation_xyz
x,y,z
x,-y,1/2+z
1/2+x,1/2+y,z
1/2+x,1/2-y,1/2+z
loop_
_atom_site_type_symbol
_atom_site_label
_atom_site_fract_x
_atom_site_fract_y
_atom_site_fract_z
Si Si1 0.786690 0.968546 0.221960
Si Si2 0.112871 0.704540 0.149770
Si Si3 0.335456 0.628249 0.525282
Si Si4 0.808943 0.314261 0.055673
Si Si5 0.144908 0.954419 0.442472
Si Si6 0.634191 0.646745 0.112011
O O1 0.770639 0.928606 0.083653
O O2 0.451918 0.983225 0.345650
O O3 0.964290 0.948465 0.327165
O O4 0.943506 0.017606 0.120063
O O5 0.171430 0.762632 0.143066
O O6 0.414370 0.675663 0.054251
O O7 0.961397 0.691176 0.350113
O O8 0.902281 0.685036 0.064868
O O9 0.546444 0.647502 0.607881
O O10 0.482431 0.630835 0.315088
O O11 0.044483 0.662041 0.614049
O O12 0.235979 0.901387 0.490895
#
# Coordination Sequence:
#
# PCOD8054800 Si02
#       6
#     4   4   4   4   4   4
#     4  12  26  44  68  98 130 172 218 270 328 391
#     4  10  21  37  60  89 123 164 208 261 318 374
#     4  10  22  41  62  89 126 166 211 263 319 377
#     4  10  21  37  60  89 123 164 208 261 318 374
#     4  12  26  44  68  98 130 172 218 270 328 391
#     4  10  22  41  62  89 126 166 211 263 319 377
#
# _framework density 22.893706000000002
#
# number of rings (size 3 to 8) (size 9 to 14) (size 15 to 20)
#    0.000    1.333    0.000    5.000    0.000    8.000 
#    0.000    0.000    0.000    0.000    0.000    0.000 
#    0.000    0.000    0.000    0.000    0.000    0.000 
#
# Total GULP energy -148813.073165 kJ/mol
# GULP energy per Si atom -12401.089430 kJ/mol
# Density = 2.284160 g / cm^3
# Si number density = 22.893706 Si / 1000 Ang^3
#
#
#
# Elastic Constant Matrix: (Units=GPa)
#
#
# Indices 1 2 3 4 5 6 
#
# 1 167.4770 16.0006 33.7726 0.0000 -5.9694 0.0000
# 2 16.0006 72.4631 11.9521 0.0000 2.2147 0.0000
# 3 33.7726 11.9521 35.3218 0.0000 5.8143 0.0000
# 4 0.0000 0.0000 0.0000 39.3738 0.0000 -7.8341
# 5 -5.9694 2.2147 5.8143 0.0000 28.7240 0.0000
# 6 0.0000 0.0000 0.0000 -7.8341 0.0000 49.1562
#
#
#
# Elastic Compliance Matrix: (Units=1/GPa)
#
#
# Indices 1 2 3 4 5 6 
#
# 1 0.007688 -0.000525 -0.007699 0.000000 0.003197 0.000000
# 2 -0.000525 0.014652 -0.004398 0.000000 -0.000349 0.000000
# 3 -0.007699 -0.004398 0.038656 0.000000 -0.009086 0.000000
# 4 0.000000 0.000000 0.000000 0.026229 0.000000 0.004180
# 5 0.003197 -0.000349 -0.009086 0.000000 0.037344 0.000000
# 6 0.000000 0.000000 0.000000 0.004180 0.000000 0.021010
#
#
# Mechanical properties :
#
#
# Convention : Reuss Voigt Hill
#
# Bulk Modulus (GPa) = 27.97119 44.30138 36.13629
# Shear Modulus (GPa) = 27.36110 37.68658 32.52384
#
# Velocity S-wave (km/s) = 3.46082 4.06168 3.77323
# Velocity P-wave (km/s) = 5.31170 6.43345 5.89930
#
# Compressibility (1/GPa) = 0.03575107
#
# Stress axis : x y z
#
# Youngs Moduli (GPa) = 130.07939 68.24901 25.86907
#
# Poissons Ratio (x) = 0.03585 0.19916
# Poissons Ratio (y) = 0.06834 0.11378
# Poissons Ratio (z) = 1.00146 0.30018
#
# Static dielectric constant tensor:
#      x y z
#    x 4.710600 0.000000 0.005230 
#    y 0.000000 3.508770 0.000000 
#    z 0.005230 0.000000 3.999560 
# 
# 
# High freq. dielectric constant tensor:
#      x y z
#    x 1.924610 0.000000 -0.004310 
#    y 0.000000 1.904010 0.000000 
#    z -0.004310 0.000000 1.897970 
# 
# From -- ./inp_files/3845.got.cif
#   From: 2010.06.25/outbox.cif.g09.slc.cpg/sg9_2_cif.got.tgz:3845.got - 2010.06.27 21:40:51.
