data_PCOD8054955
_publ_section_title
;
Structure prediction by ZEFSAII (Michael W. Deem and Ramdas Pophale) SiO2 
 PCOD8054955
Probable space group: C C
;
_chemical_formula_sum "Si O2"
_cell_formula_units_Z 32
_cell_length_a 16.017401
_cell_length_b 11.112579
_cell_length_c 13.088833
_cell_angle_alpha 90.000000
_cell_angle_beta 144.541231
_cell_angle_gamma 90.000000
_cell_volume 1351.522856
_symmetry_space_group_name_H-M "C C"
_symmetry_group_IT_number 9
_symmetry_cell_setting 'monoclinic'
loop_
_space_group_symop_operation_xyz
x,y,z
x,-y,1/2+z
1/2+x,1/2+y,z
1/2+x,1/2-y,1/2+z
loop_
_atom_site_type_symbol
_atom_site_label
_atom_site_fract_x
_atom_site_fract_y
_atom_site_fract_z
Si Si1 0.226420 0.246905 0.776880
Si Si2 0.224283 0.528823 0.146675
Si Si3 0.475045 0.800972 0.655377
Si Si4 0.500481 0.048900 0.586292
Si Si5 0.451537 0.326916 0.341791
Si Si6 0.065637 0.693327 0.832055
Si Si7 0.757296 0.611615 0.209359
Si Si8 0.764876 0.379779 0.112981
O O1 0.281260 0.373145 0.784116
O O2 0.060251 0.246011 0.643486
O O3 0.245412 0.142204 0.714164
O O4 0.309171 0.222915 0.965007
O O5 0.353785 0.446242 0.233620
O O6 0.094769 0.459389 0.076511
O O7 0.163853 0.596707 0.987851
O O8 0.512693 0.733112 0.798121
O O9 0.512857 0.943545 0.685368
O O10 0.558613 0.166561 0.704082
O O11 0.331272 0.054326 0.384930
O O12 0.588049 0.357376 0.550533
O O13 0.348922 0.231678 0.291309
O O14 0.904905 0.688629 0.714433
O O15 0.129351 0.827655 0.913787
O O16 0.773938 0.525849 0.123514
#
# Coordination Sequence:
#
# PCOD8054955 Si02
#       8
#     4   4   4   4   4   4   4   4
#     4  10  21  40  72 104 138 182 246 303 355 425
#     4  10  24  44  72 105 151 186 235 315 371 426
#     4  11  23  41  71 108 139 188 254 299 356 445
#     4  11  24  47  75 103 145 196 243 302 369 443
#     4  12  28  44  73 104 155 196 241 304 385 435
#     4  11  25  43  76 105 143 185 249 298 371 426
#     4  12  26  47  70 102 150 195 242 300 378 435
#     4  11  23  46  71 105 143 190 240 311 365 433
#
# _framework density 23.676994000000001
#
# number of rings (size 3 to 8) (size 9 to 14) (size 15 to 20)
#    0.000    1.000    2.500    3.750   10.500    2.000 
#    0.000    1.250    0.000    0.000    0.000    0.000 
#    0.000    0.000    0.000    0.000    0.000    0.000 
#
# Total GULP energy -198267.772684 kJ/mol
# GULP energy per Si atom -12391.735793 kJ/mol
# Density = 2.362310 g / cm^3
# Si number density = 23.676994 Si / 1000 Ang^3
#
#
#
# Elastic Constant Matrix: (Units=GPa)
#
#
# Indices 1 2 3 4 5 6 
#
# 1 59.6792 10.7951 15.4107 0.0000 2.2633 0.0000
# 2 10.7951 67.6380 34.8734 0.0000 2.8398 0.0000
# 3 15.4107 34.8734 121.7284 0.0000 3.9247 0.0000
# 4 0.0000 0.0000 0.0000 39.0545 0.0000 3.4428
# 5 2.2633 2.8398 3.9247 0.0000 39.8014 0.0000
# 6 0.0000 0.0000 0.0000 3.4428 0.0000 37.6057
#
#
#
# Elastic Compliance Matrix: (Units=1/GPa)
#
#
# Indices 1 2 3 4 5 6 
#
# 1 0.017556 -0.001922 -0.001649 0.000000 -0.000699 0.000000
# 2 -0.001922 0.017580 -0.004771 0.000000 -0.000674 0.000000
# 3 -0.001649 -0.004771 0.009808 0.000000 -0.000533 0.000000
# 4 0.000000 0.000000 0.000000 0.025814 0.000000 -0.002363
# 5 -0.000699 -0.000674 -0.000533 0.000000 0.025265 0.000000
# 6 0.000000 0.000000 0.000000 -0.002363 0.000000 0.026808
#
#
# Mechanical properties :
#
#
# Convention : Reuss Voigt Hill
#
# Bulk Modulus (GPa) = 35.38796 41.24487 38.31642
# Shear Modulus (GPa) = 33.57149 35.82342 34.69746
#
# Velocity S-wave (km/s) = 3.76958 3.89396 3.83227
# Velocity P-wave (km/s) = 5.82451 6.13798 5.98330
#
# Compressibility (1/GPa) = 0.02825820
#
# Stress axis : x y z
#
# Youngs Moduli (GPa) = 56.95933 56.88384 101.95882
#
# Poissons Ratio (x) = 0.10935 0.16817
# Poissons Ratio (y) = 0.10949 0.48647
# Poissons Ratio (z) = 0.09395 0.27140
#
# Static dielectric constant tensor:
#      x y z
#    x 3.943900 0.000000 0.068440 
#    y 0.000000 4.455590 0.000000 
#    z 0.068440 0.000000 4.313930 
# 
# 
# High freq. dielectric constant tensor:
#      x y z
#    x 1.920470 0.000000 0.005720 
#    y 0.000000 1.942890 0.000000 
#    z 0.005720 0.000000 1.941780 
# 
# From -- ./inp_files/9321.got.cif
#   From: 2010.06.25/outbox.cif.g09.slc.cpg/sg9_5_cif.got.tgz:9321.got - 2010.06.27 21:40:51.
