data_PCOD8054948
_publ_section_title
;
Structure prediction by ZEFSAII (Michael W. Deem and Ramdas Pophale) SiO2 
 PCOD8054948
Probable space group: C C
;
_chemical_formula_sum "Si O2"
_cell_formula_units_Z 28
_cell_length_a 9.277116
_cell_length_b 19.287310
_cell_length_c 9.527207
_cell_angle_alpha 90.000000
_cell_angle_beta 46.632803
_cell_angle_gamma 90.000000
_cell_volume 1239.268748
_symmetry_space_group_name_H-M "C C"
_symmetry_group_IT_number 9
_symmetry_cell_setting 'monoclinic'
loop_
_space_group_symop_operation_xyz
x,y,z
x,-y,1/2+z
1/2+x,1/2+y,z
1/2+x,1/2-y,1/2+z
loop_
_atom_site_type_symbol
_atom_site_label
_atom_site_fract_x
_atom_site_fract_y
_atom_site_fract_z
Si Si1 0.573580 0.175016 0.956640
Si Si2 0.353229 0.307574 0.514617
Si Si3 0.629384 0.378100 0.114977
Si Si4 0.294874 0.585175 0.437587
Si Si5 0.533531 0.839174 0.942002
Si Si6 0.624598 0.683187 0.321714
Si Si7 0.312533 0.536199 0.724407
O O1 0.681442 0.210328 0.017954
O O2 0.594778 0.233419 0.818660
O O3 0.674691 0.101570 0.857841
O O4 0.346095 0.159429 0.140477
O O5 0.528917 0.351683 0.326787
O O6 0.449502 0.237798 0.509933
O O7 0.240456 0.345687 0.716854
O O8 0.535835 0.451956 0.134708
O O9 0.572061 0.329668 0.020523
O O10 0.863708 0.386698 0.983502
O O11 0.096382 0.633337 0.555646
O O12 0.483984 0.636754 0.315731
O O13 0.298279 0.532381 0.565708
O O14 0.260697 0.537845 0.322034
#
# Coordination Sequence:
#
# PCOD8054948 Si02
#       7
#     4   4   4   4   4   4   4
#     4  11  20  40  75 101 140 183 238 289 365 414
#     4  11  20  36  68 108 135 181 224 295 352 425
#     4  10  21  40  68  98 139 183 236 279 351 421
#     4  11  28  46  67 102 145 188 237 294 351 431
#     4  12  22  39  67 104 144 178 236 289 354 419
#     4  11  21  41  70 107 136 187 237 296 349 425
#     4  10  26  48  69  98 145 190 236 292 354 429
#
# _framework density 22.593968
#
# number of rings (size 3 to 8) (size 9 to 14) (size 15 to 20)
#    0.000    1.143    4.286    2.571    4.000    3.429 
#    2.571    2.857    0.000    0.000    0.000    0.000 
#    0.000    0.000    0.000    0.000    0.000    0.000 
#
# Total GULP energy -173459.960985 kJ/mol
# GULP energy per Si atom -12389.997213 kJ/mol
# Density = 2.254254 g / cm^3
# Si number density = 22.593968 Si / 1000 Ang^3
#
#
#
# Elastic Constant Matrix: (Units=GPa)
#
#
# Indices 1 2 3 4 5 6 
#
# 1 148.8624 61.7927 40.2865 0.0000 -11.2191 0.0000
# 2 61.7927 107.1549 25.1938 0.0000 -1.3871 0.0000
# 3 40.2865 25.1938 82.9399 0.0000 -17.3404 0.0000
# 4 0.0000 0.0000 0.0000 16.4640 0.0000 1.6062
# 5 -11.2191 -1.3871 -17.3404 0.0000 26.2132 0.0000
# 6 0.0000 0.0000 0.0000 1.6062 0.0000 40.3125
#
#
#
# Elastic Compliance Matrix: (Units=1/GPa)
#
#
# Indices 1 2 3 4 5 6 
#
# 1 0.009651 -0.004886 -0.002778 0.000000 0.002034 0.000000
# 2 -0.004886 0.012591 -0.002030 0.000000 -0.002768 0.000000
# 3 -0.002778 -0.002030 0.015959 0.000000 0.009261 0.000000
# 4 0.000000 0.000000 0.000000 0.060976 0.000000 -0.002430
# 5 0.002034 -0.002768 0.009261 0.000000 0.044999 0.000000
# 6 0.000000 0.000000 0.000000 -0.002430 0.000000 0.024903
#
#
# Mechanical properties :
#
#
# Convention : Reuss Voigt Hill
#
# Bulk Modulus (GPa) = 53.15550 65.94481 59.55016
# Shear Modulus (GPa) = 25.67543 30.71022 28.19283
#
# Velocity S-wave (km/s) = 3.37469 3.69076 3.53626
# Velocity P-wave (km/s) = 6.22593 6.88568 6.56410
#
# Compressibility (1/GPa) = 0.01881273
#
# Stress axis : x y z
#
# Youngs Moduli (GPa) = 103.61713 79.42016 62.65931
#
# Poissons Ratio (x) = 0.38803 0.17409
# Poissons Ratio (y) = 0.50625 0.12721
# Poissons Ratio (z) = 0.28789 0.16124
#
# Static dielectric constant tensor:
#      x y z
#    x 4.258980 0.000000 -0.113940 
#    y 0.000000 3.901440 0.000000 
#    z -0.113940 0.000000 3.991190 
# 
# 
# High freq. dielectric constant tensor:
#      x y z
#    x 1.896310 0.000000 -0.008580 
#    y 0.000000 1.885230 0.000000 
#    z -0.008580 0.000000 1.873480 
# 
# From -- ./inp_files/5866.got.cif
#   From: 2010.06.25/outbox.cif.g09.slc.cpg/sg9_3_cif.got.tgz:5866.got - 2010.06.27 21:40:51.
