data_PCOD8054280
_publ_section_title
;
Structure prediction by ZEFSAII (Michael W. Deem and Ramdas Pophale) SiO2 
 PCOD8054280
Probable space group: C C
;
_chemical_formula_sum "Si O2"
_cell_formula_units_Z 32
_cell_length_a 11.787972
_cell_length_b 11.444529
_cell_length_c 10.871024
_cell_angle_alpha 90.000000
_cell_angle_beta 78.075297
_cell_angle_gamma 90.000000
_cell_volume 1434.936858
_symmetry_space_group_name_H-M "C C"
_symmetry_group_IT_number 9
_symmetry_cell_setting 'monoclinic'
loop_
_space_group_symop_operation_xyz
x,y,z
x,-y,1/2+z
1/2+x,1/2+y,z
1/2+x,1/2-y,1/2+z
loop_
_atom_site_type_symbol
_atom_site_label
_atom_site_fract_x
_atom_site_fract_y
_atom_site_fract_z
Si Si1 0.570120 0.657358 0.182710
Si Si2 0.188268 0.362642 0.565485
Si Si3 0.249753 0.580275 0.430157
Si Si4 0.927410 0.778054 0.482854
Si Si5 0.018343 0.663944 0.896016
Si Si6 0.826781 0.256430 0.595389
Si Si7 0.535743 0.912365 0.821735
Si Si8 0.925731 0.938556 0.258428
O O1 0.510626 0.721383 0.312719
O O2 0.709719 0.677816 0.166052
O O3 0.536200 0.518291 0.189684
O O4 0.522804 0.717591 0.069276
O O5 0.240254 0.493374 0.549596
O O6 0.297730 0.279066 0.569932
O O7 0.142283 0.334805 0.437931
O O8 0.086607 0.352282 0.687897
O O9 0.304924 0.696523 0.469452
O O10 0.122798 0.608514 0.413206
O O11 0.320245 0.529996 0.297385
O O12 0.953315 0.887832 0.387297
O O13 0.927501 0.662657 0.395496
O O14 0.006069 0.549180 0.811632
O O15 0.924525 0.652502 0.028315
O O16 0.885730 0.165192 0.676901
#
# Coordination Sequence:
#
# PCOD8054280 Si02
#       8
#     4   4   4   4   4   4   4   4
#     4  12  24  43  73 103 141 183 240 298 353 431
#     4  10  22  41  69  95 129 186 231 284 344 428
#     4  10  18  38  67  95 128 174 234 277 341 420
#     4  11  24  42  68 105 132 178 241 289 353 430
#     4  11  26  43  67 101 140 181 231 292 356 430
#     4  12  23  44  67 107 141 184 235 289 366 428
#     4  11  22  42  66  99 135 177 230 287 355 424
#     4  11  23  43  71  99 140 189 238 292 356 437
#
# _framework density 22.300633000000001
#
# number of rings (size 3 to 8) (size 9 to 14) (size 15 to 20)
#    0.000    1.000    2.500    6.750    1.750    0.000 
#    4.500    2.500    0.000    0.000    0.000    0.000 
#    0.000    0.000    0.000    0.000    0.000    0.000 
#
# Total GULP energy -198253.692366 kJ/mol
# GULP energy per Si atom -12390.855773 kJ/mol
# Density = 2.224988 g / cm^3
# Si number density = 22.300633 Si / 1000 Ang^3
#
#
#
# Elastic Constant Matrix: (Units=GPa)
#
#
# Indices 1 2 3 4 5 6 
#
# 1 83.2717 43.1486 34.3087 0.0000 -11.4469 0.0000
# 2 43.1486 75.1480 36.2718 0.0000 -3.1314 0.0000
# 3 34.3087 36.2718 97.8679 0.0000 -22.4055 0.0000
# 4 0.0000 0.0000 0.0000 41.3078 0.0000 -5.1364
# 5 -11.4469 -3.1314 -22.4055 0.0000 27.2608 0.0000
# 6 0.0000 0.0000 0.0000 -5.1364 0.0000 37.0490
#
#
#
# Elastic Compliance Matrix: (Units=1/GPa)
#
#
# Indices 1 2 3 4 5 6 
#
# 1 0.018350 -0.009486 -0.001728 0.000000 0.005196 0.000000
# 2 -0.009486 0.021434 -0.006118 0.000000 -0.006549 0.000000
# 3 -0.001728 -0.006118 0.015722 0.000000 0.011494 0.000000
# 4 0.000000 0.000000 0.000000 0.024633 0.000000 0.003415
# 5 0.005196 -0.006549 0.011494 0.000000 0.047559 0.000000
# 6 0.000000 0.000000 0.000000 0.003415 0.000000 0.027465
#
#
# Mechanical properties :
#
#
# Convention : Reuss Voigt Hill
#
# Bulk Modulus (GPa) = 47.97687 53.74956 50.86321
# Shear Modulus (GPa) = 25.40994 30.62742 28.01868
#
# Velocity S-wave (km/s) = 3.37920 3.70995 3.54843
# Velocity P-wave (km/s) = 6.06512 6.51968 6.29650
#
# Compressibility (1/GPa) = 0.02084338
#
# Stress axis : x y z
#
# Youngs Moduli (GPa) = 54.49518 46.65558 63.60427
#
# Poissons Ratio (x) = 0.44257 0.10989
# Poissons Ratio (y) = 0.51694 0.38911
# Poissons Ratio (z) = 0.09415 0.28543
#
# Static dielectric constant tensor:
#      x y z
#    x 4.013130 0.000000 -0.048390 
#    y 0.000000 3.984770 0.000000 
#    z -0.048390 0.000000 3.867200 
# 
# 
# High freq. dielectric constant tensor:
#      x y z
#    x 1.874930 0.000000 0.001760 
#    y 0.000000 1.860480 0.000000 
#    z 0.001760 0.000000 1.886530 
# 
# From -- ./inp_files/16165.got.cif
#   From: 2010.06.25/outbox.cif.g09.slc.cpg/sg9_9_cif.got.tgz:16165.got - 2010.06.27 21:40:51.
