data_PCOD8054284
_publ_section_title
;
Structure prediction by ZEFSAII (Michael W. Deem and Ramdas Pophale) SiO2 
 PCOD8054284
Probable space group: C C
;
_chemical_formula_sum "Si O2"
_cell_formula_units_Z 32
_cell_length_a 15.876464
_cell_length_b 9.158889
_cell_length_c 25.532507
_cell_angle_alpha 90.000000
_cell_angle_beta 25.612311
_cell_angle_gamma 90.000000
_cell_volume 1604.924815
_symmetry_space_group_name_H-M "C C"
_symmetry_group_IT_number 9
_symmetry_cell_setting 'monoclinic'
loop_
_space_group_symop_operation_xyz
x,y,z
x,-y,1/2+z
1/2+x,1/2+y,z
1/2+x,1/2-y,1/2+z
loop_
_atom_site_type_symbol
_atom_site_label
_atom_site_fract_x
_atom_site_fract_y
_atom_site_fract_z
Si Si1 0.590000 0.123802 0.126400
Si Si2 0.670891 0.183529 0.540490
Si Si3 0.324558 0.114746 0.042497
Si Si4 0.241706 0.307512 0.289375
Si Si5 0.671412 0.965111 0.695499
Si Si6 0.823367 0.619019 0.454929
Si Si7 0.984313 0.953507 0.600246
Si Si8 0.086606 0.213015 0.266725
O O1 0.380950 0.203647 0.245413
O O2 0.670149 0.108315 0.139893
O O3 0.569196 0.970616 0.108358
O O4 0.746323 0.218272 0.006413
O O5 0.732010 0.254833 0.560967
O O6 0.511126 0.284601 0.601346
O O7 0.863438 0.161581 0.396776
O O8 0.204142 0.099057 0.164032
O O9 0.547439 0.157436 0.931237
O O10 0.316362 0.965352 0.014387
O O11 0.345157 0.462039 0.219416
O O12 0.190547 0.222692 0.264569
O O13 0.540867 0.874053 0.810240
O O14 0.892819 0.961517 0.593351
O O15 0.589625 0.128655 0.737851
O O16 0.693789 0.533558 0.484220
#
# Coordination Sequence:
#
# PCOD8054284 Si02
#       8
#     4   4   4   4   4   4   4   4
#     4  11  24  38  61  97 123 157 204 268 309 357
#     4  10  20  39  58  93 124 154 204 259 302 364
#     4  10  18  39  65  86 116 170 210 242 306 377
#     4   9  20  38  59  92 120 161 207 255 308 363
#     4  11  20  40  64  90 119 168 208 245 319 369
#     4  10  21  41  62  87 128 157 206 262 302 373
#     4   9  18  39  66  82 120 167 200 247 310 368
#     4  10  19  38  65  87 120 168 205 248 304 377
#
# _framework density 19.938628000000001
#
# number of rings (size 3 to 8) (size 9 to 14) (size 15 to 20)
#    0.000    2.000    6.250    0.000    0.000    4.000 
#    6.750    5.000    0.000    0.000    0.000    0.000 
#    0.000    0.000    0.000    0.000    0.000    0.000 
#
# Total GULP energy -198395.368456 kJ/mol
# GULP energy per Si atom -12399.710528 kJ/mol
# Density = 1.989325 g / cm^3
# Si number density = 19.938628 Si / 1000 Ang^3
#
#
#
# Elastic Constant Matrix: (Units=GPa)
#
#
# Indices 1 2 3 4 5 6 
#
# 1 95.6505 33.3755 35.4575 -0.0010 -8.3968 0.0013
# 2 33.3755 98.6953 13.0890 -0.0024 -3.3529 -0.0007
# 3 35.4575 13.0890 79.8043 -0.0161 -0.0601 0.0026
# 4 -0.0010 -0.0024 -0.0161 20.9189 0.0030 1.2443
# 5 -8.3968 -3.3529 -0.0601 0.0030 30.9833 -0.0029
# 6 0.0013 -0.0007 0.0026 1.2443 -0.0029 21.6765
#
#
#
# Elastic Compliance Matrix: (Units=1/GPa)
#
#
# Indices 1 2 3 4 5 6 
#
# 1 0.014235 -0.003945 -0.005675 -0.000005 0.003420 0.000000
# 2 -0.003945 0.011490 -0.000132 0.000001 0.000174 0.000001
# 3 -0.005675 -0.000132 0.015073 0.000012 -0.001523 -0.000002
# 4 -0.000005 0.000001 0.000012 0.047967 -0.000006 -0.002753
# 5 0.003420 0.000174 -0.001523 -0.000006 0.033218 0.000005
# 6 0.000000 0.000001 -0.000002 -0.002753 0.000005 0.046291
#
#
# Mechanical properties :
#
#
# Convention : Reuss Voigt Hill
#
# Bulk Modulus (GPa) = 46.96165 48.66601 47.81383
# Shear Modulus (GPa) = 25.65737 27.53095 26.59416
#
# Velocity S-wave (km/s) = 3.59112 3.71992 3.65609
# Velocity P-wave (km/s) = 6.38741 6.55067 6.46956
#
# Compressibility (1/GPa) = 0.02129397
#
# Stress axis : x y z
#
# Youngs Moduli (GPa) = 70.24784 87.03496 66.34553
#
# Poissons Ratio (x) = 0.34336 0.37652
# Poissons Ratio (y) = 0.27713 0.00872
# Poissons Ratio (z) = 0.39867 0.01145
#
# Static dielectric constant tensor:
#      x y z
#    x 3.524160 0.000000 -0.190020 
#    y 0.000000 3.467330 0.000010 
#    z -0.190020 0.000010 3.651660 
# 
# 
# High freq. dielectric constant tensor:
#      x y z
#    x 1.766260 0.000000 -0.012660 
#    y 0.000000 1.764410 0.000000 
#    z -0.012660 0.000000 1.772890 
# 
# From -- ./inp_files/19169.got.cif
#   From: 2010.06.25/outbox.cif.g09.slc.cpg/sg9_10_cif.got.tgz:19169.got - 2010.06.27 21:40:51.
