data_PCOD8054780
_publ_section_title
;
Structure prediction by ZEFSAII (Michael W. Deem and Ramdas Pophale) SiO2 
 PCOD8054780
Probable space group: C C
;
_chemical_formula_sum "Si O2"
_cell_formula_units_Z 32
_cell_length_a 13.635967
_cell_length_b 11.866604
_cell_length_c 14.305033
_cell_angle_alpha 90.000000
_cell_angle_beta 135.616392
_cell_angle_gamma 90.000000
_cell_volume 1619.061923
_symmetry_space_group_name_H-M "C C"
_symmetry_group_IT_number 9
_symmetry_cell_setting 'monoclinic'
loop_
_space_group_symop_operation_xyz
x,y,z
x,-y,1/2+z
1/2+x,1/2+y,z
1/2+x,1/2-y,1/2+z
loop_
_atom_site_type_symbol
_atom_site_label
_atom_site_fract_x
_atom_site_fract_y
_atom_site_fract_z
Si Si1 0.334880 0.080672 0.835760
Si Si2 0.147034 0.515457 0.092420
Si Si3 0.065562 0.836096 0.908905
Si Si4 0.616397 0.158216 0.725957
Si Si5 0.784460 0.014865 0.983427
Si Si6 0.865314 0.337986 0.167308
Si Si7 0.595650 0.418632 0.740154
Si Si8 0.814179 0.840724 0.849659
O O1 0.335101 0.064963 0.722728
O O2 0.295152 0.206585 0.842580
O O3 0.216910 0.998711 0.790080
O O4 0.485420 0.048287 0.977548
O O5 0.162132 0.397741 0.159427
O O6 0.215703 0.498581 0.037905
O O7 0.222356 0.614765 0.200386
O O8 0.093266 0.933455 0.851681
O O9 0.966098 0.748153 0.789075
O O10 0.977888 0.875392 0.940044
O O11 0.216100 0.781978 0.038296
O O12 0.453253 0.122287 0.636606
O O13 0.633175 0.292498 0.731439
O O14 0.710072 0.114523 0.875904
O O15 0.946642 0.046240 0.098395
O O16 0.768060 0.897170 0.915663
#
# Coordination Sequence:
#
# PCOD8054780 Si02
#       8
#     4   4   4   4   4   4   4   4
#     4  11  24  38  67  94 129 162 216 262 320 373
#     4  11  23  43  64  93 127 173 207 264 324 378
#     4  10  21  35  63  93 125 160 212 263 311 367
#     4  10  24  40  65  94 128 163 217 261 315 388
#     4  11  23  43  64  93 127 173 207 264 324 378
#     4  10  21  35  63  93 125 160 212 263 311 367
#     4  11  24  38  67  94 129 162 216 262 320 373
#     4  10  24  40  65  94 128 163 217 261 315 388
#
# _framework density 19.764531000000002
#
# number of rings (size 3 to 8) (size 9 to 14) (size 15 to 20)
#    0.000    1.500    2.500    1.500   17.500    0.000 
#    0.000    5.000    0.000    0.000    0.000    0.000 
#    0.000    0.000    0.000    0.000    0.000    0.000 
#
# Total GULP energy -198292.572165 kJ/mol
# GULP energy per Si atom -12393.285760 kJ/mol
# Density = 1.971955 g / cm^3
# Si number density = 19.764531 Si / 1000 Ang^3
#
#
#
# Elastic Constant Matrix: (Units=GPa)
#
#
# Indices 1 2 3 4 5 6 
#
# 1 155.0256 78.9986 75.0189 0.0000 5.9580 0.0000
# 2 78.9986 127.0687 47.3306 0.0000 -0.7095 0.0000
# 3 75.0189 47.3306 137.0157 0.0000 22.9203 0.0000
# 4 0.0000 0.0000 0.0000 21.8680 0.0000 0.1813
# 5 5.9580 -0.7095 22.9203 0.0000 50.3384 0.0000
# 6 0.0000 0.0000 0.0000 0.1813 0.0000 32.4587
#
#
#
# Elastic Compliance Matrix: (Units=1/GPa)
#
#
# Indices 1 2 3 4 5 6 
#
# 1 0.011316 -0.005378 -0.004439 0.000000 0.000606 0.000000
# 2 -0.005378 0.011721 -0.001340 0.000000 0.001412 0.000000
# 3 -0.004439 -0.001340 0.010941 0.000000 -0.004475 0.000000
# 4 0.000000 0.000000 0.000000 0.045731 0.000000 -0.000255
# 5 0.000606 0.001412 -0.004475 0.000000 0.021851 0.000000
# 6 0.000000 0.000000 0.000000 -0.000255 0.000000 0.030810
#
#
# Mechanical properties :
#
#
# Convention : Reuss Voigt Hill
#
# Bulk Modulus (GPa) = 85.75158 91.31179 88.53168
# Shear Modulus (GPa) = 31.53129 35.45048 33.49088
#
# Velocity S-wave (km/s) = 3.99851 4.23973 4.12089
# Velocity P-wave (km/s) = 8.04974 8.38256 8.21783
#
# Compressibility (1/GPa) = 0.01166159
#
# Stress axis : x y z
#
# Youngs Moduli (GPa) = 88.36855 85.32023 91.40248
#
# Poissons Ratio (x) = 0.45888 0.40577
# Poissons Ratio (y) = 0.47528 0.12250
# Poissons Ratio (z) = 0.39230 0.11434
#
# Static dielectric constant tensor:
#      x y z
#    x 4.558870 0.000000 -0.047650 
#    y 0.000000 3.458670 0.000000 
#    z -0.047650 0.000000 3.748350 
# 
# 
# High freq. dielectric constant tensor:
#      x y z
#    x 1.782610 0.000000 0.008290 
#    y 0.000000 1.745660 0.000000 
#    z 0.008290 0.000000 1.788530 
# 
# From -- ./inp_files/25920.got.cif
#   From: 2010.06.25/outbox.cif.g09.slc.cpg/sg9_13_cif.got.tgz:25920.got - 2010.06.27 21:40:51.
