data_PCOD8054286
_publ_section_title
;
Structure prediction by ZEFSAII (Michael W. Deem and Ramdas Pophale) SiO2 
 PCOD8054286
Probable space group: C C
;
_chemical_formula_sum "Si O2"
_cell_formula_units_Z 24
_cell_length_a 16.602972
_cell_length_b 15.492362
_cell_length_c 7.698315
_cell_angle_alpha 90.000000
_cell_angle_beta 38.134653
_cell_angle_gamma 90.000000
_cell_volume 1222.768790
_symmetry_space_group_name_H-M "C C"
_symmetry_group_IT_number 9
_symmetry_cell_setting 'monoclinic'
loop_
_space_group_symop_operation_xyz
x,y,z
x,-y,1/2+z
1/2+x,1/2+y,z
1/2+x,1/2-y,1/2+z
loop_
_atom_site_type_symbol
_atom_site_label
_atom_site_fract_x
_atom_site_fract_y
_atom_site_fract_z
Si Si1 0.363520 0.092430 0.094150
Si Si2 0.919986 0.981306 0.602059
Si Si3 0.016189 0.681336 0.133647
Si Si4 0.982829 0.571364 0.524184
Si Si5 0.722176 0.950151 0.197486
Si Si6 0.562416 0.619357 0.568367
O O1 0.408798 0.153025 0.175317
O O2 0.216636 0.115754 0.300438
O O3 0.370687 0.993420 0.145696
O O4 0.449718 0.106433 0.772935
O O5 0.005677 0.916701 0.344362
O O6 0.775217 0.007125 0.782438
O O7 0.864000 0.932466 0.866145
O O8 0.007009 0.064248 0.502176
O O9 0.986386 0.649508 0.380426
O O10 0.015899 0.783392 0.129411
O O11 0.155400 0.642259 0.840151
O O12 0.117860 0.517880 0.294384
#
# Coordination Sequence:
#
# PCOD8054286 Si02
#       6
#     4   4   4   4   4   4
#     4  11  22  41  66  94 132 165 211 260 322 380
#     4  10  22  40  64  85 130 172 198 254 332 377
#     4  11  24  40  68  97 121 165 220 272 300 370
#     4  11  20  40  71  96 120 172 210 261 317 374
#     4  10  18  39  67  91 122 162 215 252 313 378
#     4  11  26  42  60  95 129 168 210 263 324 377
#
# _framework density 19.627586000000001
#
# number of rings (size 3 to 8) (size 9 to 14) (size 15 to 20)
#    0.000    1.333    5.000    2.000    2.333    1.333 
#    3.000    0.000    0.000    0.000    0.000    0.000 
#    0.000    0.000    0.000    0.000    0.000    0.000 
#
# Total GULP energy -148700.399764 kJ/mol
# GULP energy per Si atom -12391.699980 kJ/mol
# Density = 1.958291 g / cm^3
# Si number density = 19.627586 Si / 1000 Ang^3
#
#
#
# Elastic Constant Matrix: (Units=GPa)
#
#
# Indices 1 2 3 4 5 6 
#
# 1 88.1343 34.8342 36.3002 0.0000 7.0681 0.0000
# 2 34.8342 125.7157 43.9895 0.0000 1.4124 0.0000
# 3 36.3002 43.9895 107.9579 0.0000 5.0999 0.0000
# 4 0.0000 0.0000 0.0000 24.2618 0.0000 5.8753
# 5 7.0681 1.4124 5.0999 0.0000 22.4078 0.0000
# 6 0.0000 0.0000 0.0000 5.8753 0.0000 27.4106
#
#
#
# Elastic Compliance Matrix: (Units=1/GPa)
#
#
# Indices 1 2 3 4 5 6 
#
# 1 0.014115 -0.002646 -0.003503 0.000000 -0.003488 0.000000
# 2 -0.002646 0.009775 -0.003137 0.000000 0.000933 0.000000
# 3 -0.003503 -0.003137 0.011784 0.000000 -0.001379 0.000000
# 4 0.000000 0.000000 0.000000 0.043474 0.000000 -0.009318
# 5 -0.003488 0.000933 -0.001379 0.000000 0.045983 0.000000
# 6 0.000000 0.000000 0.000000 -0.009318 0.000000 0.038480
#
#
# Mechanical properties :
#
#
# Convention : Reuss Voigt Hill
#
# Bulk Modulus (GPa) = 58.47576 61.33953 59.90764
# Shear Modulus (GPa) = 26.61230 28.59497 27.60363
#
# Velocity S-wave (km/s) = 3.68620 3.82105 3.75423
# Velocity P-wave (km/s) = 6.92638 7.12648 7.02714
#
# Compressibility (1/GPa) = 0.01710110
#
# Stress axis : x y z
#
# Youngs Moduli (GPa) = 70.84824 102.30227 84.85893
#
# Poissons Ratio (x) = 0.27070 0.29726
# Poissons Ratio (y) = 0.18747 0.26623
# Poissons Ratio (z) = 0.24818 0.32096
#
# Static dielectric constant tensor:
#      x y z
#    x 3.836360 0.000000 0.125590 
#    y 0.000000 3.316840 0.000000 
#    z 0.125590 0.000000 3.528590 
# 
# 
# High freq. dielectric constant tensor:
#      x y z
#    x 1.784020 0.000000 0.006270 
#    y 0.000000 1.736890 0.000000 
#    z 0.006270 0.000000 1.774560 
# 
# From -- ./inp_files/4979.got.cif
#   From: 2010.06.25/outbox.cif.g09.slc.cpg/sg9_3_cif.got.tgz:4979.got - 2010.06.27 21:40:51.
