data_PCOD8054765
_publ_section_title
;
Structure prediction by ZEFSAII (Michael W. Deem and Ramdas Pophale) SiO2 
 PCOD8054765
Probable space group: C C
;
_chemical_formula_sum "Si O2"
_cell_formula_units_Z 24
_cell_length_a 27.122828
_cell_length_b 7.113626
_cell_length_c 14.500071
_cell_angle_alpha 90.000000
_cell_angle_beta 157.606908
_cell_angle_gamma 90.000000
_cell_volume 1065.796415
_symmetry_space_group_name_H-M "C C"
_symmetry_group_IT_number 9
_symmetry_cell_setting 'monoclinic'
loop_
_space_group_symop_operation_xyz
x,y,z
x,-y,1/2+z
1/2+x,1/2+y,z
1/2+x,1/2-y,1/2+z
loop_
_atom_site_type_symbol
_atom_site_label
_atom_site_fract_x
_atom_site_fract_y
_atom_site_fract_z
Si Si1 0.081040 0.499267 0.292430
Si Si2 0.845338 0.187104 0.281463
Si Si3 0.554744 0.867102 0.553106
Si Si4 0.655035 0.171480 0.609283
Si Si5 0.170971 0.905039 0.109623
Si Si6 0.943253 0.874104 0.570674
O O1 0.215765 0.394553 0.516366
O O2 0.080437 0.647415 0.207869
O O3 0.077309 0.615577 0.381478
O O4 0.965601 0.344651 0.080423
O O5 0.804879 0.340551 0.291087
O O6 0.907807 0.289037 0.298953
O O7 0.945876 0.024892 0.491192
O O8 0.648570 0.741813 0.653168
O O9 0.569959 0.081977 0.544955
O O10 0.676204 0.390666 0.662870
O O11 0.799284 0.087899 0.860720
O O12 0.050842 0.914479 0.832621
#
# Coordination Sequence:
#
# PCOD8054765 Si02
#       6
#     4   4   4   4   4   4
#     4  10  23  43  66  97 137 175 226 279 332 400
#     4  10  23  43  66  97 137 175 226 279 332 400
#     4  12  24  42  69 104 130 181 228 266 344 400
#     4  11  24  45  67  98 135 178 224 278 336 397
#     4  11  24  45  67  98 135 178 224 278 336 397
#     4  10  20  46  69  88 138 175 218 290 324 392
#
# _framework density 22.518373
#
# number of rings (size 3 to 8) (size 9 to 14) (size 15 to 20)
#    0.000    1.333    5.000    2.000    4.667    0.000 
#    0.000    6.667    0.000    0.000    0.000    0.000 
#    0.000    0.000    0.000    0.000    0.000    0.000 
#
# Total GULP energy -148671.070991 kJ/mol
# GULP energy per Si atom -12389.255916 kJ/mol
# Density = 2.246712 g / cm^3
# Si number density = 22.518373 Si / 1000 Ang^3
#
#
#
# Elastic Constant Matrix: (Units=GPa)
#
#
# Indices 1 2 3 4 5 6 
#
# 1 101.2198 20.3015 2.2592 0.0000 12.7556 0.0000
# 2 20.3015 116.0010 7.5110 0.0000 12.9799 0.0000
# 3 2.2592 7.5110 37.4197 0.0000 -9.6426 0.0000
# 4 0.0000 0.0000 0.0000 34.4315 0.0000 -5.3512
# 5 12.7556 12.9799 -9.6426 0.0000 22.9010 0.0000
# 6 0.0000 0.0000 0.0000 -5.3512 0.0000 28.4087
#
#
#
# Elastic Compliance Matrix: (Units=1/GPa)
#
#
# Indices 1 2 3 4 5 6 
#
# 1 0.010943 -0.001067 -0.002088 0.000000 -0.006369 0.000000
# 2 -0.001067 0.009757 -0.003551 0.000000 -0.006431 0.000000
# 3 -0.002088 -0.003551 0.031835 0.000000 0.016580 0.000000
# 4 0.000000 0.000000 0.000000 0.029919 0.000000 0.005636
# 5 -0.006369 -0.006431 0.016580 0.000000 0.057840 0.000000
# 6 0.000000 0.000000 0.000000 0.005636 0.000000 0.036262
#
#
# Mechanical properties :
#
#
# Convention : Reuss Voigt Hill
#
# Bulk Modulus (GPa) = 25.56060 34.97597 30.26829
# Shear Modulus (GPa) = 24.62945 32.11950 28.37448
#
# Velocity S-wave (km/s) = 3.31078 3.78083 3.55358
# Velocity P-wave (km/s) = 5.09810 5.88434 5.50527
#
# Compressibility (1/GPa) = 0.03912271
#
# Stress axis : x y z
#
# Youngs Moduli (GPa) = 91.38444 102.49146 31.41174
#
# Poissons Ratio (x) = 0.10939 0.06558
# Poissons Ratio (y) = 0.09753 0.11155
# Poissons Ratio (z) = 0.19078 0.36396
#
# Static dielectric constant tensor:
#      x y z
#    x 3.949930 0.000000 0.118120 
#    y 0.000000 4.502200 0.000000 
#    z 0.118120 0.000000 3.942780 
# 
# 
# High freq. dielectric constant tensor:
#      x y z
#    x 1.875240 0.000000 0.011930 
#    y 0.000000 1.904930 0.000000 
#    z 0.011930 0.000000 1.879130 
# 
# From -- ./inp_files/28257.got.cif
#   From: 2010.06.25/outbox.cif.g09.slc.cpg/sg9_15_cif.got.tgz:28257.got - 2010.06.27 21:40:51.
