data_PCOD8054071
_publ_section_title
;
Structure prediction by ZEFSAII (Michael W. Deem and Ramdas Pophale) SiO2 
 PCOD8054071
Probable space group: C M
;
_chemical_formula_sum "Si O2"
_cell_formula_units_Z 32
_cell_length_a 14.736226
_cell_length_b 22.243359
_cell_length_c 9.164239
_cell_angle_alpha 90.000000
_cell_angle_beta 149.843579
_cell_angle_gamma 90.000000
_cell_volume 1509.038116
_symmetry_space_group_name_H-M "C M"
_symmetry_group_IT_number 8
_symmetry_cell_setting 'monoclinic'
loop_
_space_group_symop_operation_xyz
x,y,z
x,-y,z
1/2+x,1/2+y,z
1/2+x,1/2-y,z
loop_
_atom_site_type_symbol
_atom_site_label
_atom_site_fract_x
_atom_site_fract_y
_atom_site_fract_z
Si Si1 0.914290 0.133209 0.198960
Si Si2 0.104350 0.431559 0.608026
Si Si3 0.253086 0.246321 0.915597
Si Si4 0.377683 0.769562 0.551512
Si Si5 0.390379 0.363367 0.514354
Si Si6 0.275997 0.847529 0.169744
Si Si7 0.591881 0.930748 0.253869
Si Si8 0.798420 0.659834 0.724365
O O1 0.889457 0.137908 0.338433
O O2 0.121413 0.119543 0.440126
O O3 0.780810 0.083408 0.948556
O O4 0.875185 0.195857 0.062952
O O5 0.056217 0.500000 0.570301
O O6 0.143876 0.418902 0.493599
O O7 0.927354 0.396493 0.416624
O O8 0.221001 0.213007 0.718764
O O9 0.068211 0.268497 0.732937
O O10 0.355870 0.198714 0.161741
O O11 0.314565 0.699988 0.475667
O O12 0.234846 0.808253 0.257641
O O13 0.396612 0.805527 0.728999
O O14 0.266352 0.417312 0.397890
O O15 0.592292 0.376873 0.853293
O O16 0.533399 0.000000 0.147011
O O17 0.432580 0.886165 0.987881
#
# Coordination Sequence:
#
# PCOD8054071 Si02
#       8
#     4   4   4   4   4   4   4   4
#     4  12  24  42  67 104 134 181 229 281 347 414
#     4  11  26  46  70  98 136 183 234 283 342 411
#     4  11  21  42  65 102 145 176 218 284 351 418
#     4  11  24  39  67 108 145 170 226 281 348 419
#     4  11  25  42  68 101 139 181 226 282 346 411
#     4  11  21  44  67  99 140 179 219 287 346 409
#     4  11  27  49  67  97 139 186 238 285 336 410
#     4  12  26  42  71 103 136 192 224 283 352 408
#
# _framework density 21.205562
#
# number of rings (size 3 to 8) (size 9 to 14) (size 15 to 20)
#    0.000    0.750    6.250    0.750    7.000    1.500 
#    0.000    0.000    0.000    0.000    0.000    0.000 
#    0.000    0.000    0.000    0.000    0.000    0.000 
#
# Total GULP energy -198365.376548 kJ/mol
# GULP energy per Si atom -12397.836034 kJ/mol
# Density = 2.115730 g / cm^3
# Si number density = 21.205562 Si / 1000 Ang^3
#
#
#
# Elastic Constant Matrix: (Units=GPa)
#
#
# Indices 1 2 3 4 5 6 
#
# 1 88.2547 37.6579 42.2113 0.0000 -0.6406 0.0000
# 2 37.6579 90.1122 46.4341 0.0000 0.2735 0.0000
# 3 42.2113 46.4341 119.8041 0.0000 -1.7321 0.0000
# 4 0.0000 0.0000 0.0000 26.7943 0.0000 -4.5097
# 5 -0.6406 0.2735 -1.7321 0.0000 30.1378 0.0000
# 6 0.0000 0.0000 0.0000 -4.5097 0.0000 29.5922
#
#
#
# Elastic Compliance Matrix: (Units=1/GPa)
#
#
# Indices 1 2 3 4 5 6 
#
# 1 0.014906 -0.004404 -0.003543 0.000000 0.000153 0.000000
# 2 -0.004404 0.015174 -0.004336 0.000000 -0.000481 0.000000
# 3 -0.003543 -0.004336 0.011285 0.000000 0.000613 0.000000
# 4 0.000000 0.000000 0.000000 0.038304 0.000000 0.005837
# 5 0.000153 -0.000481 0.000613 0.000000 0.033224 0.000000
# 6 0.000000 0.000000 0.000000 0.005837 0.000000 0.034682
#
#
# Mechanical properties :
#
#
# Convention : Reuss Voigt Hill
#
# Bulk Modulus (GPa) = 59.53095 61.19751 60.36423
# Shear Modulus (GPa) = 28.13116 28.76272 28.44694
#
# Velocity S-wave (km/s) = 3.64619 3.68690 3.66660
# Velocity P-wave (km/s) = 6.77204 6.85902 6.81567
#
# Compressibility (1/GPa) = 0.01679798
#
# Stress axis : x y z
#
# Youngs Moduli (GPa) = 67.08927 65.90373 88.61565
#
# Poissons Ratio (x) = 0.29024 0.31393
# Poissons Ratio (y) = 0.29546 0.38427
# Poissons Ratio (z) = 0.23767 0.28578
#
# Static dielectric constant tensor:
#      x y z
#    x 3.794200 0.000000 -0.140980 
#    y 0.000000 3.849860 0.000000 
#    z -0.140980 0.000000 4.041770 
# 
# 
# High freq. dielectric constant tensor:
#      x y z
#    x 1.822940 0.000000 -0.006830 
#    y 0.000000 1.819300 0.000000 
#    z -0.006830 0.000000 1.846420 
# 
# From -- ./inp_files/13833.got.cif
#   From: 2010.03.12/outbox.cif.g09.slc.cpg/sg8_7_cif.got.tgz:13833.got - 2010.03.31 10:45:26.
