data_PCOD8054959
_publ_section_title
;
Structure prediction by ZEFSAII (Michael W. Deem and Ramdas Pophale) SiO2 
 PCOD8054959
Probable space group: C C
;
_chemical_formula_sum "Si O2"
_cell_formula_units_Z 32
_cell_length_a 13.798316
_cell_length_b 6.346346
_cell_length_c 15.661853
_cell_angle_alpha 90.000000
_cell_angle_beta 88.268864
_cell_angle_gamma 90.000000
_cell_volume 1370.865084
_symmetry_space_group_name_H-M "C C"
_symmetry_group_IT_number 9
_symmetry_cell_setting 'monoclinic'
loop_
_space_group_symop_operation_xyz
x,y,z
x,-y,1/2+z
1/2+x,1/2+y,z
1/2+x,1/2-y,1/2+z
loop_
_atom_site_type_symbol
_atom_site_label
_atom_site_fract_x
_atom_site_fract_y
_atom_site_fract_z
Si Si1 0.435100 0.631407 0.891870
Si Si2 0.147546 0.721753 0.408533
Si Si3 0.552838 0.423466 0.132538
Si Si4 0.826857 0.532788 0.863685
Si Si5 0.403221 0.717225 0.513394
Si Si6 0.620180 0.958962 0.737926
Si Si7 0.951884 0.212481 0.253501
Si Si8 0.205846 0.273124 0.089518
O O1 0.533681 0.741796 0.918973
O O2 0.385892 0.515762 0.973891
O O3 0.470947 0.461518 0.823720
O O4 0.355035 0.788152 0.852553
O O5 0.214375 0.932777 0.391941
O O6 0.173200 0.568185 0.328226
O O7 0.179020 0.621737 0.498512
O O8 0.584554 0.270835 0.208334
O O9 0.467397 0.589279 0.163474
O O10 0.646857 0.555324 0.101189
O O11 0.508311 0.281821 0.057168
O O12 0.899191 0.612766 0.937395
O O13 0.849703 0.667653 0.775577
O O14 0.320773 0.773027 0.585500
O O15 0.529444 0.103889 0.758426
O O16 0.690380 0.063891 0.666784
#
# Coordination Sequence:
#
# PCOD8054959 Si02
#       8
#     4   4   4   4   4   4   4   4
#     4  11  21  45  68  95 138 182 232 292 353 422
#     4  11  22  45  66  99 143 181 235 300 350 424
#     4  11  22  40  62  93 137 177 226 295 351 421
#     4  10  23  40  66  98 129 182 242 282 359 430
#     4  10  24  42  66  96 134 180 233 295 352 426
#     4  11  24  43  70 102 138 187 235 296 356 428
#     4  10  21  41  60  95 134 172 231 280 352 422
#     4  10  25  44  64 102 135 179 240 284 361 425
#
# _framework density 23.342925000000001
#
# number of rings (size 3 to 8) (size 9 to 14) (size 15 to 20)
#    0.000    1.500    3.750    0.000    3.500    2.000 
#   11.250    0.000    0.000    0.000    0.000    0.000 
#    0.000    0.000    0.000    0.000    0.000    0.000 
#
# Total GULP energy -198254.252619 kJ/mol
# GULP energy per Si atom -12390.890789 kJ/mol
# Density = 2.328980 g / cm^3
# Si number density = 23.342925 Si / 1000 Ang^3
#
#
#
# Elastic Constant Matrix: (Units=GPa)
#
#
# Indices 1 2 3 4 5 6 
#
# 1 73.2343 26.4073 9.3876 0.0000 -23.2326 0.0000
# 2 26.4073 81.2912 36.5533 0.0000 -8.5904 0.0000
# 3 9.3876 36.5533 103.1526 0.0000 -10.5921 0.0000
# 4 0.0000 0.0000 0.0000 28.9179 0.0000 -6.9473
# 5 -23.2326 -8.5904 -10.5921 0.0000 39.2558 0.0000
# 6 0.0000 0.0000 0.0000 -6.9473 0.0000 28.4140
#
#
#
# Elastic Compliance Matrix: (Units=1/GPa)
#
#
# Indices 1 2 3 4 5 6 
#
# 1 0.018752 -0.005609 0.001332 0.000000 0.010230 0.000000
# 2 -0.005609 0.016443 -0.005439 0.000000 -0.001189 0.000000
# 3 0.001332 -0.005439 0.011786 0.000000 0.002778 0.000000
# 4 0.000000 0.000000 0.000000 0.036739 0.000000 0.008983
# 5 0.010230 -0.001189 0.002778 0.000000 0.032018 0.000000
# 6 0.000000 0.000000 0.000000 0.008983 0.000000 0.037390
#
#
# Mechanical properties :
#
#
# Convention : Reuss Voigt Hill
#
# Bulk Modulus (GPa) = 36.29944 44.70827 40.50385
# Shear Modulus (GPa) = 27.51142 31.67288 29.59215
#
# Velocity S-wave (km/s) = 3.43676 3.68754 3.56436
# Velocity P-wave (km/s) = 5.59757 6.10942 5.85909
#
# Compressibility (1/GPa) = 0.02754863
#
# Stress axis : x y z
#
# Youngs Moduli (GPa) = 53.32776 60.81441 84.84890
#
# Poissons Ratio (x) = 0.34113 -0.11298
# Poissons Ratio (y) = 0.29913 0.46145
# Poissons Ratio (z) = -0.07101 0.33074
#
# Static dielectric constant tensor:
#      x y z
#    x 4.022510 0.000000 -0.284030 
#    y 0.000000 4.153240 0.000000 
#    z -0.284030 0.000000 4.442620 
# 
# 
# High freq. dielectric constant tensor:
#      x y z
#    x 1.913520 0.000000 -0.022760 
#    y 0.000000 1.910750 0.000000 
#    z -0.022760 0.000000 1.928370 
# 
# From -- ./inp_files/30391.got.cif
#   From: 2010.06.25/outbox.cif.g09.slc.cpg/sg9_16_cif.got.tgz:30391.got - 2010.06.27 21:40:51.
