data_PCOD8054891
_publ_section_title
;
Structure prediction by ZEFSAII (Michael W. Deem and Ramdas Pophale) SiO2 
 PCOD8054891
Probable space group: C C
;
_chemical_formula_sum "Si O2"
_cell_formula_units_Z 32
_cell_length_a 8.029039
_cell_length_b 21.721077
_cell_length_c 14.806013
_cell_angle_alpha 90.000000
_cell_angle_beta 145.759262
_cell_angle_gamma 90.000000
_cell_volume 1452.906989
_symmetry_space_group_name_H-M "C C"
_symmetry_group_IT_number 9
_symmetry_cell_setting 'monoclinic'
loop_
_space_group_symop_operation_xyz
x,y,z
x,-y,1/2+z
1/2+x,1/2+y,z
1/2+x,1/2-y,1/2+z
loop_
_atom_site_type_symbol
_atom_site_label
_atom_site_fract_x
_atom_site_fract_y
_atom_site_fract_z
Si Si1 0.594180 0.990254 0.520640
Si Si2 0.335712 0.801786 0.984290
Si Si3 0.163031 0.063767 0.194049
Si Si4 0.685442 0.289352 0.324335
Si Si5 0.758152 0.709492 0.252310
Si Si6 0.316070 0.396023 0.215536
Si Si7 0.165010 0.306514 0.677529
Si Si8 0.799852 0.580964 0.058265
O O1 0.357882 0.024126 0.350808
O O2 0.805974 0.039801 0.661020
O O3 0.441958 0.955255 0.536764
O O4 0.814203 0.947683 0.559189
O O5 0.403972 0.776969 0.914847
O O6 0.002994 0.827923 0.830113
O O7 0.443458 0.746265 0.098592
O O8 0.500474 0.864363 0.086482
O O9 0.215238 0.136661 0.223005
O O10 0.266362 0.044173 0.138114
O O11 0.501903 0.238373 0.296820
O O12 0.524880 0.354332 0.245914
O O13 0.694876 0.262755 0.228681
O O14 0.013974 0.299613 0.511961
O O15 0.463851 0.402129 0.380322
O O16 0.982723 0.355847 0.655750
#
# Coordination Sequence:
#
# PCOD8054891 Si02
#       8
#     4   4   4   4   4   4   4   4
#     4  12  26  49  70 101 140 186 237 296 342 411
#     4  11  23  39  68  99 139 179 222 286 351 412
#     4  12  27  47  74 103 139 188 242 286 352 417
#     4  10  21  39  67  94 138 174 219 275 348 417
#     4  11  22  42  65 101 135 182 226 281 351 418
#     4  10  23  44  69  92 141 187 216 292 356 401
#     4  11  22  40  65 104 135 178 224 282 348 415
#     4  11  26  46  72 102 139 186 238 290 348 417
#
# _framework density 22.024808
#
# number of rings (size 3 to 8) (size 9 to 14) (size 15 to 20)
#    0.000    1.000    3.750    3.000    5.250    1.000 
#    0.000    0.000    0.000    0.000    0.000    0.000 
#    0.000    0.000    0.000    0.000    0.000    0.000 
#
# Total GULP energy -198222.162906 kJ/mol
# GULP energy per Si atom -12388.885182 kJ/mol
# Density = 2.197468 g / cm^3
# Si number density = 22.024808 Si / 1000 Ang^3
#
#
#
# Elastic Constant Matrix: (Units=GPa)
#
#
# Indices 1 2 3 4 5 6 
#
# 1 82.3500 23.3440 25.9314 -0.0210 2.1607 -0.0034
# 2 23.3440 101.0034 38.8510 0.0013 -2.7661 0.0043
# 3 25.9314 38.8510 123.8190 -0.1545 23.5210 -0.0405
# 4 -0.0210 0.0013 -0.1545 36.1560 -0.0392 -6.8675
# 5 2.1607 -2.7661 23.5210 -0.0392 32.1237 -0.0108
# 6 -0.0034 0.0043 -0.0405 -6.8675 -0.0108 25.1815
#
#
#
# Elastic Compliance Matrix: (Units=1/GPa)
#
#
# Indices 1 2 3 4 5 6 
#
# 1 0.013463 -0.002246 -0.002214 -0.000001 0.000522 -0.000002
# 2 -0.002246 0.012127 -0.004137 -0.000017 0.004225 -0.000012
# 3 -0.002214 -0.004137 0.011473 0.000044 -0.008608 0.000027
# 4 -0.000001 -0.000017 0.000044 0.029169 0.000005 0.007955
# 5 0.000522 0.004225 -0.008608 0.000005 0.037761 0.000003
# 6 -0.000002 -0.000012 0.000027 0.007955 0.000003 0.041881
#
#
# Mechanical properties :
#
#
# Convention : Reuss Voigt Hill
#
# Bulk Modulus (GPa) = 50.32882 53.71391 52.02136
# Shear Modulus (GPa) = 29.46503 33.29531 31.38017
#
# Velocity S-wave (km/s) = 3.66158 3.89230 3.77870
# Velocity P-wave (km/s) = 6.38567 6.68138 6.53520
#
# Compressibility (1/GPa) = 0.01986933
#
# Stress axis : x y z
#
# Youngs Moduli (GPa) = 74.27537 82.46217 87.15751
#
# Poissons Ratio (x) = 0.18518 0.19299
# Poissons Ratio (y) = 0.16680 0.36059
# Poissons Ratio (z) = 0.16446 0.34117
#
# Static dielectric constant tensor:
#      x y z
#    x 4.041900 0.000000 -0.092360 
#    y 0.000000 4.020780 0.000040 
#    z -0.092360 0.000040 4.325510 
# 
# 
# High freq. dielectric constant tensor:
#      x y z
#    x 1.849970 0.000000 0.006060 
#    y 0.000000 1.867270 0.000000 
#    z 0.006060 0.000000 1.888280 
# 
# From -- ./inp_files/6152.got.cif
#   From: 2010.06.25/outbox.cif.g09.slc.cpg/sg9_4_cif.got.tgz:6152.got - 2010.06.27 21:40:51.
