data_PCOD8054639
_publ_section_title
;
Structure prediction by ZEFSAII (Michael W. Deem and Ramdas Pophale) SiO2 
 PCOD8054639
Probable space group: C C
;
_chemical_formula_sum "Si O2"
_cell_formula_units_Z 28
_cell_length_a 8.261061
_cell_length_b 25.559322
_cell_length_c 5.269925
_cell_angle_alpha 90.000000
_cell_angle_beta 84.372496
_cell_angle_gamma 90.000000
_cell_volume 1107.366613
_symmetry_space_group_name_H-M "C C"
_symmetry_group_IT_number 9
_symmetry_cell_setting 'monoclinic'
loop_
_space_group_symop_operation_xyz
x,y,z
x,-y,1/2+z
1/2+x,1/2+y,z
1/2+x,1/2-y,1/2+z
loop_
_atom_site_type_symbol
_atom_site_label
_atom_site_fract_x
_atom_site_fract_y
_atom_site_fract_z
Si Si1 0.484310 0.343164 0.773060
Si Si2 0.641397 0.239761 0.715869
Si Si3 0.661178 0.020470 0.990570
Si Si4 0.412384 0.803589 0.880285
Si Si5 0.672851 0.366338 0.222570
Si Si6 0.652646 0.861132 0.565361
Si Si7 0.798632 0.477346 0.121630
O O1 0.508895 0.281837 0.840581
O O2 0.593955 0.356967 0.509195
O O3 0.298094 0.355992 0.746260
O O4 0.538221 0.374027 0.019661
O O5 0.575661 0.226750 0.444294
O O6 0.817728 0.267481 0.691855
O O7 0.659266 0.185741 0.863681
O O8 0.655563 0.082334 0.934224
O O9 0.754565 0.007646 0.241117
O O10 0.487175 0.993325 0.067674
O O11 0.293961 0.818436 0.132186
O O12 0.477832 0.856097 0.732666
O O13 0.783747 0.417701 0.211100
O O14 0.714607 0.511000 0.362792
#
# Coordination Sequence:
#
# PCOD8054639 Si02
#       7
#     4   4   4   4   4   4   4
#     4  11  28  49  73 113 156 198 252 311 393 460
#     4  11  27  43  71 111 154 199 250 309 380 457
#     4  10  24  44  71 107 140 185 258 310 367 440
#     4  11  27  43  77 103 154 201 260 304 385 453
#     4  11  26  49  74 109 151 200 250 319 380 453
#     4  12  28  47  78 109 155 204 251 323 377 451
#     4  10  20  39  72 104 140 181 253 304 362 442
#
# _framework density 25.285209999999999
#
# number of rings (size 3 to 8) (size 9 to 14) (size 15 to 20)
#    0.000    1.143    1.429    2.571   18.000    0.000 
#    0.000    4.286    0.000    0.000    0.000    0.000 
#    0.000    0.000    0.000    0.000    0.000    0.000 
#
# Total GULP energy -173458.257888 kJ/mol
# GULP energy per Si atom -12389.875563 kJ/mol
# Density = 2.522766 g / cm^3
# Si number density = 25.285210 Si / 1000 Ang^3
#
#
#
# Elastic Constant Matrix: (Units=GPa)
#
#
# Indices 1 2 3 4 5 6 
#
# 1 96.5699 22.4495 18.2913 0.0000 18.5461 0.0000
# 2 22.4495 101.4980 8.1888 0.0000 7.5440 0.0000
# 3 18.2913 8.1888 130.4996 0.0000 7.0300 0.0000
# 4 0.0000 0.0000 0.0000 38.6950 0.0000 0.2395
# 5 18.5461 7.5440 7.0300 0.0000 38.6226 0.0000
# 6 0.0000 0.0000 0.0000 0.2395 0.0000 31.1602
#
#
#
# Elastic Compliance Matrix: (Units=1/GPa)
#
#
# Indices 1 2 3 4 5 6 
#
# 1 0.012095 -0.002189 -0.001281 0.000000 -0.005147 0.000000
# 2 -0.002189 0.010430 -0.000297 0.000000 -0.000932 0.000000
# 3 -0.001281 -0.000297 0.007902 0.000000 -0.000765 0.000000
# 4 0.000000 0.000000 0.000000 0.025844 0.000000 -0.000199
# 5 -0.005147 -0.000932 -0.000765 0.000000 0.028685 0.000000
# 6 0.000000 0.000000 0.000000 -0.000199 0.000000 0.032094
#
#
# Mechanical properties :
#
#
# Convention : Reuss Voigt Hill
#
# Bulk Modulus (GPa) = 43.68230 47.38075 45.53153
# Shear Modulus (GPa) = 37.81700 40.33809 39.07754
#
# Velocity S-wave (km/s) = 3.87152 3.99848 3.93551
# Velocity P-wave (km/s) = 6.10722 6.33217 6.22071
#
# Compressibility (1/GPa) = 0.02289257
#
# Stress axis : x y z
#
# Youngs Moduli (GPa) = 82.67714 95.87817 126.54629
#
# Poissons Ratio (x) = 0.20991 0.16206
# Poissons Ratio (y) = 0.18101 0.03764
# Poissons Ratio (z) = 0.10588 0.02852
#
# Static dielectric constant tensor:
#      x y z
#    x 4.463090 0.000000 0.487830 
#    y 0.000000 4.537090 0.000000 
#    z 0.487830 0.000000 6.491970 
# 
# 
# High freq. dielectric constant tensor:
#      x y z
#    x 1.987410 0.000000 0.015880 
#    y 0.000000 2.009330 0.000000 
#    z 0.015880 0.000000 2.022470 
# 
# From -- ./inp_files/875.got.cif
#   From: 2010.06.25/outbox.cif.g09.slc.cpg/sg9_1_cif.got.tgz:875.got - 2010.06.27 21:40:51.
