data_PCOD8054322
_publ_section_title
;
Structure prediction by ZEFSAII (Michael W. Deem and Ramdas Pophale) SiO2 
 PCOD8054322
Probable space group: C C
;
_chemical_formula_sum "Si O2"
_cell_formula_units_Z 32
_cell_length_a 14.772872
_cell_length_b 8.146819
_cell_length_c 16.036406
_cell_angle_alpha 90.000000
_cell_angle_beta 123.799135
_cell_angle_gamma 90.000000
_cell_volume 1603.826340
_symmetry_space_group_name_H-M "C C"
_symmetry_group_IT_number 9
_symmetry_cell_setting 'monoclinic'
loop_
_space_group_symop_operation_xyz
x,y,z
x,-y,1/2+z
1/2+x,1/2+y,z
1/2+x,1/2-y,1/2+z
loop_
_atom_site_type_symbol
_atom_site_label
_atom_site_fract_x
_atom_site_fract_y
_atom_site_fract_z
Si Si1 0.270420 0.424669 0.372270
Si Si2 0.250680 0.826027 0.733348
Si Si3 0.184425 0.133099 0.619820
Si Si4 0.502767 0.569835 0.932845
Si Si5 0.266540 0.569456 0.065173
Si Si6 0.079180 0.366743 0.059412
Si Si7 0.935568 0.848290 0.227031
Si Si8 0.576312 0.876958 0.685805
O O1 0.262982 0.235329 0.335108
O O2 0.388429 0.503287 0.408956
O O3 0.248878 0.415316 0.458355
O O4 0.180430 0.540011 0.282781
O O5 0.130550 0.775673 0.642343
O O6 0.334228 0.723726 0.722791
O O7 0.262017 0.018513 0.718097
O O8 0.262886 0.251558 0.606476
O O9 0.110699 0.225239 0.647691
O O10 0.106468 0.032212 0.517206
O O11 0.511693 0.566154 0.836161
O O12 0.500392 0.764744 0.957930
O O13 0.167531 0.463832 0.050362
O O14 0.385504 0.487532 0.140472
O O15 0.018985 0.491988 0.092965
O O16 0.992995 0.697191 0.209643
#
# Coordination Sequence:
#
# PCOD8054322 Si02
#       8
#     4   4   4   4   4   4   4   4
#     4  10  20  36  55  80 112 145 179 224 274 328
#     4   8  18  35  53  75 108 141 178 224 271 317
#     4  10  20  36  57  81 107 141 183 230 274 321
#     4  10  19  35  56  80 110 145 182 226 274 324
#     4  10  20  36  55  80 111 144 183 228 270 323
#     4   8  17  34  53  75 108 144 180 221 269 322
#     4  10  20  36  56  80 111 148 182 221 272 327
#     4  10  20  36  57  81 109 144 181 224 274 326
#
# _framework density 19.952286000000001
#
# number of rings (size 3 to 8) (size 9 to 14) (size 15 to 20)
#    0.000    2.500    0.000    3.750    0.000    2.000 
#    0.000   17.500    0.000    0.000    0.000    0.000 
#    0.000    0.000    0.000    0.000    0.000    0.000 
#
# Total GULP energy -198221.556028 kJ/mol
# GULP energy per Si atom -12388.847252 kJ/mol
# Density = 1.990687 g / cm^3
# Si number density = 19.952286 Si / 1000 Ang^3
#
#
#
# Elastic Constant Matrix: (Units=GPa)
#
#
# Indices 1 2 3 4 5 6 
#
# 1 55.8436 23.3888 30.5295 0.0000 -8.0935 0.0000
# 2 23.3888 104.5770 49.1351 0.0000 0.3191 0.0000
# 3 30.5295 49.1351 108.4356 0.0000 -12.1729 0.0000
# 4 0.0000 0.0000 0.0000 34.6196 0.0000 0.3077
# 5 -8.0935 0.3191 -12.1729 0.0000 31.7035 0.0000
# 6 0.0000 0.0000 0.0000 0.3077 0.0000 28.0311
#
#
#
# Elastic Compliance Matrix: (Units=1/GPa)
#
#
# Indices 1 2 3 4 5 6 
#
# 1 0.022131 -0.002849 -0.004496 0.000000 0.003952 0.000000
# 2 -0.002849 0.012684 -0.005268 0.000000 -0.002878 0.000000
# 3 -0.004496 -0.005268 0.013327 0.000000 0.004022 0.000000
# 4 0.000000 0.000000 0.000000 0.028888 0.000000 -0.000317
# 5 0.003952 -0.002878 0.004022 0.000000 0.034124 0.000000
# 6 0.000000 0.000000 0.000000 -0.000317 0.000000 0.035678
#
#
# Mechanical properties :
#
#
# Convention : Reuss Voigt Hill
#
# Bulk Modulus (GPa) = 43.64083 52.77368 48.20725
# Shear Modulus (GPa) = 27.82450 29.92436 28.87443
#
# Velocity S-wave (km/s) = 3.73842 3.87692 3.80830
# Velocity P-wave (km/s) = 6.36824 6.82261 6.59934
#
# Compressibility (1/GPa) = 0.02291432
#
# Stress axis : x y z
#
# Youngs Moduli (GPa) = 45.18468 78.84216 75.03782
#
# Poissons Ratio (x) = 0.22464 0.33739
# Poissons Ratio (y) = 0.12874 0.39531
# Poissons Ratio (z) = 0.20316 0.41535
#
# Static dielectric constant tensor:
#      x y z
#    x 3.405270 0.000000 -0.096590 
#    y 0.000000 3.807900 0.000000 
#    z -0.096590 0.000000 3.969390 
# 
# 
# High freq. dielectric constant tensor:
#      x y z
#    x 1.760180 0.000000 -0.009050 
#    y 0.000000 1.776010 0.000000 
#    z -0.009050 0.000000 1.787180 
# 
# From -- ./inp_files/24209.got.cif
#   From: 2010.06.25/outbox.cif.g09.slc.cpg/sg9_13_cif.got.tgz:24209.got - 2010.06.27 21:40:51.
