data_PCOD8054016
_publ_section_title
;
Structure prediction by ZEFSAII (Michael W. Deem and Ramdas Pophale) SiO2 
 PCOD8054016
Probable space group: C M
;
_chemical_formula_sum "Si O2"
_cell_formula_units_Z 32
_cell_length_a 16.968448
_cell_length_b 14.114865
_cell_length_c 11.568274
_cell_angle_alpha 90.000000
_cell_angle_beta 146.993144
_cell_angle_gamma 90.000000
_cell_volume 1509.302163
_symmetry_space_group_name_H-M "C M"
_symmetry_group_IT_number 8
_symmetry_cell_setting 'monoclinic'
loop_
_space_group_symop_operation_xyz
x,y,z
x,-y,z
1/2+x,1/2+y,z
1/2+x,1/2-y,z
loop_
_atom_site_type_symbol
_atom_site_label
_atom_site_fract_x
_atom_site_fract_y
_atom_site_fract_z
Si Si1 0.222760 0.201217 0.164360
Si Si2 0.565305 0.893304 0.940672
Si Si3 0.800748 0.609584 0.781318
Si Si4 0.513610 0.388880 0.070878
Si Si5 0.689049 0.105057 0.620373
Si Si6 0.523523 0.158543 0.633358
Si Si7 0.575091 0.282318 0.365791
Si Si8 0.278837 0.792762 0.986655
O O1 0.088314 0.138787 0.042931
O O2 0.360184 0.192477 0.415822
O O3 0.186713 0.313642 0.110452
O O4 0.254191 0.153978 0.077911
O O5 0.428353 0.862378 0.850206
O O6 0.525232 0.898122 0.755733
O O7 0.617232 0.000000 0.039816
O O8 0.769678 0.500000 0.740785
O O9 0.651460 0.658701 0.560339
O O10 0.839791 0.639886 0.960258
O O11 0.528431 0.500000 0.116677
O O12 0.604409 0.328756 0.277187
O O13 0.345144 0.357641 0.858500
O O14 0.578549 0.096959 0.592257
O O15 0.631473 0.173638 0.447623
O O16 0.706665 0.000000 0.588169
O O17 0.626962 0.249220 0.762417
O O18 0.401575 0.285905 0.168079
#
# Coordination Sequence:
#
# PCOD8054016 Si02
#       8
#     4   4   4   4   4   4   4   4
#     4  11  23  41  68  95 130 170 215 266 320 378
#     4  10  23  41  66  97 130 170 214 265 322 380
#     4  11  23  40  63  96 132 168 212 264 321 385
#     4  11  25  43  67  97 129 169 218 269 317 380
#     4  11  23  40  65  97 131 169 214 265 322 385
#     4  11  21  42  64  95 127 167 218 266 314 376
#     4  12  20  41  65  91 127 167 214 260 317 378
#     4  11  22  40  64  90 130 170 209 263 325 376
#
# _framework density 21.201853
#
# number of rings (size 3 to 8) (size 9 to 14) (size 15 to 20)
#    0.000    1.000    3.750    3.000    0.000    4.000 
#    0.000    4.375    0.000    0.750    0.000    0.000 
#    0.000    0.000    0.000    0.000    0.000    0.000 
#
# Total GULP energy -198358.401641 kJ/mol
# GULP energy per Si atom -12397.400103 kJ/mol
# Density = 2.115360 g / cm^3
# Si number density = 21.201853 Si / 1000 Ang^3
#
#
#
# Elastic Constant Matrix: (Units=GPa)
#
#
# Indices 1 2 3 4 5 6 
#
# 1 137.0742 35.4048 35.2952 0.0000 -3.9248 0.0000
# 2 35.4048 83.0633 45.8306 0.0000 0.0214 0.0000
# 3 35.2952 45.8306 105.9781 0.0000 12.0533 0.0000
# 4 0.0000 0.0000 0.0000 31.5774 0.0000 -3.0005
# 5 -3.9248 0.0214 12.0533 0.0000 30.6125 0.0000
# 6 0.0000 0.0000 0.0000 -3.0005 0.0000 26.2458
#
#
#
# Elastic Compliance Matrix: (Units=1/GPa)
#
#
# Indices 1 2 3 4 5 6 
#
# 1 0.008508 -0.002557 -0.001939 0.000000 0.001856 0.000000
# 2 -0.002557 0.016814 -0.006680 0.000000 0.002291 0.000000
# 3 -0.001939 -0.006680 0.013608 0.000000 -0.005602 0.000000
# 4 0.000000 0.000000 0.000000 0.032016 0.000000 0.003660
# 5 0.001856 0.002291 -0.005602 0.000000 0.035108 0.000000
# 6 0.000000 0.000000 0.000000 0.003660 0.000000 0.038520
#
#
# Mechanical properties :
#
#
# Convention : Reuss Voigt Hill
#
# Bulk Modulus (GPa) = 60.32270 62.13076 61.22673
# Shear Modulus (GPa) = 28.99347 31.65947 30.32647
#
# Velocity S-wave (km/s) = 3.70198 3.86844 3.78612
# Velocity P-wave (km/s) = 6.84005 7.02290 6.93208
#
# Compressibility (1/GPa) = 0.01657751
#
# Stress axis : x y z
#
# Youngs Moduli (GPa) = 117.53378 59.47324 73.48834
#
# Poissons Ratio (x) = 0.15209 0.14248
# Poissons Ratio (y) = 0.30057 0.49092
# Poissons Ratio (z) = 0.22787 0.39730
#
# Static dielectric constant tensor:
#      x y z
#    x 4.054880 0.000000 -0.057050 
#    y 0.000000 3.664180 0.000000 
#    z -0.057050 0.000000 3.801040 
# 
# 
# High freq. dielectric constant tensor:
#      x y z
#    x 1.840210 0.000000 0.001200 
#    y 0.000000 1.819080 0.000000 
#    z 0.001200 0.000000 1.831730 
# 
# From -- ./inp_files/23306.got.cif
#   From: 2010.03.12/outbox.cif.g09.slc.cpg/sg8_12_cif.got.tgz:23306.got - 2010.03.31 10:45:26.
