data_PCOD8054003
_publ_section_title
;
Structure prediction by ZEFSAII (Michael W. Deem and Ramdas Pophale) SiO2 
 PCOD8054003
Probable space group: C M
;
_chemical_formula_sum "Si O2"
_cell_formula_units_Z 22
_cell_length_a 9.017306
_cell_length_b 16.692260
_cell_length_c 7.962746
_cell_angle_alpha 90.000000
_cell_angle_beta 52.371003
_cell_angle_gamma 90.000000
_cell_volume 949.225589
_symmetry_space_group_name_H-M "C M"
_symmetry_group_IT_number 8
_symmetry_cell_setting 'monoclinic'
loop_
_space_group_symop_operation_xyz
x,y,z
x,-y,z
1/2+x,1/2+y,z
1/2+x,1/2-y,z
loop_
_atom_site_type_symbol
_atom_site_label
_atom_site_fract_x
_atom_site_fract_y
_atom_site_fract_z
Si Si1 0.222240 0.760580 0.540750
Si Si2 0.166231 0.085862 0.379571
Si Si3 0.985151 0.144912 0.181009
Si Si4 0.015845 0.500000 0.668199
Si Si5 0.866718 0.672007 0.765698
Si Si6 0.516164 0.000000 0.047596
Si Si7 0.295596 0.500000 0.165279
O O1 0.141803 0.844010 0.528378
O O2 0.325510 0.711386 0.322043
O O3 0.366419 0.781672 0.588080
O O4 0.047684 0.708912 0.734752
O O5 0.022933 0.098020 0.326543
O O6 0.113607 0.000000 0.501698
O O7 0.382027 0.078774 0.161828
O O8 0.918856 0.081247 0.085357
O O9 0.173388 0.190503 0.994007
O O10 0.100444 0.500000 0.800155
O O11 0.174970 0.500000 0.418951
O O12 0.884794 0.576825 0.730160
O O13 0.678116 0.000000 0.074836
#
# Coordination Sequence:
#
# PCOD8054003 Si02
#       7
#     4   4   4   2   4   2   2
#     4  12  27  45  72 109 146 197 243 302 368 438
#     4  10  22  46  72  98 146 190 234 305 366 422
#     4  12  25  48  72 103 153 189 243 306 368 429
#     4  12  23  48  77 107 149 189 248 301 360 448
#     4  12  27  47  73 108 148 193 247 301 367 441
#     4  10  23  44  81 107 139 196 253 297 367 442
#     4  12  24  48  78 110 144 199 243 314 371 424
#
# _framework density 23.176784999999999
#
# number of rings (size 3 to 8) (size 9 to 14) (size 15 to 20)
#    0.545    0.000    6.364    1.636    3.818    0.000 
#    6.545    0.000    0.000    0.000    0.000    0.000 
#    0.000    0.000    0.000    0.000    0.000    0.000 
#
# Total GULP energy -136393.104608 kJ/mol
# GULP energy per Si atom -12399.373146 kJ/mol
# Density = 2.312403 g / cm^3
# Si number density = 23.176785 Si / 1000 Ang^3
#
#
#
# Elastic Constant Matrix: (Units=GPa)
#
#
# Indices 1 2 3 4 5 6 
#
# 1 119.7774 38.4557 17.3905 0.0000 -0.2655 0.0000
# 2 38.4557 145.1176 29.2314 0.0000 -8.2556 0.0000
# 3 17.3905 29.2314 97.9320 0.0000 -16.5259 0.0000
# 4 0.0000 0.0000 0.0000 22.0244 0.0000 -3.5367
# 5 -0.2655 -8.2556 -16.5259 0.0000 33.4238 0.0000
# 6 0.0000 0.0000 0.0000 -3.5367 0.0000 27.7301
#
#
#
# Elastic Compliance Matrix: (Units=1/GPa)
#
#
# Indices 1 2 3 4 5 6 
#
# 1 0.009244 -0.002280 -0.001139 0.000000 -0.001053 0.000000
# 2 -0.002280 0.007914 -0.001779 0.000000 0.001057 0.000000
# 3 -0.001139 -0.001779 0.011858 0.000000 0.005415 0.000000
# 4 0.000000 0.000000 0.000000 0.046354 0.000000 0.005912
# 5 -0.001053 0.001057 0.005415 0.000000 0.032849 0.000000
# 6 0.000000 0.000000 0.000000 0.005912 0.000000 0.036816
#
#
# Mechanical properties :
#
#
# Convention : Reuss Voigt Hill
#
# Bulk Modulus (GPa) = 53.70442 59.22024 56.46233
# Shear Modulus (GPa) = 30.93381 35.15230 33.04305
#
# Velocity S-wave (km/s) = 3.65730 3.89871 3.77994
# Velocity P-wave (km/s) = 6.40753 6.77301 6.59280
#
# Compressibility (1/GPa) = 0.01862044
#
# Stress axis : x y z
#
# Youngs Moduli (GPa) = 108.17999 126.36412 84.33117
#
# Poissons Ratio (x) = 0.28813 0.09602
# Poissons Ratio (y) = 0.24666 0.15001
# Poissons Ratio (z) = 0.12317 0.22478
#
# Static dielectric constant tensor:
#      x y z
#    x 4.122610 0.000000 -0.051050 
#    y 0.000000 4.288520 0.000000 
#    z -0.051050 0.000000 3.866870 
# 
# 
# High freq. dielectric constant tensor:
#      x y z
#    x 1.918670 0.000000 -0.009200 
#    y 0.000000 1.924160 0.000000 
#    z -0.009200 0.000000 1.893320 
# 
# From -- ./inp_files/8284.got.cif
#   From: 2010.03.12/outbox.cif.g09.slc.cpg/sg8_5_cif.got.tgz:8284.got - 2010.03.31 10:45:26.
