data_PCOD8054554
_publ_section_title
;
Structure prediction by ZEFSAII (Michael W. Deem and Ramdas Pophale) SiO2 
 PCOD8054554
Probable space group: C C
;
_chemical_formula_sum "Si O2"
_cell_formula_units_Z 32
_cell_length_a 7.541926
_cell_length_b 13.167578
_cell_length_c 18.366148
_cell_angle_alpha 90.000000
_cell_angle_beta 90.075313
_cell_angle_gamma 90.000000
_cell_volume 1823.920359
_symmetry_space_group_name_H-M "C C"
_symmetry_group_IT_number 9
_symmetry_cell_setting 'monoclinic'
loop_
_space_group_symop_operation_xyz
x,y,z
x,-y,1/2+z
1/2+x,1/2+y,z
1/2+x,1/2-y,1/2+z
loop_
_atom_site_type_symbol
_atom_site_label
_atom_site_fract_x
_atom_site_fract_y
_atom_site_fract_z
Si Si1 0.197690 0.185783 0.401400
Si Si2 0.382260 0.664607 0.666282
Si Si3 0.582205 0.274866 0.745408
Si Si4 0.881887 0.825346 0.996602
Si Si5 0.365956 0.461713 0.748571
Si Si6 0.192988 0.260775 0.758845
Si Si7 0.481753 0.499249 0.404760
Si Si8 0.567211 0.273768 0.421421
O O1 0.175322 0.241747 0.323717
O O2 0.392647 0.205609 0.431705
O O3 0.050533 0.229682 0.457928
O O4 0.163690 0.064220 0.393023
O O5 0.210484 0.732546 0.683470
O O6 0.419964 0.666927 0.581472
O O7 0.342825 0.549026 0.689238
O O8 0.555649 0.707636 0.705643
O O9 0.543902 0.395191 0.732305
O O10 0.391564 0.216565 0.744226
O O11 0.858160 0.938194 0.961591
O O12 0.705474 0.761033 0.982432
O O13 0.197591 0.383718 0.746870
O O14 0.378760 0.512677 0.828254
O O15 0.147245 0.237875 0.841729
O O16 0.522731 0.390361 0.438196
#
# Coordination Sequence:
#
# PCOD8054554 Si02
#       8
#     4   4   4   4   4   4   4   4
#     4   9  19  39  58  88 116 147 208 240 278 370
#     4  12  22  40  60  86 127 158 185 263 313 314
#     4   9  19  38  60  89 110 150 211 234 282 370
#     4  10  24  40  54  94 126 144 210 253 280 373
#     4   9  19  39  60  87 115 148 211 241 279 373
#     4  10  20  37  63  91 111 154 211 235 291 367
#     4   9  19  39  59  88 114 155 201 243 290 359
#     4  12  18  40  68  81 119 168 189 245 307 338
#
# _framework density 17.544626000000001
#
# number of rings (size 3 to 8) (size 9 to 14) (size 15 to 20)
#    1.500    0.500    5.000    0.000    0.000    2.000 
#    9.000    0.000    0.000    0.000    0.000    0.000 
#    0.000    0.000    0.000    0.000    0.000    0.000 
#
# Total GULP energy -198259.843003 kJ/mol
# GULP energy per Si atom -12391.240188 kJ/mol
# Density = 1.750469 g / cm^3
# Si number density = 17.544626 Si / 1000 Ang^3
#
#
#
# Elastic Constant Matrix: (Units=GPa)
#
#
# Indices 1 2 3 4 5 6 
#
# 1 50.1194 -5.1297 12.0348 0.0000 4.0565 0.0000
# 2 -5.1297 71.6351 16.8870 0.0000 1.0625 0.0000
# 3 12.0348 16.8870 83.9276 0.0000 -0.1581 0.0000
# 4 0.0000 0.0000 0.0000 18.3557 0.0000 0.6620
# 5 4.0565 1.0625 -0.1581 0.0000 18.0321 0.0000
# 6 0.0000 0.0000 0.0000 0.6620 0.0000 27.4541
#
#
#
# Elastic Compliance Matrix: (Units=1/GPa)
#
#
# Indices 1 2 3 4 5 6 
#
# 1 0.021469 0.002456 -0.003582 0.000000 -0.005006 0.000000
# 2 0.002456 0.014950 -0.003363 0.000000 -0.001463 0.000000
# 3 -0.003582 -0.003363 0.013107 0.000000 0.001119 0.000000
# 4 0.000000 0.000000 0.000000 0.054526 0.000000 -0.001315
# 5 -0.005006 -0.001463 0.001119 0.000000 0.056679 0.000000
# 6 0.000000 0.000000 0.000000 -0.001315 0.000000 0.036456
#
#
# Mechanical properties :
#
#
# Convention : Reuss Voigt Hill
#
# Bulk Modulus (GPa) = 24.66197 28.14070 26.40133
# Shear Modulus (GPa) = 22.76016 24.89438 23.82727
#
# Velocity S-wave (km/s) = 3.60567 3.77094 3.68923
# Velocity P-wave (km/s) = 5.60551 5.91898 5.76437
#
# Compressibility (1/GPa) = 0.04054827
#
# Stress axis : x y z
#
# Youngs Moduli (GPa) = 46.57869 66.88972 76.29240
#
# Poissons Ratio (x) = -0.16428 0.27329
# Poissons Ratio (y) = -0.11440 0.25657
# Poissons Ratio (z) = 0.16685 0.22495
#
# Static dielectric constant tensor:
#      x y z
#    x 3.171110 0.000000 0.009000 
#    y 0.000000 3.173450 0.000000 
#    z 0.009000 0.000000 3.041830 
# 
# 
# High freq. dielectric constant tensor:
#      x y z
#    x 1.670930 0.000000 0.001250 
#    y 0.000000 1.666060 0.000000 
#    z 0.001250 0.000000 1.664930 
# 
# From -- ./inp_files/32494.got.cif
#   From: 2010.06.25/outbox.cif.g09.slc.cpg/sg9_17_cif.got.tgz:32494.got - 2010.06.27 21:40:51.
