data_PCOD8054645
_publ_section_title
;
Structure prediction by ZEFSAII (Michael W. Deem and Ramdas Pophale) SiO2 
 PCOD8054645
Probable space group: C C
;
_chemical_formula_sum "Si O2"
_cell_formula_units_Z 24
_cell_length_a 11.756672
_cell_length_b 9.589949
_cell_length_c 11.335644
_cell_angle_alpha 90.000000
_cell_angle_beta 111.892370
_cell_angle_gamma 90.000000
_cell_volume 1185.882009
_symmetry_space_group_name_H-M "C C"
_symmetry_group_IT_number 9
_symmetry_cell_setting 'monoclinic'
loop_
_space_group_symop_operation_xyz
x,y,z
x,-y,1/2+z
1/2+x,1/2+y,z
1/2+x,1/2-y,1/2+z
loop_
_atom_site_type_symbol
_atom_site_label
_atom_site_fract_x
_atom_site_fract_y
_atom_site_fract_z
Si Si1 0.085700 0.742953 0.348930
Si Si2 0.085062 0.029235 0.438319
Si Si3 0.900599 0.835394 0.449649
Si Si4 0.643418 0.063245 0.910133
Si Si5 0.181407 0.255437 0.637778
Si Si6 0.955220 0.754627 0.730921
O O1 0.156790 0.603634 0.415497
O O2 0.084232 0.749605 0.206632
O O3 0.948342 0.744637 0.354415
O O4 0.152487 0.886026 0.420596
O O5 0.176097 0.118146 0.553836
O O6 0.039259 0.117816 0.308017
O O7 0.967028 0.986324 0.471652
O O8 0.755929 0.861314 0.385894
O O9 0.939909 0.756538 0.584284
O O10 0.644274 0.109576 0.046811
O O11 0.519232 0.110115 0.795561
O O12 0.320658 0.266140 0.738740
#
# Coordination Sequence:
#
# PCOD8054645 Si02
#       6
#     4   4   4   4   4   4
#     4  10  22  38  64  95 115 168 215 246 321 377
#     4   9  20  39  59  88 120 159 211 253 311 377
#     4   9  21  39  62  87 123 163 206 258 318 364
#     4  10  22  41  62  88 129 162 210 262 312 376
#     4  10  21  41  62  87 125 165 207 263 312 374
#     4  10  20  40  61  85 126 165 199 266 316 364
#
# _framework density 20.238101
#
# number of rings (size 3 to 8) (size 9 to 14) (size 15 to 20)
#    1.000    1.333    0.000    2.000    2.333    0.000 
#   12.000    8.333    0.000    0.000    0.000    0.000 
#    0.000    0.000    0.000    0.000    0.000    0.000 
#
# Total GULP energy -148673.594875 kJ/mol
# GULP energy per Si atom -12389.466240 kJ/mol
# Density = 2.019204 g / cm^3
# Si number density = 20.238101 Si / 1000 Ang^3
#
#
#
# Elastic Constant Matrix: (Units=GPa)
#
#
# Indices 1 2 3 4 5 6 
#
# 1 102.1139 32.9570 59.7067 0.0000 -19.1243 0.0000
# 2 32.9570 139.6080 61.0071 0.0000 -2.2577 0.0000
# 3 59.7067 61.0071 93.1481 0.0000 -8.6352 0.0000
# 4 0.0000 0.0000 0.0000 21.6780 0.0000 -5.7498
# 5 -19.1243 -2.2577 -8.6352 0.0000 38.7057 0.0000
# 6 0.0000 0.0000 0.0000 -5.7498 0.0000 29.3805
#
#
#
# Elastic Compliance Matrix: (Units=1/GPa)
#
#
# Indices 1 2 3 4 5 6 
#
# 1 0.017028 0.000845 -0.010909 0.000000 0.006029 0.000000
# 2 0.000845 0.010108 -0.007217 0.000000 -0.000603 0.000000
# 3 -0.010909 -0.007217 0.022379 0.000000 -0.000818 0.000000
# 4 0.000000 0.000000 0.000000 0.048655 0.000000 0.009522
# 5 0.006029 -0.000603 -0.000818 0.000000 0.028597 0.000000
# 6 0.000000 0.000000 0.000000 0.009522 0.000000 0.035900
#
#
# Mechanical properties :
#
#
# Convention : Reuss Voigt Hill
#
# Bulk Modulus (GPa) = 66.88237 71.35683 69.11960
# Shear Modulus (GPa) = 24.72617 30.03279 27.37948
#
# Velocity S-wave (km/s) = 3.49917 3.85642 3.68213
# Velocity P-wave (km/s) = 7.03172 7.42728 7.23220
#
# Compressibility (1/GPa) = 0.01495162
#
# Stress axis : x y z
#
# Youngs Moduli (GPa) = 58.72634 98.93489 44.68376
#
# Poissons Ratio (x) = -0.08359 0.48747
# Poissons Ratio (y) = -0.04962 0.32250
# Poissons Ratio (z) = 0.64066 0.71406
#
# Static dielectric constant tensor:
#      x y z
#    x 3.579730 0.000000 -0.168840 
#    y 0.000000 3.654400 0.000000 
#    z -0.168840 0.000000 3.424230 
# 
# 
# High freq. dielectric constant tensor:
#      x y z
#    x 1.778890 0.000000 -0.017170 
#    y 0.000000 1.790840 0.000000 
#    z -0.017170 0.000000 1.773700 
# 
# From -- ./inp_files/17496.got.cif
#   From: 2010.06.25/outbox.cif.g09.slc.cpg/sg9_9_cif.got.tgz:17496.got - 2010.06.27 21:40:51.
