data_PCOD8054929
_publ_section_title
;
Structure prediction by ZEFSAII (Michael W. Deem and Ramdas Pophale) SiO2 
 PCOD8054929
Probable space group: C C
;
_chemical_formula_sum "Si O2"
_cell_formula_units_Z 32
_cell_length_a 6.712463
_cell_length_b 32.773904
_cell_length_c 8.392953
_cell_angle_alpha 90.000000
_cell_angle_beta 120.732419
_cell_angle_gamma 90.000000
_cell_volume 1587.094246
_symmetry_space_group_name_H-M "C C"
_symmetry_group_IT_number 9
_symmetry_cell_setting 'monoclinic'
loop_
_space_group_symop_operation_xyz
x,y,z
x,-y,1/2+z
1/2+x,1/2+y,z
1/2+x,1/2-y,1/2+z
loop_
_atom_site_type_symbol
_atom_site_label
_atom_site_fract_x
_atom_site_fract_y
_atom_site_fract_z
Si Si1 0.977690 0.118908 0.033420
Si Si2 0.790406 0.318337 0.831247
Si Si3 0.517117 0.746316 0.398308
Si Si4 0.027644 0.750536 0.239994
Si Si5 0.699640 0.551652 0.915798
Si Si6 0.191625 0.685228 0.737604
Si Si7 0.738163 0.948147 0.636418
Si Si8 0.468803 0.515457 0.525937
O O1 0.864801 0.091825 0.124551
O O2 0.190996 0.142174 0.203554
O O3 0.783181 0.147925 0.879269
O O4 0.071255 0.091299 0.928993
O O5 0.582932 0.296653 0.844670
O O6 0.872766 0.287504 0.727776
O O7 0.005129 0.330704 0.032351
O O8 0.284501 0.746815 0.424684
O O9 0.668472 0.751651 0.622680
O O10 0.561297 0.783837 0.300683
O O11 0.910242 0.793153 0.241854
O O12 0.613497 0.544542 0.701246
O O13 0.650797 0.511928 0.002902
O O14 0.968770 0.560777 0.025310
O O15 0.788809 0.987613 0.549220
O O16 0.822226 0.955646 0.850368
#
# Coordination Sequence:
#
# PCOD8054929 Si02
#       8
#     4   4   4   4   4   4   4   4
#     4  11  26  40  54  90 134 156 196 252 304 364
#     4  11  24  41  59  86 122 156 204 261 305 366
#     4  11  21  39  63  85 107 153 214 259 308 359
#     4  11  21  39  63  85 107 153 214 259 308 359
#     4  10  21  40  64  92 123 161 197 245 298 357
#     4  11  24  41  59  86 122 156 204 261 305 366
#     4  10  21  40  64  92 123 161 197 245 298 357
#     4   9  20  40  68  94 118 154 208 244 284 360
#
# _framework density 20.162634000000001
#
# number of rings (size 3 to 8) (size 9 to 14) (size 15 to 20)
#    0.000    1.500    2.500    2.250    3.500    5.000 
#    2.250    2.500    0.000    0.000    0.000    0.000 
#    0.000    0.000    0.000    0.000    0.000    0.000 
#
# Total GULP energy -198342.615553 kJ/mol
# GULP energy per Si atom -12396.413472 kJ/mol
# Density = 2.011674 g / cm^3
# Si number density = 20.162634 Si / 1000 Ang^3
#
#
#
# Elastic Constant Matrix: (Units=GPa)
#
#
# Indices 1 2 3 4 5 6 
#
# 1 100.7698 22.9011 35.0110 0.0000 11.2392 0.0000
# 2 22.9011 88.2923 55.9093 0.0000 8.6810 0.0000
# 3 35.0110 55.9093 121.3984 0.0000 -6.3348 0.0000
# 4 0.0000 0.0000 0.0000 115.2148 0.0000 7.1794
# 5 11.2392 8.6810 -6.3348 0.0000 38.4498 0.0000
# 6 0.0000 0.0000 0.0000 7.1794 0.0000 14.4336
#
#
#
# Elastic Compliance Matrix: (Units=1/GPa)
#
#
# Indices 1 2 3 4 5 6 
#
# 1 0.011620 -0.000552 -0.003296 0.000000 -0.003815 0.000000
# 2 -0.000552 0.016971 -0.007916 0.000000 -0.004975 0.000000
# 3 -0.003296 -0.007916 0.013090 0.000000 0.004907 0.000000
# 4 0.000000 0.000000 0.000000 0.008957 0.000000 -0.004455
# 5 -0.003815 -0.004975 0.004907 0.000000 0.029055 0.000000
# 6 0.000000 0.000000 0.000000 -0.004455 0.000000 0.071499
#
#
# Mechanical properties :
#
#
# Convention : Reuss Voigt Hill
#
# Bulk Modulus (GPa) = 55.08930 59.78925 57.43928
# Shear Modulus (GPa) = 27.65939 46.72892 37.19416
#
# Velocity S-wave (km/s) = 3.70782 4.81937 4.29967
# Velocity P-wave (km/s) = 6.76109 7.79014 7.29379
#
# Compressibility (1/GPa) = 0.01815234
#
# Stress axis : x y z
#
# Youngs Moduli (GPa) = 86.06106 58.92352 76.39474
#
# Poissons Ratio (x) = 0.03250 0.25181
# Poissons Ratio (y) = 0.04747 0.60478
# Poissons Ratio (z) = 0.28367 0.46647
#
# Static dielectric constant tensor:
#      x y z
#    x 3.698180 0.000000 0.041370 
#    y 0.000000 3.415950 0.000000 
#    z 0.041370 0.000000 4.085060 
# 
# 
# High freq. dielectric constant tensor:
#      x y z
#    x 1.801110 0.000000 0.001450 
#    y 0.000000 1.766400 0.000000 
#    z 0.001450 0.000000 1.822300 
# 
# From -- ./inp_files/4402.got.cif
#   From: 2010.06.25/outbox.cif.g09.slc.cpg/sg9_3_cif.got.tgz:4402.got - 2010.06.27 21:40:51.
