data_PCOD8054803
_publ_section_title
;
Structure prediction by ZEFSAII (Michael W. Deem and Ramdas Pophale) SiO2 
 PCOD8054803
Probable space group: C C
;
_chemical_formula_sum "Si O2"
_cell_formula_units_Z 24
_cell_length_a 5.199636
_cell_length_b 23.292324
_cell_length_c 9.514130
_cell_angle_alpha 90.000000
_cell_angle_beta 105.858139
_cell_angle_gamma 90.000000
_cell_volume 1108.417507
_symmetry_space_group_name_H-M "C C"
_symmetry_group_IT_number 9
_symmetry_cell_setting 'monoclinic'
loop_
_space_group_symop_operation_xyz
x,y,z
x,-y,1/2+z
1/2+x,1/2+y,z
1/2+x,1/2-y,1/2+z
loop_
_atom_site_type_symbol
_atom_site_label
_atom_site_fract_x
_atom_site_fract_y
_atom_site_fract_z
Si Si1 0.372800 0.436167 0.412150
Si Si2 0.626422 0.865410 0.942256
Si Si3 0.937507 0.713485 0.637539
Si Si4 0.812843 0.615410 0.815099
Si Si5 0.928644 0.036515 0.619816
Si Si6 0.589329 0.313832 0.845205
O O1 0.601116 0.388108 0.412766
O O2 0.480971 0.475843 0.554005
O O3 0.326333 0.474293 0.263926
O O4 0.097757 0.406118 0.414924
O O5 0.660621 0.825130 0.088218
O O6 0.702737 0.929848 0.996675
O O7 0.811512 0.843882 0.842431
O O8 0.317029 0.861892 0.844588
O O9 0.834740 0.679848 0.760680
O O10 0.691085 0.724293 0.493429
O O11 0.055645 0.774157 0.703350
O O12 0.701079 0.575130 0.669136
#
# Coordination Sequence:
#
# PCOD8054803 Si02
#       6
#     4   4   4   4   4   4
#     4  10  22  33  65  83 117 152 210 233 301 348
#     4  10  21  37  61  83 114 163 194 240 302 360
#     4  10  21  40  61  85 119 161 196 246 295 367
#     4  10  21  37  61  83 114 163 194 240 302 360
#     4  10  21  40  61  85 119 161 196 246 295 367
#     4  10  22  33  65  83 117 152 210 233 301 348
#
# _framework density 21.652491999999999
#
# number of rings (size 3 to 8) (size 9 to 14) (size 15 to 20)
#    2.000    0.000    3.333    0.000    4.667    0.000 
#    0.000    1.667    0.000    0.000    0.000    0.000 
#    0.000    0.000    0.000    0.000    0.000    0.000 
#
# Total GULP energy -148678.423858 kJ/mol
# GULP energy per Si atom -12389.868655 kJ/mol
# Density = 2.160321 g / cm^3
# Si number density = 21.652492 Si / 1000 Ang^3
#
#
#
# Elastic Constant Matrix: (Units=GPa)
#
#
# Indices 1 2 3 4 5 6 
#
# 1 127.4992 4.8229 0.1024 0.0000 13.3241 0.0000
# 2 4.8229 5.5913 0.0201 0.0000 0.7021 0.0000
# 3 0.1024 0.0201 24.9458 0.0000 1.6666 0.0000
# 4 0.0000 0.0000 0.0000 38.6365 0.0000 -1.2469
# 5 13.3241 0.7021 1.6666 0.0000 19.8259 0.0000
# 6 0.0000 0.0000 0.0000 -1.2469 0.0000 30.1062
#
#
#
# Elastic Compliance Matrix: (Units=1/GPa)
#
#
# Indices 1 2 3 4 5 6 
#
# 1 0.008688 -0.006788 0.000346 0.000000 -0.005627 0.000000
# 2 -0.006788 0.184955 0.000012 0.000000 -0.001989 0.000000
# 3 0.000346 0.000012 0.040328 0.000000 -0.003623 0.000000
# 4 0.000000 0.000000 0.000000 0.025917 0.000000 0.001073
# 5 -0.005627 -0.001989 -0.003623 0.000000 0.054596 0.000000
# 6 0.000000 0.000000 0.000000 0.001073 0.000000 0.033260
#
#
# Mechanical properties :
#
#
# Convention : Reuss Voigt Hill
#
# Bulk Modulus (GPa) = 4.52266 18.65855 11.59060
# Shear Modulus (GPa) = 11.51256 27.91980 19.71618
#
# Velocity S-wave (km/s) = 2.30836 3.59479 3.02084
# Velocity P-wave (km/s) = 3.03281 5.08586 4.18712
#
# Compressibility (1/GPa) = 0.22110876
#
# Stress axis : x y z
#
# Youngs Moduli (GPa) = 115.10433 5.40671 24.79694
#
# Poissons Ratio (x) = 0.03670 -0.00857
# Poissons Ratio (y) = 0.78138 -0.00029
# Poissons Ratio (z) = -0.03980 -0.00006
#
# Static dielectric constant tensor:
#      x y z
#    x 3.804550 0.000000 0.041950 
#    y 0.000000 3.333240 0.000000 
#    z 0.041950 0.000000 3.517630 
# 
# 
# High freq. dielectric constant tensor:
#      x y z
#    x 1.850840 0.000000 0.003760 
#    y 0.000000 1.812320 0.000000 
#    z 0.003760 0.000000 1.825100 
# 
# From -- ./inp_files/13154.got.cif
#   From: 2010.06.25/outbox.cif.g09.slc.cpg/sg9_7_cif.got.tgz:13154.got - 2010.06.27 21:40:51.
