data_PCOD8054719
_publ_section_title
;
Structure prediction by ZEFSAII (Michael W. Deem and Ramdas Pophale) SiO2 
 PCOD8054719
Probable space group: C C
;
_chemical_formula_sum "Si O2"
_cell_formula_units_Z 28
_cell_length_a 7.274761
_cell_length_b 18.946002
_cell_length_c 13.891309
_cell_angle_alpha 90.000000
_cell_angle_beta 136.680176
_cell_angle_gamma 90.000000
_cell_volume 1313.554159
_symmetry_space_group_name_H-M "C C"
_symmetry_group_IT_number 9
_symmetry_cell_setting 'monoclinic'
loop_
_space_group_symop_operation_xyz
x,y,z
x,-y,1/2+z
1/2+x,1/2+y,z
1/2+x,1/2-y,1/2+z
loop_
_atom_site_type_symbol
_atom_site_label
_atom_site_fract_x
_atom_site_fract_y
_atom_site_fract_z
Si Si1 0.086500 0.590116 0.968580
Si Si2 0.576861 0.678138 0.107491
Si Si3 0.662966 0.330186 0.420459
Si Si4 0.937243 0.556360 0.712205
Si Si5 0.129069 0.329606 0.912095
Si Si6 0.852648 0.026474 0.473395
Si Si7 0.107330 0.663065 0.621982
O O1 0.191234 0.507864 0.004836
O O2 0.899659 0.613844 0.986507
O O3 0.926558 0.603636 0.806636
O O4 0.356181 0.634928 0.080410
O O5 0.523045 0.758161 0.119680
O O6 0.876185 0.656547 0.248330
O O7 0.545838 0.660288 0.982601
O O8 0.758689 0.248193 0.446844
O O9 0.426033 0.346125 0.255778
O O10 0.669205 0.507833 0.598939
O O11 0.204063 0.506290 0.821890
O O12 0.948166 0.606266 0.623806
O O13 0.346524 0.388705 0.967977
O O14 0.029298 0.344966 0.981614
#
# Coordination Sequence:
#
# PCOD8054719 Si02
#       7
#     4   4   4   4   4   4   4
#     4  10  22  40  70  90 136 171 223 273 346 394
#     4  10  21  42  65  99 133 168 228 288 329 408
#     4  10  20  42  68  96 125 184 222 288 340 401
#     4  10  22  42  68  93 140 179 226 280 340 404
#     4  10  22  40  63  95 141 163 235 279 337 405
#     4  10  22  41  60  97 135 176 219 283 331 418
#     4  10  21  41  66  96 134 177 223 285 341 394
#
# _framework density 21.316213000000001
#
# number of rings (size 3 to 8) (size 9 to 14) (size 15 to 20)
#    0.857    1.143    1.429    1.714    2.000    0.000 
#   10.286    0.000    0.000    0.000    0.000    0.000 
#    0.000    0.000    0.000    0.000    0.000    0.000 
#
# Total GULP energy -173456.838114 kJ/mol
# GULP energy per Si atom -12389.774151 kJ/mol
# Density = 2.126770 g / cm^3
# Si number density = 21.316213 Si / 1000 Ang^3
#
#
#
# Elastic Constant Matrix: (Units=GPa)
#
#
# Indices 1 2 3 4 5 6 
#
# 1 61.8305 24.6602 4.1440 0.0000 7.0039 0.0000
# 2 24.6602 80.5967 14.9881 0.0000 10.4436 0.0000
# 3 4.1440 14.9881 74.2104 -0.0001 6.7613 -0.0001
# 4 0.0000 0.0000 -0.0001 28.2510 0.0000 7.2410
# 5 7.0039 10.4436 6.7613 0.0000 25.6234 0.0000
# 6 0.0000 0.0000 -0.0001 7.2410 0.0000 41.5537
#
#
#
# Elastic Compliance Matrix: (Units=1/GPa)
#
#
# Indices 1 2 3 4 5 6 
#
# 1 0.018633 -0.005373 0.000317 0.000000 -0.002987 0.000000
# 2 -0.005373 0.015013 -0.002365 0.000000 -0.004026 0.000000
# 3 0.000317 -0.002365 0.014197 0.000000 -0.002869 0.000000
# 4 0.000000 0.000000 0.000000 0.037052 0.000000 -0.006456
# 5 -0.002987 -0.004026 -0.002869 0.000000 0.042241 0.000000
# 6 0.000000 0.000000 0.000000 -0.006456 0.000000 0.025190
#
#
# Mechanical properties :
#
#
# Convention : Reuss Voigt Hill
#
# Bulk Modulus (GPa) = 30.30323 33.80247 32.05285
# Shear Modulus (GPa) = 28.06318 30.60865 29.33591
#
# Velocity S-wave (km/s) = 3.63232 3.79348 3.71378
# Velocity P-wave (km/s) = 5.64257 5.92279 5.78437
#
# Compressibility (1/GPa) = 0.03299978
#
# Stress axis : x y z
#
# Youngs Moduli (GPa) = 53.66728 66.60878 70.43950
#
# Poissons Ratio (x) = 0.35790 -0.02232
# Poissons Ratio (y) = 0.28836 0.16661
# Poissons Ratio (z) = -0.01700 0.15755
#
# Static dielectric constant tensor:
#      x y z
#    x 3.308060 0.000000 -0.024080 
#    y 0.000000 3.932280 0.000000 
#    z -0.024080 0.000000 3.889970 
# 
# 
# High freq. dielectric constant tensor:
#      x y z
#    x 1.796310 0.000000 0.004750 
#    y 0.000000 1.840540 0.000000 
#    z 0.004750 0.000000 1.841410 
# 
# From -- ./inp_files/22255.got.cif
#   From: 2010.06.25/outbox.cif.g09.slc.cpg/sg9_12_cif.got.tgz:22255.got - 2010.06.27 21:40:51.
