data_PCOD8054540
_publ_section_title
;
Structure prediction by ZEFSAII (Michael W. Deem and Ramdas Pophale) SiO2 
 PCOD8054540
Probable space group: C C
;
_chemical_formula_sum "Si O2"
_cell_formula_units_Z 32
_cell_length_a 11.384358
_cell_length_b 24.374468
_cell_length_c 5.222114
_cell_angle_alpha 90.000000
_cell_angle_beta 86.378834
_cell_angle_gamma 90.000000
_cell_volume 1446.179121
_symmetry_space_group_name_H-M "C C"
_symmetry_group_IT_number 9
_symmetry_cell_setting 'monoclinic'
loop_
_space_group_symop_operation_xyz
x,y,z
x,-y,1/2+z
1/2+x,1/2+y,z
1/2+x,1/2-y,1/2+z
loop_
_atom_site_type_symbol
_atom_site_label
_atom_site_fract_x
_atom_site_fract_y
_atom_site_fract_z
Si Si1 0.855780 0.384851 0.795570
Si Si2 0.926884 0.982290 0.333299
Si Si3 0.065203 0.536107 0.339173
Si Si4 0.932108 0.674771 0.766821
Si Si5 0.180116 0.028886 0.300633
Si Si6 0.683344 0.861377 0.046587
Si Si7 0.911351 0.861371 0.288931
Si Si8 0.888178 0.198444 0.304556
O O1 0.936521 0.436484 0.864726
O O2 0.898269 0.359049 0.523301
O O3 0.722751 0.407730 0.784292
O O4 0.855829 0.341352 0.027916
O O5 0.973881 0.920016 0.325028
O O6 0.851267 0.999104 0.594989
O O7 0.038398 0.024213 0.322491
O O8 0.081731 0.490446 0.557274
O O9 0.158269 0.585050 0.378237
O O10 0.907039 0.737540 0.829653
O O11 0.068553 0.665431 0.685589
O O12 0.234034 0.001270 0.546571
O O13 0.772320 0.875927 0.268671
O O14 0.749292 0.816645 0.855239
O O15 0.936075 0.822576 0.526612
O O16 0.960224 0.831254 0.026783
#
# Coordination Sequence:
#
# PCOD8054540 Si02
#       8
#     4   4   4   4   4   4   4   4
#     4  11  22  38  63  94 128 165 212 259 310 386
#     4  10  21  38  62  90 128 172 203 248 315 371
#     4  11  22  35  59  93 124 163 205 249 316 372
#     4  11  23  42  68  90 125 168 212 271 325 366
#     4  10  20  37  60  86 130 172 198 249 309 372
#     4   9  25  40  65  92 128 158 217 264 313 383
#     4  10  22  41  65  88 127 165 211 260 314 377
#     4  10  23  43  64  91 124 163 212 276 316 367
#
# _framework density 22.127271
#
# number of rings (size 3 to 8) (size 9 to 14) (size 15 to 20)
#    0.750    1.000    0.000    4.500    5.250    1.000 
#    0.000    7.500    0.000    0.000    0.000    0.000 
#    0.000    0.000    0.000    0.000    0.000    0.000 
#
# Total GULP energy -198271.675250 kJ/mol
# GULP energy per Si atom -12391.979703 kJ/mol
# Density = 2.207691 g / cm^3
# Si number density = 22.127271 Si / 1000 Ang^3
#
#
#
# Elastic Constant Matrix: (Units=GPa)
#
#
# Indices 1 2 3 4 5 6 
#
# 1 40.8114 17.3073 1.7254 0.0000 3.9802 0.0000
# 2 17.3073 95.4471 28.2543 0.0000 -3.0635 0.0000
# 3 1.7254 28.2543 177.8700 0.0000 4.1521 0.0000
# 4 0.0000 0.0000 0.0000 44.9456 0.0000 -1.5826
# 5 3.9802 -3.0635 4.1521 0.0000 6.6773 0.0000
# 6 0.0000 0.0000 0.0000 -1.5826 0.0000 31.6713
#
#
#
# Elastic Compliance Matrix: (Units=1/GPa)
#
#
# Indices 1 2 3 4 5 6 
#
# 1 0.029189 -0.006328 0.001214 0.000000 -0.021057 0.000000
# 2 -0.006328 0.012626 -0.002200 0.000000 0.010933 0.000000
# 3 0.001214 -0.002200 0.006089 0.000000 -0.005518 0.000000
# 4 0.000000 0.000000 0.000000 0.022288 0.000000 0.001114
# 5 -0.021057 0.010933 -0.005518 0.000000 0.170760 0.000000
# 6 0.000000 0.000000 0.000000 0.001114 0.000000 0.031630
#
#
# Mechanical properties :
#
#
# Convention : Reuss Voigt Hill
#
# Bulk Modulus (GPa) = 30.05156 45.41138 37.73147
# Shear Modulus (GPa) = 16.76155 34.44828 25.60491
#
# Velocity S-wave (km/s) = 2.75527 3.94994 3.40540
# Velocity P-wave (km/s) = 4.87162 6.43196 5.70538
#
# Compressibility (1/GPa) = 0.03327614
#
# Stress axis : x y z
#
# Youngs Moduli (GPa) = 34.25971 79.19890 164.24352
#
# Poissons Ratio (x) = 0.50116 -0.19932
# Poissons Ratio (y) = 0.21679 0.36126
# Poissons Ratio (z) = -0.04158 0.17420
#
# Static dielectric constant tensor:
#      x y z
#    x 3.662140 0.000000 0.067000 
#    y 0.000000 3.850220 0.000000 
#    z 0.067000 0.000000 5.255570 
# 
# 
# High freq. dielectric constant tensor:
#      x y z
#    x 1.839710 0.000000 0.005710 
#    y 0.000000 1.864820 0.000000 
#    z 0.005710 0.000000 1.897850 
# 
# From -- ./inp_files/1982.got.cif
#   From: 2010.06.25/outbox.cif.g09.slc.cpg/sg9_1_cif.got.tgz:1982.got - 2010.06.27 21:40:51.
