data_PCOD8054913
_publ_section_title
;
Structure prediction by ZEFSAII (Michael W. Deem and Ramdas Pophale) SiO2 
 PCOD8054913
Probable space group: C C
;
_chemical_formula_sum "Si O2"
_cell_formula_units_Z 32
_cell_length_a 25.447916
_cell_length_b 5.498582
_cell_length_c 10.320493
_cell_angle_alpha 90.000000
_cell_angle_beta 49.355724
_cell_angle_gamma 90.000000
_cell_volume 1095.752540
_symmetry_space_group_name_H-M "C C"
_symmetry_group_IT_number 9
_symmetry_cell_setting 'monoclinic'
loop_
_space_group_symop_operation_xyz
x,y,z
x,-y,1/2+z
1/2+x,1/2+y,z
1/2+x,1/2-y,1/2+z
loop_
_atom_site_type_symbol
_atom_site_label
_atom_site_fract_x
_atom_site_fract_y
_atom_site_fract_z
Si Si1 0.127360 0.460170 0.459490
Si Si2 0.750705 0.301269 0.578048
Si Si3 0.034860 0.537812 0.860971
Si Si4 0.282908 0.290193 0.609689
Si Si5 0.502916 0.457730 0.327702
Si Si6 0.158510 0.043997 0.985050
Si Si7 0.910134 0.800927 0.237046
Si Si8 0.878145 0.710489 0.703896
O O1 0.086135 0.505230 0.658254
O O2 0.076375 0.397884 0.423987
O O3 0.178853 0.222375 0.391155
O O4 0.165427 0.722697 0.374976
O O5 0.738987 0.538192 0.687933
O O6 0.703061 0.357275 0.532622
O O7 0.831771 0.288290 0.408519
O O8 0.735682 0.039500 0.673908
O O9 0.996237 0.275085 0.937481
O O10 0.984268 0.775801 0.919432
O O11 0.328781 0.287405 0.405163
O O12 0.330454 0.249655 0.657048
O O13 0.580266 0.493566 0.153027
O O14 0.455415 0.358060 0.289105
O O15 0.925632 0.538850 0.140488
O O16 0.922186 0.037426 0.126409
#
# Coordination Sequence:
#
# PCOD8054913 Si02
#       8
#     4   4   4   4   4   4   4   4
#     4  10  21  40  61  86 129 168 211 257 309 382
#     4  10  21  40  63  88 127 160 208 263 313 379
#     4  10  21  40  61  86 129 168 211 257 309 382
#     4  10  21  40  63  92 120 161 214 262 316 369
#     4  10  21  40  61  91 126 165 208 258 322 390
#     4  10  21  40  61  91 126 165 208 258 322 390
#     4  10  21  40  63  88 127 160 208 263 313 379
#     4  10  21  40  63  92 120 161 214 262 316 369
#
# _framework density 29.203676000000002
#
# number of rings (size 3 to 8) (size 9 to 14) (size 15 to 20)
#    0.000    2.000    0.000    3.000    0.000    0.000 
#   27.000    0.000    0.000    0.000    0.000    0.000 
#    0.000    0.000    0.000    0.000    0.000    0.000 
#
# Total GULP energy -198265.313967 kJ/mol
# GULP energy per Si atom -12391.582123 kJ/mol
# Density = 2.913721 g / cm^3
# Si number density = 29.203676 Si / 1000 Ang^3
#
#
#
# Elastic Constant Matrix: (Units=GPa)
#
#
# Indices 1 2 3 4 5 6 
#
# 1 152.3293 105.7755 20.3576 0.0000 31.5370 0.0000
# 2 105.7755 382.4468 119.4401 0.0000 -13.2644 0.0000
# 3 20.3576 119.4401 94.5277 0.0000 -14.6101 0.0000
# 4 0.0000 0.0000 0.0000 82.1627 0.0000 -2.8806
# 5 31.5370 -13.2644 -14.6101 0.0000 40.3241 0.0000
# 6 0.0000 0.0000 0.0000 -2.8806 0.0000 75.1383
#
#
#
# Elastic Compliance Matrix: (Units=1/GPa)
#
#
# Indices 1 2 3 4 5 6 
#
# 1 0.010897 -0.003556 0.000687 0.000000 -0.009443 0.000000
# 2 -0.003556 0.005493 -0.005790 0.000000 0.002490 0.000000
# 3 0.000687 -0.005790 0.018400 0.000000 0.004225 0.000000
# 4 0.000000 0.000000 0.000000 0.012187 0.000000 0.000467
# 5 -0.009443 0.002490 0.004225 0.000000 0.034535 0.000000
# 6 0.000000 0.000000 0.000000 0.000467 0.000000 0.013327
#
#
# Mechanical properties :
#
#
# Convention : Reuss Voigt Hill
#
# Bulk Modulus (GPa) = 57.23568 124.49447 90.86507
# Shear Modulus (GPa) = 42.38017 65.10708 53.74362
#
# Velocity S-wave (km/s) = 3.81359 4.72679 4.29453
# Velocity P-wave (km/s) = 6.24761 8.51542 7.46810
#
# Compressibility (1/GPa) = 0.01747162
#
# Stress axis : x y z
#
# Youngs Moduli (GPa) = 91.76658 182.06004 54.34927
#
# Poissons Ratio (x) = 0.64738 -0.03731
# Poissons Ratio (y) = 0.32631 0.31466
# Poissons Ratio (z) = -0.06300 1.05406
#
# Static dielectric constant tensor:
#      x y z
#    x 5.163670 0.000000 -0.782430 
#    y 0.000000 8.154440 0.000000 
#    z -0.782430 0.000000 6.702560 
# 
# 
# High freq. dielectric constant tensor:
#      x y z
#    x 2.155880 0.000000 -0.044310 
#    y 0.000000 2.265220 0.000000 
#    z -0.044310 0.000000 2.277190 
# 
# From -- ./inp_files/19824.got.cif
#   From: 2010.06.25/outbox.cif.g09.slc.cpg/sg9_10_cif.got.tgz:19824.got - 2010.06.27 21:40:51.
