data_PCOD8054022
_publ_section_title
;
Structure prediction by ZEFSAII (Michael W. Deem and Ramdas Pophale) SiO2 
 PCOD8054022
Probable space group: C M
;
_chemical_formula_sum "Si O2"
_cell_formula_units_Z 28
_cell_length_a 9.588619
_cell_length_b 14.867537
_cell_length_c 9.740203
_cell_angle_alpha 90.000000
_cell_angle_beta 63.110112
_cell_angle_gamma 90.000000
_cell_volume 1238.420809
_symmetry_space_group_name_H-M "C M"
_symmetry_group_IT_number 8
_symmetry_cell_setting 'monoclinic'
loop_
_space_group_symop_operation_xyz
x,y,z
x,-y,z
1/2+x,1/2+y,z
1/2+x,1/2-y,z
loop_
_atom_site_type_symbol
_atom_site_label
_atom_site_fract_x
_atom_site_fract_y
_atom_site_fract_z
Si Si1 0.910410 0.104225 0.858120
Si Si2 0.375143 0.237337 0.090739
Si Si3 0.095791 0.396975 0.854510
Si Si4 0.539901 0.901741 0.577855
Si Si5 0.145185 0.900181 0.301594
Si Si6 0.336840 0.312581 0.392942
Si Si7 0.234947 0.141090 0.566815
O O1 0.782244 0.110330 0.794320
O O2 0.076324 0.132920 0.722579
O O3 0.917534 0.000000 0.910563
O O4 0.862781 0.175126 0.998352
O O5 0.218139 0.175363 0.167596
O O6 0.414566 0.270786 0.224662
O O7 0.515603 0.170070 0.996149
O O8 0.039434 0.500000 0.904355
O O9 0.042719 0.359318 0.729310
O O10 0.666355 0.851603 0.425365
O O11 0.368904 0.910849 0.589969
O O12 0.610598 0.000000 0.566963
O O13 0.217634 0.897451 0.421736
O O14 0.958957 0.884413 0.398637
O O15 0.174539 0.000000 0.227988
O O16 0.300827 0.242093 0.530431
#
# Coordination Sequence:
#
# PCOD8054022 Si02
#       7
#     4   4   4   4   4   4   4
#     4  11  24  43  66  92 127 170 213 259 314 376
#     4  11  24  41  63  94 128 166 210 260 313 374
#     4  10  23  43  66  92 124 165 211 260 315 373
#     4  11  23  40  64  92 122 158 205 259 309 364
#     4  11  23  42  68  95 127 167 211 260 315 377
#     4  11  24  41  63  92 127 165 207 256 312 372
#     4  11  23  42  65  93 125 163 210 260 313 370
#
# _framework density 22.609441
#
# number of rings (size 3 to 8) (size 9 to 14) (size 15 to 20)
#    0.000    1.143    0.000    6.429    0.000    8.000 
#    0.000    2.857    0.000    0.000    0.000    0.000 
#    0.000    0.000    0.000    0.000    0.000    0.000 
#
# Total GULP energy -173516.908865 kJ/mol
# GULP energy per Si atom -12394.064919 kJ/mol
# Density = 2.255798 g / cm^3
# Si number density = 22.609441 Si / 1000 Ang^3
#
#
#
# Elastic Constant Matrix: (Units=GPa)
#
#
# Indices 1 2 3 4 5 6 
#
# 1 146.0136 45.0909 57.7149 0.0000 -14.3679 0.0000
# 2 45.0909 134.8056 71.1316 0.0000 -1.5837 0.0000
# 3 57.7149 71.1316 125.4753 0.0000 -8.1908 0.0000
# 4 0.0000 0.0000 0.0000 26.2405 0.0000 -9.5862
# 5 -14.3679 -1.5837 -8.1908 0.0000 29.9141 0.0000
# 6 0.0000 0.0000 0.0000 -9.5862 0.0000 30.1244
#
#
#
# Elastic Compliance Matrix: (Units=1/GPa)
#
#
# Indices 1 2 3 4 5 6 
#
# 1 0.008794 -0.001259 -0.003116 0.000000 0.003304 0.000000
# 2 -0.001259 0.010800 -0.005647 0.000000 -0.001579 0.000000
# 3 -0.003116 -0.005647 0.012714 0.000000 0.001686 0.000000
# 4 0.000000 0.000000 0.000000 0.043122 0.000000 0.013722
# 5 0.003304 -0.001579 0.001686 0.000000 0.035394 0.000000
# 6 0.000000 0.000000 0.000000 0.013722 0.000000 0.037562
#
#
# Mechanical properties :
#
#
# Convention : Reuss Voigt Hill
#
# Bulk Modulus (GPa) = 81.52657 83.79657 82.66157
# Shear Modulus (GPa) = 28.98256 32.74626 30.86441
#
# Velocity S-wave (km/s) = 3.58422 3.80984 3.69875
# Velocity P-wave (km/s) = 7.29834 7.51640 7.40817
#
# Compressibility (1/GPa) = 0.01226594
#
# Stress axis : x y z
#
# Youngs Moduli (GPa) = 113.71298 92.59212 78.65341
#
# Poissons Ratio (x) = 0.11654 0.24507
# Poissons Ratio (y) = 0.14312 0.44413
# Poissons Ratio (z) = 0.35431 0.52284
#
# Static dielectric constant tensor:
#      x y z
#    x 3.845260 0.000000 -0.137580 
#    y 0.000000 4.361640 0.000000 
#    z -0.137580 0.000000 3.974580 
# 
# 
# High freq. dielectric constant tensor:
#      x y z
#    x 1.891860 0.000000 -0.012570 
#    y 0.000000 1.910280 0.000000 
#    z -0.012570 0.000000 1.882150 
# 
# From -- ./inp_files/18838.got.cif
#   From: 2010.03.12/outbox.cif.g09.slc.cpg/sg8_10_cif.got.tgz:18838.got - 2010.03.31 10:45:26.
