data_PCOD8054993
_publ_section_title
;
Structure prediction by ZEFSAII (Michael W. Deem and Ramdas Pophale) SiO2 
 PCOD8054993
Probable space group: C C
;
_chemical_formula_sum "Si O2"
_cell_formula_units_Z 24
_cell_length_a 9.094719
_cell_length_b 13.460066
_cell_length_c 14.983250
_cell_angle_alpha 90.000000
_cell_angle_beta 32.047461
_cell_angle_gamma 90.000000
_cell_volume 973.256685
_symmetry_space_group_name_H-M "C C"
_symmetry_group_IT_number 9
_symmetry_cell_setting 'monoclinic'
loop_
_space_group_symop_operation_xyz
x,y,z
x,-y,1/2+z
1/2+x,1/2+y,z
1/2+x,1/2-y,1/2+z
loop_
_atom_site_type_symbol
_atom_site_label
_atom_site_fract_x
_atom_site_fract_y
_atom_site_fract_z
Si Si1 0.325890 0.532808 0.498460
Si Si2 0.174146 0.796028 0.077231
Si Si3 0.146407 0.379685 0.716148
Si Si4 0.808154 0.603582 0.684590
Si Si5 0.537478 0.695468 0.144073
Si Si6 0.579831 0.727317 0.322746
O O1 0.141893 0.490765 0.677001
O O2 0.566141 0.456069 0.355737
O O3 0.473376 0.639209 0.444865
O O4 0.100466 0.543646 0.534476
O O5 0.268314 0.692088 0.074370
O O6 0.209366 0.880355 0.134035
O O7 0.860343 0.780640 0.206210
O O8 0.356026 0.830207 0.898127
O O9 0.353258 0.390316 0.694249
O O10 0.864930 0.703983 0.711344
O O11 0.590398 0.675449 0.220755
O O12 0.839411 0.690569 0.943445
#
# Coordination Sequence:
#
# PCOD8054993 Si02
#       6
#     4   4   4   4   4   4
#     4  11  23  41  67 103 145 181 228 300 354 398
#     4  11  23  42  70  99 133 188 237 272 340 432
#     4  11  21  41  70  98 134 183 231 284 347 414
#     4  10  23  44  68 100 141 186 235 291 349 419
#     4  10  21  41  67  96 133 183 233 278 342 430
#     4  11  23  41  66 100 136 177 232 289 340 409
#
# _framework density 24.659476999999999
#
# number of rings (size 3 to 8) (size 9 to 14) (size 15 to 20)
#    0.000    1.333    0.000    8.000    0.000    2.667 
#    0.000   16.667    0.000    4.000    0.000    0.000 
#    0.000    0.000    0.000    0.000    0.000    0.000 
#
# Total GULP energy -148676.198782 kJ/mol
# GULP energy per Si atom -12389.683232 kJ/mol
# Density = 2.460335 g / cm^3
# Si number density = 24.659477 Si / 1000 Ang^3
#
#
#
# Elastic Constant Matrix: (Units=GPa)
#
#
# Indices 1 2 3 4 5 6 
#
# 1 155.5763 39.7331 56.3154 0.0229 -34.4845 -0.0057
# 2 39.7331 55.1559 47.3841 0.0389 -17.8409 -0.0107
# 3 56.3154 47.3841 131.6177 0.1596 -32.0864 -0.0365
# 4 0.0229 0.0389 0.1596 25.0512 -0.0198 3.6072
# 5 -34.4845 -17.8409 -32.0864 -0.0198 42.5967 0.0118
# 6 -0.0057 -0.0107 -0.0365 3.6072 0.0118 38.5346
#
#
#
# Elastic Compliance Matrix: (Units=1/GPa)
#
#
# Indices 1 2 3 4 5 6 
#
# 1 0.008895 -0.003780 -0.001318 0.000010 0.004626 -0.000003
# 2 -0.003780 0.028663 -0.007988 0.000012 0.002928 -0.000002
# 3 -0.001318 -0.007988 0.012202 -0.000062 0.004779 0.000014
# 4 0.000010 0.000012 -0.000062 0.040464 -0.000014 -0.003788
# 5 0.004626 0.002928 0.004779 -0.000014 0.032047 -0.000003
# 6 -0.000003 -0.000002 0.000014 -0.003788 -0.000003 0.026305
#
#
# Mechanical properties :
#
#
# Convention : Reuss Voigt Hill
#
# Bulk Modulus (GPa) = 42.39108 69.91279 56.15194
# Shear Modulus (GPa) = 27.38062 34.49765 30.93914
#
# Velocity S-wave (km/s) = 3.33580 3.74433 3.54595
# Velocity P-wave (km/s) = 5.66257 6.86339 6.29169
#
# Compressibility (1/GPa) = 0.02358987
#
# Stress axis : x y z
#
# Youngs Moduli (GPa) = 112.41887 34.88855 81.95053
#
# Poissons Ratio (x) = 0.13187 0.10798
# Poissons Ratio (y) = 0.42492 0.65461
# Poissons Ratio (z) = 0.14813 0.27869
#
# Static dielectric constant tensor:
#      x y z
#    x 4.657710 0.000000 -0.065520 
#    y 0.000000 4.368880 -0.000060 
#    z -0.065520 -0.000060 4.571950 
# 
# 
# High freq. dielectric constant tensor:
#      x y z
#    x 1.986840 0.000000 -0.016530 
#    y 0.000000 1.951030 0.000000 
#    z -0.016530 0.000000 1.989730 
# 
# From -- ./inp_files/23603.got.cif
#   From: 2010.06.25/outbox.cif.g09.slc.cpg/sg9_12_cif.got.tgz:23603.got - 2010.06.27 21:40:51.
