data_PCOD8054934
_publ_section_title
;
Structure prediction by ZEFSAII (Michael W. Deem and Ramdas Pophale) SiO2 
 PCOD8054934
Probable space group: C C
;
_chemical_formula_sum "Si O2"
_cell_formula_units_Z 32
_cell_length_a 13.632939
_cell_length_b 12.070560
_cell_length_c 16.405174
_cell_angle_alpha 90.000000
_cell_angle_beta 148.258747
_cell_angle_gamma 90.000000
_cell_volume 1420.211181
_symmetry_space_group_name_H-M "C C"
_symmetry_group_IT_number 9
_symmetry_cell_setting 'monoclinic'
loop_
_space_group_symop_operation_xyz
x,y,z
x,-y,1/2+z
1/2+x,1/2+y,z
1/2+x,1/2-y,1/2+z
loop_
_atom_site_type_symbol
_atom_site_label
_atom_site_fract_x
_atom_site_fract_y
_atom_site_fract_z
Si Si1 0.274230 0.910707 0.036030
Si Si2 0.302009 0.243648 0.237430
Si Si3 0.602073 0.372749 0.365251
Si Si4 0.878212 0.810315 0.046283
Si Si5 0.504861 0.916590 0.453843
Si Si6 0.418904 0.864267 0.972398
Si Si7 0.017040 0.442842 0.810013
Si Si8 0.182187 0.789733 0.133048
O O1 0.181220 0.838838 0.041264
O O2 0.456285 0.970920 0.199213
O O3 0.349051 0.835713 0.013991
O O4 0.122148 0.996584 0.894005
O O5 0.481939 0.323091 0.355173
O O6 0.277337 0.196828 0.311327
O O7 0.339675 0.137517 0.204730
O O8 0.119180 0.313991 0.088811
O O9 0.809031 0.316839 0.508957
O O10 0.492232 0.351840 0.204048
O O11 0.995762 0.827061 0.047667
O O12 0.690410 0.877657 0.897123
O O13 0.355090 0.829430 0.310235
O O14 0.669573 0.844186 0.612312
O O15 0.416490 0.001604 0.457872
O O16 0.585961 0.993402 0.439694
#
# Coordination Sequence:
#
# PCOD8054934 Si02
#       8
#     4   4   4   4   4   4   4   4
#     4  11  24  39  58  87 129 166 201 246 301 368
#     4  10  21  40  66  91 119 156 206 262 310 357
#     4  11  21  39  63  92 120 157 208 261 309 360
#     4  11  21  37  64  91 117 155 208 263 311 359
#     4  10  23  42  61  87 125 161 203 251 303 364
#     4  11  23  42  64  92 124 162 204 254 307 365
#     4   9  21  42  62  89 120 155 204 259 306 361
#     4  11  24  41  60  89 126 164 202 250 303 366
#
# _framework density 22.531860999999999
#
# number of rings (size 3 to 8) (size 9 to 14) (size 15 to 20)
#    0.000    1.500    0.000    6.750    0.000    6.000 
#    0.000    5.000    0.000    0.000    0.000    0.000 
#    0.000    0.000    0.000    0.000    0.000    0.000 
#
# Total GULP energy -198358.215667 kJ/mol
# GULP energy per Si atom -12397.388479 kJ/mol
# Density = 2.248058 g / cm^3
# Si number density = 22.531861 Si / 1000 Ang^3
#
#
#
# Elastic Constant Matrix: (Units=GPa)
#
#
# Indices 1 2 3 4 5 6 
#
# 1 132.2001 27.7649 13.7606 0.0047 -11.3706 0.0011
# 2 27.7649 87.4655 25.7023 0.0053 1.2943 0.0021
# 3 13.7606 25.7023 54.4345 0.0113 -8.4464 0.0042
# 4 0.0047 0.0053 0.0113 40.8165 0.0038 -2.1051
# 5 -11.3706 1.2943 -8.4464 0.0038 28.6971 0.0013
# 6 0.0011 0.0021 0.0042 -2.1051 0.0013 25.7125
#
#
#
# Elastic Compliance Matrix: (Units=1/GPa)
#
#
# Indices 1 2 3 4 5 6 
#
# 1 0.008442 -0.002618 -0.000378 -0.000001 0.003352 0.000000
# 2 -0.002618 0.014269 -0.006640 0.000001 -0.003635 0.000000
# 3 -0.000378 -0.006640 0.022659 -0.000006 0.006819 -0.000004
# 4 -0.000001 0.000001 -0.000006 0.024604 -0.000006 0.002014
# 5 0.003352 -0.003635 0.006819 -0.000006 0.038346 -0.000003
# 6 0.000000 0.000000 -0.000004 0.002014 -0.000003 0.039056
#
#
# Mechanical properties :
#
#
# Convention : Reuss Voigt Hill
#
# Bulk Modulus (GPa) = 38.31564 45.39507 41.85536
# Shear Modulus (GPa) = 28.51486 32.83671 30.67579
#
# Velocity S-wave (km/s) = 3.56130 3.82166 3.69377
# Velocity P-wave (km/s) = 5.82687 6.29796 6.06699
#
# Compressibility (1/GPa) = 0.02609900
#
# Stress axis : x y z
#
# Youngs Moduli (GPa) = 118.45801 70.08131 44.13205
#
# Poissons Ratio (x) = 0.18350 0.01666
# Poissons Ratio (y) = 0.31017 0.29302
# Poissons Ratio (z) = 0.04473 0.46531
#
# Static dielectric constant tensor:
#      x y z
#    x 4.047300 0.000000 -0.152930 
#    y 0.000000 4.126970 0.000000 
#    z -0.152930 0.000000 3.849490 
# 
# 
# High freq. dielectric constant tensor:
#      x y z
#    x 1.891490 0.000000 -0.016650 
#    y 0.000000 1.882710 0.000000 
#    z -0.016650 0.000000 1.880470 
# 
# From -- ./inp_files/9134.got.cif
#   From: 2010.06.25/outbox.cif.g09.slc.cpg/sg9_5_cif.got.tgz:9134.got - 2010.06.27 21:40:51.
