data_PCOD8054375
_publ_section_title
;
Structure prediction by ZEFSAII (Michael W. Deem and Ramdas Pophale) SiO2 
 PCOD8054375
Probable space group: C C
;
_chemical_formula_sum "Si O2"
_cell_formula_units_Z 32
_cell_length_a 9.153132
_cell_length_b 12.005603
_cell_length_c 20.450478
_cell_angle_alpha 90.000000
_cell_angle_beta 133.246382
_cell_angle_gamma 90.000000
_cell_volume 1636.950668
_symmetry_space_group_name_H-M "C C"
_symmetry_group_IT_number 9
_symmetry_cell_setting 'monoclinic'
loop_
_space_group_symop_operation_xyz
x,y,z
x,-y,1/2+z
1/2+x,1/2+y,z
1/2+x,1/2-y,1/2+z
loop_
_atom_site_type_symbol
_atom_site_label
_atom_site_fract_x
_atom_site_fract_y
_atom_site_fract_z
Si Si1 0.729480 0.221940 0.206740
Si Si2 0.567410 0.697819 0.402094
Si Si3 0.341752 0.859895 0.649068
Si Si4 0.442799 0.086900 0.924496
Si Si5 0.786807 0.499681 0.507383
Si Si6 0.725563 0.523664 0.728406
Si Si7 0.485481 0.784820 0.068341
Si Si8 0.331142 0.395458 0.612079
O O1 0.569043 0.181522 0.211625
O O2 0.712235 0.354593 0.190900
O O3 0.696861 0.148122 0.131913
O O4 0.953744 0.190732 0.298562
O O5 0.441852 0.780575 0.410527
O O6 0.585714 0.576728 0.442192
O O7 0.797927 0.741397 0.460778
O O8 0.202238 0.750343 0.609208
O O9 0.260496 0.918733 0.559395
O O10 0.323140 0.939470 0.706046
O O11 0.363629 0.022701 0.835774
O O12 0.672389 0.050864 0.012045
O O13 0.300443 0.064442 0.942576
O O14 0.981787 0.581215 0.579309
O O15 0.500759 0.486788 0.679554
O O16 0.440924 0.715864 0.120401
#
# Coordination Sequence:
#
# PCOD8054375 Si02
#       8
#     4   4   4   4   4   4   4   4
#     4  11  21  38  60  88 118 154 201 250 293 352
#     4   8  20  38  56  81 120 152 193 241 296 356
#     4  11  22  37  60  93 112 151 210 244 289 359
#     4  10  19  38  60  85 115 158 199 236 296 368
#     4  10  19  37  62  81 116 156 197 242 297 347
#     4  10  24  39  58  87 124 155 196 250 304 349
#     4   8  20  38  56  82 115 150 194 240 293 355
#     4  10  19  39  62  81 118 162 190 243 306 356
#
# _framework density 19.548542999999999
#
# number of rings (size 3 to 8) (size 9 to 14) (size 15 to 20)
#    0.750    1.500    1.250    1.500    1.750    0.000 
#    9.000    2.500    0.000    0.000    0.000    0.000 
#    0.000    0.000    0.000    0.000    0.000    0.000 
#
# Total GULP energy -198221.978249 kJ/mol
# GULP energy per Si atom -12388.873641 kJ/mol
# Density = 1.950405 g / cm^3
# Si number density = 19.548543 Si / 1000 Ang^3
#
#
#
# Elastic Constant Matrix: (Units=GPa)
#
#
# Indices 1 2 3 4 5 6 
#
# 1 84.1815 16.2622 32.7031 0.0000 -0.2831 0.0000
# 2 16.2622 56.9964 18.1060 0.0000 0.1593 0.0000
# 3 32.7031 18.1060 100.3421 0.0000 1.6519 0.0000
# 4 0.0000 0.0000 0.0000 27.8722 0.0000 1.1243
# 5 -0.2831 0.1593 1.6519 0.0000 30.0235 0.0000
# 6 0.0000 0.0000 0.0000 1.1243 0.0000 28.3190
#
#
#
# Elastic Compliance Matrix: (Units=1/GPa)
#
#
# Indices 1 2 3 4 5 6 
#
# 1 0.013985 -0.002696 -0.004078 0.000000 0.000371 0.000000
# 2 -0.002696 0.019132 -0.002574 0.000000 0.000015 0.000000
# 3 -0.004078 -0.002574 0.011770 0.000000 -0.000672 0.000000
# 4 0.000000 0.000000 0.000000 0.035936 0.000000 -0.001427
# 5 0.000371 0.000015 -0.000672 0.000000 0.033348 0.000000
# 6 0.000000 0.000000 0.000000 -0.001427 0.000000 0.035369
#
#
# Mechanical properties :
#
#
# Convention : Reuss Voigt Hill
#
# Bulk Modulus (GPa) = 38.17874 41.74030 39.95952
# Shear Modulus (GPa) = 28.25420 28.87286 28.56353
#
# Velocity S-wave (km/s) = 3.80588 3.84732 3.82666
# Velocity P-wave (km/s) = 6.23583 6.41361 6.32534
#
# Compressibility (1/GPa) = 0.02619259
#
# Stress axis : x y z
#
# Youngs Moduli (GPa) = 71.50397 52.26918 84.95916
#
# Poissons Ratio (x) = 0.14092 0.34643
# Poissons Ratio (y) = 0.19277 0.21867
# Poissons Ratio (z) = 0.29157 0.13453
#
# Static dielectric constant tensor:
#      x y z
#    x 3.392300 0.000000 0.096050 
#    y 0.000000 3.576100 0.000000 
#    z 0.096050 0.000000 3.552360 
# 
# 
# High freq. dielectric constant tensor:
#      x y z
#    x 1.743400 0.000000 0.006970 
#    y 0.000000 1.761470 0.000000 
#    z 0.006970 0.000000 1.757680 
# 
# From -- ./inp_files/23201.got.cif
#   From: 2010.06.25/outbox.cif.g09.slc.cpg/sg9_12_cif.got.tgz:23201.got - 2010.06.27 21:40:51.
