data_PCOD8054285
_publ_section_title
;
Structure prediction by ZEFSAII (Michael W. Deem and Ramdas Pophale) SiO2 
 PCOD8054285
Probable space group: C C
;
_chemical_formula_sum "Si O2"
_cell_formula_units_Z 28
_cell_length_a 18.880695
_cell_length_b 7.529653
_cell_length_c 22.957352
_cell_angle_alpha 90.000000
_cell_angle_beta 22.655368
_cell_angle_gamma 90.000000
_cell_volume 1257.148790
_symmetry_space_group_name_H-M "C C"
_symmetry_group_IT_number 9
_symmetry_cell_setting 'monoclinic'
loop_
_space_group_symop_operation_xyz
x,y,z
x,-y,1/2+z
1/2+x,1/2+y,z
1/2+x,1/2-y,1/2+z
loop_
_atom_site_type_symbol
_atom_site_label
_atom_site_fract_x
_atom_site_fract_y
_atom_site_fract_z
Si Si1 0.346360 0.738029 0.437370
Si Si2 0.143007 0.392281 0.546237
Si Si3 0.410491 0.078870 0.326456
Si Si4 0.734482 0.407709 0.642496
Si Si5 0.736708 0.824653 0.652671
Si Si6 0.138015 0.230572 0.849085
Si Si7 0.975948 0.503033 0.558961
O O1 0.234146 0.574216 0.497231
O O2 0.546161 0.677841 0.306522
O O3 0.265434 0.826010 0.556114
O O4 0.329458 0.882869 0.397832
O O5 0.278791 0.227157 0.454801
O O6 0.953700 0.371273 0.726646
O O7 0.093518 0.390074 0.515400
O O8 0.610008 0.063789 0.206188
O O9 0.717828 0.618721 0.650050
O O10 0.890238 0.373370 0.574177
O O11 0.666156 0.858899 0.771906
O O12 0.949490 0.884002 0.483772
O O13 0.313100 0.100530 0.719295
O O14 0.112549 0.352157 0.925735
#
# Coordination Sequence:
#
# PCOD8054285 Si02
#       7
#     4   4   4   4   4   4   4
#     4  12  24  44  71 104 133 182 245 297 350 420
#     4  12  28  45  67 104 146 191 236 288 368 431
#     4  12  25  43  71  99 142 184 228 304 352 416
#     4  10  22  41  68  99 135 176 241 293 342 423
#     4  10  18  39  67 103 124 172 231 292 349 412
#     4   8  18  36  67  94 132 173 222 282 354 414
#     4  10  23  42  65 101 144 184 231 294 361 434
#
# _framework density 22.272622999999999
#
# number of rings (size 3 to 8) (size 9 to 14) (size 15 to 20)
#    0.000    1.714    2.857    3.429    4.000    1.143 
#    0.000    0.000    0.000    0.000    0.000    0.000 
#    0.000    0.000    0.000    0.000    0.000    0.000 
#
# Total GULP energy -173521.746959 kJ/mol
# GULP energy per Si atom -12394.410497 kJ/mol
# Density = 2.222193 g / cm^3
# Si number density = 22.272623 Si / 1000 Ang^3
#
#
#
# Elastic Constant Matrix: (Units=GPa)
#
#
# Indices 1 2 3 4 5 6 
#
# 1 92.1409 12.9770 17.5095 -0.0036 6.0023 0.0069
# 2 12.9770 101.5603 29.1659 -0.0097 0.4787 0.0186
# 3 17.5095 29.1659 111.7340 -0.0138 15.4580 0.0018
# 4 -0.0036 -0.0097 -0.0138 14.6401 0.0052 5.1883
# 5 6.0023 0.4787 15.4580 0.0052 24.9649 0.0021
# 6 0.0069 0.0186 0.0018 5.1883 0.0021 26.0506
#
#
#
# Elastic Compliance Matrix: (Units=1/GPa)
#
#
# Indices 1 2 3 4 5 6 
#
# 1 0.011367 -0.001091 -0.001226 0.000002 -0.001953 -0.000003
# 2 -0.001091 0.010812 -0.002908 0.000007 0.001856 -0.000009
# 3 -0.001226 -0.002908 0.010776 0.000010 -0.006322 0.000000
# 4 0.000002 0.000007 0.000010 0.073493 -0.000021 -0.014637
# 5 -0.001953 0.001856 -0.006322 -0.000021 0.044404 0.000000
# 6 -0.000003 -0.000009 0.000000 -0.014637 0.000000 0.041302
#
#
# Mechanical properties :
#
#
# Convention : Reuss Voigt Hill
#
# Bulk Modulus (GPa) = 44.43683 47.19335 45.81509
# Shear Modulus (GPa) = 23.79752 29.51663 26.65708
#
# Velocity S-wave (km/s) = 3.27228 3.64434 3.46331
# Velocity P-wave (km/s) = 5.85421 6.24045 6.05041
#
# Compressibility (1/GPa) = 0.02250386
#
# Stress axis : x y z
#
# Youngs Moduli (GPa) = 87.97514 92.48851 92.80179
#
# Poissons Ratio (x) = 0.10091 0.11381
# Poissons Ratio (y) = 0.09598 0.26987
# Poissons Ratio (z) = 0.10789 0.26896
#
# Static dielectric constant tensor:
#      x y z
#    x 3.969900 0.000000 0.152450 
#    y 0.000000 3.790100 0.000030 
#    z 0.152450 0.000030 4.331130 
# 
# 
# High freq. dielectric constant tensor:
#      x y z
#    x 1.864500 0.000000 0.013920 
#    y 0.000000 1.860190 0.000000 
#    z 0.013920 0.000000 1.895120 
# 
# From -- ./inp_files/35971.got.cif
#   From: 2010.06.25/outbox.cif.g09.slc.cpg/sg9_18_cif.got.tgz:35971.got - 2010.06.27 21:40:51.
