data_PCOD8054952
_publ_section_title
;
Structure prediction by ZEFSAII (Michael W. Deem and Ramdas Pophale) SiO2 
 PCOD8054952
Probable space group: C C
;
_chemical_formula_sum "Si O2"
_cell_formula_units_Z 32
_cell_length_a 9.108034
_cell_length_b 11.856927
_cell_length_c 13.128921
_cell_angle_alpha 90.000000
_cell_angle_beta 105.841158
_cell_angle_gamma 90.000000
_cell_volume 1363.989094
_symmetry_space_group_name_H-M "C C"
_symmetry_group_IT_number 9
_symmetry_cell_setting 'monoclinic'
loop_
_space_group_symop_operation_xyz
x,y,z
x,-y,1/2+z
1/2+x,1/2+y,z
1/2+x,1/2-y,1/2+z
loop_
_atom_site_type_symbol
_atom_site_label
_atom_site_fract_x
_atom_site_fract_y
_atom_site_fract_z
Si Si1 0.127950 0.709554 0.918380
Si Si2 0.348840 0.911551 0.982444
Si Si3 0.706829 0.388866 0.573554
Si Si4 0.067226 0.383658 0.207274
Si Si5 0.944998 0.591911 0.285274
Si Si6 0.408283 0.306268 0.033328
Si Si7 0.397552 0.544785 0.950456
Si Si8 0.417059 0.657864 0.752079
O O1 0.236757 0.815459 0.920414
O O2 0.019794 0.691180 0.798048
O O3 0.235599 0.599590 0.946726
O O4 0.030110 0.723903 0.002351
O O5 0.440125 0.955102 0.899891
O O6 0.457888 0.861300 0.090950
O O7 0.249697 0.013676 0.003005
O O8 0.780349 0.413059 0.697475
O O9 0.762985 0.269258 0.537401
O O10 0.523500 0.398273 0.548907
O O11 0.233453 0.342081 0.206412
O O12 0.061763 0.516206 0.240151
O O13 0.992208 0.722887 0.299194
O O14 0.480555 0.363784 0.149744
O O15 0.369893 0.410550 0.952824
O O16 0.457724 0.566726 0.845834
#
# Coordination Sequence:
#
# PCOD8054952 Si02
#       8
#     4   4   4   4   4   4   4   4
#     4  11  24  46  69 104 142 181 238 287 350 420
#     4  11  21  43  75  98 142 190 232 292 354 416
#     4  10  24  43  71 102 136 191 230 289 356 411
#     4  10  23  41  71 108 136 192 235 285 358 414
#     4  10  21  40  70 100 138 182 240 283 342 427
#     4  11  25  47  66 102 147 179 241 291 340 428
#     4  11  24  45  68 104 139 186 230 293 352 412
#     4  10  24  43  66 104 144 181 240 288 348 424
#
# _framework density 23.460598999999998
#
# number of rings (size 3 to 8) (size 9 to 14) (size 15 to 20)
#    0.000    1.500    3.750    0.750    3.500    8.000 
#    4.500    0.000    0.000    0.000    0.000    0.000 
#    0.000    0.000    0.000    0.000    0.000    0.000 
#
# Total GULP energy -198273.340966 kJ/mol
# GULP energy per Si atom -12392.083810 kJ/mol
# Density = 2.340720 g / cm^3
# Si number density = 23.460599 Si / 1000 Ang^3
#
#
#
# Elastic Constant Matrix: (Units=GPa)
#
#
# Indices 1 2 3 4 5 6 
#
# 1 65.7472 27.4941 33.2755 0.0000 -13.0042 0.0000
# 2 27.4941 124.8153 53.8031 0.0000 2.0022 0.0000
# 3 33.2755 53.8031 151.3933 0.0000 -22.1533 0.0000
# 4 0.0000 0.0000 0.0000 37.1751 0.0000 -2.5604
# 5 -13.0042 2.0022 -22.1533 0.0000 33.1065 0.0000
# 6 0.0000 0.0000 0.0000 -2.5604 0.0000 26.9573
#
#
#
# Elastic Compliance Matrix: (Units=1/GPa)
#
#
# Indices 1 2 3 4 5 6 
#
# 1 0.018894 -0.003386 -0.002032 0.000000 0.006266 0.000000
# 2 -0.003386 0.010370 -0.003578 0.000000 -0.004351 0.000000
# 3 -0.002032 -0.003578 0.009133 0.000000 0.005529 0.000000
# 4 0.000000 0.000000 0.000000 0.027077 0.000000 0.002572
# 5 0.006266 -0.004351 0.005529 0.000000 0.036630 0.000000
# 6 0.000000 0.000000 0.000000 0.002572 0.000000 0.037340
#
#
# Mechanical properties :
#
#
# Convention : Reuss Voigt Hill
#
# Bulk Modulus (GPa) = 49.01149 63.45568 56.23359
# Shear Modulus (GPa) = 30.44383 34.60667 32.52525
#
# Velocity S-wave (km/s) = 3.60621 3.84487 3.72745
# Velocity P-wave (km/s) = 6.18676 6.84231 6.52277
#
# Compressibility (1/GPa) = 0.02040338
#
# Stress axis : x y z
#
# Youngs Moduli (GPa) = 52.92715 96.43400 109.49830
#
# Poissons Ratio (x) = 0.32656 0.22254
# Poissons Ratio (y) = 0.17923 0.39175
# Poissons Ratio (z) = 0.10757 0.34501
#
# Static dielectric constant tensor:
#      x y z
#    x 4.024900 0.000000 -0.097440 
#    y 0.000000 4.291890 0.000000 
#    z -0.097440 0.000000 4.645000 
# 
# 
# High freq. dielectric constant tensor:
#      x y z
#    x 1.899400 0.000000 -0.007940 
#    y 0.000000 1.934180 0.000000 
#    z -0.007940 0.000000 1.942010 
# 
# From -- ./inp_files/22916.got.cif
#   From: 2010.06.25/outbox.cif.g09.slc.cpg/sg9_12_cif.got.tgz:22916.got - 2010.06.27 21:40:51.
