data_PCOD8054867
_publ_section_title
;
Structure prediction by ZEFSAII (Michael W. Deem and Ramdas Pophale) SiO2 
 PCOD8054867
Probable space group: C C
;
_chemical_formula_sum "Si O2"
_cell_formula_units_Z 32
_cell_length_a 9.023916
_cell_length_b 5.216194
_cell_length_c 27.793424
_cell_angle_alpha 90.000000
_cell_angle_beta 68.063643
_cell_angle_gamma 90.000000
_cell_volume 1213.532147
_symmetry_space_group_name_H-M "C C"
_symmetry_group_IT_number 9
_symmetry_cell_setting 'monoclinic'
loop_
_space_group_symop_operation_xyz
x,y,z
x,-y,1/2+z
1/2+x,1/2+y,z
1/2+x,1/2-y,1/2+z
loop_
_atom_site_type_symbol
_atom_site_label
_atom_site_fract_x
_atom_site_fract_y
_atom_site_fract_z
Si Si1 0.831260 0.468765 0.734530
Si Si2 0.245612 0.407166 0.344019
Si Si3 0.252089 0.129938 0.001406
Si Si4 0.542991 0.129157 0.038253
Si Si5 0.052386 0.903215 0.150948
Si Si6 0.872907 0.415765 0.380394
Si Si7 0.379582 0.180578 0.632405
Si Si8 0.003748 0.883759 0.753904
O O1 0.821525 0.697212 0.695140
O O2 0.923104 0.600124 0.768621
O O3 0.651199 0.398401 0.774187
O O4 0.919263 0.268591 0.690675
O O5 0.269800 0.152132 0.372024
O O6 0.365548 0.395518 0.281683
O O7 0.063421 0.454744 0.351000
O O8 0.318113 0.651881 0.362709
O O9 0.389681 0.182097 0.023733
O O10 0.159640 0.868390 0.024498
O O11 0.132521 0.370390 0.010886
O O12 0.340870 0.095612 0.940461
O O13 0.478207 0.074358 0.101509
O O14 0.224052 0.777417 0.117287
O O15 0.994548 0.070680 0.111789
O O16 0.090224 0.097907 0.191475
#
# Coordination Sequence:
#
# PCOD8054867 Si02
#       8
#     4   4   4   4   4   4   4   4
#     4  10  21  39  62  87 136 171 219 274 329 398
#     4  12  27  45  76 105 140 182 235 289 340 431
#     4  12  26  49  71 105 138 184 227 295 360 414
#     4  12  27  45  76 103 140 182 237 289 340 431
#     4  10  21  39  62  87 136 171 219 274 330 397
#     4  12  26  47  73 103 142 180 229 293 361 412
#     4  10  23  38  59  97 124 178 224 272 335 392
#     4  10  23  38  61  97 124 178 224 270 335 393
#
# _framework density 26.369309000000001
#
# number of rings (size 3 to 8) (size 9 to 14) (size 15 to 20)
#    0.000    1.000    0.000    6.000    7.000    0.000 
#    0.000    0.000    0.000    0.000    0.000    0.000 
#    0.000    0.000    0.000    0.000    0.000    0.000 
#
# Total GULP energy -198304.830916 kJ/mol
# GULP energy per Si atom -12394.051932 kJ/mol
# Density = 2.630929 g / cm^3
# Si number density = 26.369309 Si / 1000 Ang^3
#
#
#
# Elastic Constant Matrix: (Units=GPa)
#
#
# Indices 1 2 3 4 5 6 
#
# 1 174.0719 47.5403 -12.7031 0.0000 -18.7316 0.0000
# 2 47.5403 109.4268 -3.3550 0.0000 -4.3105 0.0000
# 3 -12.7031 -3.3550 88.2742 0.0000 -7.1710 0.0000
# 4 0.0000 0.0000 0.0000 28.7202 0.0000 7.5304
# 5 -18.7316 -4.3105 -7.1710 0.0000 31.8993 0.0000
# 6 0.0000 0.0000 0.0000 7.5304 0.0000 49.2215
#
#
#
# Elastic Compliance Matrix: (Units=1/GPa)
#
#
# Indices 1 2 3 4 5 6 
#
# 1 0.007051 -0.002867 0.001233 0.000000 0.004030 0.000000
# 2 -0.002867 0.010371 -0.000042 0.000000 -0.000291 0.000000
# 3 0.001233 -0.000042 0.011778 0.000000 0.003366 0.000000
# 4 0.000000 0.000000 0.000000 0.036274 0.000000 -0.005550
# 5 0.004030 -0.000291 0.003366 0.000000 0.034433 0.000000
# 6 0.000000 0.000000 0.000000 -0.005550 0.000000 0.021165
#
#
# Mechanical properties :
#
#
# Convention : Reuss Voigt Hill
#
# Bulk Modulus (GPa) = 38.68651 48.30416 43.49534
# Shear Modulus (GPa) = 37.58267 44.65425 41.11846
#
# Velocity S-wave (km/s) = 3.77933 4.11958 3.95312
# Velocity P-wave (km/s) = 5.80925 6.40203 6.11283
#
# Compressibility (1/GPa) = 0.02584880
#
# Stress axis : x y z
#
# Youngs Moduli (GPa) = 141.81513 96.42009 84.90661
#
# Poissons Ratio (x) = 0.27643 -0.10471
# Poissons Ratio (y) = 0.40657 0.00357
# Poissons Ratio (z) = -0.17489 0.00406
#
# Static dielectric constant tensor:
#      x y z
#    x 5.334420 0.000000 0.083150 
#    y 0.000000 5.099070 0.000000 
#    z 0.083150 0.000000 6.638670 
# 
# 
# High freq. dielectric constant tensor:
#      x y z
#    x 2.080280 0.000000 -0.000120 
#    y 0.000000 2.073790 0.000000 
#    z -0.000120 0.000000 2.066690 
# 
# From -- ./inp_files/37117.got.cif
#   From: 2010.06.25/outbox.cif.g09.slc.cpg/sg9_19_cif.got.tgz:37117.got - 2010.06.27 21:40:51.
