data_PCOD8054433
_publ_section_title
;
Structure prediction by ZEFSAII (Michael W. Deem and Ramdas Pophale) SiO2 
 PCOD8054433
Probable space group: C C
;
_chemical_formula_sum "Si O2"
_cell_formula_units_Z 32
_cell_length_a 16.281130
_cell_length_b 12.351806
_cell_length_c 23.766414
_cell_angle_alpha 90.000000
_cell_angle_beta 17.729244
_cell_angle_gamma 90.000000
_cell_volume 1455.437079
_symmetry_space_group_name_H-M "C C"
_symmetry_group_IT_number 9
_symmetry_cell_setting 'monoclinic'
loop_
_space_group_symop_operation_xyz
x,y,z
x,-y,1/2+z
1/2+x,1/2+y,z
1/2+x,1/2-y,1/2+z
loop_
_atom_site_type_symbol
_atom_site_label
_atom_site_fract_x
_atom_site_fract_y
_atom_site_fract_z
Si Si1 0.706990 0.200912 0.877350
Si Si2 0.511632 0.653219 0.865703
Si Si3 0.205016 0.937143 0.695173
Si Si4 0.902150 0.192133 0.317405
Si Si5 0.537970 0.981337 0.706020
Si Si6 0.374747 0.819342 0.232676
Si Si7 0.753219 0.311765 0.960866
Si Si8 0.408332 0.349595 0.994266
O O1 0.695527 0.221470 0.951134
O O2 0.998989 0.165293 0.666092
O O3 0.512512 0.101022 0.988066
O O4 0.619435 0.313963 0.904089
O O5 0.704439 0.562603 0.712086
O O6 0.621680 0.671896 0.856453
O O7 0.502821 0.764650 0.835531
O O8 0.196836 0.614410 0.069554
O O9 0.032833 0.924329 0.748971
O O10 0.059201 0.856382 0.835428
O O11 0.152625 0.271650 0.164082
O O12 0.644415 0.212815 0.524258
O O13 0.808347 0.214307 0.314876
O O14 0.318999 0.927440 0.889578
O O15 0.410526 0.069413 0.745919
O O16 0.774748 0.032644 0.591063
#
# Coordination Sequence:
#
# PCOD8054433 Si02
#       8
#     4   4   4   4   4   4   4   4
#     4  11  23  39  71 102 136 176 228 290 339 401
#     4  11  25  41  69  98 135 185 227 273 340 420
#     4  10  20  41  70 101 129 177 231 274 335 407
#     4  10  19  40  65 103 128 171 228 283 326 404
#     4  10  23  44  67  95 135 183 222 273 341 415
#     4  11  24  41  72  96 134 184 223 277 348 406
#     4  12  25  43  66 103 143 175 224 291 347 399
#     4   9  19  39  68 102 126 177 227 279 328 410
#
# _framework density 21.986522000000001
#
# number of rings (size 3 to 8) (size 9 to 14) (size 15 to 20)
#    0.000    1.500    6.250    0.000    7.000    0.000 
#    0.000    6.250    0.000    0.000    0.000    0.000 
#    0.000    0.000    0.000    0.000    0.000    0.000 
#
# Total GULP energy -198218.650365 kJ/mol
# GULP energy per Si atom -12388.665648 kJ/mol
# Density = 2.193648 g / cm^3
# Si number density = 21.986522 Si / 1000 Ang^3
#
#
#
# Elastic Constant Matrix: (Units=GPa)
#
#
# Indices 1 2 3 4 5 6 
#
# 1 146.8082 49.5674 29.0824 0.0063 -8.8389 -0.0446
# 2 49.5674 58.7620 38.1671 -0.2651 3.8238 -0.0817
# 3 29.0824 38.1671 103.2321 0.6063 7.7384 -0.1114
# 4 0.0063 -0.2651 0.6063 29.9987 -0.0517 5.4749
# 5 -8.8389 3.8238 7.7384 -0.0517 22.5641 -0.0359
# 6 -0.0446 -0.0817 -0.1114 5.4749 -0.0359 33.6202
#
#
#
# Elastic Compliance Matrix: (Units=1/GPa)
#
#
# Indices 1 2 3 4 5 6 
#
# 1 0.010155 -0.008947 0.000037 -0.000074 0.005482 0.000010
# 2 -0.008947 0.030304 -0.008250 0.000434 -0.005810 -0.000042
# 3 0.000037 -0.008250 0.012956 -0.000354 -0.003032 0.000077
# 4 -0.000074 0.000434 -0.000354 0.034367 0.000089 -0.005597
# 5 0.005482 -0.005810 -0.003032 0.000089 0.048490 0.000020
# 6 0.000010 -0.000042 0.000077 -0.005597 0.000020 0.030656
#
#
# Mechanical properties :
#
#
# Convention : Reuss Voigt Hill
#
# Bulk Modulus (GPa) = 52.37407 60.27071 56.32239
# Shear Modulus (GPa) = 24.08314 30.03564 27.05939
#
# Velocity S-wave (km/s) = 3.31321 3.70008 3.51198
# Velocity P-wave (km/s) = 6.20558 6.76211 6.48981
#
# Compressibility (1/GPa) = 0.01909342
#
# Stress axis : x y z
#
# Youngs Moduli (GPa) = 98.47178 32.99942 77.18184
#
# Poissons Ratio (x) = 0.29524 -0.00282
# Poissons Ratio (y) = 0.88102 0.63679
# Poissons Ratio (z) = -0.00359 0.27226
#
# Static dielectric constant tensor:
#      x y z
#    x 4.325850 0.000550 0.010740 
#    y 0.000550 4.076180 0.000530 
#    z 0.010740 0.000530 3.904960 
# 
# 
# High freq. dielectric constant tensor:
#      x y z
#    x 1.862030 0.000000 -0.009590 
#    y 0.000000 1.844680 0.000050 
#    z -0.009590 0.000050 1.869250 
# 
# From -- ./inp_files/33835.got.cif
#   From: 2010.06.25/outbox.cif.g09.slc.cpg/sg9_17_cif.got.tgz:33835.got - 2010.06.27 21:40:51.
