data_PCOD8054213
_publ_section_title
;
Structure prediction by ZEFSAII (Michael W. Deem and Ramdas Pophale) SiO2 
 PCOD8054213
Probable space group: C C
;
_chemical_formula_sum "Si O2"
_cell_formula_units_Z 28
_cell_length_a 14.296320
_cell_length_b 17.019169
_cell_length_c 8.614469
_cell_angle_alpha 90.000000
_cell_angle_beta 135.984054
_cell_angle_gamma 90.000000
_cell_volume 1456.422989
_symmetry_space_group_name_H-M "C C"
_symmetry_group_IT_number 9
_symmetry_cell_setting 'monoclinic'
loop_
_space_group_symop_operation_xyz
x,y,z
x,-y,1/2+z
1/2+x,1/2+y,z
1/2+x,1/2-y,1/2+z
loop_
_atom_site_type_symbol
_atom_site_label
_atom_site_fract_x
_atom_site_fract_y
_atom_site_fract_z
Si Si1 0.493210 0.456644 0.794820
Si Si2 0.027729 0.123702 0.758348
Si Si3 0.739107 0.555524 0.792043
Si Si4 0.112795 0.836093 0.695477
Si Si5 0.857473 0.587683 0.611426
Si Si6 0.065369 0.294219 0.363474
Si Si7 0.364806 0.682851 0.306690
O O1 0.445009 0.540980 0.675689
O O2 0.543655 0.405632 0.710587
O O3 0.383694 0.404842 0.755144
O O4 0.617487 0.485904 0.052786
O O5 0.164810 0.117124 0.817921
O O6 0.919902 0.180710 0.547929
O O7 0.066797 0.163960 0.964640
O O8 0.828930 0.594405 0.763370
O O9 0.831316 0.498269 0.007307
O O10 0.079826 0.748989 0.716241
O O11 0.271473 0.849846 0.908596
O O12 0.011757 0.616579 0.773503
O O13 0.208360 0.294970 0.621504
O O14 0.954141 0.247352 0.327699
#
# Coordination Sequence:
#
# PCOD8054213 Si02
#       7
#     4   4   4   4   4   4   4
#     4   9  17  33  61  86 115 145 193 241 290 341
#     4  11  18  35  63  91 115 146 209 245 288 352
#     4  10  18  32  62  95 108 149 193 254 290 343
#     4  10  18  35  60  89 111 155 196 239 290 355
#     4  11  19  37  63  84 120 148 208 237 298 353
#     4  11  23  42  58  80 123 167 191 238 300 365
#     4  10  23  38  59  85 118 162 194 236 304 349
#
# _framework density 19.225183999999999
#
# number of rings (size 3 to 8) (size 9 to 14) (size 15 to 20)
#    0.000    1.714    5.714    1.714    0.000    0.000 
#    5.143    1.429    0.000    0.000    0.000    0.000 
#    0.000    0.000    0.000    0.000    0.000    0.000 
#
# Total GULP energy -173445.374084 kJ/mol
# GULP energy per Si atom -12388.955292 kJ/mol
# Density = 1.918143 g / cm^3
# Si number density = 19.225184 Si / 1000 Ang^3
#
#
#
# Elastic Constant Matrix: (Units=GPa)
#
#
# Indices 1 2 3 4 5 6 
#
# 1 63.9414 20.6290 69.4703 0.0000 -5.8470 0.0000
# 2 20.6290 53.1854 44.0545 0.0000 4.2516 0.0000
# 3 69.4703 44.0545 134.8102 0.0000 -8.9051 0.0000
# 4 0.0000 0.0000 0.0000 31.1988 0.0000 4.3311
# 5 -5.8470 4.2516 -8.9051 0.0000 41.5120 0.0000
# 6 0.0000 0.0000 0.0000 4.3311 0.0000 22.4504
#
#
#
# Elastic Compliance Matrix: (Units=1/GPa)
#
#
# Indices 1 2 3 4 5 6 
#
# 1 0.035699 0.001762 -0.018920 0.000000 0.000789 0.000000
# 2 0.001762 0.026728 -0.009948 0.000000 -0.004623 0.000000
# 3 -0.018920 -0.009948 0.020602 0.000000 0.002773 0.000000
# 4 0.000000 0.000000 0.000000 0.032935 0.000000 -0.006354
# 5 0.000789 -0.004623 0.002773 0.000000 0.025269 0.000000
# 6 0.000000 0.000000 0.000000 -0.006354 0.000000 0.045768
#
#
# Mechanical properties :
#
#
# Convention : Reuss Voigt Hill
#
# Bulk Modulus (GPa) = 34.70119 57.80494 46.25307
# Shear Modulus (GPa) = 19.93465 26.88444 23.40954
#
# Velocity S-wave (km/s) = 3.22359 3.74357 3.49327
# Velocity P-wave (km/s) = 5.65194 6.98701 6.35464
#
# Compressibility (1/GPa) = 0.02881745
#
# Stress axis : x y z
#
# Youngs Moduli (GPa) = 28.01185 37.41341 48.53906
#
# Poissons Ratio (x) = -0.06594 0.91837
# Poissons Ratio (y) = -0.04937 0.48287
# Poissons Ratio (z) = 0.52999 0.37219
#
# Static dielectric constant tensor:
#      x y z
#    x 3.531790 0.000000 -0.208870 
#    y 0.000000 3.413760 0.000000 
#    z -0.208870 0.000000 3.493480 
# 
# 
# High freq. dielectric constant tensor:
#      x y z
#    x 1.731010 0.000000 -0.021990 
#    y 0.000000 1.735630 0.000000 
#    z -0.021990 0.000000 1.734620 
# 
# From -- ./inp_files/7708.got.cif
#   From: 2010.06.25/outbox.cif.g09.slc.cpg/sg9_4_cif.got.tgz:7708.got - 2010.06.27 21:40:51.
