data_PCOD8054259
_publ_section_title
;
Structure prediction by ZEFSAII (Michael W. Deem and Ramdas Pophale) SiO2 
 PCOD8054259
Probable space group: C C
;
_chemical_formula_sum "Si O2"
_cell_formula_units_Z 24
_cell_length_a 12.097328
_cell_length_b 14.500484
_cell_length_c 7.853577
_cell_angle_alpha 90.000000
_cell_angle_beta 48.086764
_cell_angle_gamma 90.000000
_cell_volume 1025.189566
_symmetry_space_group_name_H-M "C C"
_symmetry_group_IT_number 9
_symmetry_cell_setting 'monoclinic'
loop_
_space_group_symop_operation_xyz
x,y,z
x,-y,1/2+z
1/2+x,1/2+y,z
1/2+x,1/2-y,1/2+z
loop_
_atom_site_type_symbol
_atom_site_label
_atom_site_fract_x
_atom_site_fract_y
_atom_site_fract_z
Si Si1 0.899040 0.841947 0.251380
Si Si2 0.241036 0.325201 0.738576
Si Si3 0.715601 0.685188 0.311251
Si Si4 0.906790 0.360641 0.052515
Si Si5 0.901452 0.544722 0.914672
Si Si6 0.704562 0.130567 0.651524
O O1 0.835871 0.880606 0.496433
O O2 0.841385 0.734017 0.301681
O O3 0.832011 0.897734 0.157624
O O4 0.076339 0.847280 0.068621
O O5 0.289828 0.219461 0.698162
O O6 0.265441 0.375498 0.895098
O O7 0.070287 0.319335 0.857079
O O8 0.656764 0.762492 0.236035
O O9 0.776785 0.597677 0.149408
O O10 0.902606 0.424483 0.221533
O O11 0.867490 0.434604 0.944773
O O12 0.064892 0.563912 0.826163
#
# Coordination Sequence:
#
# PCOD8054259 Si02
#       6
#     4   4   4   4   4   4
#     4  10  20  34  66  88 128 171 221 251 319 399
#     4  11  23  42  64  98 123 185 216 262 330 406
#     4  10  18  37  60  93 130 173 208 264 333 388
#     4  11  26  42  71  95 137 167 230 269 334 389
#     4  11  23  40  68  97 132 172 218 282 329 377
#     4   9  20  39  61  93 132 174 213 264 335 387
#
# _framework density 23.410304
#
# number of rings (size 3 to 8) (size 9 to 14) (size 15 to 20)
#    1.000    0.667    3.333    1.000    7.000    0.000 
#    0.000    1.667    0.000    0.000    0.000    0.000 
#    0.000    0.000    0.000    0.000    0.000    0.000 
#
# Total GULP energy -148767.748213 kJ/mol
# GULP energy per Si atom -12397.312351 kJ/mol
# Density = 2.335702 g / cm^3
# Si number density = 23.410304 Si / 1000 Ang^3
#
#
#
# Elastic Constant Matrix: (Units=GPa)
#
#
# Indices 1 2 3 4 5 6 
#
# 1 43.5655 10.2748 36.0139 0.0000 -3.3213 0.0000
# 2 10.2748 48.6826 23.2781 0.0000 -11.3756 0.0000
# 3 36.0139 23.2781 173.5727 0.0000 -8.9379 0.0000
# 4 0.0000 0.0000 0.0000 25.2274 0.0000 2.1540
# 5 -3.3213 -11.3756 -8.9379 0.0000 39.3342 0.0000
# 6 0.0000 0.0000 0.0000 2.1540 0.0000 21.1717
#
#
#
# Elastic Compliance Matrix: (Units=1/GPa)
#
#
# Indices 1 2 3 4 5 6 
#
# 1 0.028216 -0.003329 -0.005398 0.000000 0.000193 0.000000
# 2 -0.003329 0.023705 -0.002175 0.000000 0.006080 0.000000
# 3 -0.005398 -0.002175 0.007201 0.000000 0.000551 0.000000
# 4 0.000000 0.000000 0.000000 0.039987 0.000000 -0.004068
# 5 0.000193 0.006080 0.000551 0.000000 0.027323 0.000000
# 6 0.000000 0.000000 0.000000 -0.004068 0.000000 0.047647
#
#
# Mechanical properties :
#
#
# Convention : Reuss Voigt Hill
#
# Bulk Modulus (GPa) = 26.79695 44.99495 35.89595
# Shear Modulus (GPa) = 24.00120 30.23024 27.11572
#
# Velocity S-wave (km/s) = 3.20541 3.59740 3.40705
# Velocity P-wave (km/s) = 5.01708 6.04292 5.55373
#
# Compressibility (1/GPa) = 0.03731768
#
# Stress axis : x y z
#
# Youngs Moduli (GPa) = 35.44071 42.18574 138.86139
#
# Poissons Ratio (x) = 0.14043 0.74958
# Poissons Ratio (y) = 0.11798 0.30206
# Poissons Ratio (z) = 0.19131 0.09177
#
# Static dielectric constant tensor:
#      x y z
#    x 4.138650 0.000000 0.245770 
#    y 0.000000 3.991960 0.000000 
#    z 0.245770 0.000000 4.280860 
# 
# 
# High freq. dielectric constant tensor:
#      x y z
#    x 1.915670 0.000000 0.016430 
#    y 0.000000 1.900620 0.000000 
#    z 0.016430 0.000000 1.940940 
# 
# From -- ./inp_files/9624.got.cif
#   From: 2010.06.25/outbox.cif.g09.slc.cpg/sg9_5_cif.got.tgz:9624.got - 2010.06.27 21:40:51.
