data_PCOD8054839
_publ_section_title
;
Structure prediction by ZEFSAII (Michael W. Deem and Ramdas Pophale) SiO2 
 PCOD8054839
Probable space group: C C
;
_chemical_formula_sum "Si O2"
_cell_formula_units_Z 28
_cell_length_a 18.220707
_cell_length_b 11.248343
_cell_length_c 11.576797
_cell_angle_alpha 90.000000
_cell_angle_beta 33.480601
_cell_angle_gamma 90.000000
_cell_volume 1308.908997
_symmetry_space_group_name_H-M "C C"
_symmetry_group_IT_number 9
_symmetry_cell_setting 'monoclinic'
loop_
_space_group_symop_operation_xyz
x,y,z
x,-y,1/2+z
1/2+x,1/2+y,z
1/2+x,1/2-y,1/2+z
loop_
_atom_site_type_symbol
_atom_site_label
_atom_site_fract_x
_atom_site_fract_y
_atom_site_fract_z
Si Si1 0.211220 0.127161 0.500000
Si Si2 0.113457 0.202975 0.396552
Si Si3 0.974292 0.972450 0.906767
Si Si4 0.643870 0.140867 0.208225
Si Si5 0.767726 0.880144 0.028954
Si Si6 0.710960 0.911623 0.855657
Si Si7 0.987974 0.603148 0.207369
O O1 0.209650 0.137428 0.362927
O O2 0.229021 0.258338 0.531770
O O3 0.341536 0.052145 0.369697
O O4 0.078192 0.067077 0.721718
O O5 0.040304 0.104887 0.418697
O O6 0.004436 0.276955 0.611228
O O7 0.196344 0.287607 0.204952
O O8 0.921608 0.889448 0.869563
O O9 0.849472 0.037483 0.127951
O O10 0.639429 0.171277 0.351548
O O11 0.501624 0.132493 0.327430
O O12 0.711545 0.012696 0.111753
O O13 0.747271 0.836758 0.923430
O O14 0.606189 0.015176 0.019058
#
# Coordination Sequence:
#
# PCOD8054839 Si02
#       7
#     4   4   4   4   4   4   4
#     4  11  25  40  67  97 129 167 219 269 320 381
#     4  11  22  42  69  94 126 170 221 259 325 387
#     4  11  23  42  64  98 126 171 216 270 320 383
#     4   9  21  38  64  94 125 167 211 260 319 381
#     4  10  21  43  67  93 126 172 215 262 320 385
#     4  10  21  43  65  92 132 168 214 261 327 380
#     4  10  21  38  64  96 120 173 212 261 317 383
#
# _framework density 21.391860999999999
#
# number of rings (size 3 to 8) (size 9 to 14) (size 15 to 20)
#    0.000    1.714    2.857    1.714   12.000    1.143 
#   10.286    0.000    0.000    0.000    0.000    0.000 
#    0.000    0.000    0.000    0.000    0.000    0.000 
#
# Total GULP energy -173457.133665 kJ/mol
# GULP energy per Si atom -12389.795262 kJ/mol
# Density = 2.134317 g / cm^3
# Si number density = 21.391861 Si / 1000 Ang^3
#
#
#
# Elastic Constant Matrix: (Units=GPa)
#
#
# Indices 1 2 3 4 5 6 
#
# 1 256.5932 52.5321 78.2386 0.0000 14.3457 0.0000
# 2 52.5321 56.6622 35.8637 0.0000 5.1691 0.0000
# 3 78.2386 35.8637 114.5171 0.0000 -12.4186 0.0000
# 4 0.0000 0.0000 0.0000 12.3990 0.0000 5.2438
# 5 14.3457 5.1691 -12.4186 0.0000 35.4772 0.0000
# 6 0.0000 0.0000 0.0000 5.2438 0.0000 37.1102
#
#
#
# Elastic Compliance Matrix: (Units=1/GPa)
#
#
# Indices 1 2 3 4 5 6 
#
# 1 0.005661 -0.002891 -0.003290 0.000000 -0.003019 0.000000
# 2 -0.002891 0.024718 -0.006268 0.000000 -0.004626 0.000000
# 3 -0.003290 -0.006268 0.013706 0.000000 0.007041 0.000000
# 4 0.000000 0.000000 0.000000 0.085777 0.000000 -0.012121
# 5 -0.003019 -0.004626 0.007041 0.000000 0.032547 0.000000
# 6 0.000000 0.000000 0.000000 -0.012121 0.000000 0.028659
#
#
# Mechanical properties :
#
#
# Convention : Reuss Voigt Hill
#
# Bulk Modulus (GPa) = 52.11411 84.56014 68.33712
# Shear Modulus (GPa) = 22.48598 34.40650 28.44624
#
# Velocity S-wave (km/s) = 3.24566 4.01483 3.65056
# Velocity P-wave (km/s) = 6.20163 7.81708 7.05574
#
# Compressibility (1/GPa) = 0.01918866
#
# Stress axis : x y z
#
# Youngs Moduli (GPa) = 176.65006 40.45712 72.95909
#
# Poissons Ratio (x) = 0.11695 0.24001
# Poissons Ratio (y) = 0.51063 0.45728
# Poissons Ratio (z) = 0.58113 0.25357
#
# Static dielectric constant tensor:
#      x y z
#    x 5.373650 0.000000 0.206210 
#    y 0.000000 3.616600 0.000000 
#    z 0.206210 0.000000 3.628510 
# 
# 
# High freq. dielectric constant tensor:
#      x y z
#    x 1.883760 0.000000 -0.000450 
#    y 0.000000 1.809800 0.000000 
#    z -0.000450 0.000000 1.810810 
# 
# From -- ./inp_files/16357.got.cif
#   From: 2010.06.25/outbox.cif.g09.slc.cpg/sg9_9_cif.got.tgz:16357.got - 2010.06.27 21:40:51.
