data_PCOD8054279
_publ_section_title
;
Structure prediction by ZEFSAII (Michael W. Deem and Ramdas Pophale) SiO2 
 PCOD8054279
Probable space group: C C
;
_chemical_formula_sum "Si O2"
_cell_formula_units_Z 32
_cell_length_a 10.964994
_cell_length_b 10.625028
_cell_length_c 12.891171
_cell_angle_alpha 90.000000
_cell_angle_beta 106.616439
_cell_angle_gamma 90.000000
_cell_volume 1439.147818
_symmetry_space_group_name_H-M "C C"
_symmetry_group_IT_number 9
_symmetry_cell_setting 'monoclinic'
loop_
_space_group_symop_operation_xyz
x,y,z
x,-y,1/2+z
1/2+x,1/2+y,z
1/2+x,1/2-y,1/2+z
loop_
_atom_site_type_symbol
_atom_site_label
_atom_site_fract_x
_atom_site_fract_y
_atom_site_fract_z
Si Si1 0.008070 0.729470 0.600760
Si Si2 0.884478 0.449314 0.217258
Si Si3 0.214842 0.038928 0.856030
Si Si4 0.876869 0.329103 0.559224
Si Si5 0.281112 0.373284 0.175627
Si Si6 0.541513 0.187097 0.909206
Si Si7 0.467131 0.416075 0.761293
Si Si8 0.306700 0.760756 0.896974
O O1 0.129730 0.637822 0.616492
O O2 0.894448 0.653267 0.629133
O O3 0.036071 0.852829 0.677338
O O4 0.945312 0.772410 0.477752
O O5 0.756165 0.416927 0.250531
O O6 0.887669 0.585674 0.164800
O O7 0.002124 0.432289 0.327621
O O8 0.290432 0.909483 0.890949
O O9 0.062802 0.025539 0.822985
O O10 0.256321 0.132699 0.958157
O O11 0.854115 0.188001 0.595478
O O12 0.004321 0.335021 0.520235
O O13 0.331165 0.517647 0.202470
O O14 0.309097 0.295268 0.284438
O O15 0.460146 0.308812 0.848217
O O16 0.692537 0.201605 0.937701
#
# Coordination Sequence:
#
# PCOD8054279 Si02
#       8
#     4   4   4   4   4   4   4   4
#     4  11  23  42  66  96 135 180 225 277 357 405
#     4  10  18  38  66  92 130 169 216 289 336 403
#     4  10  20  41  68  90 127 177 223 283 348 405
#     4  11  22  38  69 102 124 174 241 278 336 425
#     4  12  25  43  65  99 134 175 235 280 336 427
#     4   9  22  43  64  94 136 178 226 282 353 412
#     4  10  23  45  63  92 137 183 220 291 347 408
#     4  11  21  42  67  91 131 184 214 278 357 401
#
# _framework density 22.235381
#
# number of rings (size 3 to 8) (size 9 to 14) (size 15 to 20)
#    0.000    1.500    6.250    0.000    1.750    3.000 
#    2.250    3.750    0.000    0.000    0.000    0.000 
#    0.000    0.000    0.000    0.000    0.000    0.000 
#
# Total GULP energy -198298.054839 kJ/mol
# GULP energy per Si atom -12393.628427 kJ/mol
# Density = 2.218477 g / cm^3
# Si number density = 22.235381 Si / 1000 Ang^3
#
#
#
# Elastic Constant Matrix: (Units=GPa)
#
#
# Indices 1 2 3 4 5 6 
#
# 1 96.0077 23.7940 41.7885 0.0000 8.7703 0.0000
# 2 23.7940 57.8000 17.2880 0.0000 3.5997 0.0000
# 3 41.7885 17.2880 76.6260 0.0000 -0.0913 0.0000
# 4 0.0000 0.0000 0.0000 27.3712 0.0000 1.1016
# 5 8.7703 3.5997 -0.0913 0.0000 34.0185 0.0000
# 6 0.0000 0.0000 0.0000 1.1016 0.0000 37.2368
#
#
#
# Elastic Compliance Matrix: (Units=1/GPa)
#
#
# Indices 1 2 3 4 5 6 
#
# 1 0.014801 -0.003714 -0.007238 0.000000 -0.003442 0.000000
# 2 -0.003714 0.019618 -0.002402 0.000000 -0.001125 0.000000
# 3 -0.007238 -0.002402 0.017542 0.000000 0.002167 0.000000
# 4 0.000000 0.000000 0.000000 0.036578 0.000000 -0.001082
# 5 -0.003442 -0.001125 0.002167 0.000000 0.030408 0.000000
# 6 0.000000 0.000000 0.000000 -0.001082 0.000000 0.026887
#
#
# Mechanical properties :
#
#
# Convention : Reuss Voigt Hill
#
# Bulk Modulus (GPa) = 39.59822 44.01942 41.80882
# Shear Modulus (GPa) = 27.63017 29.56284 28.59650
#
# Velocity S-wave (km/s) = 3.52891 3.65024 3.59009
# Velocity P-wave (km/s) = 5.86955 6.13235 6.00239
#
# Compressibility (1/GPa) = 0.02525366
#
# Stress axis : x y z
#
# Youngs Moduli (GPa) = 67.56224 50.97253 57.00501
#
# Poissons Ratio (x) = 0.18930 0.41261
# Poissons Ratio (y) = 0.25091 0.13694
# Poissons Ratio (z) = 0.48902 0.12245
#
# Static dielectric constant tensor:
#      x y z
#    x 3.964410 0.000000 -0.116750 
#    y 0.000000 3.926780 0.000000 
#    z -0.116750 0.000000 4.075620 
# 
# 
# High freq. dielectric constant tensor:
#      x y z
#    x 1.860850 0.000000 -0.007420 
#    y 0.000000 1.857340 0.000000 
#    z -0.007420 0.000000 1.881420 
# 
# From -- ./inp_files/16255.got.cif
#   From: 2010.06.25/outbox.cif.g09.slc.cpg/sg9_9_cif.got.tgz:16255.got - 2010.06.27 21:40:51.
