data_PCOD8054713
_publ_section_title
;
Structure prediction by ZEFSAII (Michael W. Deem and Ramdas Pophale) SiO2 
 PCOD8054713
Probable space group: C C
;
_chemical_formula_sum "Si O2"
_cell_formula_units_Z 32
_cell_length_a 16.108640
_cell_length_b 20.064978
_cell_length_c 8.428638
_cell_angle_alpha 90.000000
_cell_angle_beta 148.487021
_cell_angle_gamma 90.000000
_cell_volume 1423.969105
_symmetry_space_group_name_H-M "C C"
_symmetry_group_IT_number 9
_symmetry_cell_setting 'monoclinic'
loop_
_space_group_symop_operation_xyz
x,y,z
x,-y,1/2+z
1/2+x,1/2+y,z
1/2+x,1/2-y,1/2+z
loop_
_atom_site_type_symbol
_atom_site_label
_atom_site_fract_x
_atom_site_fract_y
_atom_site_fract_z
Si Si1 0.368860 0.232165 0.692640
Si Si2 0.096768 0.330151 0.320279
Si Si3 0.904933 0.952299 0.360389
Si Si4 0.635566 0.375419 0.932950
Si Si5 0.798588 0.076843 0.356486
Si Si6 0.562902 0.329296 0.161469
Si Si7 0.729298 0.507965 0.774775
Si Si8 0.343192 0.098181 0.238346
O O1 0.241303 0.292288 0.469922
O O2 0.472517 0.221060 0.701478
O O3 0.271950 0.165801 0.568033
O O4 0.483019 0.255197 0.029145
O O5 0.152398 0.381497 0.547778
O O6 0.017357 0.371301 0.046660
O O7 0.979029 0.888256 0.571107
O O8 0.797621 0.000212 0.295412
O O9 0.791277 0.925157 0.035489
O O10 0.047877 0.998495 0.530330
O O11 0.579145 0.341076 0.000569
O O12 0.720598 0.446247 0.103269
O O13 0.960893 0.113121 0.574933
O O14 0.731050 0.336832 0.523824
O O15 0.802291 0.437603 0.839573
O O16 0.834581 0.546172 0.078799
#
# Coordination Sequence:
#
# PCOD8054713 Si02
#       8
#     4   4   4   4   4   4   4   4
#     4  11  24  47  68  94 136 189 229 283 338 393
#     4  11  27  46  68  97 145 179 233 296 334 402
#     4  12  18  37  68 104 130 181 217 279 350 429
#     4  11  20  38  70  95 136 176 224 272 347 403
#     4  11  22  39  68  99 138 175 229 281 345 407
#     4  10  20  42  66  98 128 181 231 278 323 410
#     4  11  19  36  68 104 133 175 217 277 353 419
#     4  11  22  41  68 103 136 180 226 282 348 415
#
# _framework density 22.472397000000001
#
# number of rings (size 3 to 8) (size 9 to 14) (size 15 to 20)
#    0.000    1.000    7.500    0.750    0.000    1.000 
#    6.750    0.000    2.750    0.000    0.000    0.000 
#    0.000    0.000    0.000    0.000    0.000    0.000 
#
# Total GULP energy -198286.055035 kJ/mol
# GULP energy per Si atom -12392.878440 kJ/mol
# Density = 2.242125 g / cm^3
# Si number density = 22.472397 Si / 1000 Ang^3
#
#
#
# Elastic Constant Matrix: (Units=GPa)
#
#
# Indices 1 2 3 4 5 6 
#
# 1 50.8027 13.7965 32.4315 0.0000 -1.2856 0.0000
# 2 13.7965 84.8430 53.8709 0.0000 -1.3301 0.0000
# 3 32.4315 53.8709 157.5385 0.0000 -16.6356 0.0000
# 4 0.0000 0.0000 0.0000 43.0139 0.0000 1.1778
# 5 -1.2856 -1.3301 -16.6356 0.0000 25.6847 0.0000
# 6 0.0000 0.0000 0.0000 1.1778 0.0000 27.9443
#
#
#
# Elastic Compliance Matrix: (Units=1/GPa)
#
#
# Indices 1 2 3 4 5 6 
#
# 1 0.022803 -0.000805 -0.004619 0.000000 -0.001892 0.000000
# 2 -0.000805 0.015266 -0.005341 0.000000 -0.002709 0.000000
# 3 -0.004619 -0.005341 0.009737 0.000000 0.005799 0.000000
# 4 0.000000 0.000000 0.000000 0.023275 0.000000 -0.000981
# 5 -0.001892 -0.002709 0.005799 0.000000 0.042455 0.000000
# 6 0.000000 0.000000 0.000000 -0.000981 0.000000 0.035827
#
#
# Mechanical properties :
#
#
# Convention : Reuss Voigt Hill
#
# Bulk Modulus (GPa) = 38.05548 54.82021 46.43784
# Shear Modulus (GPa) = 27.83177 32.20094 30.01636
#
# Velocity S-wave (km/s) = 3.52303 3.78949 3.65869
# Velocity P-wave (km/s) = 5.78965 6.60260 6.20945
#
# Compressibility (1/GPa) = 0.02627743
#
# Stress axis : x y z
#
# Youngs Moduli (GPa) = 43.85328 65.50561 102.70031
#
# Poissons Ratio (x) = 0.05273 0.47436
# Poissons Ratio (y) = 0.03530 0.54847
# Poissons Ratio (z) = 0.20255 0.34984
#
# Static dielectric constant tensor:
#      x y z
#    x 3.817760 0.000000 -0.107370 
#    y 0.000000 4.227290 0.000000 
#    z -0.107370 0.000000 4.041840 
# 
# 
# High freq. dielectric constant tensor:
#      x y z
#    x 1.865050 0.000000 -0.007530 
#    y 0.000000 1.888220 0.000000 
#    z -0.007530 0.000000 1.878120 
# 
# From -- ./inp_files/11040.got.cif
#   From: 2010.06.25/outbox.cif.g09.slc.cpg/sg9_6_cif.got.tgz:11040.got - 2010.06.27 21:40:51.
