data_PCOD8054031
_publ_section_title
;
Structure prediction by ZEFSAII (Michael W. Deem and Ramdas Pophale) SiO2 
 PCOD8054031
Probable space group: C M
;
_chemical_formula_sum "Si O2"
_cell_formula_units_Z 26
_cell_length_a 10.443959
_cell_length_b 17.888828
_cell_length_c 8.920302
_cell_angle_alpha 90.000000
_cell_angle_beta 136.781034
_cell_angle_gamma 90.000000
_cell_volume 1141.255756
_symmetry_space_group_name_H-M "C M"
_symmetry_group_IT_number 8
_symmetry_cell_setting 'monoclinic'
loop_
_space_group_symop_operation_xyz
x,y,z
x,-y,z
1/2+x,1/2+y,z
1/2+x,1/2-y,z
loop_
_atom_site_type_symbol
_atom_site_label
_atom_site_fract_x
_atom_site_fract_y
_atom_site_fract_z
Si Si1 0.757870 0.645723 0.358780
Si Si2 0.700396 0.500000 0.481425
Si Si3 0.978105 0.622178 0.250711
Si Si4 0.318970 0.500000 0.261378
Si Si5 0.000962 0.243597 0.751875
Si Si6 0.908888 0.500000 0.954918
Si Si7 0.918067 0.237380 0.021291
Si Si8 0.881744 0.081449 0.597085
O O1 0.791941 0.573413 0.489623
O O2 0.828852 0.628029 0.254386
O O3 0.861554 0.717522 0.516451
O O4 0.536775 0.662071 0.151278
O O5 0.474445 0.500000 0.263036
O O6 0.737774 0.500000 0.692511
O O7 0.015905 0.702171 0.210412
O O8 0.173321 0.593199 0.487367
O O9 0.891064 0.571117 0.046430
O O10 0.351813 0.574284 0.391787
O O11 0.103261 0.500000 0.023527
O O12 0.010263 0.153002 0.741125
O O13 0.933161 0.263227 0.861120
O O14 0.205474 0.276225 0.890749
O O15 0.960016 0.000000 0.725631
#
# Coordination Sequence:
#
# PCOD8054031 Si02
#       8
#     4   2   4   2   4   2   4   4
#     4  12  28  46  70 106 151 189 248 308 364 435
#     4  12  27  43  71 107 139 192 243 306 365 440
#     4  11  21  47  71 100 145 189 239 301 369 429
#     4   8  22  40  66 100 140 182 224 302 350 426
#     4  12  26  46  74 107 143 194 249 301 366 439
#     4  10  23  45  75 103 137 192 241 294 369 452
#     4  12  27  45  70 105 140 195 245 303 359 430
#     4   9  21  42  73 104 138 183 236 295 360 429
#
# _framework density 22.781922999999999
#
# number of rings (size 3 to 8) (size 9 to 14) (size 15 to 20)
#    0.462    0.615    3.846    2.308    4.308    3.692 
#    1.385    0.000    0.000    0.000    0.000    0.000 
#    0.000    0.000    0.000    0.000    0.000    0.000 
#
# Total GULP energy -161159.851689 kJ/mol
# GULP energy per Si atom -12396.911668 kJ/mol
# Density = 2.273007 g / cm^3
# Si number density = 22.781923 Si / 1000 Ang^3
#
#
#
# Elastic Constant Matrix: (Units=GPa)
#
#
# Indices 1 2 3 4 5 6 
#
# 1 112.1248 47.1389 37.5940 0.0000 -2.0783 0.0000
# 2 47.1389 112.0584 32.3299 0.0000 5.2708 0.0000
# 3 37.5940 32.3299 80.7454 0.0000 4.6831 0.0000
# 4 0.0000 0.0000 0.0000 28.8414 0.0000 7.2440
# 5 -2.0783 5.2708 4.6831 0.0000 36.1705 0.0000
# 6 0.0000 0.0000 0.0000 7.2440 0.0000 25.7304
#
#
#
# Elastic Compliance Matrix: (Units=1/GPa)
#
#
# Indices 1 2 3 4 5 6 
#
# 1 0.011986 -0.003942 -0.004106 0.000000 0.001795 0.000000
# 2 -0.003942 0.011419 -0.002647 0.000000 -0.001548 0.000000
# 3 -0.004106 -0.002647 0.015464 0.000000 -0.001852 0.000000
# 4 0.000000 0.000000 0.000000 0.037311 0.000000 -0.010504
# 5 0.001795 -0.001548 -0.001852 0.000000 0.028215 0.000000
# 6 0.000000 0.000000 0.000000 -0.010504 0.000000 0.041822
#
#
# Mechanical properties :
#
#
# Convention : Reuss Voigt Hill
#
# Bulk Modulus (GPa) = 57.21425 59.89491 58.55458
# Shear Modulus (GPa) = 28.82976 30.67285 29.75130
#
# Velocity S-wave (km/s) = 3.56120 3.67327 3.61767
# Velocity P-wave (km/s) = 6.48675 6.65869 6.57328
#
# Compressibility (1/GPa) = 0.01747816
#
# Stress axis : x y z
#
# Youngs Moduli (GPa) = 83.43177 87.57710 64.66760
#
# Poissons Ratio (x) = 0.34520 0.26554
# Poissons Ratio (y) = 0.32886 0.17117
# Poissons Ratio (z) = 0.34260 0.23181
#
# Static dielectric constant tensor:
#      x y z
#    x 4.044420 0.000000 0.103910 
#    y 0.000000 4.133960 0.000000 
#    z 0.103910 0.000000 3.825740 
# 
# 
# High freq. dielectric constant tensor:
#      x y z
#    x 1.902930 0.000000 0.017500 
#    y 0.000000 1.898580 0.000000 
#    z 0.017500 0.000000 1.885920 
# 
# From -- ./inp_files/8780.got.cif
#   From: 2010.03.12/outbox.cif.g09.slc.cpg/sg8_5_cif.got.tgz:8780.got - 2010.03.31 10:45:26.
