data_PCOD8054401
_publ_section_title
;
Structure prediction by ZEFSAII (Michael W. Deem and Ramdas Pophale) SiO2 
 PCOD8054401
Probable space group: C C
;
_chemical_formula_sum "Si O2"
_cell_formula_units_Z 24
_cell_length_a 12.580761
_cell_length_b 17.098444
_cell_length_c 7.772297
_cell_angle_alpha 90.000000
_cell_angle_beta 35.059325
_cell_angle_gamma 90.000000
_cell_volume 960.385707
_symmetry_space_group_name_H-M "C C"
_symmetry_group_IT_number 9
_symmetry_cell_setting 'monoclinic'
loop_
_space_group_symop_operation_xyz
x,y,z
x,-y,1/2+z
1/2+x,1/2+y,z
1/2+x,1/2-y,1/2+z
loop_
_atom_site_type_symbol
_atom_site_label
_atom_site_fract_x
_atom_site_fract_y
_atom_site_fract_z
Si Si1 0.456260 0.378185 0.288570
Si Si2 0.275585 0.209365 0.232651
Si Si3 0.955757 0.035885 0.433896
Si Si4 0.618895 0.192397 0.398501
Si Si5 0.672247 0.145586 0.707556
Si Si6 0.706571 0.656327 0.947789
O O1 0.474940 0.441820 0.417086
O O2 0.264739 0.329388 0.555298
O O3 0.620427 0.313620 0.079250
O O4 0.481468 0.433454 0.091142
O O5 0.302650 0.303038 0.169522
O O6 0.458446 0.161135 0.039516
O O7 0.191131 0.192182 0.157729
O O8 0.746075 0.058197 0.646987
O O9 0.106294 0.072528 0.098311
O O10 0.702106 0.160416 0.466738
O O11 0.599820 0.286792 0.452298
O O12 0.423719 0.152400 0.607630
#
# Coordination Sequence:
#
# PCOD8054401 Si02
#       6
#     4   4   4   4   4   4
#     4  11  24  40  59  88 122 157 197 244 297 350
#     4   9  19  36  61  89 117 153 196 240 290 348
#     4  11  23  41  60  86 122 159 195 244 298 350
#     4  10  20  37  62  91 118 154 198 242 291 350
#     4  10  19  38  63  87 118 156 196 243 292 348
#     4   9  19  36  61  87 117 153 196 241 290 346
#
# _framework density 24.989961999999998
#
# number of rings (size 3 to 8) (size 9 to 14) (size 15 to 20)
#    0.000    2.000    0.000    6.000    0.000    4.000 
#    0.000    6.667    0.000    0.000    0.000    0.000 
#    0.000    0.000    0.000    0.000    0.000    0.000 
#
# Total GULP energy -148678.450168 kJ/mol
# GULP energy per Si atom -12389.870847 kJ/mol
# Density = 2.493308 g / cm^3
# Si number density = 24.989962 Si / 1000 Ang^3
#
#
#
# Elastic Constant Matrix: (Units=GPa)
#
#
# Indices 1 2 3 4 5 6 
#
# 1 39.9742 -11.2114 14.0809 -0.0039 -13.9065 0.0046
# 2 -11.2114 79.4020 10.6491 -0.0032 -3.4722 0.0029
# 3 14.0809 10.6491 153.7693 -0.0075 -30.7480 0.0045
# 4 -0.0039 -0.0032 -0.0075 35.7908 0.0023 0.9007
# 5 -13.9065 -3.4722 -30.7480 0.0023 39.9972 -0.0016
# 6 0.0046 0.0029 0.0045 0.9007 -0.0016 7.3837
#
#
#
# Elastic Compliance Matrix: (Units=1/GPa)
#
#
# Indices 1 2 3 4 5 6 
#
# 1 0.030282 0.004864 -0.001087 0.000003 0.010115 -0.000018
# 2 0.004864 0.013502 -0.000955 0.000002 0.002129 -0.000008
# 3 -0.001087 -0.000955 0.007771 0.000001 0.005513 -0.000003
# 4 0.000003 0.000002 0.000001 0.028026 0.000000 -0.003419
# 5 0.010115 0.002129 0.005513 0.000000 0.032942 -0.000003
# 6 -0.000018 -0.000008 -0.000003 -0.003419 -0.000003 0.135850
#
#
# Mechanical properties :
#
#
# Convention : Reuss Voigt Hill
#
# Bulk Modulus (GPa) = 17.48260 33.35365 25.41813
# Shear Modulus (GPa) = 19.09880 33.94279 26.52080
#
# Velocity S-wave (km/s) = 2.76752 3.68945 3.26123
# Velocity P-wave (km/s) = 4.15009 5.61473 4.93703
#
# Compressibility (1/GPa) = 0.05719972
#
# Stress axis : x y z
#
# Youngs Moduli (GPa) = 33.02272 74.06271 128.67712
#
# Poissons Ratio (x) = -0.36023 0.13990
# Poissons Ratio (y) = -0.16062 0.12285
# Poissons Ratio (z) = 0.03590 0.07071
#
# Static dielectric constant tensor:
#      x y z
#    x 4.166020 0.000000 0.086960 
#    y 0.000000 4.632720 0.000000 
#    z 0.086960 0.000000 4.579540 
# 
# 
# High freq. dielectric constant tensor:
#      x y z
#    x 1.990700 0.000000 0.003790 
#    y 0.000000 1.974850 0.000000 
#    z 0.003790 0.000000 2.000650 
# 
# From -- ./inp_files/5191.got.cif
#   From: 2010.06.25/outbox.cif.g09.slc.cpg/sg9_3_cif.got.tgz:5191.got - 2010.06.27 21:40:51.
