data_PCOD8054606
_publ_section_title
;
Structure prediction by ZEFSAII (Michael W. Deem and Ramdas Pophale) SiO2 
 PCOD8054606
Probable space group: C C
;
_chemical_formula_sum "Si O2"
_cell_formula_units_Z 20
_cell_length_a 9.627553
_cell_length_b 9.137426
_cell_length_c 11.371617
_cell_angle_alpha 90.000000
_cell_angle_beta 91.269068
_cell_angle_gamma 90.000000
_cell_volume 1000.127743
_symmetry_space_group_name_H-M "C C"
_symmetry_group_IT_number 9
_symmetry_cell_setting 'monoclinic'
loop_
_space_group_symop_operation_xyz
x,y,z
x,-y,1/2+z
1/2+x,1/2+y,z
1/2+x,1/2-y,1/2+z
loop_
_atom_site_type_symbol
_atom_site_label
_atom_site_fract_x
_atom_site_fract_y
_atom_site_fract_z
Si Si1 0.838300 0.903113 0.495440
Si Si2 0.337587 0.642293 0.322610
Si Si3 0.595480 0.887170 0.639493
Si Si4 0.836236 0.790384 0.079715
Si Si5 0.036373 0.723512 0.640625
O O1 0.679256 0.851668 0.518678
O O2 0.951507 0.777971 0.523114
O O3 0.858342 0.971470 0.365595
O O4 0.851095 0.032918 0.596417
O O5 0.193551 0.653169 0.250764
O O6 0.327221 0.742929 0.439411
O O7 0.468802 0.702359 0.253394
O O8 0.465730 0.780593 0.645981
O O9 0.530245 0.048774 0.643143
O O10 0.696629 0.727005 0.136873
#
# Coordination Sequence:
#
# PCOD8054606 Si02
#       5
#     4   4   4   4   4
#     4   8  20  40  57  79 122 151 186 239 287 341
#     4   9  21  40  60  81 124 159 179 238 306 326
#     4  10  20  39  61  85 117 151 197 238 280 349
#     4   9  21  40  57  85 120 149 195 238 280 347
#     4  10  20  39  59  86 113 152 199 237 281 345
#
# _framework density 19.997444999999999
#
# number of rings (size 3 to 8) (size 9 to 14) (size 15 to 20)
#    1.200    1.600    0.000    0.000    2.800    3.200 
#   14.400    0.000    0.000    0.000    0.000    0.000 
#    0.000    0.000    0.000    0.000    0.000    0.000 
#
# Total GULP energy -123887.709386 kJ/mol
# GULP energy per Si atom -12388.770939 kJ/mol
# Density = 1.995193 g / cm^3
# Si number density = 19.997445 Si / 1000 Ang^3
#
#
#
# Elastic Constant Matrix: (Units=GPa)
#
#
# Indices 1 2 3 4 5 6 
#
# 1 157.8538 51.2577 31.3020 0.0000 0.4794 0.0000
# 2 51.2577 43.5892 8.9787 0.0000 3.2327 0.0000
# 3 31.3020 8.9787 60.9280 0.0000 5.8238 0.0000
# 4 0.0000 0.0000 0.0000 26.2365 0.0000 4.7682
# 5 0.4794 3.2327 5.8238 0.0000 27.5140 0.0000
# 6 0.0000 0.0000 0.0000 4.7682 0.0000 30.1019
#
#
#
# Elastic Compliance Matrix: (Units=1/GPa)
#
#
# Indices 1 2 3 4 5 6 
#
# 1 0.011197 -0.012477 -0.004118 0.000000 0.002143 0.000000
# 2 -0.012477 0.037681 0.001286 0.000000 -0.004482 0.000000
# 3 -0.004118 0.001286 0.018726 0.000000 -0.004043 0.000000
# 4 0.000000 0.000000 0.000000 0.039245 0.000000 -0.006216
# 5 0.002143 -0.004482 -0.004043 0.000000 0.037690 0.000000
# 6 0.000000 0.000000 0.000000 -0.006216 0.000000 0.034205
#
#
# Mechanical properties :
#
#
# Convention : Reuss Voigt Hill
#
# Bulk Modulus (GPa) = 27.03892 49.49423 38.26658
# Shear Modulus (GPa) = 22.55392 28.15930 25.35661
#
# Velocity S-wave (km/s) = 3.36198 3.75660 3.56475
# Velocity P-wave (km/s) = 5.34987 6.60455 6.01004
#
# Compressibility (1/GPa) = 0.03698372
#
# Stress axis : x y z
#
# Youngs Moduli (GPa) = 89.31265 26.53855 53.40260
#
# Poissons Ratio (x) = 0.33112 0.21994
# Poissons Ratio (y) = 1.11435 -0.06865
# Poissons Ratio (z) = 0.36783 -0.03412
#
# Static dielectric constant tensor:
#      x y z
#    x 3.576460 0.000000 -0.122690 
#    y 0.000000 3.382190 0.000000 
#    z -0.122690 0.000000 3.475960 
# 
# 
# High freq. dielectric constant tensor:
#      x y z
#    x 1.785700 0.000000 -0.007900 
#    y 0.000000 1.757130 0.000000 
#    z -0.007900 0.000000 1.773120 
# 
# From -- ./inp_files/13976.got.cif
#   From: 2010.06.25/outbox.cif.g09.slc.cpg/sg9_7_cif.got.tgz:13976.got - 2010.06.27 21:40:51.
