data_PCOD8054313
_publ_section_title
;
Structure prediction by ZEFSAII (Michael W. Deem and Ramdas Pophale) SiO2 
 PCOD8054313
Probable space group: C C
;
_chemical_formula_sum "Si O2"
_cell_formula_units_Z 32
_cell_length_a 9.080379
_cell_length_b 20.752912
_cell_length_c 12.714423
_cell_angle_alpha 90.000000
_cell_angle_beta 135.946493
_cell_angle_gamma 90.000000
_cell_volume 1665.982916
_symmetry_space_group_name_H-M "C C"
_symmetry_group_IT_number 9
_symmetry_cell_setting 'monoclinic'
loop_
_space_group_symop_operation_xyz
x,y,z
x,-y,1/2+z
1/2+x,1/2+y,z
1/2+x,1/2-y,1/2+z
loop_
_atom_site_type_symbol
_atom_site_label
_atom_site_fract_x
_atom_site_fract_y
_atom_site_fract_z
Si Si1 0.740450 0.064894 0.698060
Si Si2 0.942909 0.057766 0.391171
Si Si3 0.784646 0.682338 0.231674
Si Si4 0.895562 0.444699 0.199672
Si Si5 0.443241 0.806939 0.218891
Si Si6 0.598194 0.683510 0.365370
Si Si7 0.596154 0.067747 0.388614
Si Si8 0.911511 0.188627 0.874107
O O1 0.534282 0.067487 0.666226
O O2 0.668850 0.077384 0.543822
O O3 0.909649 0.121211 0.810264
O O4 0.850501 0.995882 0.765854
O O5 0.793901 0.072322 0.412987
O O6 0.164553 0.031044 0.548729
O O7 0.969274 0.122221 0.338523
O O8 0.679056 0.667986 0.289973
O O9 0.924194 0.748235 0.305465
O O10 0.930891 0.622854 0.272375
O O11 0.604992 0.689864 0.052768
O O12 0.882850 0.373594 0.248635
O O13 0.993355 0.496763 0.327817
O O14 0.425177 0.742313 0.280324
O O15 0.691633 0.805956 0.322129
O O16 0.300686 0.800537 0.041553
#
# Coordination Sequence:
#
# PCOD8054313 Si02
#       8
#     4   4   4   4   4   4   4   4
#     4  10  21  37  58  80 107 144 187 225 264 319
#     4  10  22  37  55  82 113 142 178 224 275 326
#     4  11  20  34  58  82 108 142 183 226 269 317
#     4   9  20  38  55  78 108 142 185 226 263 320
#     4   9  17  32  55  81 105 139 187 227 258 308
#     4  10  19  34  57  82 111 143 183 227 268 316
#     4  11  22  36  56  82 111 142 178 224 277 325
#     4  10  19  34  58  83 105 140 191 229 258 311
#
# _framework density 19.207879999999999
#
# number of rings (size 3 to 8) (size 9 to 14) (size 15 to 20)
#    0.000    2.000    0.000    6.750    0.000    6.000 
#    0.000    5.000    0.000    0.000    0.000    0.000 
#    0.000    0.000    0.000    0.000    0.000    0.000 
#
# Total GULP energy -198341.859822 kJ/mol
# GULP energy per Si atom -12396.366239 kJ/mol
# Density = 1.916416 g / cm^3
# Si number density = 19.207880 Si / 1000 Ang^3
#
#
#
# Elastic Constant Matrix: (Units=GPa)
#
#
# Indices 1 2 3 4 5 6 
#
# 1 46.7916 40.7788 34.0426 0.0000 6.1550 0.0000
# 2 40.7788 148.6831 70.4070 0.0000 -0.2528 0.0000
# 3 34.0426 70.4070 152.5071 0.0000 6.3629 0.0000
# 4 0.0000 0.0000 0.0000 37.1441 0.0000 4.6941
# 5 6.1550 -0.2528 6.3629 0.0000 22.1436 0.0000
# 6 0.0000 0.0000 0.0000 4.6941 0.0000 25.9541
#
#
#
# Elastic Compliance Matrix: (Units=1/GPa)
#
#
# Indices 1 2 3 4 5 6 
#
# 1 0.030830 -0.006861 -0.003394 0.000000 -0.007672 0.000000
# 2 -0.006861 0.010169 -0.003287 0.000000 0.002968 0.000000
# 3 -0.003394 -0.003287 0.008901 0.000000 -0.001652 0.000000
# 4 0.000000 0.000000 0.000000 0.027552 0.000000 -0.004983
# 5 -0.007672 0.002968 -0.001652 0.000000 0.047801 0.000000
# 6 0.000000 0.000000 0.000000 -0.004983 0.000000 0.039431
#
#
# Mechanical properties :
#
#
# Convention : Reuss Voigt Hill
#
# Bulk Modulus (GPa) = 43.83068 70.93764 57.38416
# Shear Modulus (GPa) = 25.07864 30.56526 27.82195
#
# Velocity S-wave (km/s) = 3.61729 3.99342 3.81000
# Velocity P-wave (km/s) = 6.34941 7.63380 7.02104
#
# Compressibility (1/GPa) = 0.02281507
#
# Stress axis : x y z
#
# Youngs Moduli (GPa) = 32.43641 98.33719 112.34624
#
# Poissons Ratio (x) = 0.67473 0.38130
# Poissons Ratio (y) = 0.22256 0.36927
# Poissons Ratio (z) = 0.11009 0.32323
#
# Static dielectric constant tensor:
#      x y z
#    x 3.194870 0.000000 0.156780 
#    y 0.000000 4.221820 0.000000 
#    z 0.156780 0.000000 3.506280 
# 
# 
# High freq. dielectric constant tensor:
#      x y z
#    x 1.706360 0.000000 0.015250 
#    y 0.000000 1.777920 0.000000 
#    z 0.015250 0.000000 1.754180 
# 
# From -- ./inp_files/5602.got.cif
#   From: 2010.06.25/outbox.cif.g09.slc.cpg/sg9_3_cif.got.tgz:5602.got - 2010.06.27 21:40:51.
