data_PCOD8054624
_publ_section_title
;
Structure prediction by ZEFSAII (Michael W. Deem and Ramdas Pophale) SiO2 
 PCOD8054624
Probable space group: C C
;
_chemical_formula_sum "Si O2"
_cell_formula_units_Z 32
_cell_length_a 28.520755
_cell_length_b 11.802611
_cell_length_c 10.205743
_cell_angle_alpha 90.000000
_cell_angle_beta 153.581535
_cell_angle_gamma 90.000000
_cell_volume 1528.513920
_symmetry_space_group_name_H-M "C C"
_symmetry_group_IT_number 9
_symmetry_cell_setting 'monoclinic'
loop_
_space_group_symop_operation_xyz
x,y,z
x,-y,1/2+z
1/2+x,1/2+y,z
1/2+x,1/2-y,1/2+z
loop_
_atom_site_type_symbol
_atom_site_label
_atom_site_fract_x
_atom_site_fract_y
_atom_site_fract_z
Si Si1 0.896340 0.198856 0.378010
Si Si2 0.419062 0.074541 0.280788
Si Si3 0.619690 0.638157 0.833435
Si Si4 0.485364 0.929351 0.677527
Si Si5 0.213651 0.192019 0.803764
Si Si6 0.676979 0.771379 0.221053
Si Si7 0.896594 0.822198 0.172210
Si Si8 0.602618 0.616308 0.274851
O O1 0.904711 0.333889 0.422449
O O2 0.889731 0.138929 0.503809
O O3 0.995107 0.151318 0.545228
O O4 0.790652 0.173241 0.032667
O O5 0.438961 0.008731 0.192416
O O6 0.458921 0.201072 0.341245
O O7 0.490143 0.023697 0.575148
O O8 0.295163 0.084564 0.010048
O O9 0.650813 0.706216 0.780599
O O10 0.653623 0.508023 0.898585
O O11 0.685979 0.689356 0.118612
O O12 0.599704 0.875381 0.992674
O O13 0.129944 0.177187 0.478772
O O14 0.280383 0.308610 0.944990
O O15 0.642106 0.692415 0.253824
O O16 0.975401 0.905164 0.447503
#
# Coordination Sequence:
#
# PCOD8054624 Si02
#       8
#     4   4   4   4   4   4   4   4
#     4  10  21  42  62  88 125 168 202 251 321 378
#     4   9  20  38  59  96 118 158 210 253 313 362
#     4  11  25  37  62 103 121 159 216 269 304 362
#     4  10  20  39  64  91 121 162 211 260 306 374
#     4  10  23  35  61  99 119 157 209 264 313 349
#     4  11  21  42  66  85 128 176 203 250 327 382
#     4   9  20  40  63  87 124 167 202 252 321 373
#     4  12  20  41  65  91 128 167 213 253 313 394
#
# _framework density 20.935366999999999
#
# number of rings (size 3 to 8) (size 9 to 14) (size 15 to 20)
#    0.750    1.000    5.000    0.750    5.250    1.000 
#    4.500    2.500    0.000    0.000    0.000    0.000 
#    0.000    0.000    0.000    0.000    0.000    0.000 
#
# Total GULP energy -198264.343079 kJ/mol
# GULP energy per Si atom -12391.521442 kJ/mol
# Density = 2.088772 g / cm^3
# Si number density = 20.935367 Si / 1000 Ang^3
#
#
#
# Elastic Constant Matrix: (Units=GPa)
#
#
# Indices 1 2 3 4 5 6 
#
# 1 152.4527 18.9922 51.4861 0.0000 -20.6460 0.0000
# 2 18.9922 27.7037 17.5167 0.0000 -9.9859 0.0000
# 3 51.4861 17.5167 155.4234 0.0000 -11.7085 0.0000
# 4 0.0000 0.0000 0.0000 23.2101 0.0000 -7.0307
# 5 -20.6460 -9.9859 -11.7085 0.0000 36.1272 0.0000
# 6 0.0000 0.0000 0.0000 -7.0307 0.0000 18.1350
#
#
#
# Elastic Compliance Matrix: (Units=1/GPa)
#
#
# Indices 1 2 3 4 5 6 
#
# 1 0.008069 -0.003100 -0.002092 0.000000 0.003076 0.000000
# 2 -0.003100 0.043566 -0.003187 0.000000 0.009238 0.000000
# 3 -0.002092 -0.003187 0.007513 0.000000 0.000359 0.000000
# 4 0.000000 0.000000 0.000000 0.048818 0.000000 0.018926
# 5 0.003076 0.009238 0.000359 0.000000 0.032108 0.000000
# 6 0.000000 0.000000 0.000000 0.018926 0.000000 0.062479
#
#
# Mechanical properties :
#
#
# Convention : Reuss Voigt Hill
#
# Bulk Modulus (GPa) = 23.59034 56.84108 40.21571
# Shear Modulus (GPa) = 21.41871 32.00013 26.70942
#
# Velocity S-wave (km/s) = 3.20204 3.91387 3.57571
# Velocity P-wave (km/s) = 4.99634 6.90175 6.02485
#
# Compressibility (1/GPa) = 0.04239023
#
# Stress axis : x y z
#
# Youngs Moduli (GPa) = 123.93701 22.95349 133.09954
#
# Poissons Ratio (x) = 0.07116 0.27841
# Poissons Ratio (y) = 0.38420 0.42422
# Poissons Ratio (z) = 0.25924 0.07316
#
# Static dielectric constant tensor:
#      x y z
#    x 3.714830 0.000000 -0.122730 
#    y 0.000000 3.343930 0.000000 
#    z -0.122730 0.000000 3.984960 
# 
# 
# High freq. dielectric constant tensor:
#      x y z
#    x 1.821020 0.000000 -0.007840 
#    y 0.000000 1.776130 0.000000 
#    z -0.007840 0.000000 1.826010 
# 
# From -- ./inp_files/12544.got.cif
#   From: 2010.06.25/outbox.cif.g09.slc.cpg/sg9_7_cif.got.tgz:12544.got - 2010.06.27 21:40:51.
