data_PCOD8054762
_publ_section_title
;
Structure prediction by ZEFSAII (Michael W. Deem and Ramdas Pophale) SiO2 
 PCOD8054762
Probable space group: C C
;
_chemical_formula_sum "Si O2"
_cell_formula_units_Z 32
_cell_length_a 16.653637
_cell_length_b 9.806614
_cell_length_c 15.069931
_cell_angle_alpha 90.000000
_cell_angle_beta 145.748715
_cell_angle_gamma 90.000000
_cell_volume 1385.197297
_symmetry_space_group_name_H-M "C C"
_symmetry_group_IT_number 9
_symmetry_cell_setting 'monoclinic'
loop_
_space_group_symop_operation_xyz
x,y,z
x,-y,1/2+z
1/2+x,1/2+y,z
1/2+x,1/2-y,1/2+z
loop_
_atom_site_type_symbol
_atom_site_label
_atom_site_fract_x
_atom_site_fract_y
_atom_site_fract_z
Si Si1 0.766270 0.359190 0.982200
Si Si2 0.331426 0.162836 0.038191
Si Si3 0.096492 0.649325 0.408606
Si Si4 0.686893 0.979828 0.153328
Si Si5 0.127871 0.140270 0.540036
Si Si6 0.350057 0.752869 0.357677
Si Si7 0.552163 0.786999 0.163765
Si Si8 0.476426 0.362791 0.430009
O O1 0.742512 0.522289 0.947440
O O2 0.701416 0.313143 0.016426
O O3 0.692460 0.267633 0.840012
O O4 0.933618 0.323446 0.129188
O O5 0.237325 0.281893 0.996121
O O6 0.376622 0.223025 0.985040
O O7 0.475635 0.128272 0.224266
O O8 0.130570 0.511573 0.498371
O O9 0.038916 0.738442 0.435236
O O10 0.576168 0.925189 0.127087
O O11 0.808764 0.864594 0.259526
O O12 0.758710 0.118091 0.252663
O O13 0.254923 0.126486 0.728795
O O14 0.007837 0.251297 0.458750
O O15 0.053104 0.996303 0.463024
O O16 0.501819 0.660262 0.057464
#
# Coordination Sequence:
#
# PCOD8054762 Si02
#       8
#     4   4   4   4   4   4   4   4
#     4  12  26  45  71 110 140 188 238 302 357 432
#     4  12  26  45  74 109 141 188 247 300 360 430
#     4  11  23  44  73 103 141 181 243 293 350 436
#     4  10  23  44  70 102 141 190 229 290 366 425
#     4  11  24  46  68 100 145 187 231 290 369 430
#     4  11  26  46  69 103 147 192 235 296 369 430
#     4  11  24  43  70 103 142 176 242 295 358 428
#     4  10  20  45  69  98 133 188 225 288 357 423
#
# _framework density 23.101403000000001
#
# number of rings (size 3 to 8) (size 9 to 14) (size 15 to 20)
#    0.000    1.000    3.750    2.250    3.500    3.000 
#    2.250    0.000    0.000    0.000    0.000    0.000 
#    0.000    0.000    0.000    0.000    0.000    0.000 
#
# Total GULP energy -198337.246565 kJ/mol
# GULP energy per Si atom -12396.077910 kJ/mol
# Density = 2.304882 g / cm^3
# Si number density = 23.101403 Si / 1000 Ang^3
#
#
#
# Elastic Constant Matrix: (Units=GPa)
#
#
# Indices 1 2 3 4 5 6 
#
# 1 150.4991 32.6232 56.0422 0.0000 -3.3650 0.0000
# 2 32.6232 38.4809 20.3543 0.0000 -8.7819 0.0000
# 3 56.0422 20.3543 137.2018 0.0000 -15.0517 0.0000
# 4 0.0000 0.0000 0.0000 30.3132 0.0000 -1.6911
# 5 -3.3650 -8.7819 -15.0517 0.0000 43.1495 0.0000
# 6 0.0000 0.0000 0.0000 -1.6911 0.0000 31.1536
#
#
#
# Elastic Compliance Matrix: (Units=1/GPa)
#
#
# Indices 1 2 3 4 5 6 
#
# 1 0.009122 -0.006557 -0.002934 0.000000 -0.001647 0.000000
# 2 -0.006557 0.033760 -0.001697 0.000000 0.005767 0.000000
# 3 -0.002934 -0.001697 0.009021 0.000000 0.002572 0.000000
# 4 0.000000 0.000000 0.000000 0.033089 0.000000 0.001796
# 5 -0.001647 0.005767 0.002572 0.000000 0.025118 0.000000
# 6 0.000000 0.000000 0.000000 0.001796 0.000000 0.032197
#
#
# Mechanical properties :
#
#
# Convention : Reuss Voigt Hill
#
# Bulk Modulus (GPa) = 33.86834 60.46904 47.16869
# Shear Modulus (GPa) = 28.64935 35.40073 32.02504
#
# Velocity S-wave (km/s) = 3.52541 3.91884 3.72732
# Velocity P-wave (km/s) = 5.59141 6.83438 6.24390
#
# Compressibility (1/GPa) = 0.02952610
#
# Stress axis : x y z
#
# Youngs Moduli (GPa) = 109.63074 29.62101 110.85402
#
# Poissons Ratio (x) = 0.19423 0.32521
# Poissons Ratio (y) = 0.71885 0.18816
# Poissons Ratio (z) = 0.32162 0.05028
#
# Static dielectric constant tensor:
#      x y z
#    x 4.278110 0.000000 0.168240 
#    y 0.000000 4.028010 0.000000 
#    z 0.168240 0.000000 4.566070 
# 
# 
# High freq. dielectric constant tensor:
#      x y z
#    x 1.927120 0.000000 0.003980 
#    y 0.000000 1.904080 0.000000 
#    z 0.003980 0.000000 1.923070 
# 
# From -- ./inp_files/9320.got.cif
#   From: 2010.06.25/outbox.cif.g09.slc.cpg/sg9_5_cif.got.tgz:9320.got - 2010.06.27 21:40:51.
