data_PCOD8054667
_publ_section_title
;
Structure prediction by ZEFSAII (Michael W. Deem and Ramdas Pophale) SiO2 
 PCOD8054667
Probable space group: C C
;
_chemical_formula_sum "Si O2"
_cell_formula_units_Z 32
_cell_length_a 16.858136
_cell_length_b 13.655447
_cell_length_c 12.488715
_cell_angle_alpha 90.000000
_cell_angle_beta 146.953794
_cell_angle_gamma 90.000000
_cell_volume 1567.764525
_symmetry_space_group_name_H-M "C C"
_symmetry_group_IT_number 9
_symmetry_cell_setting 'monoclinic'
loop_
_space_group_symop_operation_xyz
x,y,z
x,-y,1/2+z
1/2+x,1/2+y,z
1/2+x,1/2-y,1/2+z
loop_
_atom_site_type_symbol
_atom_site_label
_atom_site_fract_x
_atom_site_fract_y
_atom_site_fract_z
Si Si1 0.355060 0.780676 0.870540
Si Si2 0.722717 0.899807 0.817147
Si Si3 0.978293 0.336320 0.405719
Si Si4 0.654205 0.324575 0.018266
Si Si5 0.596053 0.353726 0.715547
Si Si6 0.041210 0.547131 0.503400
Si Si7 0.776535 0.121874 0.623936
Si Si8 0.471312 0.533082 0.456732
O O1 0.201571 0.796752 0.753771
O O2 0.337962 0.724675 0.737716
O O3 0.451023 0.712363 0.056929
O O4 0.421874 0.887290 0.926376
O O5 0.593026 0.824691 0.635179
O O6 0.658500 0.010643 0.726508
O O7 0.765879 0.873366 0.985169
O O8 0.866728 0.893905 0.905628
O O9 0.053461 0.272492 0.397335
O O10 0.967481 0.451859 0.363745
O O11 0.815626 0.298277 0.244809
O O12 0.667262 0.365461 0.912779
O O13 0.584488 0.402968 0.018711
O O14 0.561131 0.463241 0.637739
O O15 0.118357 0.607860 0.497142
O O16 0.879392 0.030957 0.768990
#
# Coordination Sequence:
#
# PCOD8054667 Si02
#       8
#     4   4   4   4   4   4   4   4
#     4  11  21  42  62 101 130 158 225 267 315 408
#     4   9  21  42  64  89 126 173 208 263 335 377
#     4  10  24  42  61  94 127 168 226 269 314 401
#     4  12  23  44  64  92 128 171 216 274 328 384
#     4  11  24  38  67  95 123 174 207 269 332 382
#     4   9  21  42  61  93 131 164 216 273 313 399
#     4  10  20  40  67  92 129 172 207 268 339 383
#     4  10  22  42  64  94 128 156 223 267 318 406
#
# _framework density 20.411228999999999
#
# number of rings (size 3 to 8) (size 9 to 14) (size 15 to 20)
#    0.750    1.000    1.250    3.000    0.000    2.000 
#    4.500    1.250    0.000    0.000    0.000    0.000 
#    0.000    0.000    0.000    0.000    0.000    0.000 
#
# Total GULP energy -198327.948997 kJ/mol
# GULP energy per Si atom -12395.496812 kJ/mol
# Density = 2.036477 g / cm^3
# Si number density = 20.411229 Si / 1000 Ang^3
#
#
#
# Elastic Constant Matrix: (Units=GPa)
#
#
# Indices 1 2 3 4 5 6 
#
# 1 104.1689 30.9204 71.3865 0.0000 -2.0641 0.0000
# 2 30.9204 89.1741 30.6560 0.0000 3.2454 0.0000
# 3 71.3865 30.6560 111.8210 0.0000 0.7013 0.0000
# 4 0.0000 0.0000 0.0000 27.0702 0.0000 9.7247
# 5 -2.0641 3.2454 0.7013 0.0000 42.0271 0.0000
# 6 0.0000 0.0000 0.0000 9.7247 0.0000 33.3516
#
#
#
# Elastic Compliance Matrix: (Units=1/GPa)
#
#
# Indices 1 2 3 4 5 6 
#
# 1 0.017607 -0.002521 -0.010557 0.000000 0.001236 0.000000
# 2 -0.002521 0.012776 -0.001886 0.000000 -0.001079 0.000000
# 3 -0.010557 -0.001886 0.016204 0.000000 -0.000643 0.000000
# 4 0.000000 0.000000 0.000000 0.041263 0.000000 -0.012032
# 5 0.001236 -0.001079 -0.000643 0.000000 0.023949 0.000000
# 6 0.000000 0.000000 0.000000 -0.012032 0.000000 0.033492
#
#
# Mechanical properties :
#
#
# Convention : Reuss Voigt Hill
#
# Bulk Modulus (GPa) = 60.03112 63.45441 61.74277
# Shear Modulus (GPa) = 27.65909 31.96986 29.81447
#
# Velocity S-wave (km/s) = 3.68515 3.96193 3.82604
# Velocity P-wave (km/s) = 6.89796 7.21697 7.05927
#
# Compressibility (1/GPa) = 0.01665803
#
# Stress axis : x y z
#
# Youngs Moduli (GPa) = 56.79464 78.27238 61.71406
#
# Poissons Ratio (x) = 0.19731 0.65152
# Poissons Ratio (y) = 0.14317 0.11642
# Poissons Ratio (z) = 0.59959 0.14766
#
# Static dielectric constant tensor:
#      x y z
#    x 3.444130 0.000000 0.187380 
#    y 0.000000 3.668730 0.000000 
#    z 0.187380 0.000000 3.635960 
# 
# 
# High freq. dielectric constant tensor:
#      x y z
#    x 1.787300 0.000000 0.018800 
#    y 0.000000 1.797640 0.000000 
#    z 0.018800 0.000000 1.793820 
# 
# From -- ./inp_files/18386.got.cif
#   From: 2010.06.25/outbox.cif.g09.slc.cpg/sg9_10_cif.got.tgz:18386.got - 2010.06.27 21:40:51.
