data_PCOD8054789
_publ_section_title
;
Structure prediction by ZEFSAII (Michael W. Deem and Ramdas Pophale) SiO2 
 PCOD8054789
Probable space group: C C
;
_chemical_formula_sum "Si O2"
_cell_formula_units_Z 28
_cell_length_a 9.463685
_cell_length_b 31.196342
_cell_length_c 5.191254
_cell_angle_alpha 90.000000
_cell_angle_beta 58.586746
_cell_angle_gamma 90.000000
_cell_volume 1307.989510
_symmetry_space_group_name_H-M "C C"
_symmetry_group_IT_number 9
_symmetry_cell_setting 'monoclinic'
loop_
_space_group_symop_operation_xyz
x,y,z
x,-y,1/2+z
1/2+x,1/2+y,z
1/2+x,1/2-y,1/2+z
loop_
_atom_site_type_symbol
_atom_site_label
_atom_site_fract_x
_atom_site_fract_y
_atom_site_fract_z
Si Si1 0.816220 0.088709 0.750000
Si Si2 0.738244 0.265002 0.937138
Si Si3 0.449732 0.718213 0.388094
Si Si4 0.523136 0.791161 0.977143
Si Si5 0.790348 0.856304 0.770565
Si Si6 0.129852 0.027755 0.430678
Si Si7 0.503507 0.028033 0.121958
O O1 0.807715 0.107982 0.472781
O O2 0.984535 0.061728 0.613219
O O3 0.831075 0.125300 0.951663
O O4 0.646529 0.063135 0.957925
O O5 0.617413 0.293832 0.878194
O O6 0.798553 0.221305 0.734145
O O7 0.885173 0.296669 0.886683
O O8 0.654302 0.245455 0.270181
O O9 0.418932 0.682556 0.200207
O O10 0.449563 0.768294 0.298697
O O11 0.603916 0.837258 0.955567
O O12 0.316431 0.047791 0.278710
O O13 0.108120 0.991007 0.665421
O O14 0.527972 0.007660 0.379830
#
# Coordination Sequence:
#
# PCOD8054789 Si02
#       7
#     4   4   4   4   4   4   4
#     4  12  25  43  64 102 146 172 204 278 350 387
#     4  10  21  36  66  82 115 152 240 285 322 378
#     4  11  21  40  61  88 114 171 229 283 325 397
#     4  11  21  40  61  88 114 171 229 283 325 397
#     4  12  26  41  64  92 139 172 220 281 344 393
#     4  10  21  42  74 102 130 175 222 255 306 410
#     4  10  21  42  74 102 130 175 222 255 306 410
#
# _framework density 21.406898999999999
#
# number of rings (size 3 to 8) (size 9 to 14) (size 15 to 20)
#    0.000    1.143    2.857    3.429    4.000    0.000 
#    2.571    0.000    0.000    0.000    0.000    0.000 
#    0.000    0.000    0.000    0.000    0.000    0.000 
#
# Total GULP energy -173528.755458 kJ/mol
# GULP energy per Si atom -12394.911104 kJ/mol
# Density = 2.135818 g / cm^3
# Si number density = 21.406899 Si / 1000 Ang^3
#
#
#
# Elastic Constant Matrix: (Units=GPa)
#
#
# Indices 1 2 3 4 5 6 
#
# 1 123.6829 36.4056 29.0020 0.0000 -19.3783 0.0000
# 2 36.4056 49.2793 4.1257 0.0000 -12.5367 0.0000
# 3 29.0020 4.1257 52.4531 0.0000 -3.1388 0.0000
# 4 0.0000 0.0000 0.0000 32.7531 0.0000 4.2472
# 5 -19.3783 -12.5367 -3.1388 0.0000 38.2973 0.0000
# 6 0.0000 0.0000 0.0000 4.2472 0.0000 38.8742
#
#
#
# Elastic Compliance Matrix: (Units=1/GPa)
#
#
# Indices 1 2 3 4 5 6 
#
# 1 0.012269 -0.007754 -0.005983 0.000000 0.003179 0.000000
# 2 -0.007754 0.027127 0.002462 0.000000 0.005158 0.000000
# 3 -0.005983 0.002462 0.022155 0.000000 -0.000406 0.000000
# 4 0.000000 0.000000 0.000000 0.030970 0.000000 -0.003384
# 5 0.003179 0.005158 -0.000406 0.000000 0.029376 0.000000
# 6 0.000000 0.000000 0.000000 -0.003384 0.000000 0.026094
#
#
# Mechanical properties :
#
#
# Convention : Reuss Voigt Hill
#
# Bulk Modulus (GPa) = 25.64069 40.49801 33.06935
# Shear Modulus (GPa) = 27.24200 32.37706 29.80953
#
# Velocity S-wave (km/s) = 3.57119 3.89325 3.73570
# Velocity P-wave (km/s) = 5.38594 6.25853 5.83856
#
# Compressibility (1/GPa) = 0.03900051
#
# Stress axis : x y z
#
# Youngs Moduli (GPa) = 81.50855 36.86381 45.13658
#
# Poissons Ratio (x) = 0.28584 0.27007
# Poissons Ratio (y) = 0.63200 -0.11114
# Poissons Ratio (z) = 0.48770 -0.09077
#
# Static dielectric constant tensor:
#      x y z
#    x 4.278700 0.000000 -0.044610 
#    y 0.000000 3.457510 0.000000 
#    z -0.044610 0.000000 4.053990 
# 
# 
# High freq. dielectric constant tensor:
#      x y z
#    x 1.869410 0.000000 0.006390 
#    y 0.000000 1.793500 0.000000 
#    z 0.006390 0.000000 1.860400 
# 
# From -- ./inp_files/1183.got.cif
#   From: 2010.06.25/outbox.cif.g09.slc.cpg/sg9_1_cif.got.tgz:1183.got - 2010.06.27 21:40:51.
