data_PCOD8054342
_publ_section_title
;
Structure prediction by ZEFSAII (Michael W. Deem and Ramdas Pophale) SiO2 
 PCOD8054342
Probable space group: C C
;
_chemical_formula_sum "Si O2"
_cell_formula_units_Z 32
_cell_length_a 26.411436
_cell_length_b 9.206815
_cell_length_c 20.467496
_cell_angle_alpha 90.000000
_cell_angle_beta 161.221159
_cell_angle_gamma 90.000000
_cell_volume 1602.170819
_symmetry_space_group_name_H-M "C C"
_symmetry_group_IT_number 9
_symmetry_cell_setting 'monoclinic'
loop_
_space_group_symop_operation_xyz
x,y,z
x,-y,1/2+z
1/2+x,1/2+y,z
1/2+x,1/2-y,1/2+z
loop_
_atom_site_type_symbol
_atom_site_label
_atom_site_fract_x
_atom_site_fract_y
_atom_site_fract_z
Si Si1 0.827550 0.927074 0.514180
Si Si2 0.133364 0.187409 0.333528
Si Si3 0.267739 0.187410 0.102281
Si Si4 0.329351 0.299382 0.929265
Si Si5 0.488993 0.427074 0.337068
Si Si6 0.173052 0.123437 0.840889
Si Si7 0.372080 0.123436 0.738948
Si Si8 0.664227 0.700618 0.599018
O O1 0.671091 0.836499 0.341271
O O2 0.953231 0.813556 0.637448
O O3 0.781126 0.046355 0.403152
O O4 0.903602 1.000000 0.670954
O O5 0.243931 0.175561 0.531025
O O6 0.164099 0.050152 0.323957
O O7 0.204446 0.175560 0.952058
O O8 0.119501 0.186444 0.969991
O O9 0.365433 0.336500 0.229958
O O10 0.379086 0.050153 0.253934
O O11 0.312389 0.177711 0.964681
O O12 0.211704 0.249999 0.729057
O O13 0.505829 0.304742 0.117044
O O14 0.571778 0.546356 0.484458
O O15 0.542510 0.177708 0.924925
O O16 0.318103 0.195257 0.741593
#
# Coordination Sequence:
#
# PCOD8054342 Si02
#       8
#     4   4   4   4   4   4   4   4
#     4  11  20  38  59  91 123 150 205 254 293 355
#     4  10  19  36  59  88 118 154 203 257 294 337
#     4  10  19  36  59  88 118 154 203 257 294 337
#     4  11  22  37  59  87 121 160 196 241 305 367
#     4  11  20  38  59  91 123 150 205 254 293 355
#     4  10  19  36  57  85 119 155 203 249 291 356
#     4  10  19  36  57  85 119 155 203 249 291 356
#     4  11  22  37  59  87 121 160 196 241 305 367
#
# _framework density 19.972901
#
# number of rings (size 3 to 8) (size 9 to 14) (size 15 to 20)
#    0.000    1.500    7.500    0.750    0.000    2.000 
#    4.500    1.250    0.000    6.000    0.000    0.000 
#    0.000    0.000    0.000    0.000    0.000    0.000 
#
# Total GULP energy -198356.316796 kJ/mol
# GULP energy per Si atom -12397.269800 kJ/mol
# Density = 1.992744 g / cm^3
# Si number density = 19.972901 Si / 1000 Ang^3
#
#
#
# Elastic Constant Matrix: (Units=GPa)
#
#
# Indices 1 2 3 4 5 6 
#
# 1 70.3342 49.7680 36.0544 -0.0003 -0.4279 -0.0003
# 2 49.7680 95.4307 48.1088 -0.0004 10.8680 -0.0004
# 3 36.0544 48.1088 70.7282 -0.0003 -2.1444 -0.0003
# 4 -0.0003 -0.0004 -0.0003 25.4895 -0.0004 -5.1341
# 5 -0.4279 10.8680 -2.1444 -0.0004 28.4038 -0.0003
# 6 -0.0003 -0.0004 -0.0003 -5.1341 -0.0003 24.7061
#
#
#
# Elastic Compliance Matrix: (Units=1/GPa)
#
#
# Indices 1 2 3 4 5 6 
#
# 1 0.024343 -0.010593 -0.005081 0.000000 0.004036 0.000000
# 2 -0.010593 0.022048 -0.009880 0.000000 -0.009342 0.000000
# 3 -0.005081 -0.009880 0.023616 0.000000 0.005487 0.000000
# 4 0.000000 0.000000 0.000000 0.040946 0.000001 0.008509
# 5 0.004036 -0.009342 0.005487 0.000001 0.039256 0.000001
# 6 0.000000 0.000000 0.000000 0.008509 0.000001 0.042244
#
#
# Mechanical properties :
#
#
# Convention : Reuss Voigt Hill
#
# Bulk Modulus (GPa) = 52.91754 56.03951 54.47852
# Shear Modulus (GPa) = 20.01124 22.55733 21.28429
#
# Velocity S-wave (km/s) = 3.16875 3.36430 3.26798
# Velocity P-wave (km/s) = 6.31982 6.57343 6.44787
#
# Compressibility (1/GPa) = 0.01889733
#
# Stress axis : x y z
#
# Youngs Moduli (GPa) = 41.08013 45.35593 42.34487
#
# Poissons Ratio (x) = 0.48046 0.21516
# Poissons Ratio (y) = 0.43516 0.41837
# Poissons Ratio (z) = 0.20874 0.44812
#
# Static dielectric constant tensor:
#      x y z
#    x 3.534090 0.000000 0.194970 
#    y 0.000000 4.781320 0.000000 
#    z 0.194970 0.000000 3.504320 
# 
# 
# High freq. dielectric constant tensor:
#      x y z
#    x 1.767160 0.000000 0.017950 
#    y 0.000000 1.777720 0.000000 
#    z 0.017950 0.000000 1.764420 
# 
# From -- ./inp_files/11850.got.cif
#   From: 2010.06.25/outbox.cif.g09.slc.cpg/sg9_6_cif.got.tgz:11850.got - 2010.06.27 21:40:51.
