data_PCOD8054346
_publ_section_title
;
Structure prediction by ZEFSAII (Michael W. Deem and Ramdas Pophale) SiO2 
 PCOD8054346
Probable space group: C C
;
_chemical_formula_sum "Si O2"
_cell_formula_units_Z 32
_cell_length_a 7.946926
_cell_length_b 14.274544
_cell_length_c 14.029183
_cell_angle_alpha 90.000000
_cell_angle_beta 71.936457
_cell_angle_gamma 90.000000
_cell_volume 1513.015323
_symmetry_space_group_name_H-M "C C"
_symmetry_group_IT_number 9
_symmetry_cell_setting 'monoclinic'
loop_
_space_group_symop_operation_xyz
x,y,z
x,-y,1/2+z
1/2+x,1/2+y,z
1/2+x,1/2-y,1/2+z
loop_
_atom_site_type_symbol
_atom_site_label
_atom_site_fract_x
_atom_site_fract_y
_atom_site_fract_z
Si Si1 0.808200 0.786250 0.065310
Si Si2 0.983463 0.607009 0.569870
Si Si3 0.957027 0.195588 0.741462
Si Si4 0.585585 0.399007 0.632453
Si Si5 0.711910 0.468555 0.257477
Si Si6 0.266290 0.035288 0.454819
Si Si7 0.766896 0.797689 0.617952
Si Si8 0.665784 0.253317 0.938252
O O1 0.691642 0.872374 0.045084
O O2 0.905567 0.828139 0.141775
O O3 0.688011 0.698141 0.110630
O O4 0.951988 0.749000 0.962078
O O5 0.897369 0.546734 0.670174
O O6 0.956120 0.550536 0.474723
O O7 0.879615 0.703798 0.590456
O O8 0.776858 0.220502 0.827906
O O9 0.065509 0.112898 0.773333
O O10 0.090874 0.284511 0.713813
O O11 0.615522 0.438355 0.733867
O O12 0.643066 0.476761 0.546990
O O13 0.378578 0.380736 0.646395
O O14 0.775364 0.479992 0.354587
O O15 0.189524 0.137846 0.455570
O O16 0.714343 0.817086 0.517039
#
# Coordination Sequence:
#
# PCOD8054346 Si02
#       8
#     4   4   4   4   4   4   4   4
#     4  10  20  37  58  82 116 158 198 241 294 358
#     4   8  18  36  57  78 113 155 190 235 294 348
#     4  10  20  37  60  85 118 161 199 236 292 362
#     4  10  19  36  59  85 115 148 195 255 300 338
#     4  10  20  37  60  87 119 152 195 252 298 345
#     4  10  20  37  57  83 117 151 193 247 297 345
#     4   8  17  35  58  80 109 153 192 234 292 348
#     4  10  20  37  57  82 117 156 196 236 289 362
#
# _framework density 21.149818
#
# number of rings (size 3 to 8) (size 9 to 14) (size 15 to 20)
#    0.000    2.500    0.000    3.750    0.000    1.000 
#    0.000   28.750    0.000    0.000    0.000    0.000 
#    0.000    0.000    0.000    0.000    0.000    0.000 
#
# Total GULP energy -198228.564147 kJ/mol
# GULP energy per Si atom -12389.285259 kJ/mol
# Density = 2.110168 g / cm^3
# Si number density = 21.149818 Si / 1000 Ang^3
#
#
#
# Elastic Constant Matrix: (Units=GPa)
#
#
# Indices 1 2 3 4 5 6 
#
# 1 148.4340 34.3742 63.3350 0.0000 -9.0764 0.0000
# 2 34.3742 58.5148 24.6457 0.0000 6.8861 0.0000
# 3 63.3350 24.6457 113.0122 0.0000 -1.0166 0.0000
# 4 0.0000 0.0000 0.0000 25.0012 0.0000 5.1001
# 5 -9.0764 6.8861 -1.0166 0.0000 30.1423 0.0000
# 6 0.0000 0.0000 0.0000 5.1001 0.0000 41.2237
#
#
#
# Elastic Compliance Matrix: (Units=1/GPa)
#
#
# Indices 1 2 3 4 5 6 
#
# 1 0.009936 -0.004357 -0.004584 0.000000 0.003833 0.000000
# 2 -0.004357 0.021342 -0.002269 0.000000 -0.006264 0.000000
# 3 -0.004584 -0.002269 0.011908 0.000000 -0.000460 0.000000
# 4 0.000000 0.000000 0.000000 0.041034 0.000000 -0.005077
# 5 0.003833 -0.006264 -0.000460 0.000000 0.035746 0.000000
# 6 0.000000 0.000000 0.000000 -0.005077 0.000000 0.024886
#
#
# Mechanical properties :
#
#
# Convention : Reuss Voigt Hill
#
# Bulk Modulus (GPa) = 48.15382 62.74122 55.44752
# Shear Modulus (GPa) = 28.70366 32.44720 30.57543
#
# Velocity S-wave (km/s) = 3.68796 3.92108 3.80631
# Velocity P-wave (km/s) = 6.39938 7.08727 6.75209
#
# Compressibility (1/GPa) = 0.02076678
#
# Stress axis : x y z
#
# Youngs Moduli (GPa) = 100.64076 46.85564 83.97647
#
# Poissons Ratio (x) = 0.20417 0.38493
# Poissons Ratio (y) = 0.43854 0.19051
# Poissons Ratio (z) = 0.46132 0.10630
#
# Static dielectric constant tensor:
#      x y z
#    x 4.278360 0.000000 0.125990 
#    y 0.000000 3.757630 0.000000 
#    z 0.125990 0.000000 3.764410 
# 
# 
# High freq. dielectric constant tensor:
#      x y z
#    x 1.833270 0.000000 0.006280 
#    y 0.000000 1.817560 0.000000 
#    z 0.006280 0.000000 1.813700 
# 
# From -- ./inp_files/23199.got.cif
#   From: 2010.06.25/outbox.cif.g09.slc.cpg/sg9_12_cif.got.tgz:23199.got - 2010.06.27 21:40:51.
