data_PCOD8054249
_publ_section_title
;
Structure prediction by ZEFSAII (Michael W. Deem and Ramdas Pophale) SiO2 
 PCOD8054249
Probable space group: C C
;
_chemical_formula_sum "Si O2"
_cell_formula_units_Z 28
_cell_length_a 12.214017
_cell_length_b 7.174010
_cell_length_c 12.071325
_cell_angle_alpha 90.000000
_cell_angle_beta 91.735447
_cell_angle_gamma 90.000000
_cell_volume 1057.246341
_symmetry_space_group_name_H-M "C C"
_symmetry_group_IT_number 9
_symmetry_cell_setting 'monoclinic'
loop_
_space_group_symop_operation_xyz
x,y,z
x,-y,1/2+z
1/2+x,1/2+y,z
1/2+x,1/2-y,1/2+z
loop_
_atom_site_type_symbol
_atom_site_label
_atom_site_fract_x
_atom_site_fract_y
_atom_site_fract_z
Si Si1 0.383310 0.215924 0.960030
Si Si2 0.526176 0.892289 0.280184
Si Si3 0.677871 0.392281 0.125374
Si Si4 0.253826 0.577571 0.282009
Si Si5 0.820732 0.715926 0.445522
Si Si6 0.950222 0.077578 0.123542
Si Si7 0.852024 0.313593 0.702777
O O1 0.494665 0.222153 0.890957
O O2 0.295228 0.358237 0.904160
O O3 0.352009 0.000005 0.952769
O O4 0.399334 0.288780 0.088805
O O5 0.497016 0.767060 0.174908
O O6 0.653376 0.934896 0.288151
O O7 0.452159 0.076026 0.259810
O O8 0.707021 0.267055 0.230653
O O9 0.550673 0.434906 0.117401
O O10 0.751895 0.576010 0.145745
O O11 0.709383 0.277826 0.014604
O O12 0.352022 0.496731 0.202772
O O13 0.908828 0.858214 0.501393
O O14 0.804711 0.788785 0.316746
#
# Coordination Sequence:
#
# PCOD8054249 Si02
#       7
#     4   4   4   4   4   4   4
#     4   9  17  35  62  89 119 159 204 244 304 363
#     4  10  19  37  63  88 125 157 199 253 302 362
#     4  10  19  37  63  88 125 157 199 253 302 362
#     4  10  20  39  61  91 124 158 199 250 305 362
#     4   9  17  35  62  89 119 159 204 244 304 363
#     4  10  20  39  61  91 124 158 199 250 305 362
#     4  10  18  36  62  92 116 164 204 244 308 360
#
# _framework density 26.483895
#
# number of rings (size 3 to 8) (size 9 to 14) (size 15 to 20)
#    0.000    2.286    7.143    0.000    0.000    4.571 
#    2.571    5.714    0.000    3.429    0.000    0.000 
#    0.000    0.000    0.000    0.000    0.000    0.000 
#
# Total GULP energy -173479.957200 kJ/mol
# GULP energy per Si atom -12391.425514 kJ/mol
# Density = 2.642362 g / cm^3
# Si number density = 26.483895 Si / 1000 Ang^3
#
#
#
# Elastic Constant Matrix: (Units=GPa)
#
#
# Indices 1 2 3 4 5 6 
#
# 1 206.4228 58.5193 77.7345 0.0000 7.4841 0.0000
# 2 58.5193 1.6379 103.2879 0.0000 14.7875 0.0000
# 3 77.7345 103.2879 240.6767 0.0000 8.0577 0.0000
# 4 0.0000 0.0000 0.0000 70.0281 0.0000 5.0546
# 5 7.4841 14.7875 8.0577 0.0000 15.7663 0.0000
# 6 0.0000 0.0000 0.0000 5.0546 0.0000 63.7801
#
#
#
# Elastic Compliance Matrix: (Units=1/GPa)
#
#
# Indices 1 2 3 4 5 6 
#
# 1 0.005293 0.002242 -0.002561 0.000000 -0.003307 0.000000
# 2 0.002242 -0.018669 0.006854 0.000000 0.012943 0.000000
# 3 -0.002561 0.006854 0.002254 0.000000 -0.006365 0.000000
# 4 0.000000 0.000000 0.000000 0.014362 0.000000 -0.001138
# 5 -0.003307 0.012943 -0.006365 0.000000 0.056110 0.000000
# 6 0.000000 0.000000 0.000000 -0.001138 0.000000 0.015769
#
#
# Mechanical properties :
#
#
# Convention : Reuss Voigt Hill
#
# Bulk Modulus (GPa) = 513.19505 103.09120 308.14312
# Shear Modulus (GPa) = 79.74816 43.86127 61.80471
#
# Velocity S-wave (km/s) = 5.49339 4.07400 4.83605
# Velocity P-wave (km/s) = 15.31122 7.81923 12.15676
#
# Compressibility (1/GPa) = 0.00194858
#
# Stress axis : x y z
#
# Youngs Moduli (GPa) = 188.92304 -53.56466 443.73677
#
# Poissons Ratio (x) = 0.12009 1.13645
# Poissons Ratio (y) = -0.42357 -3.04158
# Poissons Ratio (z) = 0.48385 0.36716
#
# Static dielectric constant tensor:
#      x y z
#    x 5.137290 0.000000 -0.345360 
#    y 0.000000 5.238730 0.000000 
#    z -0.345360 0.000000 5.752850 
# 
# 
# High freq. dielectric constant tensor:
#      x y z
#    x 2.060270 0.000000 -0.008880 
#    y 0.000000 2.112230 0.000000 
#    z -0.008880 0.000000 2.087390 
# 
# From -- ./inp_files/15944.got.cif
#   From: 2010.06.25/outbox.cif.g09.slc.cpg/sg9_8_cif.got.tgz:15944.got - 2010.06.27 21:40:51.
