data_PCOD8054191
_publ_section_title
;
Structure prediction by ZEFSAII (Michael W. Deem and Ramdas Pophale) SiO2 
 PCOD8054191
Probable space group: C C
;
_chemical_formula_sum "Si O2"
_cell_formula_units_Z 32
_cell_length_a 17.669205
_cell_length_b 10.430948
_cell_length_c 8.838560
_cell_angle_alpha 90.000000
_cell_angle_beta 105.374368
_cell_angle_gamma 90.000000
_cell_volume 1570.709194
_symmetry_space_group_name_H-M "C C"
_symmetry_group_IT_number 9
_symmetry_cell_setting 'monoclinic'
loop_
_space_group_symop_operation_xyz
x,y,z
x,-y,1/2+z
1/2+x,1/2+y,z
1/2+x,1/2-y,1/2+z
loop_
_atom_site_type_symbol
_atom_site_label
_atom_site_fract_x
_atom_site_fract_y
_atom_site_fract_z
Si Si1 0.840040 0.777767 0.457460
Si Si2 0.424900 0.081627 0.067520
Si Si3 0.598412 0.647562 0.002801
Si Si4 0.979404 0.342998 0.909894
Si Si5 0.275815 0.200446 0.131758
Si Si6 0.344530 0.436349 0.008857
Si Si7 0.408438 0.721235 0.299913
Si Si8 0.511577 0.511869 0.214257
O O1 0.920127 0.779789 0.396741
O O2 0.779219 0.697587 0.319573
O O3 0.861874 0.714869 0.632496
O O4 0.809110 0.921510 0.473987
O O5 0.483079 0.107163 0.239283
O O6 0.336668 0.101308 0.085644
O O7 0.440386 0.174218 0.933731
O O8 0.443341 0.942238 0.012001
O O9 0.565254 0.793426 0.004317
O O10 0.559672 0.591971 0.832222
O O11 0.691374 0.654835 0.033775
O O12 0.575114 0.555623 0.126082
O O13 0.293635 0.348221 0.094742
O O14 0.435713 0.441109 0.105995
O O15 0.343949 0.371081 0.843562
O O16 0.483643 0.638927 0.288125
#
# Coordination Sequence:
#
# PCOD8054191 Si02
#       8
#     4   4   4   4   4   4   4   4
#     4  10  18  35  63  88 119 164 219 256 295 376
#     4  10  23  39  65  86 129 166 216 243 316 393
#     4  12  24  41  63  97 132 157 209 274 329 361
#     4  11  21  39  64  92 122 169 211 256 304 387
#     4  10  24  40  58  96 132 165 202 267 327 370
#     4  10  18  37  66  92 116 166 226 258 300 378
#     4  10  17  33  64  94 107 161 226 257 291 362
#     4  11  21  38  69  91 121 166 225 263 308 379
#
# _framework density 20.372962000000001
#
# number of rings (size 3 to 8) (size 9 to 14) (size 15 to 20)
#    0.000    1.500    3.750    4.500    0.000    2.000 
#    2.250    2.500    0.000    0.000    0.000    0.000 
#    0.000    0.000    0.000    0.000    0.000    0.000 
#
# Total GULP energy -198255.904395 kJ/mol
# GULP energy per Si atom -12390.994025 kJ/mol
# Density = 2.032659 g / cm^3
# Si number density = 20.372962 Si / 1000 Ang^3
#
#
#
# Elastic Constant Matrix: (Units=GPa)
#
#
# Indices 1 2 3 4 5 6 
#
# 1 89.2530 29.1747 31.8127 0.0000 9.6096 0.0000
# 2 29.1747 79.2456 37.1566 0.0000 -4.3992 0.0000
# 3 31.8127 37.1566 134.2512 0.0000 -3.4690 0.0000
# 4 0.0000 0.0000 0.0000 33.4376 0.0000 -7.3586
# 5 9.6096 -4.3992 -3.4690 0.0000 25.8003 0.0000
# 6 0.0000 0.0000 0.0000 -7.3586 0.0000 23.9198
#
#
#
# Elastic Compliance Matrix: (Units=1/GPa)
#
#
# Indices 1 2 3 4 5 6 
#
# 1 0.014171 -0.004503 -0.002276 0.000000 -0.006352 0.000000
# 2 -0.004503 0.016029 -0.003267 0.000000 0.003971 0.000000
# 3 -0.002276 -0.003267 0.008931 0.000000 0.001492 0.000000
# 4 0.000000 0.000000 0.000000 0.032078 0.000000 0.009868
# 5 -0.006352 0.003971 0.001492 0.000000 0.042003 0.000000
# 6 0.000000 0.000000 0.000000 0.009868 0.000000 0.044842
#
#
# Mechanical properties :
#
#
# Convention : Reuss Voigt Hill
#
# Bulk Modulus (GPa) = 52.52115 55.44864 53.98490
# Shear Modulus (GPa) = 27.10162 30.27193 28.68678
#
# Velocity S-wave (km/s) = 3.65125 3.85890 3.75651
# Velocity P-wave (km/s) = 6.60388 6.86518 6.73580
#
# Compressibility (1/GPa) = 0.01903995
#
# Stress axis : x y z
#
# Youngs Moduli (GPa) = 70.56661 62.38780 111.97309
#
# Poissons Ratio (x) = 0.28091 0.25485
# Poissons Ratio (y) = 0.31773 0.36578
# Poissons Ratio (z) = 0.16061 0.20380
#
# Static dielectric constant tensor:
#      x y z
#    x 3.255870 0.000000 -0.093040 
#    y 0.000000 3.783990 0.000000 
#    z -0.093040 0.000000 4.080340 
# 
# 
# High freq. dielectric constant tensor:
#      x y z
#    x 1.741500 0.000000 -0.014940 
#    y 0.000000 1.798020 0.000000 
#    z -0.014940 0.000000 1.819850 
# 
# From -- ./inp_files/10672.got.cif
#   From: 2010.06.25/outbox.cif.g09.slc.cpg/sg9_6_cif.got.tgz:10672.got - 2010.06.27 21:40:51.
