data_PCOD8054957
_publ_section_title
;
Structure prediction by ZEFSAII (Michael W. Deem and Ramdas Pophale) SiO2 
 PCOD8054957
Probable space group: C C
;
_chemical_formula_sum "Si O2"
_cell_formula_units_Z 24
_cell_length_a 5.284887
_cell_length_b 20.647892
_cell_length_c 10.511659
_cell_angle_alpha 90.000000
_cell_angle_beta 53.750619
_cell_angle_gamma 90.000000
_cell_volume 925.040336
_symmetry_space_group_name_H-M "C C"
_symmetry_group_IT_number 9
_symmetry_cell_setting 'monoclinic'
loop_
_space_group_symop_operation_xyz
x,y,z
x,-y,1/2+z
1/2+x,1/2+y,z
1/2+x,1/2-y,1/2+z
loop_
_atom_site_type_symbol
_atom_site_label
_atom_site_fract_x
_atom_site_fract_y
_atom_site_fract_z
Si Si1 0.616610 0.776830 0.267500
Si Si2 0.544841 0.482816 0.893164
Si Si3 0.695228 0.006378 0.753432
Si Si4 0.723803 0.393654 0.437424
Si Si5 0.169933 0.826328 0.946407
Si Si6 0.871147 0.854732 0.781731
O O1 0.307437 0.821346 0.370873
O O2 0.717382 0.745271 0.372425
O O3 0.507808 0.717230 0.209911
O O4 0.909143 0.818663 0.131905
O O5 0.407042 0.466225 0.074908
O O6 0.361104 0.462119 0.817263
O O7 0.550691 0.562820 0.881012
O O8 0.912805 0.461062 0.782641
O O9 0.549132 0.068185 0.872073
O O10 0.489666 0.397403 0.627953
O O11 0.493850 0.852433 0.907383
O O12 0.023148 0.875222 0.878128
#
# Coordination Sequence:
#
# PCOD8054957 Si02
#       6
#     4   4   4   4   4   4
#     4  10  21  41  58  92 127 179 209 270 305 393
#     4  10  23  44  72  95 132 169 224 280 345 396
#     4  10  23  45  69  97 130 173 218 288 338 400
#     4  10  24  41  68  93 135 174 221 266 340 389
#     4  10  23  35  61  81 133 166 218 256 312 368
#     4  10  22  40  58  90 125 173 210 264 310 386
#
# _framework density 25.944817
#
# number of rings (size 3 to 8) (size 9 to 14) (size 15 to 20)
#    2.000    0.000    1.667    1.000    7.000    1.333 
#    6.000    0.000    0.000    0.000    0.000    0.000 
#    0.000    0.000    0.000    0.000    0.000    0.000 
#
# Total GULP energy -148661.711786 kJ/mol
# GULP energy per Si atom -12388.475982 kJ/mol
# Density = 2.588577 g / cm^3
# Si number density = 25.944817 Si / 1000 Ang^3
#
#
#
# Elastic Constant Matrix: (Units=GPa)
#
#
# Indices 1 2 3 4 5 6 
#
# 1 161.0455 24.7769 48.2977 0.0000 -3.9250 0.0000
# 2 24.7769 70.2305 16.7373 0.0000 10.5273 0.0000
# 3 48.2977 16.7373 158.1411 0.0000 -11.0854 0.0000
# 4 0.0000 0.0000 0.0000 48.4791 0.0000 -4.9481
# 5 -3.9250 10.5273 -11.0854 0.0000 32.6820 0.0000
# 6 0.0000 0.0000 0.0000 -4.9481 0.0000 41.5581
#
#
#
# Elastic Compliance Matrix: (Units=1/GPa)
#
#
# Indices 1 2 3 4 5 6 
#
# 1 0.007136 -0.002209 -0.001880 0.000000 0.000931 0.000000
# 2 -0.002209 0.016268 -0.001468 0.000000 -0.006003 0.000000
# 3 -0.001880 -0.001468 0.007243 0.000000 0.002704 0.000000
# 4 0.000000 0.000000 0.000000 0.020881 0.000000 0.002486
# 5 0.000931 -0.006003 0.002704 0.000000 0.033560 0.000000
# 6 0.000000 0.000000 0.000000 0.002486 0.000000 0.024359
#
#
# Mechanical properties :
#
#
# Convention : Reuss Voigt Hill
#
# Bulk Modulus (GPa) = 51.19811 63.22677 57.21244
# Shear Modulus (GPa) = 39.34786 44.51751 41.93268
#
# Velocity S-wave (km/s) = 3.89858 4.14678 4.02459
# Velocity P-wave (km/s) = 6.32784 6.88116 6.61029
#
# Compressibility (1/GPa) = 0.01953197
#
# Stress axis : x y z
#
# Youngs Moduli (GPa) = 140.13731 61.47099 138.07152
#
# Poissons Ratio (x) = 0.13578 0.25962
# Poissons Ratio (y) = 0.30955 0.20268
# Poissons Ratio (z) = 0.26350 0.09024
#
# Static dielectric constant tensor:
#      x y z
#    x 4.306020 0.000000 -0.175720 
#    y 0.000000 5.097530 0.000000 
#    z -0.175720 0.000000 4.337360 
# 
# 
# High freq. dielectric constant tensor:
#      x y z
#    x 2.015480 0.000000 -0.014740 
#    y 0.000000 2.089540 0.000000 
#    z -0.014740 0.000000 2.037620 
# 
# From -- ./inp_files/13584.got.cif
#   From: 2010.06.25/outbox.cif.g09.slc.cpg/sg9_7_cif.got.tgz:13584.got - 2010.06.27 21:40:51.
