data_PCOD8054523
_publ_section_title
;
Structure prediction by ZEFSAII (Michael W. Deem and Ramdas Pophale) SiO2 
 PCOD8054523
Probable space group: C C
;
_chemical_formula_sum "Si O2"
_cell_formula_units_Z 28
_cell_length_a 5.011559
_cell_length_b 18.297330
_cell_length_c 16.513906
_cell_angle_alpha 90.000000
_cell_angle_beta 104.894178
_cell_angle_gamma 90.000000
_cell_volume 1463.417646
_symmetry_space_group_name_H-M "C C"
_symmetry_group_IT_number 9
_symmetry_cell_setting 'monoclinic'
loop_
_space_group_symop_operation_xyz
x,y,z
x,-y,1/2+z
1/2+x,1/2+y,z
1/2+x,1/2-y,1/2+z
loop_
_atom_site_type_symbol
_atom_site_label
_atom_site_fract_x
_atom_site_fract_y
_atom_site_fract_z
Si Si1 0.426920 0.222729 0.424820
Si Si2 0.487902 0.282755 0.155890
Si Si3 0.928814 0.641354 0.585964
Si Si4 0.364605 0.022430 0.128038
Si Si5 0.833843 0.788209 0.814257
Si Si6 0.633578 0.659363 0.058868
Si Si7 0.918370 0.906792 0.688261
O O1 0.430440 0.157550 0.490460
O O2 0.636994 0.193129 0.373945
O O3 0.529605 0.299304 0.471527
O O4 0.126384 0.242407 0.367161
O O5 0.228669 0.338540 0.147766
O O6 0.670779 0.274191 0.251262
O O7 0.375986 0.203324 0.123481
O O8 0.688808 0.307934 0.101004
O O9 0.828961 0.559656 0.595436
O O10 0.257903 0.078495 0.048630
O O11 0.683025 0.032930 0.171267
O O12 0.196609 0.044035 0.197336
O O13 0.909101 0.861094 0.770150
O O14 0.393812 0.649013 0.109000
#
# Coordination Sequence:
#
# PCOD8054523 Si02
#       7
#     4   4   4   4   4   4   4
#     4  11  23  33  62  89 128 147 204 253 311 341
#     4  11  21  38  64  87 121 148 213 246 295 346
#     4  11  23  40  62  97 115 158 205 260 283 357
#     4  10  21  37  67  83 117 152 209 242 295 346
#     4  12  21  37  59  93 120 160 193 257 308 351
#     4   9  21  37  64  88 108 161 206 246 278 368
#     4  10  20  36  64  85 113 162 206 238 280 379
#
# _framework density 19.133292999999998
#
# number of rings (size 3 to 8) (size 9 to 14) (size 15 to 20)
#    0.857    0.571    1.429    6.857    2.000    0.000 
#    0.000    0.000   12.571    0.000    0.000    0.000 
#    0.000    0.000    0.000    0.000    0.000    0.000 
#
# Total GULP energy -173453.131445 kJ/mol
# GULP energy per Si atom -12389.509389 kJ/mol
# Density = 1.908974 g / cm^3
# Si number density = 19.133293 Si / 1000 Ang^3
#
#
#
# Elastic Constant Matrix: (Units=GPa)
#
#
# Indices 1 2 3 4 5 6 
#
# 1 140.5236 29.7688 40.7987 0.0000 -9.0207 0.0000
# 2 29.7688 95.4036 39.3145 0.0000 -7.8319 0.0000
# 3 40.7987 39.3145 81.0426 0.0000 0.1660 0.0000
# 4 0.0000 0.0000 0.0000 7.2502 0.0000 0.7495
# 5 -9.0207 -7.8319 0.1660 0.0000 44.7819 0.0000
# 6 0.0000 0.0000 0.0000 0.7495 0.0000 31.2619
#
#
#
# Elastic Compliance Matrix: (Units=1/GPa)
#
#
# Indices 1 2 3 4 5 6 
#
# 1 0.008532 -0.000953 -0.003836 0.000000 0.001566 0.000000
# 2 -0.000953 0.013452 -0.006050 0.000000 0.002183 0.000000
# 3 -0.003836 -0.006050 0.017209 0.000000 -0.001895 0.000000
# 4 0.000000 0.000000 0.000000 0.138271 0.000000 -0.003315
# 5 0.001566 0.002183 -0.001895 0.000000 0.023035 0.000000
# 6 0.000000 0.000000 0.000000 -0.003315 0.000000 0.032067
#
#
# Mechanical properties :
#
#
# Convention : Reuss Voigt Hill
#
# Bulk Modulus (GPa) = 57.09585 59.63711 58.36648
# Shear Modulus (GPa) = 19.22461 30.46465 24.84463
#
# Velocity S-wave (km/s) = 3.17325 3.99461 3.60738
# Velocity P-wave (km/s) = 6.58270 7.24657 6.92260
#
# Compressibility (1/GPa) = 0.01751441
#
# Stress axis : x y z
#
# Youngs Moduli (GPa) = 117.19909 74.34093 58.10767
#
# Poissons Ratio (x) = 0.07084 0.22292
# Poissons Ratio (y) = 0.11168 0.35157
# Poissons Ratio (z) = 0.44962 0.44978
#
# Static dielectric constant tensor:
#      x y z
#    x 3.823650 0.000000 0.003270 
#    y 0.000000 3.280950 0.000000 
#    z 0.003270 0.000000 3.320270 
# 
# 
# High freq. dielectric constant tensor:
#      x y z
#    x 1.776400 0.000000 -0.002560 
#    y 0.000000 1.726740 0.000000 
#    z -0.002560 0.000000 1.713940 
# 
# From -- ./inp_files/21993.got.cif
#   From: 2010.06.25/outbox.cif.g09.slc.cpg/sg9_11_cif.got.tgz:21993.got - 2010.06.27 21:40:51.
