data_PCOD8054385
_publ_section_title
;
Structure prediction by ZEFSAII (Michael W. Deem and Ramdas Pophale) SiO2 
 PCOD8054385
Probable space group: C C
;
_chemical_formula_sum "Si O2"
_cell_formula_units_Z 24
_cell_length_a 28.009088
_cell_length_b 6.866446
_cell_length_c 5.301164
_cell_angle_alpha 90.000000
_cell_angle_beta 79.428839
_cell_angle_gamma 90.000000
_cell_volume 1002.231441
_symmetry_space_group_name_H-M "C C"
_symmetry_group_IT_number 9
_symmetry_cell_setting 'monoclinic'
loop_
_space_group_symop_operation_xyz
x,y,z
x,-y,1/2+z
1/2+x,1/2+y,z
1/2+x,1/2-y,1/2+z
loop_
_atom_site_type_symbol
_atom_site_label
_atom_site_fract_x
_atom_site_fract_y
_atom_site_fract_z
Si Si1 0.966540 0.279533 0.034350
Si Si2 0.862472 0.129485 0.090711
Si Si3 0.258518 0.217380 0.706477
Si Si4 0.607897 0.624031 0.331056
Si Si5 0.507550 0.786389 0.494312
Si Si6 0.717145 0.719612 0.246693
O O1 0.908749 0.271428 0.059692
O O2 0.982375 0.175485 0.281556
O O3 0.992518 0.176475 0.768993
O O4 0.986240 0.498218 0.047360
O O5 0.816665 0.273982 0.150051
O O6 0.862270 0.981410 0.324577
O O7 0.237414 0.325703 0.478006
O O8 0.238437 0.998654 0.725876
O O9 0.237679 0.325626 0.976295
O O10 0.603139 0.465456 0.556848
O O11 0.565743 0.785148 0.405517
O O12 0.659196 0.730544 0.305906
#
# Coordination Sequence:
#
# PCOD8054385 Si02
#       6
#     4   4   4   4   4   4
#     4  10  23  45  62  92 132 169 221 273 329 389
#     4  12  26  42  67  94 128 174 221 275 336 380
#     4  10  20  38  64  92 125 161 216 261 320 386
#     4  12  21  37  64  99 130 173 220 261 315 383
#     4  10  23  39  67  91 133 167 221 268 318 388
#     4  10  19  37  64  92 124 166 211 262 308 390
#
# _framework density 23.946566000000001
#
# number of rings (size 3 to 8) (size 9 to 14) (size 15 to 20)
#    0.000    1.333    3.333    3.000    0.000    9.333 
#    0.000    0.000   22.000    0.000    0.000    0.000 
#    0.000    0.000    0.000    0.000    0.000    0.000 
#
# Total GULP energy -148716.928972 kJ/mol
# GULP energy per Si atom -12393.077414 kJ/mol
# Density = 2.389206 g / cm^3
# Si number density = 23.946566 Si / 1000 Ang^3
#
#
#
# Elastic Constant Matrix: (Units=GPa)
#
#
# Indices 1 2 3 4 5 6 
#
# 1 186.3634 15.7484 42.1961 0.0000 -28.1319 0.0000
# 2 15.7484 45.7897 -16.1297 0.0000 -11.9466 0.0000
# 3 42.1961 -16.1297 213.4175 0.0000 22.1232 0.0000
# 4 0.0000 0.0000 0.0000 -5.7611 0.0000 -19.8250
# 5 -28.1319 -11.9466 22.1232 0.0000 61.7397 0.0000
# 6 0.0000 0.0000 0.0000 -19.8250 0.0000 20.1784
#
#
#
# Elastic Compliance Matrix: (Units=1/GPa)
#
#
# Indices 1 2 3 4 5 6 
#
# 1 0.006406 -0.001994 -0.001745 0.000000 0.003158 0.000000
# 2 -0.001994 0.023988 0.001890 0.000000 0.003056 0.000000
# 3 -0.001745 0.001890 0.005419 0.000000 -0.002371 0.000000
# 4 0.000000 0.000000 0.000000 -0.039621 0.000000 -0.038928
# 5 0.003158 0.003056 -0.002371 0.000000 0.019077 0.000000
# 6 0.000000 0.000000 0.000000 -0.038928 0.000000 0.011312
#
#
# Mechanical properties :
#
#
# Convention : Reuss Voigt Hill
#
# Bulk Modulus (GPa) = 31.13606 58.80003 44.96805
# Shear Modulus (GPa) = 122.00165 42.14845 82.07505
#
# Velocity S-wave (km/s) = 7.14549 4.19991 5.86077
# Velocity P-wave (km/s) = 9.00599 6.93736 8.03850
#
# Compressibility (1/GPa) = 0.03211710
#
# Stress axis : x y z
#
# Youngs Moduli (GPa) = 156.10047 41.68771 184.52692
#
# Poissons Ratio (x) = 0.08312 0.32194
# Poissons Ratio (y) = 0.31123 -0.34883
# Poissons Ratio (z) = 0.27235 -0.07881
#
# Static dielectric constant tensor:
#      x y z
#    x 5.502660 0.000000 3.529980 
#    y 0.000000 3.985350 0.000000 
#    z 3.529980 0.000000 16.188780 
# 
# 
# High freq. dielectric constant tensor:
#      x y z
#    x 1.960210 0.000000 0.011030 
#    y 0.000000 1.917020 0.000000 
#    z 0.011030 0.000000 1.994990 
# 
# From -- ./inp_files/3114.got.cif
#   From: 2010.06.25/outbox.cif.g09.slc.cpg/sg9_2_cif.got.tgz:3114.got - 2010.06.27 21:40:51.
