data_PCOD8054267
_publ_section_title
;
Structure prediction by ZEFSAII (Michael W. Deem and Ramdas Pophale) SiO2 
 PCOD8054267
Probable space group: C C
;
_chemical_formula_sum "Si O2"
_cell_formula_units_Z 28
_cell_length_a 15.294339
_cell_length_b 8.395701
_cell_length_c 14.102034
_cell_angle_alpha 90.000000
_cell_angle_beta 48.517651
_cell_angle_gamma 90.000000
_cell_volume 1356.575309
_symmetry_space_group_name_H-M "C C"
_symmetry_group_IT_number 9
_symmetry_cell_setting 'monoclinic'
loop_
_space_group_symop_operation_xyz
x,y,z
x,-y,1/2+z
1/2+x,1/2+y,z
1/2+x,1/2-y,1/2+z
loop_
_atom_site_type_symbol
_atom_site_label
_atom_site_fract_x
_atom_site_fract_y
_atom_site_fract_z
Si Si1 0.781860 0.826953 0.122290
Si Si2 0.659451 0.253664 0.063712
Si Si3 0.325324 0.978569 0.045601
Si Si4 0.472293 0.463698 0.124115
Si Si5 0.988072 0.229288 0.976065
Si Si6 0.067076 0.465560 0.791756
Si Si7 0.867998 0.964693 0.399580
O O1 0.789314 0.637363 0.127445
O O2 0.861843 0.911550 0.142454
O O3 0.649407 0.880615 0.239149
O O4 0.816628 0.880937 0.990645
O O5 0.709932 0.410397 0.079233
O O6 0.568125 0.322340 0.052243
O O7 0.589015 0.133969 0.181282
O O8 0.764792 0.155495 0.940578
O O9 0.374643 0.841402 0.082171
O O10 0.430349 0.017594 0.894553
O O11 0.526272 0.623828 0.037971
O O12 0.437674 0.512568 0.255496
O O13 0.955155 0.122414 0.908613
O O14 0.091658 0.347245 0.865245
#
# Coordination Sequence:
#
# PCOD8054267 Si02
#       7
#     4   4   4   4   4   4   4
#     4  10  22  38  63  86 120 166 201 252 304 357
#     4  10  18  37  65  88 123 166 194 250 310 360
#     4   9  20  40  59  89 118 160 210 242 308 359
#     4  11  20  37  61  92 119 160 205 248 306 367
#     4   8  18  39  61  80 125 159 196 248 305 354
#     4   9  19  41  63  81 127 162 201 248 301 364
#     4   9  19  38  60  88 122 161 199 244 306 367
#
# _framework density 20.640211000000001
#
# number of rings (size 3 to 8) (size 9 to 14) (size 15 to 20)
#    0.857    1.714    1.429    0.857    0.000    2.286 
#    5.143    5.714    0.000    0.000    0.000    0.000 
#    0.000    0.000    0.000    0.000    0.000    0.000 
#
# Total GULP energy -173441.666265 kJ/mol
# GULP energy per Si atom -12388.690447 kJ/mol
# Density = 2.059323 g / cm^3
# Si number density = 20.640211 Si / 1000 Ang^3
#
#
#
# Elastic Constant Matrix: (Units=GPa)
#
#
# Indices 1 2 3 4 5 6 
#
# 1 60.8880 20.6229 24.3748 0.0000 -2.2641 0.0000
# 2 20.6229 97.0226 27.5558 0.0000 12.0811 0.0000
# 3 24.3748 27.5558 84.0069 0.0000 7.1616 0.0000
# 4 0.0000 0.0000 0.0000 30.4135 0.0000 -6.5755
# 5 -2.2641 12.0811 7.1616 0.0000 27.9022 0.0000
# 6 0.0000 0.0000 0.0000 -6.5755 0.0000 29.3224
#
#
#
# Elastic Compliance Matrix: (Units=1/GPa)
#
#
# Indices 1 2 3 4 5 6 
#
# 1 0.019706 -0.003305 -0.005001 0.000000 0.004314 0.000000
# 2 -0.003305 0.012387 -0.002683 0.000000 -0.004943 0.000000
# 3 -0.005001 -0.002683 0.014487 0.000000 -0.002963 0.000000
# 4 0.000000 0.000000 0.000000 0.034556 0.000000 0.007749
# 5 0.004314 -0.004943 -0.002963 0.000000 0.039090 0.000000
# 6 0.000000 0.000000 0.000000 0.007749 0.000000 0.035841
#
#
# Mechanical properties :
#
#
# Convention : Reuss Voigt Hill
#
# Bulk Modulus (GPa) = 40.64787 43.00272 41.82530
# Shear Modulus (GPa) = 26.84625 28.81854 27.83240
#
# Velocity S-wave (km/s) = 3.61040 3.74067 3.67612
# Velocity P-wave (km/s) = 6.09231 6.28781 6.19083
#
# Compressibility (1/GPa) = 0.02460153
#
# Stress axis : x y z
#
# Youngs Moduli (GPa) = 50.74700 80.73073 69.02544
#
# Poissons Ratio (x) = 0.26684 0.34521
# Poissons Ratio (y) = 0.16774 0.18517
# Poissons Ratio (z) = 0.25379 0.21657
#
# Static dielectric constant tensor:
#      x y z
#    x 3.469820 0.000000 -0.189010 
#    y 0.000000 3.773600 0.000000 
#    z -0.189010 0.000000 3.630130 
# 
# 
# High freq. dielectric constant tensor:
#      x y z
#    x 1.778960 0.000000 -0.019360 
#    y 0.000000 1.808850 0.000000 
#    z -0.019360 0.000000 1.794140 
# 
# From -- ./inp_files/26583.got.cif
#   From: 2010.06.25/outbox.cif.g09.slc.cpg/sg9_14_cif.got.tgz:26583.got - 2010.06.27 21:40:51.
