data_PCOD8054159
_publ_section_title
;
Structure prediction by ZEFSAII (Michael W. Deem and Ramdas Pophale) SiO2 
 PCOD8054159
Probable space group: C M
;
_chemical_formula_sum "Si O2"
_cell_formula_units_Z 16
_cell_length_a 21.000000
_cell_length_b 9.000000
_cell_length_c 27.000000
_cell_angle_alpha 90.000000
_cell_angle_beta 160.000000
_cell_angle_gamma 90.000000
_cell_volume 1745.328791
_symmetry_space_group_name_H-M "C M"
_symmetry_group_IT_number 8
_symmetry_cell_setting 'monoclinic'
loop_
_space_group_symop_operation_xyz
x,y,z
x,-y,z
1/2+x,1/2+y,z
1/2+x,1/2-y,z
loop_
_atom_site_type_symbol
_atom_site_label
_atom_site_fract_x
_atom_site_fract_y
_atom_site_fract_z
Si Si1 0.732930 0.673906 0.110850
Si Si2 0.833577 0.674278 0.796840
Si Si3 0.576070 0.678522 0.793397
Si Si4 0.571903 0.177012 0.283292
Si Si5 0.240444 0.823444 0.614548
Si Si6 0.335011 0.174598 0.298476
Si Si7 0.983002 0.822055 0.113418
Si Si8 0.993605 0.825971 0.619475
O O1 0.697751 0.500000 0.078392
O O2 0.783800 0.713522 0.204521
O O3 0.909093 0.721847 0.204276
O O4 0.535690 0.752334 0.954719
O O5 0.858231 0.500000 0.824706
O O6 0.783161 0.708227 0.703196
O O7 0.661748 0.736475 0.706352
O O8 0.581969 0.500000 0.806633
O O9 0.406967 0.746969 0.703483
O O10 0.533100 0.718415 0.705003
O O11 0.782157 0.747486 0.953683
O O12 0.533324 0.263934 0.204517
O O13 0.781546 0.229279 0.452594
O O14 0.566463 0.000000 0.270531
O O15 0.030980 0.759082 0.452548
O O16 0.239506 0.000000 0.602423
O O17 0.156254 0.221910 0.202733
O O18 0.373675 0.000000 0.333719
O O19 0.957143 0.000000 0.094520
O O20 0.994880 0.000000 0.612831
#
# Coordination Sequence:
#
# PCOD8054159 Si02
#       8
#     4   4   4   4   4   4   4   4
#     4  10  21  37  58  83 110 145 188 231 276 329
#     4  10  21  37  57  82 112 145 183 230 280 330
#     4  11  22  38  61  85 113 151 191 231 280 338
#     4  10  20  37  60  82 108 146 190 232 277 333
#     4  11  23  38  59  87 117 148 186 234 284 336
#     4  10  22  40  60  83 114 151 190 233 281 334
#     4  11  23  38  57  85 119 150 186 234 282 332
#     4   9  19  37  60  83 107 142 190 235 274 326
#
# _framework density 9.1673270000000002
#
# number of rings (size 3 to 8) (size 9 to 14) (size 15 to 20)
#    0.000    1.750    0.000    4.125    0.000    8.000 
#    0.000    3.750    0.000    0.000    0.000    0.000 
#    0.000    0.000    0.000    0.000    0.000    0.000 
#
# Total GULP energy -198219.990445 kJ/mol
# GULP energy per Si atom -12388.749403 kJ/mol
# Density = 0.914646 g / cm^3
# Si number density = 9.167327 Si / 1000 Ang^3
#
#
#
# Elastic Constant Matrix: (Units=GPa)
#
#
# Indices 1 2 3 4 5 6 
#
# 1 205.4218 50.2839 99.2380 -0.0036 21.6777 0.0008
# 2 50.2839 90.1793 60.8189 -0.0261 4.7844 0.0016
# 3 99.2380 60.8189 223.1056 -0.0990 22.8855 0.0113
# 4 -0.0036 -0.0261 -0.0990 44.5152 -0.0073 6.4266
# 5 21.6777 4.7844 22.8855 -0.0073 57.8584 0.0045
# 6 0.0008 0.0016 0.0113 6.4266 0.0045 36.1475
#
#
#
# Elastic Compliance Matrix: (Units=1/GPa)
#
#
# Indices 1 2 3 4 5 6 
#
# 1 0.006606 -0.002113 -0.002216 -0.000006 -0.001424 0.000002
# 2 -0.002113 0.014270 -0.003033 0.000002 0.000812 0.000000
# 3 -0.002216 -0.003033 0.006446 0.000013 -0.001468 -0.000004
# 4 -0.000006 0.000002 0.000013 0.023056 0.000000 -0.004099
# 5 -0.001424 0.000812 -0.001468 0.000000 0.018331 -0.000002
# 6 0.000002 0.000000 -0.000004 -0.004099 -0.000002 0.028393
#
#
# Mechanical properties :
#
#
# Convention : Reuss Voigt Hill
#
# Bulk Modulus (GPa) = 79.39079 104.37645 91.88362
# Shear Modulus (GPa) = 43.09364 48.26196 45.67780
#
# Velocity S-wave (km/s) = 4.85334 5.13614 4.99674
# Velocity P-wave (km/s) = 8.64879 9.60340 9.13857
#
# Compressibility (1/GPa) = 0.01259592
#
# Stress axis : x y z
#
# Youngs Moduli (GPa) = 151.37065 70.07670 155.14689
#
# Poissons Ratio (x) = 0.14810 0.34386
# Poissons Ratio (y) = 0.31990 0.47060
# Poissons Ratio (z) = 0.33549 0.21256
#
# Static dielectric constant tensor:
#      x y z
#    x 4.074390 0.000000 0.333090 
#    y 0.000000 3.507840 -0.000020 
#    z 0.333090 -0.000020 4.053310 
# 
# 
# High freq. dielectric constant tensor:
#      x y z
#    x 1.758230 0.000000 0.018280 
#    y 0.000000 1.714310 0.000000 
#    z 0.018280 0.000000 1.762700 
# 
# From -- ./inp_files/29752.got.cif
#   From: 2010.03.12/outbox.ucp.g09.slc.cvg/sg8_15_cif.got.tgz:29752.got - 2010.06.21 13:25:46.
