data_PCOD8054463
_publ_section_title
;
Structure prediction by ZEFSAII (Michael W. Deem and Ramdas Pophale) SiO2 
 PCOD8054463
Probable space group: C C
;
_chemical_formula_sum "Si O2"
_cell_formula_units_Z 28
_cell_length_a 16.782039
_cell_length_b 5.215983
_cell_length_c 18.176929
_cell_angle_alpha 90.000000
_cell_angle_beta 128.756143
_cell_angle_gamma 90.000000
_cell_volume 1240.778641
_symmetry_space_group_name_H-M "C C"
_symmetry_group_IT_number 9
_symmetry_cell_setting 'monoclinic'
loop_
_space_group_symop_operation_xyz
x,y,z
x,-y,1/2+z
1/2+x,1/2+y,z
1/2+x,1/2-y,1/2+z
loop_
_atom_site_type_symbol
_atom_site_label
_atom_site_fract_x
_atom_site_fract_y
_atom_site_fract_z
Si Si1 0.665540 0.378140 0.300320
Si Si2 0.800246 0.925767 0.978113
Si Si3 0.212738 0.042192 0.664723
Si Si4 0.981763 0.976492 0.977176
Si Si5 0.099170 0.383886 0.316632
Si Si6 0.018418 0.477153 0.919636
Si Si7 0.249304 0.453202 0.106785
O O1 0.751235 0.335133 0.414115
O O2 0.724197 0.430718 0.258661
O O3 0.599024 0.113337 0.255696
O O4 0.583772 0.604289 0.271769
O O5 0.713775 0.144544 0.917182
O O6 0.904478 0.011488 0.999858
O O7 0.821833 0.902911 0.077956
O O8 0.094464 0.029236 0.575370
O O9 0.271880 0.277690 0.659972
O O10 0.268974 0.779884 0.674535
O O11 0.958371 0.708359 0.923767
O O12 0.964935 0.207053 0.908757
O O13 0.016843 0.459422 0.331567
O O14 0.133402 0.452257 0.013109
#
# Coordination Sequence:
#
# PCOD8054463 Si02
#       7
#     4   4   4   4   4   4   4
#     4  10  20  33  59  80 106 141 182 223 262 324
#     4   9  22  33  59  79 108 138 186 219 269 309
#     4  10  20  36  55  78 107 140 181 216 269 314
#     4  10  20  32  56  79 109 134 180 224 266 309
#     4   9  19  33  57  74 106 137 183 211 266 319
#     4   9  18  32  52  82 100 137 177 222 254 315
#     4   9  19  33  56  76 104 145 179 213 256 334
#
# _framework density 22.566475000000001
#
# number of rings (size 3 to 8) (size 9 to 14) (size 15 to 20)
#    0.857    1.714    0.000    1.714    8.000    0.000 
#    0.000    0.000    9.429    0.000    0.000    0.000 
#    0.000    0.000    0.000    0.000    0.000    0.000 
#
# Total GULP energy -173466.941289 kJ/mol
# GULP energy per Si atom -12390.495806 kJ/mol
# Density = 2.251511 g / cm^3
# Si number density = 22.566475 Si / 1000 Ang^3
#
#
#
# Elastic Constant Matrix: (Units=GPa)
#
#
# Indices 1 2 3 4 5 6 
#
# 1 120.6558 51.7383 31.1998 0.0009 -45.8615 -0.0002
# 2 51.7383 180.5478 33.0912 0.0037 -27.6030 -0.0005
# 3 31.1998 33.0912 53.4183 0.0009 -37.0864 -0.0002
# 4 0.0009 0.0037 0.0009 20.6193 -0.0014 -15.5365
# 5 -45.8615 -27.6030 -37.0864 -0.0014 44.3450 0.0002
# 6 -0.0002 -0.0005 -0.0002 -15.5365 0.0002 24.2394
#
#
#
# Elastic Compliance Matrix: (Units=1/GPa)
#
#
# Indices 1 2 3 4 5 6 
#
# 1 0.015024 -0.002495 0.005913 0.000002 0.018930 0.000001
# 2 -0.002495 0.006708 -0.003793 -0.000002 -0.001577 -0.000001
# 3 0.005913 -0.003793 0.048221 0.000003 0.044082 0.000002
# 4 0.000002 -0.000002 0.000003 0.093800 0.000005 0.060122
# 5 0.018930 -0.001577 0.044082 0.000005 0.078012 0.000003
# 6 0.000001 -0.000001 0.000002 0.060122 0.000003 0.079791
#
#
# Mechanical properties :
#
#
# Convention : Reuss Voigt Hill
#
# Bulk Modulus (GPa) = 14.45036 65.18670 39.81853
# Shear Modulus (GPa) = 14.47707 33.74693 24.11200
#
# Velocity S-wave (km/s) = 2.53559 3.87129 3.27232
# Velocity P-wave (km/s) = 3.87165 6.99513 5.65338
#
# Compressibility (1/GPa) = 0.06920242
#
# Stress axis : x y z
#
# Youngs Moduli (GPa) = 66.55889 149.08158 20.73803
#
# Poissons Ratio (x) = 0.37196 -0.12262
# Poissons Ratio (y) = 0.16606 0.07866
# Poissons Ratio (z) = -0.39355 0.56546
#
# Static dielectric constant tensor:
#      x y z
#    x 3.849960 0.000000 -0.366630 
#    y 0.000000 4.229890 0.000000 
#    z -0.366630 0.000000 3.583920 
# 
# 
# High freq. dielectric constant tensor:
#      x y z
#    x 1.879280 0.000000 -0.031440 
#    y 0.000000 1.896440 0.000000 
#    z -0.031440 0.000000 1.848330 
# 
# From -- ./inp_files/30269.got.cif
#   From: 2010.06.25/outbox.cif.g09.slc.cpg/sg9_16_cif.got.tgz:30269.got - 2010.06.27 21:40:51.
