data_PCOD8054603
_publ_section_title
;
Structure prediction by ZEFSAII (Michael W. Deem and Ramdas Pophale) SiO2 
 PCOD8054603
Probable space group: C C
;
_chemical_formula_sum "Si O2"
_cell_formula_units_Z 32
_cell_length_a 7.856917
_cell_length_b 13.708927
_cell_length_c 13.843589
_cell_angle_alpha 90.000000
_cell_angle_beta 81.471590
_cell_angle_gamma 90.000000
_cell_volume 1474.603790
_symmetry_space_group_name_H-M "C C"
_symmetry_group_IT_number 9
_symmetry_cell_setting 'monoclinic'
loop_
_space_group_symop_operation_xyz
x,y,z
x,-y,1/2+z
1/2+x,1/2+y,z
1/2+x,1/2-y,1/2+z
loop_
_atom_site_type_symbol
_atom_site_label
_atom_site_fract_x
_atom_site_fract_y
_atom_site_fract_z
Si Si1 0.143950 0.197182 0.316090
Si Si2 0.269671 0.600597 0.130751
Si Si3 0.467791 0.488750 0.779415
Si Si4 0.122876 0.742382 0.420120
Si Si5 0.491731 0.086323 0.304679
Si Si6 0.280387 0.634895 0.916760
Si Si7 0.507446 0.773922 0.138086
Si Si8 0.813705 0.600435 0.790489
O O1 0.332712 0.157466 0.312317
O O2 0.130636 0.289774 0.391777
O O3 0.001825 0.110646 0.340354
O O4 0.135098 0.231705 0.206973
O O5 0.414310 0.533944 0.172709
O O6 0.335954 0.711163 0.132833
O O7 0.084771 0.584762 0.193902
O O8 0.238464 0.579583 0.020355
O O9 0.306886 0.547614 0.837532
O O10 0.639083 0.553646 0.764345
O O11 0.284331 0.804968 0.362932
O O12 0.122194 0.635768 0.370064
O O13 0.958402 0.808072 0.412595
O O14 0.128663 0.718064 0.533522
O O15 0.424775 0.979082 0.341716
O O16 0.427135 0.874011 0.186282
#
# Coordination Sequence:
#
# PCOD8054603 Si02
#       8
#     4   4   4   4   4   4   4   4
#     4   9  20  39  58  83 123 159 203 250 308 370
#     4  10  20  39  59  86 122 158 203 258 307 365
#     4   9  20  39  59  85 122 161 203 256 301 372
#     4   9  19  40  62  85 121 164 202 250 316 365
#     4  10  20  39  58  87 123 157 204 260 297 370
#     4   9  19  38  63  85 120 163 200 252 314 364
#     4  10  20  39  62  86 119 164 201 250 319 369
#     4  10  20  39  61  87 122 162 202 254 312 363
#
# _framework density 21.700744
#
# number of rings (size 3 to 8) (size 9 to 14) (size 15 to 20)
#    0.000    2.500    1.250    0.000    1.750    0.000 
#   22.500    0.000    0.000    0.000    0.000    0.000 
#    0.000    0.000    0.000    0.000    0.000    0.000 
#
# Total GULP energy -198222.039448 kJ/mol
# GULP energy per Si atom -12388.877465 kJ/mol
# Density = 2.165135 g / cm^3
# Si number density = 21.700744 Si / 1000 Ang^3
#
#
#
# Elastic Constant Matrix: (Units=GPa)
#
#
# Indices 1 2 3 4 5 6 
#
# 1 39.5952 38.2797 22.8921 0.0000 -4.2363 0.0000
# 2 38.2797 129.7570 65.3118 0.0000 -0.8948 0.0000
# 3 22.8921 65.3118 147.7805 0.0000 -6.7823 0.0000
# 4 0.0000 0.0000 0.0000 28.5786 0.0000 0.6773
# 5 -4.2363 -0.8948 -6.7823 0.0000 24.0912 0.0000
# 6 0.0000 0.0000 0.0000 0.6773 0.0000 15.6776
#
#
#
# Elastic Compliance Matrix: (Units=1/GPa)
#
#
# Indices 1 2 3 4 5 6 
#
# 1 0.036247 -0.010238 -0.000826 0.000000 0.005761 0.000000
# 2 -0.010238 0.012822 -0.004196 0.000000 -0.002505 0.000000
# 3 -0.000826 -0.004196 0.008849 0.000000 0.002190 0.000000
# 4 0.000000 0.000000 0.000000 0.035027 0.000000 -0.001513
# 5 0.005761 -0.002505 0.002190 0.000000 0.043046 0.000000
# 6 0.000000 0.000000 0.000000 -0.001513 0.000000 0.063850
#
#
# Mechanical properties :
#
#
# Convention : Reuss Voigt Hill
#
# Bulk Modulus (GPa) = 36.49689 63.34445 49.92067
# Shear Modulus (GPa) = 20.87742 26.37943 23.62843
#
# Velocity S-wave (km/s) = 3.10507 3.49033 3.30332
# Velocity P-wave (km/s) = 5.45070 6.74511 6.13215
#
# Compressibility (1/GPa) = 0.02739959
#
# Stress axis : x y z
#
# Youngs Moduli (GPa) = 27.58831 77.99388 113.00112
#
# Poissons Ratio (x) = 0.79850 0.09332
# Poissons Ratio (y) = 0.28245 0.47410
# Poissons Ratio (z) = 0.02278 0.32723
#
# Static dielectric constant tensor:
#      x y z
#    x 3.814970 0.000000 0.050500 
#    y 0.000000 4.247930 0.000000 
#    z 0.050500 0.000000 3.903950 
# 
# 
# High freq. dielectric constant tensor:
#      x y z
#    x 1.851660 0.000000 0.006660 
#    y 0.000000 1.863670 0.000000 
#    z 0.006660 0.000000 1.826670 
# 
# From -- ./inp_files/14612.got.cif
#   From: 2010.06.25/outbox.cif.g09.slc.cpg/sg9_8_cif.got.tgz:14612.got - 2010.06.27 21:40:51.
