data_PCOD8054677
_publ_section_title
;
Structure prediction by ZEFSAII (Michael W. Deem and Ramdas Pophale) SiO2 
 PCOD8054677
Probable space group: C C
;
_chemical_formula_sum "Si O2"
_cell_formula_units_Z 28
_cell_length_a 11.147120
_cell_length_b 13.397019
_cell_length_c 16.197718
_cell_angle_alpha 90.000000
_cell_angle_beta 145.923758
_cell_angle_gamma 90.000000
_cell_volume 1355.320118
_symmetry_space_group_name_H-M "C C"
_symmetry_group_IT_number 9
_symmetry_cell_setting 'monoclinic'
loop_
_space_group_symop_operation_xyz
x,y,z
x,-y,1/2+z
1/2+x,1/2+y,z
1/2+x,1/2-y,1/2+z
loop_
_atom_site_type_symbol
_atom_site_label
_atom_site_fract_x
_atom_site_fract_y
_atom_site_fract_z
Si Si1 0.969400 0.052390 0.930370
Si Si2 0.305935 0.342225 0.818949
Si Si3 0.394919 0.054542 0.379465
Si Si4 0.410367 0.132884 0.211981
Si Si5 0.085529 0.652966 0.019785
Si Si6 0.685798 0.185196 0.656517
Si Si7 0.455580 0.636907 0.100724
O O1 0.797028 0.096687 0.769238
O O2 0.972276 0.933419 0.919338
O O3 0.205727 0.093060 0.043906
O O4 0.900615 0.083011 0.983366
O O5 0.219984 0.326466 0.678224
O O6 0.423189 0.242925 0.914117
O O7 0.113903 0.369076 0.770472
O O8 0.443119 0.059612 0.308957
O O9 0.536821 0.140282 0.501159
O O10 0.143791 0.075127 0.254023
O O11 0.447092 0.947404 0.447666
O O12 0.365745 0.245384 0.217105
O O13 0.244393 0.640935 0.033994
O O14 0.538413 0.250679 0.633246
#
# Coordination Sequence:
#
# PCOD8054677 Si02
#       7
#     4   4   4   4   4   4   4
#     4  10  22  45  68  95 124 178 220 266 318 380
#     4  12  29  43  63  98 137 175 211 267 328 384
#     4  10  22  45  68  95 124 178 220 266 318 380
#     4  10  23  42  70  94 131 167 216 272 321 386
#     4  12  29  43  63  98 137 175 211 267 328 384
#     4  10  20  40  72  96 124 168 228 268 314 378
#     4  10  23  42  70  94 131 167 216 272 321 386
#
# _framework density 20.659327000000001
#
# number of rings (size 3 to 8) (size 9 to 14) (size 15 to 20)
#    0.000    1.714    1.429    4.286   12.000    3.429 
#    0.000    0.000    0.000    0.000    0.000    0.000 
#    0.000    0.000    0.000    0.000    0.000    0.000 
#
# Total GULP energy -173647.515658 kJ/mol
# GULP energy per Si atom -12403.393976 kJ/mol
# Density = 2.061231 g / cm^3
# Si number density = 20.659327 Si / 1000 Ang^3
#
#
#
# Elastic Constant Matrix: (Units=GPa)
#
#
# Indices 1 2 3 4 5 6 
#
# 1 66.8843 14.8134 33.6699 0.0017 13.7053 0.0000
# 2 14.8134 114.9876 25.4896 0.0060 6.7901 0.0013
# 3 33.6699 25.4896 100.4703 0.0136 -3.0407 0.0034
# 4 0.0017 0.0060 0.0136 42.6325 0.0042 -6.9754
# 5 13.7053 6.7901 -3.0407 0.0042 26.2968 0.0004
# 6 0.0000 0.0013 0.0034 -6.9754 0.0004 13.5490
#
#
#
# Elastic Compliance Matrix: (Units=1/GPa)
#
#
# Indices 1 2 3 4 5 6 
#
# 1 0.021147 -0.000402 -0.007341 0.000003 -0.011766 0.000004
# 2 -0.000402 0.009412 -0.002328 0.000000 -0.002490 0.000000
# 3 -0.007341 -0.002328 0.013184 -0.000005 0.005951 -0.000006
# 4 0.000003 0.000000 -0.000005 0.025614 -0.000007 0.013187
# 5 -0.011766 -0.002490 0.005951 -0.000007 0.045491 -0.000006
# 6 0.000004 0.000000 -0.000006 0.013187 -0.000006 0.080595
#
#
# Mechanical properties :
#
#
# Convention : Reuss Voigt Hill
#
# Bulk Modulus (GPa) = 42.37343 47.80979 45.09161
# Shear Modulus (GPa) = 22.37626 30.38694 26.38160
#
# Velocity S-wave (km/s) = 3.29463 3.83934 3.57737
# Velocity P-wave (km/s) = 5.91843 6.54570 6.23996
#
# Compressibility (1/GPa) = 0.02359969
#
# Stress axis : x y z
#
# Youngs Moduli (GPa) = 47.28883 106.25244 75.84915
#
# Poissons Ratio (x) = 0.04273 0.55679
# Poissons Ratio (y) = 0.01902 0.17660
# Poissons Ratio (z) = 0.34714 0.24739
#
# Static dielectric constant tensor:
#      x y z
#    x 3.589070 0.000000 -0.063040 
#    y 0.000000 3.780900 -0.000010 
#    z -0.063040 -0.000010 3.874740 
# 
# 
# High freq. dielectric constant tensor:
#      x y z
#    x 1.794430 0.000000 -0.006930 
#    y 0.000000 1.817100 0.000000 
#    z -0.006930 0.000000 1.825580 
# 
# From -- ./inp_files/19293.got.cif
#   From: 2010.06.25/outbox.cif.g09.slc.cpg/sg9_10_cif.got.tgz:19293.got - 2010.06.27 21:40:51.
