data_PCOD8054053
_publ_section_title
;
Structure prediction by ZEFSAII (Michael W. Deem and Ramdas Pophale) SiO2 
 PCOD8054053
Probable space group: C M
;
_chemical_formula_sum "Si O2"
_cell_formula_units_Z 32
_cell_length_a 20.126294
_cell_length_b 8.482969
_cell_length_c 19.885748
_cell_angle_alpha 90.000000
_cell_angle_beta 150.556976
_cell_angle_gamma 90.000000
_cell_volume 1668.891998
_symmetry_space_group_name_H-M "C M"
_symmetry_group_IT_number 8
_symmetry_cell_setting 'monoclinic'
loop_
_space_group_symop_operation_xyz
x,y,z
x,-y,z
1/2+x,1/2+y,z
1/2+x,1/2-y,z
loop_
_atom_site_type_symbol
_atom_site_label
_atom_site_fract_x
_atom_site_fract_y
_atom_site_fract_z
Si Si1 0.397210 0.684611 0.671840
Si Si2 0.817711 0.682249 0.736047
Si Si3 0.601116 0.683204 0.024747
Si Si4 0.894060 0.181574 0.518407
Si Si5 0.692221 0.316328 0.964456
Si Si6 0.176457 0.318557 0.731870
Si Si7 0.162774 0.181894 0.227499
Si Si8 0.380101 0.815810 0.016074
O O1 0.394073 0.500000 0.685480
O O2 0.304580 0.769114 0.646097
O O3 0.345323 0.723515 0.551248
O O4 0.549675 0.752798 0.812618
O O5 0.784107 0.500000 0.713897
O O6 0.706983 0.778711 0.680998
O O7 0.966417 0.715677 0.896669
O O8 0.557422 0.500000 0.984867
O O9 0.673314 0.726841 0.157990
O O10 0.706507 0.719871 0.056805
O O11 0.768418 0.209742 0.359094
O O12 0.019405 0.288195 0.607380
O O13 0.939240 0.000000 0.554544
O O14 0.690151 0.500000 0.946999
O O15 0.816701 0.249405 0.030476
O O16 0.209675 0.500000 0.775980
O O17 0.270897 0.209445 0.861218
O O18 0.198954 0.000000 0.271601
O O19 0.012467 0.213511 0.120751
O O20 0.418783 0.000000 0.053015
#
# Coordination Sequence:
#
# PCOD8054053 Si02
#       8
#     4   4   4   4   4   4   4   4
#     4   9  18  36  58  82 114 151 189 236 296 351
#     4  11  21  33  56  88 117 147 191 244 289 341
#     4   9  18  35  56  80 114 155 192 231 286 345
#     4  11  23  41  62  84 115 157 199 242 291 352
#     4   8  15  31  56  83 109 142 187 234 280 337
#     4  12  23  37  58  86 119 153 193 244 293 345
#     4  11  23  38  57  84 119 158 195 240 292 347
#     4  11  20  35  59  87 115 149 196 245 287 340
#
# _framework density 19.174399999999999
#
# number of rings (size 3 to 8) (size 9 to 14) (size 15 to 20)
#    0.000    1.750    2.500    4.125    0.000    1.500 
#    0.000    1.875    0.000    6.000    0.000    0.000 
#    0.000    0.000    0.000    0.000    0.000    0.000 
#
# Total GULP energy -198404.056620 kJ/mol
# GULP energy per Si atom -12400.253539 kJ/mol
# Density = 1.913076 g / cm^3
# Si number density = 19.174400 Si / 1000 Ang^3
#
#
#
# Elastic Constant Matrix: (Units=GPa)
#
#
# Indices 1 2 3 4 5 6 
#
# 1 144.1923 30.0742 40.4281 0.0000 -13.8866 0.0000
# 2 30.0742 58.7955 10.2844 0.0000 -8.4043 0.0000
# 3 40.4281 10.2844 77.7531 0.0000 -12.2068 0.0000
# 4 0.0000 0.0000 0.0000 26.6688 0.0000 0.5525
# 5 -13.8866 -8.4043 -12.2068 0.0000 27.7418 0.0000
# 6 0.0000 0.0000 0.0000 0.5525 0.0000 26.2168
#
#
#
# Elastic Compliance Matrix: (Units=1/GPa)
#
#
# Indices 1 2 3 4 5 6 
#
# 1 0.008955 -0.003660 -0.003913 0.000000 0.001652 0.000000
# 2 -0.003660 0.019465 -0.000036 0.000000 0.004049 0.000000
# 3 -0.003913 -0.000036 0.015674 0.000000 0.004927 0.000000
# 4 0.000000 0.000000 0.000000 0.037513 0.000000 -0.000791
# 5 0.001652 0.004049 0.004927 0.000000 0.040268 0.000000
# 6 0.000000 0.000000 0.000000 -0.000791 0.000000 0.038160
#
#
# Mechanical properties :
#
#
# Convention : Reuss Voigt Hill
#
# Bulk Modulus (GPa) = 34.62972 49.14603 41.88787
# Shear Modulus (GPa) = 27.04485 29.45576 28.25030
#
# Velocity S-wave (km/s) = 3.75969 3.92369 3.84257
# Velocity P-wave (km/s) = 6.07838 6.79808 6.44828
#
# Compressibility (1/GPa) = 0.02887693
#
# Stress axis : x y z
#
# Youngs Moduli (GPa) = 111.67446 51.37371 63.80034
#
# Poissons Ratio (x) = 0.18802 0.24962
# Poissons Ratio (y) = 0.40871 0.00230
# Poissons Ratio (z) = 0.43693 0.00185
#
# Static dielectric constant tensor:
#      x y z
#    x 3.982210 0.000000 -0.086930 
#    y 0.000000 3.324740 0.000000 
#    z -0.086930 0.000000 3.216320 
# 
# 
# High freq. dielectric constant tensor:
#      x y z
#    x 1.767660 0.000000 -0.009690 
#    y 0.000000 1.737450 0.000000 
#    z -0.009690 0.000000 1.706370 
# 
# From -- ./inp_files/31346.got.cif
#   From: 2010.03.12/outbox.cif.g09.slc.cpg/sg8_16_cif.got.tgz:31346.got - 2010.03.31 10:45:26.
