data_PCOD8054109
_publ_section_title
;
Structure prediction by ZEFSAII (Michael W. Deem and Ramdas Pophale) SiO2 
 PCOD8054109
Probable space group: C M
;
_chemical_formula_sum "Si O2"
_cell_formula_units_Z 24
_cell_length_a 9.650298
_cell_length_b 17.135441
_cell_length_c 9.794458
_cell_angle_alpha 90.000000
_cell_angle_beta 43.863968
_cell_angle_gamma 90.000000
_cell_volume 1122.321832
_symmetry_space_group_name_H-M "C M"
_symmetry_group_IT_number 8
_symmetry_cell_setting 'monoclinic'
loop_
_space_group_symop_operation_xyz
x,y,z
x,-y,z
1/2+x,1/2+y,z
1/2+x,1/2-y,z
loop_
_atom_site_type_symbol
_atom_site_label
_atom_site_fract_x
_atom_site_fract_y
_atom_site_fract_z
Si Si1 0.354280 0.321001 0.399480
Si Si2 0.277752 0.412586 0.964174
Si Si3 0.679156 0.362984 0.791474
Si Si4 0.607792 0.182358 0.843477
Si Si5 0.565175 0.829134 0.355833
Si Si6 0.724160 0.411723 0.063093
O O1 0.202286 0.338595 0.630064
O O2 0.492645 0.246541 0.326751
O O3 0.231730 0.305671 0.348363
O O4 0.503574 0.393942 0.278065
O O5 0.216837 0.500000 0.963988
O O6 0.152705 0.390164 0.186692
O O7 0.512037 0.410896 0.830239
O O8 0.244717 0.353443 0.863763
O O9 0.600233 0.274913 0.870902
O O10 0.878925 0.369077 0.561835
O O11 0.723879 0.403941 0.901490
O O12 0.386161 0.147122 0.012553
O O13 0.780410 0.500000 0.063950
#
# Coordination Sequence:
#
# PCOD8054109 Si02
#       6
#     4   4   4   4   4   4
#     4  11  25  44  71 100 131 177 229 276 323 396
#     4  12  27  44  66 102 142 174 215 276 341 395
#     4  11  23  44  73  96 128 178 227 276 323 393
#     4  11  25  46  70  97 132 177 226 278 325 390
#     4  11  25  44  71 100 131 177 230 274 325 394
#     4  12  25  42  67 101 136 175 217 272 339 396
#
# _framework density 21.384239999999998
#
# number of rings (size 3 to 8) (size 9 to 14) (size 15 to 20)
#    0.000    0.667    3.333    4.000    9.333    2.667 
#    0.000    0.000    0.000    0.000    0.000    0.000 
#    0.000    0.000    0.000    0.000    0.000    0.000 
#
# Total GULP energy -148885.799324 kJ/mol
# GULP energy per Si atom -12407.149944 kJ/mol
# Density = 2.133557 g / cm^3
# Si number density = 21.384240 Si / 1000 Ang^3
#
#
#
# Elastic Constant Matrix: (Units=GPa)
#
#
# Indices 1 2 3 4 5 6 
#
# 1 85.7570 17.8785 3.6737 0.0001 -9.3344 0.0000
# 2 17.8785 90.3978 32.8496 0.0000 -3.9614 0.0000
# 3 3.6737 32.8496 69.4425 -0.0001 -11.6901 0.0001
# 4 0.0001 0.0000 -0.0001 22.0004 0.0000 -1.4927
# 5 -9.3344 -3.9614 -11.6901 0.0000 40.0227 -0.0001
# 6 0.0000 0.0000 0.0001 -1.4927 -0.0001 27.3054
#
#
#
# Elastic Compliance Matrix: (Units=1/GPa)
#
#
# Indices 1 2 3 4 5 6 
#
# 1 0.012512 -0.002760 0.001145 0.000000 0.002979 0.000000
# 2 -0.002760 0.013979 -0.006670 0.000000 -0.001208 0.000000
# 3 0.001145 -0.006670 0.018330 0.000000 0.004961 0.000000
# 4 0.000000 0.000000 0.000000 0.045623 0.000000 0.002494
# 5 0.002979 -0.001208 0.004961 0.000000 0.027010 0.000000
# 6 0.000000 0.000000 0.000000 0.002494 0.000000 0.036759
#
#
# Mechanical properties :
#
#
# Convention : Reuss Voigt Hill
#
# Bulk Modulus (GPa) = 35.39708 39.37788 37.38748
# Shear Modulus (GPa) = 27.74698 30.61207 29.17953
#
# Velocity S-wave (km/s) = 3.60605 3.78765 3.69797
# Velocity P-wave (km/s) = 5.82468 6.13049 5.97954
#
# Compressibility (1/GPa) = 0.02825092
#
# Stress axis : x y z
#
# Youngs Moduli (GPa) = 79.92638 71.53582 54.55466
#
# Poissons Ratio (x) = 0.19745 -0.06248
# Poissons Ratio (y) = 0.22061 0.36389
# Poissons Ratio (z) = -0.09154 0.47715
#
# Static dielectric constant tensor:
#      x y z
#    x 4.029580 0.000000 -0.071490 
#    y 0.000000 3.677080 0.000000 
#    z -0.071490 0.000000 4.000500 
# 
# 
# High freq. dielectric constant tensor:
#      x y z
#    x 1.855070 0.000000 -0.004910 
#    y 0.000000 1.831890 0.000000 
#    z -0.004910 0.000000 1.850290 
# 
# From -- ./inp_files/8645.got.cif
#   From: 2010.03.12/outbox.cif.g09.slc.cpg/sg8_5_cif.got.tgz:8645.got - 2010.03.31 10:45:26.
