data_PCOD8054954
_publ_section_title
;
Structure prediction by ZEFSAII (Michael W. Deem and Ramdas Pophale) SiO2 
 PCOD8054954
Probable space group: C C
;
_chemical_formula_sum "Si O2"
_cell_formula_units_Z 32
_cell_length_a 21.493917
_cell_length_b 16.265658
_cell_length_c 9.409986
_cell_angle_alpha 90.000000
_cell_angle_beta 26.015019
_cell_angle_gamma 90.000000
_cell_volume 1442.950643
_symmetry_space_group_name_H-M "C C"
_symmetry_group_IT_number 9
_symmetry_cell_setting 'monoclinic'
loop_
_space_group_symop_operation_xyz
x,y,z
x,-y,1/2+z
1/2+x,1/2+y,z
1/2+x,1/2-y,1/2+z
loop_
_atom_site_type_symbol
_atom_site_label
_atom_site_fract_x
_atom_site_fract_y
_atom_site_fract_z
Si Si1 0.308080 0.053749 0.095540
Si Si2 0.380827 0.365850 0.501612
Si Si3 0.867833 0.260361 0.444947
Si Si4 0.956640 0.176484 0.534214
Si Si5 0.007978 0.970861 0.727961
Si Si6 0.657413 0.191926 0.670655
Si Si7 0.574132 0.659408 0.866467
Si Si8 0.382107 0.909878 0.740088
O O1 0.403021 0.052685 0.041429
O O2 0.148425 0.026691 0.461163
O O3 0.317734 0.146913 0.015081
O O4 0.376141 0.988271 0.852344
O O5 0.387218 0.324688 0.332872
O O6 0.380645 0.464179 0.481650
O O7 0.512403 0.335828 0.332453
O O8 0.230946 0.344832 0.880014
O O9 0.866070 0.237652 0.616416
O O10 0.763881 0.194436 0.584321
O O11 0.024020 0.241121 0.056366
O O12 0.981078 0.086224 0.420106
O O13 0.113355 0.214945 0.223759
O O14 0.009474 0.920505 0.578844
O O15 0.518733 0.142116 0.003596
O O16 0.743796 0.649638 0.524668
#
# Coordination Sequence:
#
# PCOD8054954 Si02
#       8
#     4   4   4   4   4   4   4   4
#     4  11  23  44  71  99 140 174 227 281 338 404
#     4  11  22  41  69 100 132 177 227 280 328 404
#     4  10  23  47  66 101 139 177 224 284 334 405
#     4  11  24  44  70 101 134 184 229 274 335 414
#     4  10  21  40  72 102 131 180 227 274 330 410
#     4  11  26  46  67 102 140 173 223 285 346 398
#     4   9  21  41  71  97 138 177 227 270 335 407
#     4  11  24  47  68 102 138 180 224 282 340 408
#
# _framework density 22.176780999999998
#
# number of rings (size 3 to 8) (size 9 to 14) (size 15 to 20)
#    0.000    1.500    2.500    1.500    3.500    3.000 
#   11.250    0.000    0.000    0.000    0.000    0.000 
#    0.000    0.000    0.000    0.000    0.000    0.000 
#
# Total GULP energy -198326.723182 kJ/mol
# GULP energy per Si atom -12395.420199 kJ/mol
# Density = 2.212631 g / cm^3
# Si number density = 22.176781 Si / 1000 Ang^3
#
#
#
# Elastic Constant Matrix: (Units=GPa)
#
#
# Indices 1 2 3 4 5 6 
#
# 1 115.2534 30.2242 49.3539 0.0000 16.2079 0.0000
# 2 30.2242 113.2912 70.2371 0.0000 3.3245 -0.0001
# 3 49.3539 70.2371 125.3117 -0.0003 6.6186 0.0001
# 4 0.0000 0.0000 -0.0003 36.9779 0.0001 6.2371
# 5 16.2079 3.3245 6.6186 0.0001 34.5357 0.0000
# 6 0.0000 -0.0001 0.0001 6.2371 0.0000 33.6153
#
#
#
# Elastic Compliance Matrix: (Units=1/GPa)
#
#
# Indices 1 2 3 4 5 6 
#
# 1 0.011074 -0.000407 -0.003900 0.000000 -0.004410 0.000000
# 2 -0.000407 0.013543 -0.007447 0.000000 0.000314 0.000000
# 3 -0.003900 -0.007447 0.013695 0.000000 -0.000077 0.000000
# 4 0.000000 0.000000 0.000000 0.027917 0.000000 -0.005180
# 5 -0.004410 0.000314 -0.000077 0.000000 0.031010 0.000000
# 6 0.000000 0.000000 0.000000 -0.005180 0.000000 0.030709
#
#
# Mechanical properties :
#
#
# Convention : Reuss Voigt Hill
#
# Bulk Modulus (GPa) = 67.55649 72.60964 70.08307
# Shear Modulus (GPa) = 31.97115 34.62851 33.29983
#
# Velocity S-wave (km/s) = 3.80103 3.95584 3.87920
# Velocity P-wave (km/s) = 7.05639 7.32648 7.19270
#
# Compressibility (1/GPa) = 0.01480243
#
# Stress axis : x y z
#
# Youngs Moduli (GPa) = 90.30433 73.83759 73.02131
#
# Poissons Ratio (x) = 0.03003 0.28482
# Poissons Ratio (y) = 0.03672 0.54382
# Poissons Ratio (z) = 0.35223 0.54990
#
# Static dielectric constant tensor:
#      x y z
#    x 4.042390 0.000000 0.124330 
#    y 0.000000 4.191580 0.000000 
#    z 0.124330 0.000000 3.917350 
# 
# 
# High freq. dielectric constant tensor:
#      x y z
#    x 1.878160 0.000000 0.012980 
#    y 0.000000 1.878870 0.000000 
#    z 0.012980 0.000000 1.862390 
# 
# From -- ./inp_files/11846.got.cif
#   From: 2010.06.25/outbox.cif.g09.slc.cpg/sg9_6_cif.got.tgz:11846.got - 2010.06.27 21:40:51.
