data_PCOD8054748
_publ_section_title
;
Structure prediction by ZEFSAII (Michael W. Deem and Ramdas Pophale) SiO2 
 PCOD8054748
Probable space group: C C
;
_chemical_formula_sum "Si O2"
_cell_formula_units_Z 28
_cell_length_a 8.482335
_cell_length_b 10.962844
_cell_length_c 11.424299
_cell_angle_alpha 90.000000
_cell_angle_beta 80.270983
_cell_angle_gamma 90.000000
_cell_volume 1047.072726
_symmetry_space_group_name_H-M "C C"
_symmetry_group_IT_number 9
_symmetry_cell_setting 'monoclinic'
loop_
_space_group_symop_operation_xyz
x,y,z
x,-y,1/2+z
1/2+x,1/2+y,z
1/2+x,1/2-y,1/2+z
loop_
_atom_site_type_symbol
_atom_site_label
_atom_site_fract_x
_atom_site_fract_y
_atom_site_fract_z
Si Si1 0.047650 0.600158 0.372390
Si Si2 0.175377 0.353353 0.302409
Si Si3 0.808035 0.853887 0.026690
Si Si4 0.784819 0.362343 0.381466
Si Si5 0.939610 0.900038 0.454485
Si Si6 0.699039 0.363209 0.946691
Si Si7 0.244812 0.264252 0.663719
O O1 0.019216 0.448106 0.343908
O O2 0.166116 0.592931 0.466317
O O3 0.123932 0.643938 0.241982
O O4 0.889835 0.677118 0.423841
O O5 0.242809 0.351023 0.164743
O O6 0.315436 0.407041 0.364557
O O7 0.122124 0.218182 0.351273
O O8 0.860511 0.718380 0.977631
O O9 0.963810 0.947773 0.984668
O O10 0.594029 0.319429 0.399251
O O11 0.732744 0.497747 0.416665
O O12 0.843758 0.320958 0.244187
O O13 0.869345 0.852954 0.585016
O O14 0.644017 0.319517 0.083747
#
# Coordination Sequence:
#
# PCOD8054748 Si02
#       7
#     4   4   4   4   4   4   4
#     4  10  22  43  70  94 131 174 220 275 331 390
#     4  10  21  42  68  97 125 175 226 264 333 402
#     4  10  21  42  68  97 125 175 226 264 333 402
#     4  11  26  42  64 102 135 172 219 275 336 398
#     4  10  22  43  70  94 131 174 220 275 331 390
#     4  11  26  42  64 102 135 172 219 275 336 398
#     4  10  20  44  62  90 132 172 216 274 330 380
#
# _framework density 26.741216999999999
#
# number of rings (size 3 to 8) (size 9 to 14) (size 15 to 20)
#    0.000    1.714    1.429    3.429    2.000    5.714 
#    0.000    2.857    0.000    0.000    0.000    0.000 
#    0.000    0.000    0.000    0.000    0.000    0.000 
#
# Total GULP energy -173460.779223 kJ/mol
# GULP energy per Si atom -12390.055659 kJ/mol
# Density = 2.668035 g / cm^3
# Si number density = 26.741217 Si / 1000 Ang^3
#
#
#
# Elastic Constant Matrix: (Units=GPa)
#
#
# Indices 1 2 3 4 5 6 
#
# 1 57.0928 -6.5803 22.8484 0.0000 -10.0784 0.0000
# 2 -6.5803 158.0377 69.0599 0.0000 7.7658 0.0000
# 3 22.8484 69.0599 209.9055 0.0000 11.4522 0.0000
# 4 0.0000 0.0000 0.0000 32.9057 0.0000 -9.8113
# 5 -10.0784 7.7658 11.4522 0.0000 32.5649 0.0000
# 6 0.0000 0.0000 0.0000 -9.8113 0.0000 32.0481
#
#
#
# Elastic Compliance Matrix: (Units=1/GPa)
#
#
# Indices 1 2 3 4 5 6 
#
# 1 0.020244 0.001904 -0.003209 0.000000 0.006940 0.000000
# 2 0.001904 0.007597 -0.002692 0.000000 -0.000276 0.000000
# 3 -0.003209 -0.002692 0.006136 0.000000 -0.002509 0.000000
# 4 0.000000 0.000000 0.000000 0.033442 0.000000 0.010238
# 5 0.006940 -0.000276 -0.002509 0.000000 0.033804 0.000000
# 6 0.000000 0.000000 0.000000 0.010238 0.000000 0.034337
#
#
# Mechanical properties :
#
#
# Convention : Reuss Voigt Hill
#
# Bulk Modulus (GPa) = 38.48531 66.18802 52.33666
# Shear Modulus (GPa) = 32.84862 42.15093 37.49978
#
# Velocity S-wave (km/s) = 3.50864 3.97451 3.74882
# Velocity P-wave (km/s) = 5.55311 6.77255 6.19292
#
# Compressibility (1/GPa) = 0.02598394
#
# Stress axis : x y z
#
# Youngs Moduli (GPa) = 49.39767 131.63811 162.98019
#
# Poissons Ratio (x) = -0.25064 0.52294
# Poissons Ratio (y) = -0.09405 0.43866
# Poissons Ratio (z) = 0.15850 0.35431
#
# Static dielectric constant tensor:
#      x y z
#    x 21.092040 0.000000 -4.164690 
#    y 0.000000 6.885450 0.000000 
#    z -4.164690 0.000000 5.699430 
# 
# 
# High freq. dielectric constant tensor:
#      x y z
#    x 2.112560 0.000000 -0.020840 
#    y 0.000000 2.134230 0.000000 
#    z -0.020840 0.000000 2.066860 
# 
# From -- ./inp_files/16095.got.cif
#   From: 2010.06.25/outbox.cif.g09.slc.cpg/sg9_9_cif.got.tgz:16095.got - 2010.06.27 21:40:51.
