data_PCOD8054754
_publ_section_title
;
Structure prediction by ZEFSAII (Michael W. Deem and Ramdas Pophale) SiO2 
 PCOD8054754
Probable space group: C C
;
_chemical_formula_sum "Si O2"
_cell_formula_units_Z 32
_cell_length_a 8.791092
_cell_length_b 11.411999
_cell_length_c 27.904029
_cell_angle_alpha 90.000000
_cell_angle_beta 31.462111
_cell_angle_gamma 90.000000
_cell_volume 1461.125637
_symmetry_space_group_name_H-M "C C"
_symmetry_group_IT_number 9
_symmetry_cell_setting 'monoclinic'
loop_
_space_group_symop_operation_xyz
x,y,z
x,-y,1/2+z
1/2+x,1/2+y,z
1/2+x,1/2-y,1/2+z
loop_
_atom_site_type_symbol
_atom_site_label
_atom_site_fract_x
_atom_site_fract_y
_atom_site_fract_z
Si Si1 0.865750 0.359101 0.404270
Si Si2 0.208156 0.813745 0.984511
Si Si3 0.768525 0.820597 0.714765
Si Si4 0.387670 0.523202 0.095785
Si Si5 0.089526 0.842155 0.908804
Si Si6 0.790994 0.941211 0.804927
Si Si7 0.267359 0.938475 0.238225
Si Si8 0.532735 0.399043 0.405346
O O1 0.588002 0.430505 0.498885
O O2 0.793845 0.343606 0.367424
O O3 0.907340 0.240020 0.422276
O O4 0.162750 0.431788 0.326168
O O5 0.061032 0.805607 0.971555
O O6 0.535812 0.865592 0.897640
O O7 0.242204 0.679459 0.992424
O O8 0.005048 0.890281 0.074728
O O9 0.929450 0.890923 0.629316
O O10 0.426115 0.848175 0.803197
O O11 0.902735 0.871471 0.728029
O O12 0.828794 0.681336 0.691901
O O13 0.054293 0.514893 0.169540
O O14 0.948367 0.969530 0.941462
O O15 0.056045 0.968136 0.769380
O O16 0.126872 0.890621 0.324860
#
# Coordination Sequence:
#
# PCOD8054754 Si02
#       8
#     4   4   4   4   4   4   4   4
#     4  11  23  42  69  97 136 173 224 277 330 404
#     4  10  23  45  64  97 137 169 222 276 332 400
#     4  11  22  43  66  99 135 173 221 282 334 399
#     4  11  25  45  63 100 145 165 213 292 343 378
#     4  11  21  43  68  94 130 179 223 269 324 412
#     4  10  20  44  68  94 127 178 223 261 326 413
#     4  12  24  42  70  98 134 180 221 280 334 397
#     4  12  22  42  70  97 128 179 233 263 325 409
#
# _framework density 21.900921
#
# number of rings (size 3 to 8) (size 9 to 14) (size 15 to 20)
#    0.000    1.000    8.750    0.000    3.500    0.000 
#    4.500    0.000    0.000    0.000    0.000    0.000 
#    0.000    0.000    0.000    0.000    0.000    0.000 
#
# Total GULP energy -198361.838369 kJ/mol
# GULP energy per Si atom -12397.614898 kJ/mol
# Density = 2.185107 g / cm^3
# Si number density = 21.900921 Si / 1000 Ang^3
#
#
#
# Elastic Constant Matrix: (Units=GPa)
#
#
# Indices 1 2 3 4 5 6 
#
# 1 105.1668 50.5971 19.6593 -0.0056 -15.6927 0.0007
# 2 50.5971 120.5138 -7.9987 -0.0066 -14.4108 0.0044
# 3 19.6593 -7.9987 34.9208 -0.0852 -8.0511 0.0142
# 4 -0.0056 -0.0066 -0.0852 29.2259 0.0458 -7.7281
# 5 -15.6927 -14.4108 -8.0511 0.0458 22.4939 0.0035
# 6 0.0007 0.0044 0.0142 -7.7281 0.0035 46.9176
#
#
#
# Elastic Compliance Matrix: (Units=1/GPa)
#
#
# Indices 1 2 3 4 5 6 
#
# 1 0.014747 -0.006450 -0.009112 -0.000030 0.002894 -0.000002
# 2 -0.006450 0.012266 0.007864 0.000014 0.006173 -0.000002
# 3 -0.009112 0.007864 0.038435 0.000093 0.012438 0.000002
# 4 -0.000030 0.000014 0.000093 0.035775 -0.000052 0.005893
# 5 0.002894 0.006173 0.012438 -0.000052 0.054882 -0.000017
# 6 -0.000002 -0.000002 0.000002 0.005893 -0.000017 0.022285
#
#
# Mechanical properties :
#
#
# Convention : Reuss Voigt Hill
#
# Bulk Modulus (GPa) = 19.97949 42.79077 31.38513
# Shear Modulus (GPa) = 23.75619 32.95040 28.35329
#
# Velocity S-wave (km/s) = 3.29707 3.88302 3.60198
# Velocity P-wave (km/s) = 4.86176 6.29957 5.62678
#
# Compressibility (1/GPa) = 0.05005133
#
# Stress axis : x y z
#
# Youngs Moduli (GPa) = 67.80872 81.52593 26.01775
#
# Poissons Ratio (x) = 0.52587 0.23709
# Poissons Ratio (y) = 0.43739 -0.20461
# Poissons Ratio (z) = 0.61791 -0.64113
#
# Static dielectric constant tensor:
#      x y z
#    x 3.934480 0.000000 0.005530 
#    y 0.000000 4.178180 -0.000070 
#    z 0.005530 -0.000070 3.664020 
# 
# 
# High freq. dielectric constant tensor:
#      x y z
#    x 1.859760 0.000000 -0.003040 
#    y 0.000000 1.878190 0.000000 
#    z -0.003040 0.000000 1.829340 
# 
# From -- ./inp_files/22749.got.cif
#   From: 2010.06.25/outbox.cif.g09.slc.cpg/sg9_12_cif.got.tgz:22749.got - 2010.06.27 21:40:51.
