data_PCOD8054087
_publ_section_title
;
Structure prediction by ZEFSAII (Michael W. Deem and Ramdas Pophale) SiO2 
 PCOD8054087
Probable space group: C M
;
_chemical_formula_sum "Si O2"
_cell_formula_units_Z 32
_cell_length_a 16.689320
_cell_length_b 14.336748
_cell_length_c 11.327493
_cell_angle_alpha 90.000000
_cell_angle_beta 145.856056
_cell_angle_gamma 90.000000
_cell_volume 1521.240793
_symmetry_space_group_name_H-M "C M"
_symmetry_group_IT_number 8
_symmetry_cell_setting 'monoclinic'
loop_
_space_group_symop_operation_xyz
x,y,z
x,-y,z
1/2+x,1/2+y,z
1/2+x,1/2-y,z
loop_
_atom_site_type_symbol
_atom_site_label
_atom_site_fract_x
_atom_site_fract_y
_atom_site_fract_z
Si Si1 0.118930 0.782824 0.778010
Si Si2 0.610535 0.764470 0.509337
Si Si3 0.385728 0.603565 0.617144
Si Si4 0.465488 0.601614 0.218443
Si Si5 0.918617 0.834034 0.907871
Si Si6 0.174311 0.603903 0.988481
Si Si7 0.913507 0.392746 0.130135
Si Si8 0.109204 0.334909 0.168455
O O1 0.055753 0.762990 0.571975
O O2 0.096571 0.686992 0.823690
O O3 0.024646 0.863457 0.718138
O O4 0.281320 0.820858 0.975353
O O5 0.580913 0.681744 0.380151
O O6 0.779446 0.771348 0.721881
O O7 0.530618 0.858574 0.369052
O O8 0.346606 0.500000 0.526372
O O9 0.425371 0.598494 0.803780
O O10 0.249492 0.669095 0.423137
O O11 0.538098 0.500000 0.320876
O O12 0.402443 0.608736 0.009250
O O13 0.341591 0.612900 0.164070
O O14 0.060234 0.770343 0.081455
O O15 0.120972 0.500000 0.883764
O O16 0.147141 0.612494 0.094424
O O17 0.869882 0.500000 0.104156
O O18 0.982671 0.387963 0.084120
#
# Coordination Sequence:
#
# PCOD8054087 Si02
#       8
#     4   4   4   4   4   4   4   4
#     4  12  25  44  67  96 138 173 219 279 331 388
#     4  12  22  42  66  98 126 177 215 269 333 387
#     4  12  26  42  69 101 131 177 224 268 332 399
#     4  11  23  42  66  97 132 170 218 269 327 394
#     4  12  22  43  70  94 135 173 219 273 330 390
#     4  11  22  40  66  95 130 174 215 267 327 388
#     4  12  25  43  68  99 132 172 222 275 328 392
#     4  12  23  44  68  96 132 174 222 274 324 392
#
# _framework density 21.03546
#
# number of rings (size 3 to 8) (size 9 to 14) (size 15 to 20)
#    0.000    0.250    7.500    2.625    0.000    3.000 
#    0.000    0.000    0.000    0.750    0.000    0.000 
#    0.000    0.000    0.000    0.000    0.000    0.000 
#
# Total GULP energy -198406.794649 kJ/mol
# GULP energy per Si atom -12400.424666 kJ/mol
# Density = 2.098758 g / cm^3
# Si number density = 21.035460 Si / 1000 Ang^3
#
#
#
# Elastic Constant Matrix: (Units=GPa)
#
#
# Indices 1 2 3 4 5 6 
#
# 1 128.5760 29.5821 37.1625 0.0000 -10.4851 0.0000
# 2 29.5821 124.9556 40.8465 0.0000 -5.7522 0.0000
# 3 37.1625 40.8465 90.1496 0.0000 -8.1460 0.0000
# 4 0.0000 0.0000 0.0000 24.0237 0.0000 -2.0797
# 5 -10.4851 -5.7522 -8.1460 0.0000 37.7610 0.0000
# 6 0.0000 0.0000 0.0000 -2.0797 0.0000 24.3956
#
#
#
# Elastic Compliance Matrix: (Units=1/GPa)
#
#
# Indices 1 2 3 4 5 6 
#
# 1 0.009054 -0.001051 -0.003104 0.000000 0.001684 0.000000
# 2 -0.001051 0.009526 -0.003853 0.000000 0.000328 0.000000
# 3 -0.003104 -0.003853 0.014265 0.000000 0.001629 0.000000
# 4 0.000000 0.000000 0.000000 0.041935 0.000000 0.003575
# 5 0.001684 0.000328 0.001629 0.000000 0.027351 0.000000
# 6 0.000000 0.000000 0.000000 0.003575 0.000000 0.041296
#
#
# Mechanical properties :
#
#
# Convention : Reuss Voigt Hill
#
# Bulk Modulus (GPa) = 59.42240 62.09593 60.75916
# Shear Modulus (GPa) = 30.29312 32.97540 31.63426
#
# Velocity S-wave (km/s) = 3.79898 3.96360 3.88216
# Velocity P-wave (km/s) = 6.89587 7.10849 7.00298
#
# Compressibility (1/GPa) = 0.01682867
#
# Stress axis : x y z
#
# Youngs Moduli (GPa) = 110.45079 104.97089 70.10046
#
# Poissons Ratio (x) = 0.11036 0.21757
# Poissons Ratio (y) = 0.11612 0.27012
# Poissons Ratio (z) = 0.34281 0.40449
#
# Static dielectric constant tensor:
#      x y z
#    x 4.004860 0.000000 -0.228480 
#    y 0.000000 3.787660 0.000000 
#    z -0.228480 0.000000 3.743850 
# 
# 
# High freq. dielectric constant tensor:
#      x y z
#    x 1.836400 0.000000 -0.013230 
#    y 0.000000 1.826460 0.000000 
#    z -0.013230 0.000000 1.812140 
# 
# From -- ./inp_files/23326.got.cif
#   From: 2010.03.12/outbox.cif.g09.slc.cpg/sg8_12_cif.got.tgz:23326.got - 2010.03.31 10:45:26.
