data_PCOD8054884
_publ_section_title
;
Structure prediction by ZEFSAII (Michael W. Deem and Ramdas Pophale) SiO2 
 PCOD8054884
Probable space group: C C
;
_chemical_formula_sum "Si O2"
_cell_formula_units_Z 28
_cell_length_a 10.499927
_cell_length_b 14.505148
_cell_length_c 8.899521
_cell_angle_alpha 90.000000
_cell_angle_beta 79.772860
_cell_angle_gamma 90.000000
_cell_volume 1333.888211
_symmetry_space_group_name_H-M "C C"
_symmetry_group_IT_number 9
_symmetry_cell_setting 'monoclinic'
loop_
_space_group_symop_operation_xyz
x,y,z
x,-y,1/2+z
1/2+x,1/2+y,z
1/2+x,1/2-y,1/2+z
loop_
_atom_site_type_symbol
_atom_site_label
_atom_site_fract_x
_atom_site_fract_y
_atom_site_fract_z
Si Si1 0.231630 0.344362 0.783590
Si Si2 0.925245 0.153533 0.997548
Si Si3 0.580411 0.006061 0.714273
Si Si4 0.354417 0.449346 0.008003
Si Si5 0.696889 0.697003 0.032914
Si Si6 0.945840 0.601582 0.005558
Si Si7 0.903946 0.218514 0.672129
O O1 0.293868 0.318372 0.609965
O O2 0.105292 0.409127 0.794891
O O3 0.199571 0.250694 0.874379
O O4 0.340451 0.403315 0.848348
O O5 0.927868 0.214297 0.845039
O O6 0.047324 0.170974 0.082897
O O7 0.926252 0.044887 0.962677
O O8 0.472082 0.984461 0.610793
O O9 0.713309 0.038733 0.612033
O O10 0.527779 0.085291 0.836325
O O11 0.440106 0.381189 0.094433
O O12 0.792052 0.607523 0.999367
O O13 0.751870 0.760540 0.158612
O O14 0.988778 0.699074 0.077020
#
# Coordination Sequence:
#
# PCOD8054884 Si02
#       7
#     4   4   4   4   4   4   4
#     4  10  21  39  65  96 120 175 218 267 313 379
#     4  11  20  40  67  95 132 168 217 269 315 385
#     4  11  20  40  70  91 127 167 223 266 313 384
#     4  10  21  40  66  96 123 168 223 264 317 380
#     4   9  23  43  58  95 136 162 214 265 331 377
#     4  10  23  41  63  95 128 166 213 270 319 378
#     4   9  22  43  61  94 130 166 220 251 330 381
#
# _framework density 20.991264999999999
#
# number of rings (size 3 to 8) (size 9 to 14) (size 15 to 20)
#    0.857    1.143    1.429    2.571    2.000    2.286 
#    7.714    0.000    0.000    0.000    0.000    0.000 
#    0.000    0.000    0.000    0.000    0.000    0.000 
#
# Total GULP energy -173439.833801 kJ/mol
# GULP energy per Si atom -12388.559557 kJ/mol
# Density = 2.094349 g / cm^3
# Si number density = 20.991265 Si / 1000 Ang^3
#
#
#
# Elastic Constant Matrix: (Units=GPa)
#
#
# Indices 1 2 3 4 5 6 
#
# 1 72.4614 27.7036 24.6026 0.0000 3.7857 0.0000
# 2 27.7036 89.2499 38.2636 0.0000 -6.6136 0.0000
# 3 24.6026 38.2636 87.3997 0.0000 3.9526 0.0000
# 4 0.0000 0.0000 0.0000 40.0454 0.0000 0.5981
# 5 3.7857 -6.6136 3.9526 0.0000 21.8494 0.0000
# 6 0.0000 0.0000 0.0000 0.5981 0.0000 30.7024
#
#
#
# Elastic Compliance Matrix: (Units=1/GPa)
#
#
# Indices 1 2 3 4 5 6 
#
# 1 0.016515 -0.004282 -0.002608 0.000000 -0.003686 0.000000
# 2 -0.004282 0.015543 -0.005894 0.000000 0.006513 0.000000
# 3 -0.002608 -0.005894 0.014939 0.000000 -0.004035 0.000000
# 4 0.000000 0.000000 0.000000 0.024979 0.000000 -0.000487
# 5 -0.003686 0.006513 -0.004035 0.000000 0.049108 0.000000
# 6 0.000000 0.000000 0.000000 -0.000487 0.000000 0.032580
#
#
# Mechanical properties :
#
#
# Convention : Reuss Voigt Hill
#
# Bulk Modulus (GPa) = 46.66310 47.80561 47.23435
# Shear Modulus (GPa) = 26.82776 29.08886 27.95831
#
# Velocity S-wave (km/s) = 3.57885 3.72662 3.65348
# Velocity P-wave (km/s) = 6.27340 6.42965 6.35201
#
# Compressibility (1/GPa) = 0.02143021
#
# Stress axis : x y z
#
# Youngs Moduli (GPa) = 60.54965 64.33756 66.94043
#
# Poissons Ratio (x) = 0.27546 0.17457
# Poissons Ratio (y) = 0.25924 0.39455
# Poissons Ratio (z) = 0.15791 0.37921
#
# Static dielectric constant tensor:
#      x y z
#    x 3.572870 0.000000 0.290360 
#    y 0.000000 3.844110 0.000000 
#    z 0.290360 0.000000 3.745830 
# 
# 
# High freq. dielectric constant tensor:
#      x y z
#    x 1.794460 0.000000 0.022820 
#    y 0.000000 1.817530 0.000000 
#    z 0.022820 0.000000 1.820660 
# 
# From -- ./inp_files/7208.got.cif
#   From: 2010.06.25/outbox.cif.g09.slc.cpg/sg9_4_cif.got.tgz:7208.got - 2010.06.27 21:40:51.
