data_PCOD8054175
_publ_section_title
;
Structure prediction by ZEFSAII (Michael W. Deem and Ramdas Pophale) SiO2 
 PCOD8054175
Probable space group: C C
;
_chemical_formula_sum "Si O2"
_cell_formula_units_Z 32
_cell_length_a 20.814671
_cell_length_b 9.516253
_cell_length_c 12.071427
_cell_angle_alpha 90.000000
_cell_angle_beta 41.907611
_cell_angle_gamma 90.000000
_cell_volume 1597.077596
_symmetry_space_group_name_H-M "C C"
_symmetry_group_IT_number 9
_symmetry_cell_setting 'monoclinic'
loop_
_space_group_symop_operation_xyz
x,y,z
x,-y,1/2+z
1/2+x,1/2+y,z
1/2+x,1/2-y,1/2+z
loop_
_atom_site_type_symbol
_atom_site_label
_atom_site_fract_x
_atom_site_fract_y
_atom_site_fract_z
Si Si1 0.122950 0.557992 0.787310
Si Si2 0.867222 0.263856 0.086235
Si Si3 0.461081 0.734240 0.206248
Si Si4 0.433814 0.424105 0.302792
Si Si5 0.240846 0.448504 0.455435
Si Si6 0.664068 0.173061 0.387775
Si Si7 0.083296 0.707295 0.053453
Si Si8 0.458420 0.006616 0.838620
O O1 0.222273 0.542468 0.590429
O O2 0.108288 0.403762 0.859519
O O3 0.039084 0.583158 0.807811
O O4 0.122294 0.684118 0.877964
O O5 0.750871 0.274009 0.239279
O O6 0.915894 0.232689 0.141750
O O7 0.906413 0.139636 0.957116
O O8 0.890385 0.416855 0.005786
O O9 0.441492 0.591816 0.298360
O O10 0.408506 0.862795 0.339011
O O11 0.578019 0.747584 0.060578
O O12 0.348935 0.389036 0.323174
O O13 0.534404 0.359695 0.128721
O O14 0.221085 0.549635 0.378092
O O15 0.170189 0.313110 0.530644
O O16 0.003194 0.589802 0.184220
#
# Coordination Sequence:
#
# PCOD8054175 Si02
#       8
#     4   4   4   4   4   4   4   4
#     4  10  16  35  65  85 111 165 216 248 303 381
#     4  11  23  39  64  91 124 175 209 258 327 371
#     4  12  23  41  62  94 133 160 217 271 309 375
#     4  11  24  38  62  98 127 161 212 268 316 376
#     4  10  19  38  64  89 119 172 215 250 318 392
#     4  11  20  38  64  90 122 166 209 259 317 378
#     4   9  20  36  60  90 121 163 212 258 310 380
#     4  10  19  37  61  87 119 168 214 250 312 381
#
# _framework density 20.036598000000001
#
# number of rings (size 3 to 8) (size 9 to 14) (size 15 to 20)
#    0.000    1.500    7.500    0.000    0.000    1.000 
#    0.000    6.250    0.000    0.000    0.000    0.000 
#    0.000    0.000    0.000    0.000    0.000    0.000 
#
# Total GULP energy -198238.544520 kJ/mol
# GULP energy per Si atom -12389.909032 kJ/mol
# Density = 1.999099 g / cm^3
# Si number density = 20.036598 Si / 1000 Ang^3
#
#
#
# Elastic Constant Matrix: (Units=GPa)
#
#
# Indices 1 2 3 4 5 6 
#
# 1 82.3871 34.8750 23.7991 0.0000 0.1209 0.0000
# 2 34.8750 112.3464 29.2202 -0.0001 0.9824 0.0000
# 3 23.7991 29.2202 69.7104 0.0000 -0.8179 0.0000
# 4 0.0000 -0.0001 0.0000 29.5619 0.0000 2.0941
# 5 0.1209 0.9824 -0.8179 0.0000 37.5885 0.0000
# 6 0.0000 0.0000 0.0000 2.0941 0.0000 26.1273
#
#
#
# Elastic Compliance Matrix: (Units=1/GPa)
#
#
# Indices 1 2 3 4 5 6 
#
# 1 0.014691 -0.003654 -0.003484 0.000000 -0.000028 0.000000
# 2 -0.003654 0.010904 -0.003327 0.000000 -0.000346 0.000000
# 3 -0.003484 -0.003327 0.016935 0.000000 0.000467 0.000000
# 4 0.000000 0.000000 0.000000 0.034020 0.000000 -0.002727
# 5 -0.000028 -0.000346 0.000467 0.000000 0.026623 0.000000
# 6 0.000000 0.000000 0.000000 -0.002727 0.000000 0.038493
#
#
# Mechanical properties :
#
#
# Convention : Reuss Voigt Hill
#
# Bulk Modulus (GPa) = 46.29867 48.91472 47.60669
# Shear Modulus (GPa) = 29.44715 30.42554 29.93634
#
# Velocity S-wave (km/s) = 3.83778 3.90102 3.86953
# Velocity P-wave (km/s) = 6.54181 6.69001 6.61633
#
# Compressibility (1/GPa) = 0.02159889
#
# Stress axis : x y z
#
# Youngs Moduli (GPa) = 68.06840 91.71218 59.05065
#
# Poissons Ratio (x) = 0.33512 0.20575
# Poissons Ratio (y) = 0.24872 0.19646
# Poissons Ratio (z) = 0.23716 0.30513
#
# Static dielectric constant tensor:
#      x y z
#    x 3.748900 0.000000 -0.010950 
#    y 0.000000 3.479780 0.000000 
#    z -0.010950 0.000000 3.765230 
# 
# 
# High freq. dielectric constant tensor:
#      x y z
#    x 1.782430 0.000000 0.008090 
#    y 0.000000 1.751610 0.000000 
#    z 0.008090 0.000000 1.780830 
# 
# From -- ./inp_files/19126.got.cif
#   From: 2010.06.25/outbox.cif.g09.slc.cpg/sg9_10_cif.got.tgz:19126.got - 2010.06.27 21:40:51.
