data_PCOD8054595
_publ_section_title
;
Structure prediction by ZEFSAII (Michael W. Deem and Ramdas Pophale) SiO2 
 PCOD8054595
Probable space group: C C
;
_chemical_formula_sum "Si O2"
_cell_formula_units_Z 32
_cell_length_a 11.830909
_cell_length_b 14.488737
_cell_length_c 17.125935
_cell_angle_alpha 90.000000
_cell_angle_beta 150.136453
_cell_angle_gamma 90.000000
_cell_volume 1461.761590
_symmetry_space_group_name_H-M "C C"
_symmetry_group_IT_number 9
_symmetry_cell_setting 'monoclinic'
loop_
_space_group_symop_operation_xyz
x,y,z
x,-y,1/2+z
1/2+x,1/2+y,z
1/2+x,1/2-y,1/2+z
loop_
_atom_site_type_symbol
_atom_site_label
_atom_site_fract_x
_atom_site_fract_y
_atom_site_fract_z
Si Si1 0.257890 0.732607 0.480620
Si Si2 0.716176 0.095860 0.688671
Si Si3 0.220738 0.082206 0.378149
Si Si4 0.814427 0.292557 0.795908
Si Si5 0.344446 0.451605 0.096473
Si Si6 0.401788 0.031511 0.249204
Si Si7 0.528967 0.442945 0.932746
Si Si8 0.112473 0.352896 0.750180
O O1 0.385127 0.632272 0.559979
O O2 0.126512 0.732796 0.319601
O O3 0.425019 0.819192 0.576038
O O4 0.078459 0.739075 0.444912
O O5 0.474333 0.041467 0.543231
O O6 0.669899 0.200720 0.690223
O O7 0.817175 0.096743 0.663175
O O8 0.897093 0.040787 0.849681
O O9 0.253810 0.177261 0.348424
O O10 0.112963 0.094352 0.399058
O O11 0.061875 0.018357 0.227921
O O12 0.777926 0.379829 0.715208
O O13 0.107270 0.504091 0.929100
O O14 0.517401 0.056549 0.235599
O O15 0.221157 0.953180 0.115453
O O16 0.353375 0.365260 0.853744
#
# Coordination Sequence:
#
# PCOD8054595 Si02
#       8
#     4   4   4   4   4   4   4   4
#     4  10  20  38  67  89 120 156 223 265 317 375
#     4  11  21  39  64  95 130 168 212 273 323 396
#     4  11  23  42  61  98 132 170 216 270 340 395
#     4  10  22  37  70  96 126 161 220 275 326 377
#     4   9  20  38  67  95 121 162 216 270 333 380
#     4  10  21  38  68  96 124 164 221 274 324 385
#     4  11  25  40  63  95 137 174 218 263 339 397
#     4  10  22  40  62  92 120 169 216 266 314 385
#
# _framework density 21.891393999999998
#
# number of rings (size 3 to 8) (size 9 to 14) (size 15 to 20)
#    0.000    2.000    2.500    3.000    5.250    3.000 
#    2.250    1.250    0.000    0.000    0.000    0.000 
#    0.000    0.000    0.000    0.000    0.000    0.000 
#
# Total GULP energy -198209.485677 kJ/mol
# GULP energy per Si atom -12388.092855 kJ/mol
# Density = 2.184157 g / cm^3
# Si number density = 21.891394 Si / 1000 Ang^3
#
#
#
# Elastic Constant Matrix: (Units=GPa)
#
#
# Indices 1 2 3 4 5 6 
#
# 1 87.1284 31.9200 13.0893 0.0071 12.1923 -0.0042
# 2 31.9200 53.3614 34.2017 0.0291 10.1482 0.0013
# 3 13.0893 34.2017 104.7260 0.0370 11.3737 -0.0002
# 4 0.0071 0.0291 0.0370 43.6580 0.0061 7.6729
# 5 12.1923 10.1482 11.3737 0.0061 30.2255 -0.0039
# 6 -0.0042 0.0013 -0.0002 7.6729 -0.0039 22.1613
#
#
#
# Elastic Compliance Matrix: (Units=1/GPa)
#
#
# Indices 1 2 3 4 5 6 
#
# 1 0.015187 -0.009409 0.001561 0.000003 -0.003554 0.000002
# 2 -0.009409 0.030361 -0.008387 -0.000011 -0.003242 0.000000
# 3 0.001561 -0.008387 0.012360 -0.000005 -0.002465 0.000002
# 4 0.000003 -0.000011 -0.000005 0.024389 -0.000001 -0.008444
# 5 -0.003554 -0.003242 -0.002465 -0.000001 0.036534 0.000006
# 6 0.000002 0.000000 0.000002 -0.008444 0.000006 0.048047
#
#
# Mechanical properties :
#
#
# Convention : Reuss Voigt Hill
#
# Bulk Modulus (GPa) = 39.31234 44.84865 42.08049
# Shear Modulus (GPa) = 24.05806 30.27595 27.16700
#
# Velocity S-wave (km/s) = 3.31867 3.72291 3.52659
# Velocity P-wave (km/s) = 5.71679 6.24592 5.98720
#
# Compressibility (1/GPa) = 0.02543731
#
# Stress axis : x y z
#
# Youngs Moduli (GPa) = 65.84426 32.93706 80.90316
#
# Poissons Ratio (x) = 0.30991 -0.12626
# Poissons Ratio (y) = 0.61954 0.67855
# Poissons Ratio (z) = -0.10276 0.27625
#
# Static dielectric constant tensor:
#      x y z
#    x 3.852730 0.000000 -0.080150 
#    y 0.000000 3.623050 -0.000010 
#    z -0.080150 -0.000010 4.282460 
# 
# 
# High freq. dielectric constant tensor:
#      x y z
#    x 1.849210 0.000000 -0.008700 
#    y 0.000000 1.816010 0.000000 
#    z -0.008700 0.000000 1.876880 
# 
# From -- ./inp_files/7382.got.cif
#   From: 2010.06.25/outbox.cif.g09.slc.cpg/sg9_4_cif.got.tgz:7382.got - 2010.06.27 21:40:51.
