data_PCOD8054096
_publ_section_title
;
Structure prediction by ZEFSAII (Michael W. Deem and Ramdas Pophale) SiO2 
 PCOD8054096
Probable space group: C M
;
_chemical_formula_sum "Si O2"
_cell_formula_units_Z 32
_cell_length_a 26.040831
_cell_length_b 9.348142
_cell_length_c 19.963172
_cell_angle_alpha 90.000000
_cell_angle_beta 20.561240
_cell_angle_gamma 90.000000
_cell_volume 1706.768035
_symmetry_space_group_name_H-M "C M"
_symmetry_group_IT_number 8
_symmetry_cell_setting 'monoclinic'
loop_
_space_group_symop_operation_xyz
x,y,z
x,-y,z
1/2+x,1/2+y,z
1/2+x,1/2-y,z
loop_
_atom_site_type_symbol
_atom_site_label
_atom_site_fract_x
_atom_site_fract_y
_atom_site_fract_z
Si Si1 0.850190 0.665176 0.475420
Si Si2 0.174065 0.166275 0.348353
Si Si3 0.978057 0.341563 0.030601
Si Si4 0.294561 0.833146 0.054637
Si Si5 0.600784 0.841706 0.731668
Si Si6 0.734645 0.666923 0.758816
Si Si7 0.185584 0.668488 0.061864
Si Si8 0.882993 0.669647 0.715143
O O1 0.812153 0.500000 0.517338
O O2 0.742752 0.740966 0.553203
O O3 0.820493 0.719517 0.587633
O O4 0.015956 0.697554 0.253162
O O5 0.308509 0.205430 0.233741
O O6 0.216720 0.198522 0.219916
O O7 0.043829 0.268615 0.530210
O O8 0.130279 0.000000 0.409959
O O9 0.989916 0.500000 0.047114
O O10 0.039149 0.340903 0.881413
O O11 0.074160 0.238263 0.959875
O O12 0.220194 0.728175 0.092865
O O13 0.275883 0.000000 0.057597
O O14 0.467484 0.793210 0.846443
O O15 0.652519 0.000000 0.648198
O O16 0.705877 0.500000 0.792962
O O17 0.831783 0.711983 0.703311
O O18 0.222200 0.500000 0.014646
O O19 0.275395 0.755951 0.898199
O O20 0.883448 0.500000 0.726738
#
# Coordination Sequence:
#
# PCOD8054096 Si02
#       8
#     4   4   4   4   4   4   4   4
#     4   9  18  33  53  77 103 131 167 211 256 304
#     4   9  18  34  56  81 107 135 170 211 255 306
#     4   8  15  29  51  79 106 130 161 204 252 303
#     4   9  18  34  56  81 107 135 170 211 255 306
#     4   8  15  29  51  79 106 130 161 204 252 303
#     4   9  18  33  53  77 103 131 167 211 256 304
#     4  11  23  37  52  73 104 140 178 217 258 305
#     4  11  23  37  52  73 104 140 178 217 258 305
#
# _framework density 18.748885999999999
#
# number of rings (size 3 to 8) (size 9 to 14) (size 15 to 20)
#    0.000    2.750    0.000    3.000    0.000    4.500 
#    0.000    6.250    0.000    3.000    0.000    0.000 
#    0.000    0.000    0.000    0.000    0.000    0.000 
#
# Total GULP energy -198355.542100 kJ/mol
# GULP energy per Si atom -12397.221381 kJ/mol
# Density = 1.870621 g / cm^3
# Si number density = 18.748886 Si / 1000 Ang^3
#
#
#
# Elastic Constant Matrix: (Units=GPa)
#
#
# Indices 1 2 3 4 5 6 
#
# 1 17.8423 23.9905 30.1363 0.0001 -10.0372 -0.0001
# 2 23.9905 71.4677 57.6886 0.0007 -9.9668 -0.0005
# 3 30.1363 57.6886 116.3106 0.0003 -17.8660 -0.0002
# 4 0.0001 0.0007 0.0003 33.2557 -0.0001 -7.2607
# 5 -10.0372 -9.9668 -17.8660 -0.0001 27.3231 0.0000
# 6 -0.0001 -0.0005 -0.0002 -7.2607 0.0000 30.9032
#
#
#
# Elastic Compliance Matrix: (Units=1/GPa)
#
#
# Indices 1 2 3 4 5 6 
#
# 1 0.142149 -0.029224 -0.017734 0.000000 0.029963 0.000000
# 2 -0.029224 0.029370 -0.007780 0.000000 -0.005109 0.000000
# 3 -0.017734 -0.007780 0.017358 0.000000 0.001998 0.000000
# 4 0.000000 0.000000 0.000000 0.031696 0.000000 0.007447
# 5 0.029963 -0.005109 0.001998 0.000000 0.047048 0.000000
# 6 0.000000 0.000000 0.000000 0.007447 0.000000 0.034109
#
#
# Mechanical properties :
#
#
# Convention : Reuss Voigt Hill
#
# Bulk Modulus (GPa) = 12.59415 47.69460 30.14438
# Shear Modulus (GPa) = 11.42406 24.55008 17.98707
#
# Velocity S-wave (km/s) = 2.47112 3.62251 3.10073
# Velocity P-wave (km/s) = 3.85665 6.55672 5.37887
#
# Compressibility (1/GPa) = 0.07940192
#
# Stress axis : x y z
#
# Youngs Moduli (GPa) = 7.03485 34.04886 57.60969
#
# Poissons Ratio (x) = 0.99503 1.02166
# Poissons Ratio (y) = 0.20558 0.44819
# Poissons Ratio (z) = 0.12476 0.26489
#
# Static dielectric constant tensor:
#      x y z
#    x 3.393670 0.000000 -0.277960 
#    y 0.000000 3.484150 0.000000 
#    z -0.277960 0.000000 3.469750 
# 
# 
# High freq. dielectric constant tensor:
#      x y z
#    x 1.712470 0.000000 -0.023100 
#    y 0.000000 1.726230 0.000000 
#    z -0.023100 0.000000 1.724630 
# 
# From -- ./inp_files/16556.got.cif
#   From: 2010.03.12/outbox.cif.g09.slc.cpg/sg8_9_cif.got.tgz:16556.got - 2010.03.31 10:45:26.
