data_PCOD8054382
_publ_section_title
;
Structure prediction by ZEFSAII (Michael W. Deem and Ramdas Pophale) SiO2 
 PCOD8054382
Probable space group: C C
;
_chemical_formula_sum "Si O2"
_cell_formula_units_Z 24
_cell_length_a 8.512456
_cell_length_b 24.803336
_cell_length_c 5.216386
_cell_angle_alpha 90.000000
_cell_angle_beta 89.904445
_cell_angle_gamma 90.000000
_cell_volume 1101.372157
_symmetry_space_group_name_H-M "C C"
_symmetry_group_IT_number 9
_symmetry_cell_setting 'monoclinic'
loop_
_space_group_symop_operation_xyz
x,y,z
x,-y,1/2+z
1/2+x,1/2+y,z
1/2+x,1/2-y,1/2+z
loop_
_atom_site_type_symbol
_atom_site_label
_atom_site_fract_x
_atom_site_fract_y
_atom_site_fract_z
Si Si1 0.402760 0.326148 0.910780
Si Si2 0.972772 0.526308 0.431461
Si Si3 0.400582 0.199791 0.885954
Si Si4 0.082585 0.143353 0.901852
Si Si5 0.125487 0.020414 0.916122
Si Si6 0.545725 0.850054 0.891615
O O1 0.411474 0.262454 0.944351
O O2 0.514727 0.344519 0.681239
O O3 0.230352 0.346740 0.843100
O O4 0.452546 0.352483 0.180420
O O5 0.054017 0.497147 0.674987
O O6 0.788606 0.512491 0.431781
O O7 0.993170 0.589819 0.456864
O O8 0.220163 0.184964 0.832960
O O9 0.501157 0.187476 0.631987
O O10 0.460282 0.167737 0.132742
O O11 0.155434 0.083781 0.903670
O O12 0.029800 0.997630 0.670699
#
# Coordination Sequence:
#
# PCOD8054382 Si02
#       6
#     4   4   4   4   4   4
#     4  12  26  43  63 101 141 170 211 275 339 381
#     4  10  20  38  63  92 119 159 218 268 308 375
#     4  12  23  43  70  96 129 182 226 259 313 401
#     4  12  25  43  68  99 133 173 220 273 325 388
#     4  10  19  37  63  92 119 158 216 268 309 375
#     4  12  25  44  69  98 133 174 219 273 326 388
#
# _framework density 21.791003
#
# number of rings (size 3 to 8) (size 9 to 14) (size 15 to 20)
#    0.000    0.667    0.000   11.000    0.000    0.000 
#    0.000    5.000    0.000    0.000    0.000    0.000 
#    0.000    0.000    0.000    0.000    0.000    0.000 
#
# Total GULP energy -148832.373021 kJ/mol
# GULP energy per Si atom -12402.697752 kJ/mol
# Density = 2.174141 g / cm^3
# Si number density = 21.791003 Si / 1000 Ang^3
#
#
#
# Elastic Constant Matrix: (Units=GPa)
#
#
# Indices 1 2 3 4 5 6 
#
# 1 67.0203 29.2230 5.5074 0.0000 -0.1086 0.0000
# 2 29.2230 106.6213 15.9466 0.0000 3.8961 0.0000
# 3 5.5074 15.9466 158.4069 0.0000 6.4164 0.0000
# 4 0.0000 0.0000 0.0000 35.0734 0.0000 2.8227
# 5 -0.1086 3.8961 6.4164 0.0000 24.3573 0.0000
# 6 0.0000 0.0000 0.0000 2.8227 0.0000 11.2647
#
#
#
# Elastic Compliance Matrix: (Units=1/GPa)
#
#
# Indices 1 2 3 4 5 6 
#
# 1 0.016966 -0.004658 -0.000156 0.000000 0.000862 0.000000
# 2 -0.004658 0.010841 -0.000868 0.000000 -0.001526 0.000000
# 3 -0.000156 -0.000868 0.006469 0.000000 -0.001566 0.000000
# 4 0.000000 0.000000 0.000000 0.029098 0.000000 -0.007291
# 5 0.000862 -0.001526 -0.001566 0.000000 0.041716 0.000000
# 6 0.000000 0.000000 0.000000 -0.007291 0.000000 0.090600
#
#
# Mechanical properties :
#
#
# Convention : Reuss Voigt Hill
#
# Bulk Modulus (GPa) = 43.64319 48.15579 45.89949
# Shear Modulus (GPa) = 23.28916 32.89719 28.09317
#
# Velocity S-wave (km/s) = 3.27272 3.88966 3.59445
# Velocity P-wave (km/s) = 5.86110 6.50535 6.19161
#
# Compressibility (1/GPa) = 0.02291308
#
# Stress axis : x y z
#
# Youngs Moduli (GPa) = 58.94059 92.23998 154.58221
#
# Poissons Ratio (x) = 0.42968 0.02409
# Poissons Ratio (y) = 0.27456 0.13411
# Poissons Ratio (z) = 0.00918 0.08003
#
# Static dielectric constant tensor:
#      x y z
#    x 3.664970 0.000000 -0.132800 
#    y 0.000000 3.986770 0.000000 
#    z -0.132800 0.000000 6.792970 
# 
# 
# High freq. dielectric constant tensor:
#      x y z
#    x 1.826610 0.000000 0.000280 
#    y 0.000000 1.872430 0.000000 
#    z 0.000280 0.000000 1.892420 
# 
# From -- ./inp_files/684.got.cif
#   From: 2010.06.25/outbox.cif.g09.slc.cpg/sg9_1_cif.got.tgz:684.got - 2010.06.27 21:40:51.
