data_PCOD8054271
_publ_section_title
;
Structure prediction by ZEFSAII (Michael W. Deem and Ramdas Pophale) SiO2 
 PCOD8054271
Probable space group: C C
;
_chemical_formula_sum "Si O2"
_cell_formula_units_Z 32
_cell_length_a 18.272672
_cell_length_b 13.276177
_cell_length_c 12.161657
_cell_angle_alpha 90.000000
_cell_angle_beta 29.677540
_cell_angle_gamma 90.000000
_cell_volume 1460.752603
_symmetry_space_group_name_H-M "C C"
_symmetry_group_IT_number 9
_symmetry_cell_setting 'monoclinic'
loop_
_space_group_symop_operation_xyz
x,y,z
x,-y,1/2+z
1/2+x,1/2+y,z
1/2+x,1/2-y,1/2+z
loop_
_atom_site_type_symbol
_atom_site_label
_atom_site_fract_x
_atom_site_fract_y
_atom_site_fract_z
Si Si1 0.404200 0.459223 0.991500
Si Si2 0.051597 0.153271 0.503011
Si Si3 0.578478 0.356976 0.567729
Si Si4 0.239355 0.853037 0.144217
Si Si5 0.810113 0.274798 0.415416
Si Si6 0.617381 0.140687 0.805322
Si Si7 0.334758 0.937351 0.569333
Si Si8 0.468261 0.324692 0.355289
O O1 0.493666 0.431304 0.762233
O O2 0.407599 0.579013 0.000965
O O3 0.470160 0.401558 0.009045
O O4 0.233530 0.430176 0.214601
O O5 0.067908 0.270866 0.451956
O O6 0.201882 0.089851 0.327312
O O7 0.962187 0.152122 0.733322
O O8 0.626799 0.394909 0.385346
O O9 0.739340 0.329075 0.404436
O O10 0.473186 0.263446 0.675720
O O11 0.138621 0.809462 0.175362
O O12 0.325164 0.958672 0.011014
O O13 0.360503 0.769562 0.021472
O O14 0.695403 0.186062 0.595541
O O15 0.827770 0.346282 0.494991
O O16 0.484337 0.067524 0.944131
#
# Coordination Sequence:
#
# PCOD8054271 Si02
#       8
#     4   4   4   4   4   4   4   4
#     4  11  23  44  72 101 131 179 229 278 343 398
#     4  11  22  46  73 100 137 175 226 285 340 405
#     4  11  20  41  68  96 129 173 219 278 330 400
#     4  12  28  46  66  96 143 187 221 272 345 408
#     4  10  18  37  68 100 128 158 220 282 329 385
#     4  10  21  38  71 108 126 162 230 289 331 387
#     4  11  21  42  69 102 131 170 229 274 338 395
#     4  12  29  48  65  97 145 186 224 274 348 410
#
# _framework density 21.906514999999999
#
# number of rings (size 3 to 8) (size 9 to 14) (size 15 to 20)
#    0.000    1.000    5.000    3.000    5.250    0.000 
#    0.000    0.000    0.000    0.000    0.000    0.000 
#    0.000    0.000    0.000    0.000    0.000    0.000 
#
# Total GULP energy -198263.820261 kJ/mol
# GULP energy per Si atom -12391.488766 kJ/mol
# Density = 2.185665 g / cm^3
# Si number density = 21.906515 Si / 1000 Ang^3
#
#
#
# Elastic Constant Matrix: (Units=GPa)
#
#
# Indices 1 2 3 4 5 6 
#
# 1 96.4340 22.8864 44.7037 0.0000 -28.1003 0.0000
# 2 22.8864 99.7469 22.8665 0.0000 -31.0170 0.0000
# 3 44.7037 22.8665 72.8391 0.0000 -16.8675 0.0000
# 4 0.0000 0.0000 0.0000 24.4923 0.0000 -9.9816
# 5 -28.1003 -31.0170 -16.8675 0.0000 44.0966 0.0000
# 6 0.0000 0.0000 0.0000 -9.9816 0.0000 31.7433
#
#
#
# Elastic Compliance Matrix: (Units=1/GPa)
#
#
# Indices 1 2 3 4 5 6 
#
# 1 0.016373 0.000539 -0.008463 0.000000 0.007575 0.000000
# 2 0.000539 0.013157 -0.002456 0.000000 0.008659 0.000000
# 3 -0.008463 -0.002456 0.019799 0.000000 0.000452 0.000000
# 4 0.000000 0.000000 0.000000 0.046831 0.000000 0.014726
# 5 0.007575 0.008659 0.000452 0.000000 0.033768 0.000000
# 6 0.000000 0.000000 0.000000 0.014726 0.000000 0.036133
#
#
# Mechanical properties :
#
#
# Convention : Reuss Voigt Hill
#
# Bulk Modulus (GPa) = 35.00448 49.99257 42.49852
# Shear Modulus (GPa) = 25.46544 31.97064 28.71804
#
# Velocity S-wave (km/s) = 3.41318 3.82437 3.62461
# Velocity P-wave (km/s) = 5.61666 6.50934 6.07940
#
# Compressibility (1/GPa) = 0.02856777
#
# Stress axis : x y z
#
# Youngs Moduli (GPa) = 61.07785 76.00380 50.50752
#
# Poissons Ratio (x) = -0.04098 0.42747
# Poissons Ratio (y) = -0.03293 0.12406
# Poissons Ratio (z) = 0.51693 0.18669
#
# Static dielectric constant tensor:
#      x y z
#    x 4.017280 0.000000 -0.333980 
#    y 0.000000 3.925140 0.000000 
#    z -0.333980 0.000000 4.347690 
# 
# 
# High freq. dielectric constant tensor:
#      x y z
#    x 1.868340 0.000000 -0.014450 
#    y 0.000000 1.861090 0.000000 
#    z -0.014450 0.000000 1.847530 
# 
# From -- ./inp_files/7412.got.cif
#   From: 2010.06.25/outbox.cif.g09.slc.cpg/sg9_4_cif.got.tgz:7412.got - 2010.06.27 21:40:51.
