data_PCOD8054160
_publ_section_title
;
Structure prediction by ZEFSAII (Michael W. Deem and Ramdas Pophale) SiO2 
 PCOD8054160
Probable space group: C M
;
_chemical_formula_sum "Si O2"
_cell_formula_units_Z 16
_cell_length_a 9.000000
_cell_length_b 15.000000
_cell_length_c 24.000000
_cell_angle_alpha 90.000000
_cell_angle_beta 30.000000
_cell_angle_gamma 90.000000
_cell_volume 1620.000000
_symmetry_space_group_name_H-M "C M"
_symmetry_group_IT_number 8
_symmetry_cell_setting 'monoclinic'
loop_
_space_group_symop_operation_xyz
x,y,z
x,-y,z
1/2+x,1/2+y,z
1/2+x,1/2-y,z
loop_
_atom_site_type_symbol
_atom_site_label
_atom_site_fract_x
_atom_site_fract_y
_atom_site_fract_z
Si Si1 0.279070 0.758612 0.834460
Si Si2 0.216884 0.897414 0.670212
Si Si3 0.119786 0.748085 0.013851
Si Si4 0.087028 0.399085 0.659495
Si Si5 0.637351 0.654615 0.413220
Si Si6 0.767160 0.844692 0.420506
Si Si7 0.122224 0.899222 0.197917
Si Si8 0.304474 0.399185 0.188105
O O1 0.425398 0.666032 0.763896
O O2 0.503025 0.835756 0.738944
O O3 0.203208 0.763310 0.923379
O O4 0.947518 0.776114 0.924443
O O5 0.381615 0.872708 0.674028
O O6 0.445889 0.884712 0.543664
O O7 0.108915 0.000000 0.704446
O O8 0.903784 0.666451 0.101219
O O9 0.972390 0.835759 0.089431
O O10 0.031711 0.500000 0.697134
O O11 0.429594 0.391765 0.527514
O O12 0.710017 0.750143 0.412941
O O13 0.477031 0.659668 0.405914
O O14 0.946889 0.604477 0.302139
O O15 0.940514 0.897500 0.315366
O O16 0.901123 0.873117 0.219373
O O17 0.242291 0.000000 0.151859
O O18 0.400184 0.500000 0.142168
#
# Coordination Sequence:
#
# PCOD8054160 Si02
#       8
#     4   4   4   4   4   4   4   4
#     4  12  24  43  67  92 128 168 222 264 309 378
#     4  10  22  42  68  96 129 169 211 260 320 385
#     4  12  26  43  65  94 126 172 220 265 314 372
#     4  10  22  42  67  97 130 167 210 262 321 382
#     4  11  22  39  69  99 132 167 208 264 329 385
#     4  11  22  39  69 100 130 167 211 263 326 388
#     4  11  25  45  68  96 129 170 216 266 324 387
#     4  11  25  45  67  96 132 168 212 270 327 379
#
# _framework density 9.8765429999999999
#
# number of rings (size 3 to 8) (size 9 to 14) (size 15 to 20)
#    0.000    1.000    5.000    1.500    1.750    3.500 
#    2.250    0.000    0.000    0.000    0.000    0.000 
#    0.000    0.000    0.000    0.000    0.000    0.000 
#
# Total GULP energy -198229.795426 kJ/mol
# GULP energy per Si atom -12389.362214 kJ/mol
# Density = 0.985406 g / cm^3
# Si number density = 9.876543 Si / 1000 Ang^3
#
#
#
# Elastic Constant Matrix: (Units=GPa)
#
#
# Indices 1 2 3 4 5 6 
#
# 1 94.9276 30.1018 53.6296 0.0101 12.0035 0.0754
# 2 30.1018 133.2664 58.0713 0.1595 10.0088 0.0631
# 3 53.6296 58.0713 180.8132 0.1466 21.8459 0.2248
# 4 0.0101 0.1595 0.1466 35.6967 0.0612 2.7971
# 5 12.0035 10.0088 21.8459 0.0612 45.6443 -0.1396
# 6 0.0754 0.0631 0.2248 2.7971 -0.1396 16.5850
#
#
#
# Elastic Compliance Matrix: (Units=1/GPa)
#
#
# Indices 1 2 3 4 5 6 
#
# 1 0.012996 -0.001419 -0.003209 0.000021 -0.001571 -0.000027
# 2 -0.001419 0.008896 -0.002383 -0.000029 -0.000437 0.000006
# 3 -0.003209 -0.002383 0.007518 -0.000008 -0.002232 -0.000096
# 4 0.000021 -0.000029 -0.000008 0.028389 -0.000048 -0.004788
# 5 -0.001571 -0.000437 -0.002232 -0.000048 0.023486 0.000245
# 6 -0.000027 0.000006 -0.000096 -0.004788 0.000245 0.061106
#
#
# Mechanical properties :
#
#
# Convention : Reuss Voigt Hill
#
# Bulk Modulus (GPa) = 64.99337 76.95694 70.97516
# Shear Modulus (GPa) = 30.95151 37.39882 34.17517
#
# Velocity S-wave (km/s) = 3.96273 4.35594 4.16398
# Velocity P-wave (km/s) = 7.34248 8.02141 7.68944
#
# Compressibility (1/GPa) = 0.01538618
#
# Stress axis : x y z
#
# Youngs Moduli (GPa) = 76.94697 112.41407 133.02136
#
# Poissons Ratio (x) = 0.15954 0.42687
# Poissons Ratio (y) = 0.10920 0.31703
# Poissons Ratio (z) = 0.24693 0.26792
#
# Static dielectric constant tensor:
#      x y z
#    x 3.578960 -0.000040 0.086010 
#    y -0.000040 3.674260 0.000040 
#    z 0.086010 0.000040 4.255660 
# 
# 
# High freq. dielectric constant tensor:
#      x y z
#    x 1.770250 0.000000 0.008360 
#    y 0.000000 1.782030 -0.000010 
#    z 0.008360 -0.000010 1.807200 
# 
# From -- ./inp_files/18869.got.cif
#   From: 2010.03.12/outbox.ucp.g09.slc.cvg/sg8_10_cif.got.tgz:18869.got - 2010.06.21 13:25:46.
