data_PCOD8054510
_publ_section_title
;
Structure prediction by ZEFSAII (Michael W. Deem and Ramdas Pophale) SiO2 
 PCOD8054510
Probable space group: C C
;
_chemical_formula_sum "Si O2"
_cell_formula_units_Z 28
_cell_length_a 8.755567
_cell_length_b 11.620129
_cell_length_c 16.050813
_cell_angle_alpha 90.000000
_cell_angle_beta 57.146755
_cell_angle_gamma 90.000000
_cell_volume 1371.841793
_symmetry_space_group_name_H-M "C C"
_symmetry_group_IT_number 9
_symmetry_cell_setting 'monoclinic'
loop_
_space_group_symop_operation_xyz
x,y,z
x,-y,1/2+z
1/2+x,1/2+y,z
1/2+x,1/2-y,1/2+z
loop_
_atom_site_type_symbol
_atom_site_label
_atom_site_fract_x
_atom_site_fract_y
_atom_site_fract_z
Si Si1 0.478540 0.287100 0.859000
Si Si2 0.820225 0.642278 0.347484
Si Si3 0.640741 0.888953 0.049299
Si Si4 0.010877 0.158420 0.162762
Si Si5 0.421240 0.226278 0.488706
Si Si6 0.720199 0.593439 0.954404
Si Si7 0.178712 0.614929 0.145849
O O1 0.672602 0.279472 0.845695
O O2 0.500774 0.356155 0.765092
O O3 0.408728 0.155395 0.872506
O O4 0.338316 0.353259 0.958877
O O5 0.915292 0.712177 0.392554
O O6 0.720110 0.531660 0.415176
O O7 0.973185 0.613706 0.236236
O O8 0.548225 0.794511 0.137384
O O9 0.679938 0.007773 0.082672
O O10 0.500901 0.889178 0.010644
O O11 0.821384 0.109189 0.180504
O O12 0.177754 0.089039 0.067480
O O13 0.554088 0.333551 0.466174
O O14 0.224221 0.267080 0.581787
#
# Coordination Sequence:
#
# PCOD8054510 Si02
#       7
#     4   4   4   4   4   4   4
#     4  10  20  36  58  86 116 147 189 235 279 333
#     4  12  23  36  60  88 113 148 190 232 284 338
#     4   9  19  38  62  81 112 155 189 229 282 335
#     4   9  19  38  58  82 116 151 188 233 279 333
#     4   9  22  40  57  83 117 148 188 236 276 332
#     4   9  21  41  59  78 115 153 186 232 280 332
#     4  10  20  37  60  84 113 150 190 231 284 337
#
# _framework density 20.410518
#
# number of rings (size 3 to 8) (size 9 to 14) (size 15 to 20)
#    0.000    2.857    0.000    4.286    0.000    5.714 
#    0.000    8.571    0.000    0.000    0.000    0.000 
#    0.000    0.000    0.000    0.000    0.000    0.000 
#
# Total GULP energy -173434.125566 kJ/mol
# GULP energy per Si atom -12388.151826 kJ/mol
# Density = 2.036406 g / cm^3
# Si number density = 20.410518 Si / 1000 Ang^3
#
#
#
# Elastic Constant Matrix: (Units=GPa)
#
#
# Indices 1 2 3 4 5 6 
#
# 1 93.0024 22.4641 29.2032 0.0000 2.1531 0.0000
# 2 22.4641 51.8101 11.5685 0.0000 -2.0078 0.0000
# 3 29.2032 11.5685 74.9699 0.0000 -11.8317 0.0000
# 4 0.0000 0.0000 0.0000 22.1092 0.0000 -4.4486
# 5 2.1531 -2.0078 -11.8317 0.0000 30.3858 0.0000
# 6 0.0000 0.0000 0.0000 -4.4486 0.0000 24.6763
#
#
#
# Elastic Compliance Matrix: (Units=1/GPa)
#
#
# Indices 1 2 3 4 5 6 
#
# 1 0.013597 -0.004893 -0.005055 0.000000 -0.003255 0.000000
# 2 -0.004893 0.021751 -0.001245 0.000000 0.001299 0.000000
# 3 -0.005055 -0.001245 0.016561 0.000000 0.006725 0.000000
# 4 0.000000 0.000000 0.000000 0.046932 0.000000 0.008461
# 5 -0.003255 0.001299 0.006725 0.000000 0.035845 0.000000
# 6 0.000000 0.000000 0.000000 0.008461 0.000000 0.042050
#
#
# Mechanical properties :
#
#
# Convention : Reuss Voigt Hill
#
# Bulk Modulus (GPa) = 33.87253 38.47266 36.17260
# Shear Modulus (GPa) = 23.92750 25.87070 24.89910
#
# Velocity S-wave (km/s) = 3.42762 3.56408 3.49652
# Velocity P-wave (km/s) = 5.68299 5.98559 5.83625
#
# Compressibility (1/GPa) = 0.02952245
#
# Stress axis : x y z
#
# Youngs Moduli (GPa) = 73.54596 45.97459 60.38170
#
# Poissons Ratio (x) = 0.22495 0.30524
# Poissons Ratio (y) = 0.35985 0.07520
# Poissons Ratio (z) = 0.37179 0.05726
#
# Static dielectric constant tensor:
#      x y z
#    x 3.680080 0.000000 -0.060820 
#    y 0.000000 3.497470 0.000000 
#    z -0.060820 0.000000 3.943630 
# 
# 
# High freq. dielectric constant tensor:
#      x y z
#    x 1.792900 0.000000 -0.006550 
#    y 0.000000 1.771390 0.000000 
#    z -0.006550 0.000000 1.812890 
# 
# From -- ./inp_files/22587.got.cif
#   From: 2010.06.25/outbox.cif.g09.slc.cpg/sg9_12_cif.got.tgz:22587.got - 2010.06.27 21:40:51.
