data_PCOD8054817
_publ_section_title
;
Structure prediction by ZEFSAII (Michael W. Deem and Ramdas Pophale) SiO2 
 PCOD8054817
Probable space group: C C
;
_chemical_formula_sum "Si O2"
_cell_formula_units_Z 32
_cell_length_a 17.212719
_cell_length_b 17.298922
_cell_length_c 5.252074
_cell_angle_alpha 90.000000
_cell_angle_beta 64.167531
_cell_angle_gamma 90.000000
_cell_volume 1407.591386
_symmetry_space_group_name_H-M "C C"
_symmetry_group_IT_number 9
_symmetry_cell_setting 'monoclinic'
loop_
_space_group_symop_operation_xyz
x,y,z
x,-y,1/2+z
1/2+x,1/2+y,z
1/2+x,1/2-y,1/2+z
loop_
_atom_site_type_symbol
_atom_site_label
_atom_site_fract_x
_atom_site_fract_y
_atom_site_fract_z
Si Si1 0.490460 0.703558 0.849180
Si Si2 0.194727 0.701440 0.557389
Si Si3 0.744101 0.534687 0.398653
Si Si4 0.432321 0.534254 0.869239
Si Si5 0.439498 0.965665 0.524861
Si Si6 0.740581 0.969241 0.065447
Si Si7 0.992517 0.297335 0.343151
Si Si8 0.192663 0.204420 0.563503
O O1 0.437039 0.624569 0.923833
O O2 0.468113 0.746232 0.620360
O O3 0.591617 0.685544 0.724467
O O4 0.460512 0.754294 0.133633
O O5 0.246682 0.621261 0.493655
O O6 0.093508 0.683241 0.685622
O O7 0.224875 0.749724 0.267458
O O8 0.217551 0.747319 0.779459
O O9 0.698362 0.485573 0.693038
O O10 0.841753 0.506301 0.212533
O O11 0.742655 0.624266 0.473480
O O12 0.478470 0.512125 0.536758
O O13 0.333541 0.507068 0.991345
O O14 0.441360 0.876561 0.444486
O O15 0.484996 0.015513 0.232148
O O16 0.691445 0.985937 0.403806
#
# Coordination Sequence:
#
# PCOD8054817 Si02
#       8
#     4   4   4   4   4   4   4   4
#     4  10  21  38  59  83 122 149 200 243 285 358
#     4  10  21  38  59  83 122 149 200 243 285 358
#     4  10  21  38  58  84 116 144 191 243 291 350
#     4  10  21  38  56  81 119 157 192 242 289 349
#     4  10  21  38  58  84 116 144 191 243 291 350
#     4  10  21  38  56  81 119 157 192 242 289 349
#     4  10  21  38  59  88 112 157 195 242 297 347
#     4  10  21  38  59  88 112 157 195 242 297 347
#
# _framework density 22.73387
#
# number of rings (size 3 to 8) (size 9 to 14) (size 15 to 20)
#    0.000    2.000    0.000    3.000    0.000    2.000 
#   13.500    0.000    0.000    0.000    0.000    0.000 
#    0.000    0.000    0.000    0.000    0.000    0.000 
#
# Total GULP energy -198341.783632 kJ/mol
# GULP energy per Si atom -12396.361477 kJ/mol
# Density = 2.268213 g / cm^3
# Si number density = 22.733870 Si / 1000 Ang^3
#
#
#
# Elastic Constant Matrix: (Units=GPa)
#
#
# Indices 1 2 3 4 5 6 
#
# 1 29.2472 31.4178 41.8437 0.0000 13.2334 0.0000
# 2 31.4178 175.2609 78.9787 0.0000 17.7363 0.0000
# 3 41.8437 78.9787 193.7501 0.0000 62.5951 0.0000
# 4 0.0000 0.0000 0.0000 46.4180 0.0000 12.0566
# 5 13.2334 17.7363 62.5951 0.0000 30.2784 0.0000
# 6 0.0000 0.0000 0.0000 12.0566 0.0000 -0.7448
#
#
#
# Elastic Compliance Matrix: (Units=1/GPa)
#
#
# Indices 1 2 3 4 5 6 
#
# 1 0.053353 -0.005505 -0.008391 0.000000 -0.002746 0.000000
# 2 -0.005505 0.007865 -0.003932 0.000000 0.005928 0.000000
# 3 -0.008391 -0.003932 0.020016 0.000000 -0.035408 0.000000
# 4 0.000000 0.000000 0.000000 0.004139 0.000000 0.067005
# 5 -0.002746 0.005928 -0.035408 0.000000 0.103954 0.000000
# 6 0.000000 0.000000 0.000000 0.067005 0.000000 -0.257970
#
#
# Mechanical properties :
#
#
# Convention : Reuss Voigt Hill
#
# Bulk Modulus (GPa) = 21.94124 78.08207 50.01166
# Shear Modulus (GPa) = -280.99619 31.59151 -124.70234
#
# Velocity S-wave (km/s) = -11.12972 3.73181 -7.41432
# Velocity P-wave (km/s) = 12.46951 7.27937 7.15889
#
# Compressibility (1/GPa) = 0.04557627
#
# Stress axis : x y z
#
# Youngs Moduli (GPa) = 18.74320 127.15064 49.96045
#
# Poissons Ratio (x) = 0.69995 0.41923
# Poissons Ratio (y) = 0.10318 0.19646
# Poissons Ratio (z) = 0.15728 0.49999
#
# Static dielectric constant tensor:
#      x y z
#    x 3.983700 0.000000 1.120110 
#    y 0.000000 3.897680 0.000000 
#    z 1.120110 0.000000 6.760760 
# 
# 
# High freq. dielectric constant tensor:
#      x y z
#    x 1.865400 0.000000 0.027180 
#    y 0.000000 1.898480 0.000000 
#    z 0.027180 0.000000 1.927600 
# 
# From -- ./inp_files/2919.got.cif
#   From: 2010.06.25/outbox.cif.g09.slc.cpg/sg9_2_cif.got.tgz:2919.got - 2010.06.27 21:40:51.
