data_PCOD8054141
_publ_section_title
;
Structure prediction by ZEFSAII (Michael W. Deem and Ramdas Pophale) SiO2 
 PCOD8054141
Probable space group: C M
;
_chemical_formula_sum "Si O2"
_cell_formula_units_Z 16
_cell_length_a 6.870530
_cell_length_b 18.492244
_cell_length_c 7.837681
_cell_angle_alpha 90.000000
_cell_angle_beta 38.567943
_cell_angle_gamma 90.000000
_cell_volume 620.817086
_symmetry_space_group_name_H-M "C M"
_symmetry_group_IT_number 8
_symmetry_cell_setting 'monoclinic'
loop_
_space_group_symop_operation_xyz
x,y,z
x,-y,z
1/2+x,1/2+y,z
1/2+x,1/2-y,z
loop_
_atom_site_type_symbol
_atom_site_label
_atom_site_fract_x
_atom_site_fract_y
_atom_site_fract_z
Si Si1 0.193260 0.146608 0.017130
Si Si2 0.563232 0.000000 0.248990
Si Si3 0.286033 0.000000 0.796183
Si Si4 0.697917 0.360276 0.387686
Si Si5 0.831705 0.799868 0.946823
O O1 0.034567 0.137331 0.313199
O O2 0.363949 0.071309 0.854789
O O3 0.937581 0.161569 0.047469
O O4 0.435772 0.215357 0.856690
O O5 0.529300 0.000000 0.475661
O O6 0.400431 0.068377 0.276505
O O7 0.934267 0.000000 0.960956
O O8 0.448812 0.347192 0.706483
O O9 0.954740 0.295966 0.208925
#
# Coordination Sequence:
#
# PCOD8054141 Si02
#       5
#     4   2   2   4   4
#     4  12  27  50  76 113 148 202 242 309 375 440
#     4  12  23  50  73 108 154 192 249 310 363 444
#     4  12  27  46  79 108 152 194 247 304 373 444
#     4  12  27  47  76 108 149 199 245 307 370 434
#     4  12  28  45  77 109 148 194 254 301 362 450
#
# _framework density 25.772489
#
# number of rings (size 3 to 8) (size 9 to 14) (size 15 to 20)
#    0.000    0.000    7.500    0.750    3.500    6.000 
#    0.000    2.500    0.000    0.000    0.000    0.000 
#    0.000    0.000    0.000    0.000    0.000    0.000 
#
# Total GULP energy -99177.917976 kJ/mol
# GULP energy per Si atom -12397.239747 kJ/mol
# Density = 2.571383 g / cm^3
# Si number density = 25.772489 Si / 1000 Ang^3
#
#
#
# Elastic Constant Matrix: (Units=GPa)
#
#
# Indices 1 2 3 4 5 6 
#
# 1 120.9771 19.4122 42.6634 0.0000 60.5180 0.0000
# 2 19.4122 147.2216 -2.1846 0.0000 17.1680 0.0000
# 3 42.6634 -2.1846 87.2696 0.0000 27.5127 0.0000
# 4 0.0000 0.0000 0.0000 30.4469 0.0000 5.5890
# 5 60.5180 17.1680 27.5127 0.0000 50.8350 0.0000
# 6 0.0000 0.0000 0.0000 5.5890 0.0000 56.0379
#
#
#
# Elastic Compliance Matrix: (Units=1/GPa)
#
#
# Indices 1 2 3 4 5 6 
#
# 1 0.021020 -0.000082 -0.002891 0.000000 -0.023432 0.000000
# 2 -0.000082 0.007163 0.001147 0.000000 -0.002942 0.000000
# 3 -0.002891 0.001147 0.014394 0.000000 -0.004736 0.000000
# 4 0.000000 0.000000 0.000000 0.033457 0.000000 -0.003337
# 5 -0.023432 -0.002942 -0.004736 0.000000 0.051123 0.000000
# 6 0.000000 0.000000 0.000000 -0.003337 0.000000 0.018178
#
#
# Mechanical properties :
#
#
# Convention : Reuss Voigt Hill
#
# Bulk Modulus (GPa) = 25.69026 52.80561 39.24793
# Shear Modulus (GPa) = 30.87126 47.16912 39.02019
#
# Velocity S-wave (km/s) = 3.46473 4.28274 3.89527
# Velocity P-wave (km/s) = 5.09859 6.70742 5.95756
#
# Compressibility (1/GPa) = 0.03892526
#
# Stress axis : x y z
#
# Youngs Moduli (GPa) = 47.57278 139.59776 69.47418
#
# Poissons Ratio (x) = 0.01147 0.20086
# Poissons Ratio (y) = 0.00391 -0.07969
# Poissons Ratio (z) = 0.13754 -0.16013
#
# Static dielectric constant tensor:
#      x y z
#    x 4.612240 0.000000 0.358570 
#    y 0.000000 5.294740 0.000000 
#    z 0.358570 0.000000 4.215590 
# 
# 
# High freq. dielectric constant tensor:
#      x y z
#    x 2.032860 0.000000 0.028110 
#    y 0.000000 2.060350 0.000000 
#    z 0.028110 0.000000 2.006730 
# 
# From -- ./inp_files/1053.got.cif
#   From: 2010.03.12/outbox.cif.g09.slc.cpg/sg8_1_cif.got.tgz:1053.got - 2010.03.31 10:45:26.
