data_PCOD8054733
_publ_section_title
;
Structure prediction by ZEFSAII (Michael W. Deem and Ramdas Pophale) SiO2 
 PCOD8054733
Probable space group: C C
;
_chemical_formula_sum "Si O2"
_cell_formula_units_Z 32
_cell_length_a 13.152504
_cell_length_b 4.923761
_cell_length_c 26.144601
_cell_angle_alpha 90.000000
_cell_angle_beta 110.307107
_cell_angle_gamma 90.000000
_cell_volume 1587.884487
_symmetry_space_group_name_H-M "C C"
_symmetry_group_IT_number 9
_symmetry_cell_setting 'monoclinic'
loop_
_space_group_symop_operation_xyz
x,y,z
x,-y,1/2+z
1/2+x,1/2+y,z
1/2+x,1/2-y,1/2+z
loop_
_atom_site_type_symbol
_atom_site_label
_atom_site_fract_x
_atom_site_fract_y
_atom_site_fract_z
Si Si1 0.415990 0.819638 0.702840
Si Si2 0.420497 0.604593 0.336497
Si Si3 0.042843 0.822201 0.758412
Si Si4 0.527023 0.579774 0.460945
Si Si5 0.378790 0.807389 0.581287
Si Si6 0.972146 0.832696 0.549347
Si Si7 0.793411 0.392848 0.780891
Si Si8 0.146504 0.386781 0.015886
O O1 0.467400 0.520527 0.711791
O O2 0.371622 0.892147 0.639102
O O3 0.315493 0.841904 0.724556
O O4 0.511973 0.018921 0.736948
O O5 0.520872 0.624831 0.314659
O O6 0.463740 0.677240 0.400102
O O7 0.367869 0.306945 0.327639
O O8 0.325036 0.805174 0.302870
O O9 0.168051 0.858239 0.769430
O O10 0.439721 0.482204 0.489382
O O11 0.604784 0.319096 0.463816
O O12 0.607517 0.812241 0.495913
O O13 0.473417 0.579399 0.590730
O O14 0.274762 0.637289 0.543944
O O15 0.394064 0.082294 0.551185
O O16 0.092717 0.709487 0.560995
#
# Coordination Sequence:
#
# PCOD8054733 Si02
#       8
#     4   4   4   4   4   4   4   4
#     4  10  23  37  61  87 119 150 196 246 294 346
#     4  10  21  39  62  87 120 149 196 239 302 347
#     4  10  21  42  59  89 117 147 196 248 293 361
#     4  10  20  43  59  85 129 158 188 265 287 345
#     4  12  22  39  63  86 119 168 197 243 302 355
#     4  10  22  40  56  85 125 154 201 249 283 350
#     4  10  21  40  61  89 115 150 194 248 291 366
#     4  10  22  40  57  86 124 154 204 244 286 354
#
# _framework density 20.152598000000001
#
# number of rings (size 3 to 8) (size 9 to 14) (size 15 to 20)
#    0.750    1.000    1.250    3.000    0.000    2.000 
#    6.750    0.000    0.000    0.000    0.000    0.000 
#    0.000    0.000    0.000    0.000    0.000    0.000 
#
# Total GULP energy -198280.078248 kJ/mol
# GULP energy per Si atom -12392.504890 kJ/mol
# Density = 2.010673 g / cm^3
# Si number density = 20.152598 Si / 1000 Ang^3
#
#
#
# Elastic Constant Matrix: (Units=GPa)
#
#
# Indices 1 2 3 4 5 6 
#
# 1 113.5407 28.6149 40.7569 0.0000 -10.5791 0.0000
# 2 28.6149 107.0400 24.4079 0.0001 -11.5609 0.0001
# 3 40.7569 24.4079 96.3209 0.0000 -14.4298 0.0000
# 4 0.0000 0.0001 0.0000 20.4598 0.0000 -5.2999
# 5 -10.5791 -11.5609 -14.4298 0.0000 17.2302 0.0000
# 6 0.0000 0.0001 0.0000 -5.2999 0.0000 24.8185
#
#
#
# Elastic Compliance Matrix: (Units=1/GPa)
#
#
# Indices 1 2 3 4 5 6 
#
# 1 0.010830 -0.001785 -0.003789 0.000000 0.002279 0.000000
# 2 -0.001785 0.010635 -0.001183 0.000000 0.005049 0.000000
# 3 -0.003789 -0.001183 0.013513 0.000000 0.008196 0.000000
# 4 0.000000 0.000000 0.000000 0.051738 0.000000 0.011049
# 5 0.002279 0.005049 0.008196 0.000000 0.069688 0.000000
# 6 0.000000 0.000000 0.000000 0.011049 0.000000 0.042652
#
#
# Mechanical properties :
#
#
# Convention : Reuss Voigt Hill
#
# Bulk Modulus (GPa) = 46.59151 56.05122 51.32137
# Shear Modulus (GPa) = 22.75585 27.37651 25.06618
#
# Velocity S-wave (km/s) = 3.36397 3.68973 3.53061
# Velocity P-wave (km/s) = 6.18530 6.78424 6.49168
#
# Compressibility (1/GPa) = 0.02146314
#
# Stress axis : x y z
#
# Youngs Moduli (GPa) = 92.33955 94.03300 74.00374
#
# Poissons Ratio (x) = 0.16785 0.28038
# Poissons Ratio (y) = 0.16483 0.08756
# Poissons Ratio (z) = 0.34985 0.11126
#
# Static dielectric constant tensor:
#      x y z
#    x 3.525450 0.000000 -0.300370 
#    y 0.000000 3.840660 0.000000 
#    z -0.300370 0.000000 3.327320 
# 
# 
# High freq. dielectric constant tensor:
#      x y z
#    x 1.777230 0.000000 -0.018540 
#    y 0.000000 1.813050 0.000000 
#    z -0.018540 0.000000 1.758810 
# 
# From -- ./inp_files/35180.got.cif
#   From: 2010.06.25/outbox.cif.g09.slc.cpg/sg9_18_cif.got.tgz:35180.got - 2010.06.27 21:40:51.
