data_PCOD8054009
_publ_section_title
;
Structure prediction by ZEFSAII (Michael W. Deem and Ramdas Pophale) SiO2 
 PCOD8054009
Probable space group: C M
;
_chemical_formula_sum "Si O2"
_cell_formula_units_Z 20
_cell_length_a 6.000769
_cell_length_b 26.645307
_cell_length_c 7.224579
_cell_angle_alpha 90.000000
_cell_angle_beta 131.746455
_cell_angle_gamma 90.000000
_cell_volume 861.859337
_symmetry_space_group_name_H-M "C M"
_symmetry_group_IT_number 8
_symmetry_cell_setting 'monoclinic'
loop_
_space_group_symop_operation_xyz
x,y,z
x,-y,z
1/2+x,1/2+y,z
1/2+x,1/2-y,z
loop_
_atom_site_type_symbol
_atom_site_label
_atom_site_fract_x
_atom_site_fract_y
_atom_site_fract_z
Si Si1 0.707800 0.943525 0.585130
Si Si2 0.245909 0.771829 0.583427
Si Si3 0.376970 0.728174 0.024765
Si Si4 0.415276 0.056475 0.023171
Si Si5 0.561472 0.867281 0.804096
O O1 0.561606 0.935390 0.304170
O O2 0.543234 0.902501 0.616497
O O3 0.633427 0.000000 0.611661
O O4 0.061530 0.934375 0.804190
O O5 0.585099 0.756563 0.675636
O O6 0.263473 0.831941 0.628667
O O7 0.061428 0.755586 0.304096
O O8 0.537766 0.756574 0.932562
O O9 0.359446 0.668065 0.979503
O O10 0.489600 0.000000 0.996592
O O11 0.579751 0.097502 0.991722
#
# Coordination Sequence:
#
# PCOD8054009 Si02
#       5
#     4   4   4   4   4
#     4  10  23  41  63  94 128 164 209 259 312 376
#     4  10  23  40  60  88 122 163 212 256 313 373
#     4  10  23  40  60  88 122 163 212 256 313 373
#     4  10  23  41  63  94 128 164 209 259 312 376
#     4  10  25  38  70  88 130 164 215 252 326 364
#
# _framework density 23.205645000000001
#
# number of rings (size 3 to 8) (size 9 to 14) (size 15 to 20)
#    1.200    0.800    0.000    1.800    5.600    3.200 
#    0.000    6.000    0.000    0.000    0.000    0.000 
#    0.000    0.000    0.000    0.000    0.000    0.000 
#
# Total GULP energy -123883.156904 kJ/mol
# GULP energy per Si atom -12388.315690 kJ/mol
# Density = 2.315283 g / cm^3
# Si number density = 23.205645 Si / 1000 Ang^3
#
#
#
# Elastic Constant Matrix: (Units=GPa)
#
#
# Indices 1 2 3 4 5 6 
#
# 1 125.5262 85.6019 102.0354 0.0000 -33.0455 0.0000
# 2 85.6019 188.6273 61.8135 0.0000 -34.3184 0.0000
# 3 102.0354 61.8135 218.8619 0.0000 -19.8711 0.0000
# 4 0.0000 0.0000 0.0000 53.8597 0.0000 -22.1270
# 5 -33.0455 -34.3184 -19.8711 0.0000 51.4793 0.0000
# 6 0.0000 0.0000 0.0000 -22.1270 0.0000 56.9832
#
#
#
# Elastic Compliance Matrix: (Units=1/GPa)
#
#
# Indices 1 2 3 4 5 6 
#
# 1 0.018319 -0.005101 -0.006571 0.000000 0.005823 0.000000
# 2 -0.005101 0.007889 0.000342 0.000000 0.002117 0.000000
# 3 -0.006571 0.000342 0.007434 0.000000 -0.001121 0.000000
# 4 0.000000 0.000000 0.000000 0.022091 0.000000 0.008578
# 5 0.005823 0.002117 -0.001121 0.000000 0.024142 0.000000
# 6 0.000000 0.000000 0.000000 0.008578 0.000000 0.020880
#
#
# Mechanical properties :
#
#
# Convention : Reuss Voigt Hill
#
# Bulk Modulus (GPa) = 91.05095 114.65745 102.85420
# Shear Modulus (GPa) = 39.34626 51.36877 45.35752
#
# Velocity S-wave (km/s) = 4.12217 4.71003 4.42587
# Velocity P-wave (km/s) = 7.87262 8.89358 8.39863
#
# Compressibility (1/GPa) = 0.01098286
#
# Stress axis : x y z
#
# Youngs Moduli (GPa) = 54.58700 126.75271 134.51019
#
# Poissons Ratio (x) = 0.64654 0.88392
# Poissons Ratio (y) = 0.27844 -0.04601
# Poissons Ratio (z) = 0.35871 -0.04336
#
# Static dielectric constant tensor:
#      x y z
#    x 4.760150 0.000000 0.125440 
#    y 0.000000 4.189310 0.000000 
#    z 0.125440 0.000000 4.583030 
# 
# 
# High freq. dielectric constant tensor:
#      x y z
#    x 1.939860 0.000000 -0.010260 
#    y 0.000000 1.916710 0.000000 
#    z -0.010260 0.000000 1.985700 
# 
# From -- ./inp_files/6873.got.cif
#   From: 2010.03.12/outbox.cif.g09.slc.cpg/sg8_4_cif.got.tgz:6873.got - 2010.03.31 10:45:26.
