data_PCOD8054614
_publ_section_title
;
Structure prediction by ZEFSAII (Michael W. Deem and Ramdas Pophale) SiO2 
 PCOD8054614
Probable space group: C C
;
_chemical_formula_sum "Si O2"
_cell_formula_units_Z 32
_cell_length_a 8.509804
_cell_length_b 19.013560
_cell_length_c 12.346475
_cell_angle_alpha 90.000000
_cell_angle_beta 130.504919
_cell_angle_gamma 90.000000
_cell_volume 1518.936597
_symmetry_space_group_name_H-M "C C"
_symmetry_group_IT_number 9
_symmetry_cell_setting 'monoclinic'
loop_
_space_group_symop_operation_xyz
x,y,z
x,-y,1/2+z
1/2+x,1/2+y,z
1/2+x,1/2-y,1/2+z
loop_
_atom_site_type_symbol
_atom_site_label
_atom_site_fract_x
_atom_site_fract_y
_atom_site_fract_z
Si Si1 0.575270 0.977123 0.719250
Si Si2 0.593730 0.667399 0.316125
Si Si3 0.780042 0.585364 0.227436
Si Si4 0.738438 0.597541 0.586667
Si Si5 0.037822 0.964999 0.196634
Si Si6 0.718187 0.084661 0.072948
Si Si7 0.104000 0.327222 0.326430
Si Si8 0.939411 0.082628 0.884807
O O1 0.382633 0.030395 0.629484
O O2 0.796472 0.013176 0.838903
O O3 0.514584 0.922277 0.788503
O O4 0.571574 0.931740 0.608008
O O5 0.762446 0.654373 0.295296
O O6 0.607632 0.612833 0.421113
O O7 0.372943 0.649426 0.165714
O O8 0.621265 0.746623 0.370335
O O9 0.729087 0.519790 0.284677
O O10 0.617722 0.584427 0.054241
O O11 0.575453 0.587167 0.611879
O O12 0.885578 0.665307 0.668052
O O13 0.030725 0.919682 0.304237
O O14 0.830845 0.012102 0.088312
O O15 0.583855 0.115298 0.914196
O O16 0.296630 0.348110 0.335210
#
# Coordination Sequence:
#
# PCOD8054614 Si02
#       8
#     4   4   4   4   4   4   4   4
#     4   9  22  36  62  96 118 143 207 246 321 346
#     4  11  23  41  59  84 125 166 205 238 298 362
#     4  10  21  37  65  87 125 157 191 254 306 356
#     4  10  23  35  63  93 120 154 199 255 297 367
#     4   9  20  36  61  90 118 144 195 245 321 338
#     4  10  21  37  66  85 122 157 191 260 300 360
#     4  11  22  41  58  88 118 170 207 236 293 366
#     4  10  20  39  62  91 120 159 193 256 298 365
#
# _framework density 21.067368999999999
#
# number of rings (size 3 to 8) (size 9 to 14) (size 15 to 20)
#    0.000    2.000    2.500    0.750   12.250    2.000 
#    2.250    2.500    0.000    0.000    0.000    0.000 
#    0.000    0.000    0.000    0.000    0.000    0.000 
#
# Total GULP energy -198281.237914 kJ/mol
# GULP energy per Si atom -12392.577370 kJ/mol
# Density = 2.101942 g / cm^3
# Si number density = 21.067369 Si / 1000 Ang^3
#
#
#
# Elastic Constant Matrix: (Units=GPa)
#
#
# Indices 1 2 3 4 5 6 
#
# 1 138.3431 37.6943 18.6164 0.0000 -32.5760 0.0000
# 2 37.6943 84.0827 19.6872 0.0000 -17.1954 0.0000
# 3 18.6164 19.6872 56.6884 0.0000 -20.3865 0.0000
# 4 0.0000 0.0000 0.0000 25.5256 0.0000 -6.7987
# 5 -32.5760 -17.1954 -20.3865 0.0000 34.4622 0.0000
# 6 0.0000 0.0000 0.0000 -6.7987 0.0000 15.4963
#
#
#
# Elastic Compliance Matrix: (Units=1/GPa)
#
#
# Indices 1 2 3 4 5 6 
#
# 1 0.009881 -0.002902 0.000764 0.000000 0.008344 0.000000
# 2 -0.002902 0.014463 -0.003126 0.000000 0.002624 0.000000
# 3 0.000764 -0.003126 0.023085 0.000000 0.012818 0.000000
# 4 0.000000 0.000000 0.000000 0.044360 0.000000 0.019462
# 5 0.008344 0.002624 0.012818 0.000000 0.045797 0.000000
# 6 0.000000 0.000000 0.000000 0.019462 0.000000 0.073070
#
#
# Mechanical properties :
#
#
# Convention : Reuss Voigt Hill
#
# Bulk Modulus (GPa) = 27.10063 47.90111 37.50087
# Shear Modulus (GPa) = 21.41470 28.63790 25.02630
#
# Velocity S-wave (km/s) = 3.19170 3.69093 3.45036
# Velocity P-wave (km/s) = 5.14532 6.39925 5.80624
#
# Compressibility (1/GPa) = 0.03689951
#
# Stress axis : x y z
#
# Youngs Moduli (GPa) = 101.20241 69.14387 43.31840
#
# Poissons Ratio (x) = 0.20066 -0.03308
# Poissons Ratio (y) = 0.29370 0.13542
# Poissons Ratio (z) = -0.07728 0.21615
#
# Static dielectric constant tensor:
#      x y z
#    x 4.243360 0.000000 -0.187040 
#    y 0.000000 3.475920 0.000000 
#    z -0.187040 0.000000 3.646810 
# 
# 
# High freq. dielectric constant tensor:
#      x y z
#    x 1.831790 0.000000 -0.014050 
#    y 0.000000 1.786770 0.000000 
#    z -0.014050 0.000000 1.826090 
# 
# From -- ./inp_files/15343.got.cif
#   From: 2010.06.25/outbox.cif.g09.slc.cpg/sg9_8_cif.got.tgz:15343.got - 2010.06.27 21:40:51.
