data_PCOD8054338
_publ_section_title
;
Structure prediction by ZEFSAII (Michael W. Deem and Ramdas Pophale) SiO2 
 PCOD8054338
Probable space group: C C
;
_chemical_formula_sum "Si O2"
_cell_formula_units_Z 28
_cell_length_a 13.166700
_cell_length_b 17.063222
_cell_length_c 9.998725
_cell_angle_alpha 90.000000
_cell_angle_beta 145.374261
_cell_angle_gamma 90.000000
_cell_volume 1276.421547
_symmetry_space_group_name_H-M "C C"
_symmetry_group_IT_number 9
_symmetry_cell_setting 'monoclinic'
loop_
_space_group_symop_operation_xyz
x,y,z
x,-y,1/2+z
1/2+x,1/2+y,z
1/2+x,1/2-y,1/2+z
loop_
_atom_site_type_symbol
_atom_site_label
_atom_site_fract_x
_atom_site_fract_y
_atom_site_fract_z
Si Si1 0.194390 0.551071 0.857160
Si Si2 0.724073 0.836211 0.597503
Si Si3 0.489659 0.839422 0.820540
Si Si4 0.810840 0.057080 0.711872
Si Si5 0.093662 0.828675 0.393515
Si Si6 0.967600 0.414937 0.521426
Si Si7 0.119074 0.829579 0.106881
O O1 0.348485 0.538417 0.909167
O O2 0.010531 0.503775 0.619599
O O3 0.168793 0.641735 0.881817
O O4 0.278560 0.516573 0.084469
O O5 0.607351 0.895517 0.558545
O O6 0.690261 0.746093 0.601557
O O7 0.933393 0.856323 0.842368
O O8 0.288799 0.857113 0.651634
O O9 0.540687 0.750800 0.910217
O O10 0.506643 0.852879 0.680524
O O11 0.625085 0.896318 0.042232
O O12 0.956174 0.107046 0.792705
O O13 0.087054 0.811887 0.228190
O O14 0.763450 0.401056 0.249432
#
# Coordination Sequence:
#
# PCOD8054338 Si02
#       7
#     4   4   4   4   4   4   4
#     4  11  25  45  68  91 142 181 218 276 353 394
#     4  12  21  41  69 102 132 178 233 289 323 406
#     4  10  19  35  64  96 124 164 219 270 331 389
#     4  11  24  44  64  93 132 179 213 278 336 409
#     4  11  19  36  66  99 126 166 222 278 323 403
#     4  10  21  41  66  97 133 177 224 280 339 415
#     4  11  21  38  73 104 127 177 239 275 337 408
#
# _framework density 21.936326999999999
#
# number of rings (size 3 to 8) (size 9 to 14) (size 15 to 20)
#    0.000    1.143    5.714    2.571    0.000    0.000 
#    5.143    4.286    0.000    0.000    0.000    0.000 
#    0.000    0.000    0.000    0.000    0.000    0.000 
#
# Total GULP energy -173449.452451 kJ/mol
# GULP energy per Si atom -12389.246604 kJ/mol
# Density = 2.188640 g / cm^3
# Si number density = 21.936327 Si / 1000 Ang^3
#
#
#
# Elastic Constant Matrix: (Units=GPa)
#
#
# Indices 1 2 3 4 5 6 
#
# 1 108.8897 42.3326 44.7397 0.0000 -2.2430 0.0000
# 2 42.3326 75.3932 31.6947 0.0000 4.5477 0.0000
# 3 44.7397 31.6947 85.7459 0.0000 25.4960 0.0000
# 4 0.0000 0.0000 0.0000 26.1509 0.0000 -6.0983
# 5 -2.2430 4.5477 25.4960 0.0000 38.9270 0.0000
# 6 0.0000 0.0000 0.0000 -6.0983 0.0000 36.0274
#
#
#
# Elastic Compliance Matrix: (Units=1/GPa)
#
#
# Indices 1 2 3 4 5 6 
#
# 1 0.014461 -0.005373 -0.007443 0.000000 0.006336 0.000000
# 2 -0.005373 0.017890 -0.003844 0.000000 0.000118 0.000000
# 3 -0.007443 -0.003844 0.021063 0.000000 -0.013776 0.000000
# 4 0.000000 0.000000 0.000000 0.039811 0.000000 0.006739
# 5 0.006336 0.000118 -0.013776 0.000000 0.035063 0.000000
# 6 0.000000 0.000000 0.000000 0.006739 0.000000 0.028897
#
#
# Mechanical properties :
#
#
# Convention : Reuss Voigt Hill
#
# Bulk Modulus (GPa) = 49.76967 56.39587 53.08277
# Shear Modulus (GPa) = 25.35435 30.30515 27.82975
#
# Velocity S-wave (km/s) = 3.40342 3.72089 3.56569
# Velocity P-wave (km/s) = 6.17914 6.65017 6.41898
#
# Compressibility (1/GPa) = 0.02009256
#
# Stress axis : x y z
#
# Youngs Moduli (GPa) = 69.15040 55.89826 47.47593
#
# Poissons Ratio (x) = 0.30033 0.35339
# Poissons Ratio (y) = 0.37154 0.18252
# Poissons Ratio (z) = 0.51472 0.21490
#
# Static dielectric constant tensor:
#      x y z
#    x 3.990760 0.000000 0.078460 
#    y 0.000000 3.947950 0.000000 
#    z 0.078460 0.000000 4.002910 
# 
# 
# High freq. dielectric constant tensor:
#      x y z
#    x 1.865820 0.000000 0.005440 
#    y 0.000000 1.862360 0.000000 
#    z 0.005440 0.000000 1.842050 
# 
# From -- ./inp_files/8398.got.cif
#   From: 2010.06.25/outbox.cif.g09.slc.cpg/sg9_5_cif.got.tgz:8398.got - 2010.06.27 21:40:51.
