data_PCOD8054148
_publ_section_title
;
Structure prediction by ZEFSAII (Michael W. Deem and Ramdas Pophale) SiO2 
 PCOD8054148
Probable space group: C M
;
_chemical_formula_sum "Si O2"
_cell_formula_units_Z 32
_cell_length_a 21.180711
_cell_length_b 21.357252
_cell_length_c 15.049531
_cell_angle_alpha 90.000000
_cell_angle_beta 19.443199
_cell_angle_gamma 90.000000
_cell_volume 2266.138197
_symmetry_space_group_name_H-M "C M"
_symmetry_group_IT_number 8
_symmetry_cell_setting 'monoclinic'
loop_
_space_group_symop_operation_xyz
x,y,z
x,-y,z
1/2+x,1/2+y,z
1/2+x,1/2-y,z
loop_
_atom_site_type_symbol
_atom_site_label
_atom_site_fract_x
_atom_site_fract_y
_atom_site_fract_z
Si Si1 0.515420 0.732174 0.676210
Si Si2 0.530113 0.930039 0.859237
Si Si3 0.043380 0.232116 0.832869
Si Si4 0.224658 0.162396 0.257099
Si Si5 0.527765 0.930030 0.650947
Si Si6 0.833748 0.837748 0.252395
Si Si7 0.212261 0.833178 0.071941
Si Si8 0.845883 0.833293 0.437940
O O1 0.529502 0.699100 0.754383
O O2 0.551306 0.680530 0.552203
O O3 0.674830 0.784869 0.464001
O O4 0.313099 0.765416 0.928847
O O5 0.529124 0.930136 0.754849
O O6 0.707027 0.888334 0.657405
O O7 0.548372 0.000000 0.874529
O O8 0.327888 0.900302 0.157063
O O9 0.245476 0.265458 0.580540
O O10 0.883804 0.284790 0.045244
O O11 0.007226 0.180421 0.957176
O O12 0.147310 0.154011 0.259716
O O13 0.730098 0.900362 0.352923
O O14 0.509218 0.000000 0.636072
O O15 0.350948 0.888278 0.852725
O O16 0.910845 0.846168 0.250156
O O17 0.029092 0.833160 0.254905
#
# Coordination Sequence:
#
# PCOD8054148 Si02
#       8
#     4   4   4   4   4   4   4   4
#     4   8  14  25  39  53  71  96 124 152 179 208
#     4   8  14  25  39  53  71  96 124 152 179 208
#     4   8  14  25  39  53  71  96 124 152 179 208
#     4   8  14  25  39  53  71  96 124 152 179 208
#     4   8  14  25  39  53  71  96 124 152 179 208
#     4   8  14  25  39  53  71  96 124 152 179 208
#     4   9  16  23  34  57  82  98 115 141 178 224
#     4   9  16  23  34  57  82  98 115 141 178 224
#
# _framework density 14.120939999999999
#
# number of rings (size 3 to 8) (size 9 to 14) (size 15 to 20)
#    0.000    3.750    0.000    3.000    0.000    1.500 
#    0.000    0.000    0.000    0.750    0.000    0.000 
#    0.000    3.000    0.000    0.000    0.000    0.000 
#
# Total GULP energy -198254.031551 kJ/mol
# GULP energy per Si atom -12390.876972 kJ/mol
# Density = 1.408880 g / cm^3
# Si number density = 14.120940 Si / 1000 Ang^3
#
#
#
# Elastic Constant Matrix: (Units=GPa)
#
#
# Indices 1 2 3 4 5 6 
#
# 1 85.6380 36.1027 51.2302 0.0092 -12.2517 0.0090
# 2 36.1027 71.1943 42.0359 0.0367 1.5205 -0.0369
# 3 51.2302 42.0359 67.9879 0.0194 -5.2026 -0.0366
# 4 0.0092 0.0367 0.0194 16.2752 0.0032 0.6543
# 5 -12.2517 1.5205 -5.2026 0.0032 26.2409 0.0110
# 6 0.0090 -0.0369 -0.0366 0.6543 0.0110 10.6661
#
#
#
# Elastic Compliance Matrix: (Units=1/GPa)
#
#
# Indices 1 2 3 4 5 6 
#
# 1 0.022963 -0.003084 -0.014786 0.000014 0.007968 -0.000090
# 2 -0.003084 0.022969 -0.012276 -0.000036 -0.005205 0.000047
# 3 -0.014786 -0.012276 0.033474 -0.000007 0.000444 0.000085
# 4 0.000014 -0.000036 -0.000007 0.061595 0.000001 -0.003779
# 5 0.007968 -0.005205 0.000444 0.000001 0.042218 -0.000067
# 6 -0.000090 0.000047 0.000085 -0.003779 -0.000067 0.093987
#
#
# Mechanical properties :
#
#
# Convention : Reuss Voigt Hill
#
# Bulk Modulus (GPa) = 52.31841 53.72865 53.02353
# Shear Modulus (GPa) = 14.54034 16.99987 15.77011
#
# Velocity S-wave (km/s) = 3.21238 3.47346 3.34546
# Velocity P-wave (km/s) = 7.13371 7.36329 7.24941
#
# Compressibility (1/GPa) = 0.01911373
#
# Stress axis : x y z
#
# Youngs Moduli (GPa) = 43.54900 43.53603 29.87383
#
# Poissons Ratio (x) = 0.13428 0.44172
# Poissons Ratio (y) = 0.13432 0.36673
# Poissons Ratio (z) = 0.64392 0.53444
#
# Static dielectric constant tensor:
#      x y z
#    x 2.669650 -0.000070 0.218500 
#    y -0.000070 2.969930 0.000050 
#    z 0.218500 0.000050 2.811430 
# 
# 
# High freq. dielectric constant tensor:
#      x y z
#    x 1.519920 -0.000010 -0.001390 
#    y -0.000010 1.517570 0.000010 
#    z -0.001390 0.000010 1.518640 
# 
# From -- ./inp_files/11234.got.cif
#   From: 2010.03.12/outbox.cif.g09.slc.cpg/sg8_6_cif.got.tgz:11234.got - 2010.03.31 10:45:26.
