data_PCOD8054125
_publ_section_title
;
Structure prediction by ZEFSAII (Michael W. Deem and Ramdas Pophale) SiO2 
 PCOD8054125
Probable space group: C M
;
_chemical_formula_sum "Si O2"
_cell_formula_units_Z 20
_cell_length_a 7.815894
_cell_length_b 20.494562
_cell_length_c 4.712732
_cell_angle_alpha 90.000000
_cell_angle_beta 65.404954
_cell_angle_gamma 90.000000
_cell_volume 686.410487
_symmetry_space_group_name_H-M "C M"
_symmetry_group_IT_number 8
_symmetry_cell_setting 'monoclinic'
loop_
_space_group_symop_operation_xyz
x,y,z
x,-y,z
1/2+x,1/2+y,z
1/2+x,1/2-y,z
loop_
_atom_site_type_symbol
_atom_site_label
_atom_site_fract_x
_atom_site_fract_y
_atom_site_fract_z
Si Si1 0.311150 0.925774 0.418660
Si Si2 0.239976 0.185308 0.886913
Si Si3 0.344238 0.264468 0.283610
Si Si4 0.932520 0.074135 0.393873
Si Si5 0.711844 0.122462 0.043193
O O1 0.283001 0.884096 0.722831
O O2 0.516666 0.915257 0.149094
O O3 0.154562 0.907602 0.286672
O O4 0.287968 0.000000 0.535512
O O5 0.273255 0.244633 0.641370
O O6 0.374386 0.198699 0.069536
O O7 0.024777 0.187992 0.153650
O O8 0.183232 0.305912 0.215385
O O9 0.864472 0.080274 0.117425
O O10 0.898989 0.000000 0.520392
O O11 0.803729 0.124975 0.665737
#
# Coordination Sequence:
#
# PCOD8054125 Si02
#       5
#     4   4   4   4   4
#     4  11  26  48  77 111 154 201 250 308 378 456
#     4  12  26  48  73 111 149 193 253 310 379 446
#     4  12  26  47  77 108 150 193 250 318 373 450
#     4  11  25  45  72 109 152 196 249 307 368 451
#     4  12  25  48  75 109 149 199 250 309 380 441
#
# _framework density 29.137083000000001
#
# number of rings (size 3 to 8) (size 9 to 14) (size 15 to 20)
#    0.000    0.400    2.000    6.600    2.800    3.200 
#    0.000    5.000    0.000    0.000    0.000    0.000 
#    0.000    0.000    0.000    0.000    0.000    0.000 
#
# Total GULP energy -124087.294884 kJ/mol
# GULP energy per Si atom -12408.729488 kJ/mol
# Density = 2.907077 g / cm^3
# Si number density = 29.137083 Si / 1000 Ang^3
#
#
#
# Elastic Constant Matrix: (Units=GPa)
#
#
# Indices 1 2 3 4 5 6 
#
# 1 127.0704 18.5520 30.5217 0.0000 -14.0556 0.0000
# 2 18.5520 87.7319 -21.3949 0.0000 -18.5292 0.0000
# 3 30.5217 -21.3949 120.9029 0.0000 -12.9274 0.0000
# 4 0.0000 0.0000 0.0000 35.7962 0.0000 -3.7778
# 5 -14.0556 -18.5292 -12.9274 0.0000 52.5118 0.0000
# 6 0.0000 0.0000 0.0000 -3.7778 0.0000 44.3392
#
#
#
# Elastic Compliance Matrix: (Units=1/GPa)
#
#
# Indices 1 2 3 4 5 6 
#
# 1 0.008927 -0.002314 -0.002562 0.000000 0.000942 0.000000
# 2 -0.002314 0.013850 0.003586 0.000000 0.005150 0.000000
# 3 -0.002562 0.003586 0.009874 0.000000 0.003010 0.000000
# 4 0.000000 0.000000 0.000000 0.028189 0.000000 0.002402
# 5 0.000942 0.005150 0.003010 0.000000 0.021854 0.000000
# 6 0.000000 0.000000 0.000000 0.002402 0.000000 0.022758
#
#
# Mechanical properties :
#
#
# Convention : Reuss Voigt Hill
#
# Bulk Modulus (GPa) = 33.25493 43.45142 38.35318
# Shear Modulus (GPa) = 42.35252 47.06453 44.70853
#
# Velocity S-wave (km/s) = 3.81670 4.02341 3.92142
# Velocity P-wave (km/s) = 5.55526 6.04392 5.80473
#
# Compressibility (1/GPa) = 0.03007073
#
# Stress axis : x y z
#
# Youngs Moduli (GPa) = 112.01827 72.20322 101.27284
#
# Poissons Ratio (x) = 0.16705 0.25949
# Poissons Ratio (y) = 0.25916 -0.36312
# Poissons Ratio (z) = 0.28702 -0.25889
#
# Static dielectric constant tensor:
#      x y z
#    x 5.475010 0.000000 0.061260 
#    y 0.000000 5.771760 0.000000 
#    z 0.061260 0.000000 4.887500 
# 
# 
# High freq. dielectric constant tensor:
#      x y z
#    x 2.194320 0.000000 0.008370 
#    y 0.000000 2.223160 0.000000 
#    z 0.008370 0.000000 2.184630 
# 
# From -- ./inp_files/1368.got.cif
#   From: 2010.03.12/outbox.cif.g09.slc.cpg/sg8_1_cif.got.tgz:1368.got - 2010.03.31 10:45:26.
