data_PCOD8054489
_publ_section_title
;
Structure prediction by ZEFSAII (Michael W. Deem and Ramdas Pophale) SiO2 
 PCOD8054489
Probable space group: C C
;
_chemical_formula_sum "Si O2"
_cell_formula_units_Z 24
_cell_length_a 13.404006
_cell_length_b 9.125421
_cell_length_c 9.369963
_cell_angle_alpha 90.000000
_cell_angle_beta 84.102327
_cell_angle_gamma 90.000000
_cell_volume 1140.041260
_symmetry_space_group_name_H-M "C C"
_symmetry_group_IT_number 9
_symmetry_cell_setting 'monoclinic'
loop_
_space_group_symop_operation_xyz
x,y,z
x,-y,1/2+z
1/2+x,1/2+y,z
1/2+x,1/2-y,1/2+z
loop_
_atom_site_type_symbol
_atom_site_label
_atom_site_fract_x
_atom_site_fract_y
_atom_site_fract_z
Si Si1 0.882380 0.412180 0.740000
Si Si2 0.587405 0.078746 0.680354
Si Si3 0.057090 0.900491 0.634968
Si Si4 0.164771 0.366446 0.869469
Si Si5 0.993471 0.156140 0.843907
Si Si6 0.768195 0.605218 0.970705
O O1 0.795628 0.494014 0.840460
O O2 0.852420 0.395843 0.579727
O O3 0.983286 0.505184 0.738546
O O4 0.898382 0.250385 0.804142
O O5 0.579906 0.250763 0.718391
O O6 0.608513 0.058702 0.510728
O O7 0.679096 0.000106 0.755275
O O8 0.979563 0.876629 0.514670
O O9 0.162539 0.951875 0.550281
O O10 0.004017 0.009206 0.751089
O O11 0.095031 0.246408 0.802767
O O12 0.261557 0.273404 0.908847
#
# Coordination Sequence:
#
# PCOD8054489 Si02
#       6
#     4   4   4   4   4   4
#     4  11  20  37  59  85 112 145 189 240 280 323
#     4   9  19  36  58  81 112 151 189 222 275 345
#     4  10  20  38  57  81 113 153 188 225 278 344
#     4   9  19  37  57  82 110 150 189 221 276 345
#     4   9  20  35  57  84 111 148 189 223 277 343
#     4  10  20  35  58  85 112 145 188 239 282 322
#
# _framework density 21.051869
#
# number of rings (size 3 to 8) (size 9 to 14) (size 15 to 20)
#    0.000    2.667    0.000    5.000    0.000    4.000 
#    0.000   10.000    0.000    8.000    0.000    0.000 
#    0.000    0.000    0.000    0.000    0.000    0.000 
#
# Total GULP energy -148718.439499 kJ/mol
# GULP energy per Si atom -12393.203292 kJ/mol
# Density = 2.100395 g / cm^3
# Si number density = 21.051869 Si / 1000 Ang^3
#
#
#
# Elastic Constant Matrix: (Units=GPa)
#
#
# Indices 1 2 3 4 5 6 
#
# 1 49.4677 31.9826 22.6039 0.0000 5.4655 0.0000
# 2 31.9826 150.3111 80.1409 0.0000 8.0699 0.0000
# 3 22.6039 80.1409 90.1775 0.0000 24.2105 0.0000
# 4 0.0000 0.0000 0.0000 43.8984 0.0000 9.1732
# 5 5.4655 8.0699 24.2105 0.0000 17.8871 0.0000
# 6 0.0000 0.0000 0.0000 9.1732 0.0000 29.0892
#
#
#
# Elastic Compliance Matrix: (Units=1/GPa)
#
#
# Indices 1 2 3 4 5 6 
#
# 1 0.023928 -0.004233 -0.001234 0.000000 -0.003731 0.000000
# 2 -0.004233 0.016568 -0.018856 0.000000 0.019340 0.000000
# 3 -0.001234 -0.018856 0.040481 0.000000 -0.045907 0.000000
# 4 0.000000 0.000000 0.000000 0.024387 0.000000 -0.007690
# 5 -0.003731 0.019340 -0.045907 0.000000 0.110457 0.000000
# 6 0.000000 0.000000 0.000000 -0.007690 0.000000 0.036802
#
#
# Mechanical properties :
#
#
# Convention : Reuss Voigt Hill
#
# Bulk Modulus (GPa) = 30.92967 62.15681 46.54324
# Shear Modulus (GPa) = 16.02324 28.52352 22.27338
#
# Velocity S-wave (km/s) = 2.76185 3.68491 3.25626
# Velocity P-wave (km/s) = 4.98944 6.90611 6.02449
#
# Compressibility (1/GPa) = 0.03233142
#
# Stress axis : x y z
#
# Youngs Moduli (GPa) = 41.79173 60.35569 24.70307
#
# Poissons Ratio (x) = 0.25548 0.03049
# Poissons Ratio (y) = 0.17690 0.46579
# Poissons Ratio (z) = 0.05159 1.13805
#
# Static dielectric constant tensor:
#      x y z
#    x 3.586880 0.000000 0.340590 
#    y 0.000000 3.973220 0.000000 
#    z 0.340590 0.000000 3.824940 
# 
# 
# High freq. dielectric constant tensor:
#      x y z
#    x 1.795360 0.000000 0.022810 
#    y 0.000000 1.826470 0.000000 
#    z 0.022810 0.000000 1.827040 
# 
# From -- ./inp_files/8701.got.cif
#   From: 2010.06.25/outbox.cif.g09.slc.cpg/sg9_5_cif.got.tgz:8701.got - 2010.06.27 21:40:51.
