data_PCOD8054616
_publ_section_title
;
Structure prediction by ZEFSAII (Michael W. Deem and Ramdas Pophale) SiO2 
 PCOD8054616
Probable space group: C C
;
_chemical_formula_sum "Si O2"
_cell_formula_units_Z 20
_cell_length_a 10.885853
_cell_length_b 18.828923
_cell_length_c 13.749043
_cell_angle_alpha 90.000000
_cell_angle_beta 159.445116
_cell_angle_gamma 90.000000
_cell_volume 989.456640
_symmetry_space_group_name_H-M "C C"
_symmetry_group_IT_number 9
_symmetry_cell_setting 'monoclinic'
loop_
_space_group_symop_operation_xyz
x,y,z
x,-y,1/2+z
1/2+x,1/2+y,z
1/2+x,1/2-y,1/2+z
loop_
_atom_site_type_symbol
_atom_site_label
_atom_site_fract_x
_atom_site_fract_y
_atom_site_fract_z
Si Si1 0.415560 0.207797 0.861550
Si Si2 0.837761 0.949387 0.168809
Si Si3 0.199951 0.420753 0.455557
Si Si4 0.425094 0.044340 0.550799
Si Si5 0.855804 0.793134 0.113318
O O1 0.488097 0.133945 0.863723
O O2 0.267200 0.262223 0.671199
O O3 0.131699 0.192093 0.733312
O O4 0.754172 0.867887 0.085427
O O5 0.729849 0.969435 0.199002
O O6 0.249612 0.969785 0.458270
O O7 0.609120 0.999935 0.927856
O O8 0.618062 0.407075 0.775677
O O9 0.090817 0.412884 0.263150
O O10 0.010291 0.742543 0.312006
#
# Coordination Sequence:
#
# PCOD8054616 Si02
#       5
#     4   4   4   4   4
#     4  10  20  39  63  89 123 157 205 249 301 363
#     4  10  24  42  64  92 123 162 205 260 291 378
#     4  10  23  39  61  95 117 163 200 256 299 359
#     4  10  24  36  67  90 124 153 214 239 321 339
#     4  10  23  38  61  90 121 165 200 248 306 361
#
# _framework density 20.213113
#
# number of rings (size 3 to 8) (size 9 to 14) (size 15 to 20)
#    1.200    0.800    0.000    2.400    5.600    0.000 
#    0.000    6.000    0.000    0.000    0.000    0.000 
#    0.000    0.000    0.000    0.000    0.000    0.000 
#
# Total GULP energy -123952.320173 kJ/mol
# GULP energy per Si atom -12395.232017 kJ/mol
# Density = 2.016711 g / cm^3
# Si number density = 20.213113 Si / 1000 Ang^3
#
#
#
# Elastic Constant Matrix: (Units=GPa)
#
#
# Indices 1 2 3 4 5 6 
#
# 1 124.4824 59.8789 50.6522 0.0101 -10.3719 0.0059
# 2 59.8789 103.6856 25.1756 0.0391 1.4676 -0.0125
# 3 50.6522 25.1756 97.0161 0.3446 -32.4636 -0.0212
# 4 0.0101 0.0391 0.3446 19.8012 0.0278 0.3791
# 5 -10.3719 1.4676 -32.4636 0.0278 31.8426 0.0007
# 6 0.0059 -0.0125 -0.0212 0.3791 0.0007 37.8048
#
#
#
# Elastic Compliance Matrix: (Units=1/GPa)
#
#
# Indices 1 2 3 4 5 6 
#
# 1 0.013265 -0.006258 -0.005706 0.000107 -0.001209 -0.000008
# 2 -0.006258 0.013764 -0.001820 0.000014 -0.004528 0.000004
# 3 -0.005706 -0.001820 0.019984 -0.000368 0.018599 0.000015
# 4 0.000107 0.000014 -0.000368 0.050519 -0.000385 -0.000507
# 5 -0.001209 -0.004528 0.018599 -0.000385 0.050182 0.000012
# 6 -0.000008 0.000004 0.000015 -0.000507 0.000012 0.026457
#
#
# Mechanical properties :
#
#
# Convention : Reuss Voigt Hill
#
# Bulk Modulus (GPa) = 51.42715 66.28861 58.85788
# Shear Modulus (GPa) = 24.01302 30.52156 27.26729
#
# Velocity S-wave (km/s) = 3.45047 3.89007 3.67684
# Velocity P-wave (km/s) = 6.43211 7.28306 6.87077
#
# Compressibility (1/GPa) = 0.01944498
#
# Stress axis : x y z
#
# Youngs Moduli (GPa) = 75.38838 72.65125 50.03943
#
# Poissons Ratio (x) = 0.45463 0.28555
# Poissons Ratio (y) = 0.47176 0.09107
# Poissons Ratio (z) = 0.43020 0.13222
#
# Static dielectric constant tensor:
#      x y z
#    x 3.559780 -0.000100 -0.167950 
#    y -0.000100 3.360270 -0.000180 
#    z -0.167950 -0.000180 3.691890 
# 
# 
# High freq. dielectric constant tensor:
#      x y z
#    x 1.789530 0.000000 -0.014320 
#    y 0.000000 1.772410 -0.000010 
#    z -0.014320 -0.000010 1.784920 
# 
# From -- ./inp_files/476.got.cif
#   From: 2010.06.25/outbox.cif.g09.slc.cpg/sg9_1_cif.got.tgz:476.got - 2010.06.27 21:40:51.
