data_PCOD8054539
_publ_section_title
;
Structure prediction by ZEFSAII (Michael W. Deem and Ramdas Pophale) SiO2 
 PCOD8054539
Probable space group: C C
;
_chemical_formula_sum "Si O2"
_cell_formula_units_Z 32
_cell_length_a 9.233600
_cell_length_b 20.176390
_cell_length_c 8.699565
_cell_angle_alpha 90.000000
_cell_angle_beta 89.993635
_cell_angle_gamma 90.000000
_cell_volume 1620.735167
_symmetry_space_group_name_H-M "C C"
_symmetry_group_IT_number 9
_symmetry_cell_setting 'monoclinic'
loop_
_space_group_symop_operation_xyz
x,y,z
x,-y,1/2+z
1/2+x,1/2+y,z
1/2+x,1/2-y,1/2+z
loop_
_atom_site_type_symbol
_atom_site_label
_atom_site_fract_x
_atom_site_fract_y
_atom_site_fract_z
Si Si1 0.726160 0.429827 0.813030
Si Si2 0.716391 0.804039 0.954572
Si Si3 0.550016 0.685309 0.453958
Si Si4 0.726141 0.429954 0.451576
Si Si5 0.550004 0.314800 0.310705
Si Si6 0.531706 0.069217 0.452957
Si Si7 0.531683 0.069118 0.811435
Si Si8 0.716377 0.804136 0.310148
O O1 0.607143 0.375596 0.854297
O O2 0.738993 0.437100 0.632314
O O3 0.677277 0.499908 0.882460
O O4 0.881391 0.407093 0.878125
O O5 0.636825 0.751580 0.847682
O O6 0.653879 0.876634 0.919159
O O7 0.883858 0.803532 0.909425
O O8 0.692572 0.784517 0.132388
O O9 0.568402 0.667719 0.632301
O O10 0.636800 0.751730 0.417209
O O11 0.607068 0.375780 0.410129
O O12 0.881350 0.407247 0.386347
O O13 0.383841 0.303653 0.355275
O O14 0.503828 0.058915 0.632183
O O15 0.586189 0.000068 0.382081
O O16 0.653842 0.123255 0.845370
#
# Coordination Sequence:
#
# PCOD8054539 Si02
#       8
#     4   4   4   4   4   4   4   4
#     4  11  22  38  60  86 116 150 190 232 281 338
#     4  10  23  40  58  84 116 151 191 235 283 337
#     4  11  23  39  59  84 115 150 190 236 285 336
#     4  11  22  38  60  86 116 150 190 232 281 338
#     4  11  23  39  59  84 115 150 190 236 285 336
#     4  10  20  37  60  86 117 151 190 233 281 335
#     4  10  20  37  60  86 117 151 190 233 281 335
#     4  10  23  40  58  84 116 151 191 235 283 337
#
# _framework density 19.744128
#
# number of rings (size 3 to 8) (size 9 to 14) (size 15 to 20)
#    0.000    1.500    0.000    6.750    0.000    9.000 
#    0.000    2.500    0.000    0.000    0.000    0.000 
#    0.000    0.000    0.000    0.000    0.000    0.000 
#
# Total GULP energy -198503.820597 kJ/mol
# GULP energy per Si atom -12406.488787 kJ/mol
# Density = 1.969919 g / cm^3
# Si number density = 19.744128 Si / 1000 Ang^3
#
#
#
# Elastic Constant Matrix: (Units=GPa)
#
#
# Indices 1 2 3 4 5 6 
#
# 1 128.3435 74.2692 52.0274 0.0000 5.3197 0.0000
# 2 74.2692 116.8104 54.5570 0.0000 2.1205 0.0000
# 3 52.0274 54.5570 120.6907 0.0000 -3.9641 0.0000
# 4 0.0000 0.0000 0.0000 36.8763 0.0000 0.0569
# 5 5.3197 2.1205 -3.9641 0.0000 10.5235 0.0000
# 6 0.0000 0.0000 0.0000 0.0569 0.0000 37.3451
#
#
#
# Elastic Compliance Matrix: (Units=1/GPa)
#
#
# Indices 1 2 3 4 5 6 
#
# 1 0.013220 -0.007014 -0.002735 0.000000 -0.006300 0.000000
# 2 -0.007014 0.014749 -0.003670 0.000000 -0.000809 0.000000
# 3 -0.002735 -0.003670 0.011334 0.000000 0.006392 0.000000
# 4 0.000000 0.000000 0.000000 0.027118 0.000000 -0.000041
# 5 -0.006300 -0.000809 0.006392 0.000000 0.100781 0.000000
# 6 0.000000 0.000000 0.000000 -0.000041 0.000000 0.026777
#
#
# Mechanical properties :
#
#
# Convention : Reuss Voigt Hill
#
# Bulk Modulus (GPa) = 80.22807 80.83908 80.53357
# Shear Modulus (GPa) = 22.22492 29.28172 25.75332
#
# Velocity S-wave (km/s) = 3.35871 3.85523 3.61550
# Velocity P-wave (km/s) = 7.46748 7.80060 7.63586
#
# Compressibility (1/GPa) = 0.01246447
#
# Stress axis : x y z
#
# Youngs Moduli (GPa) = 75.64191 67.80071 88.23052
#
# Poissons Ratio (x) = 0.47552 0.24135
# Poissons Ratio (y) = 0.53052 0.32384
# Poissons Ratio (z) = 0.20692 0.24885
#
# Static dielectric constant tensor:
#      x y z
#    x 3.599800 0.000000 -0.007830 
#    y 0.000000 3.651670 0.000000 
#    z -0.007830 0.000000 3.688550 
# 
# 
# High freq. dielectric constant tensor:
#      x y z
#    x 1.770410 0.000000 -0.000970 
#    y 0.000000 1.781570 0.000000 
#    z -0.000970 0.000000 1.781370 
# 
# From -- ./inp_files/5776.got.cif
#   From: 2010.06.25/outbox.cif.g09.slc.cpg/sg9_3_cif.got.tgz:5776.got - 2010.06.27 21:40:51.
