data_PCOD8054907
_publ_section_title
;
Structure prediction by ZEFSAII (Michael W. Deem and Ramdas Pophale) SiO2 
 PCOD8054907
Probable space group: C C
;
_chemical_formula_sum "Si O2"
_cell_formula_units_Z 32
_cell_length_a 7.537727
_cell_length_b 21.827680
_cell_length_c 13.663734
_cell_angle_alpha 90.000000
_cell_angle_beta 42.699590
_cell_angle_gamma 90.000000
_cell_volume 1524.565094
_symmetry_space_group_name_H-M "C C"
_symmetry_group_IT_number 9
_symmetry_cell_setting 'monoclinic'
loop_
_space_group_symop_operation_xyz
x,y,z
x,-y,1/2+z
1/2+x,1/2+y,z
1/2+x,1/2-y,1/2+z
loop_
_atom_site_type_symbol
_atom_site_label
_atom_site_fract_x
_atom_site_fract_y
_atom_site_fract_z
Si Si1 0.980980 0.506154 0.212880
Si Si2 0.170714 0.887047 0.157350
Si Si3 0.222823 0.302999 0.250984
Si Si4 0.605348 0.870208 0.106001
Si Si5 0.416472 0.184431 0.067726
Si Si6 0.544235 0.020348 0.412255
Si Si7 0.751120 0.077278 0.962344
Si Si8 0.033738 0.910809 0.799294
O O1 0.727108 0.543223 0.278176
O O2 0.000681 0.439762 0.156615
O O3 0.009485 0.498897 0.316083
O O4 0.240472 0.543861 0.071630
O O5 0.392922 0.842607 0.114592
O O6 0.951943 0.848300 0.190884
O O7 0.036021 0.926025 0.299740
O O8 0.299199 0.935314 0.031212
O O9 0.083151 0.332517 0.213998
O O10 0.355564 0.239872 0.165229
O O11 0.997605 0.293323 0.424992
O O12 0.893118 0.870626 0.941990
O O13 0.173714 0.137083 0.169061
O O14 0.667179 0.148225 0.008302
O O15 0.821063 0.053393 0.320633
O O16 0.535952 0.958627 0.480833
#
# Coordination Sequence:
#
# PCOD8054907 Si02
#       8
#     4   4   4   4   4   4   4   4
#     4  11  21  35  60  90 125 168 202 253 321 375
#     4  10  22  41  60  89 129 163 209 266 307 375
#     4  11  23  44  64  89 121 169 218 259 318 373
#     4  11  22  38  62  92 124 170 206 257 321 368
#     4  10  23  42  67  88 124 168 211 267 313 369
#     4  11  22  37  63  94 128 167 206 253 323 380
#     4  10  21  40  59  95 128 160 206 261 315 381
#     4  10  22  41  59  91 131 161 210 264 306 383
#
# _framework density 20.989591999999998
#
# number of rings (size 3 to 8) (size 9 to 14) (size 15 to 20)
#    0.000    1.500    2.500    3.750    1.750    2.000 
#    0.000   10.000    0.000    0.000    0.000    0.000 
#    0.000    0.000    0.000    0.000    0.000    0.000 
#
# Total GULP energy -198273.261579 kJ/mol
# GULP energy per Si atom -12392.078849 kJ/mol
# Density = 2.094182 g / cm^3
# Si number density = 20.989592 Si / 1000 Ang^3
#
#
#
# Elastic Constant Matrix: (Units=GPa)
#
#
# Indices 1 2 3 4 5 6 
#
# 1 49.0091 1.5409 20.4887 0.0000 -4.6137 0.0000
# 2 1.5409 76.7141 32.7924 0.0000 -4.8207 0.0000
# 3 20.4887 32.7924 120.6320 0.0000 2.8209 0.0000
# 4 0.0000 0.0000 0.0000 34.1753 0.0000 8.7002
# 5 -4.6137 -4.8207 2.8209 0.0000 27.8100 0.0000
# 6 0.0000 0.0000 0.0000 8.7002 0.0000 18.8428
#
#
#
# Elastic Compliance Matrix: (Units=1/GPa)
#
#
# Indices 1 2 3 4 5 6 
#
# 1 0.022619 0.001715 -0.004413 0.000000 0.004497 0.000000
# 2 0.001715 0.015128 -0.004482 0.000000 0.003362 0.000000
# 3 -0.004413 -0.004482 0.010317 0.000000 -0.002556 0.000000
# 4 0.000000 0.000000 0.000000 0.033159 0.000000 -0.015310
# 5 0.004497 0.003362 -0.002556 0.000000 0.037546 0.000000
# 6 0.000000 0.000000 0.000000 -0.015310 0.000000 0.060140
#
#
# Mechanical properties :
#
#
# Convention : Reuss Voigt Hill
#
# Bulk Modulus (GPa) = 29.67077 39.55547 34.61312
# Shear Modulus (GPa) = 24.44932 28.93448 26.69190
#
# Velocity S-wave (km/s) = 3.41666 3.71686 3.56992
# Velocity P-wave (km/s) = 5.45265 6.10789 5.78955
#
# Compressibility (1/GPa) = 0.03370320
#
# Stress axis : x y z
#
# Youngs Moduli (GPa) = 44.21123 66.10167 96.92367
#
# Poissons Ratio (x) = -0.11334 0.42772
# Poissons Ratio (y) = -0.07581 0.43444
# Poissons Ratio (z) = 0.19510 0.29628
#
# Static dielectric constant tensor:
#      x y z
#    x 3.538000 0.000000 -0.036090 
#    y 0.000000 3.734190 0.000000 
#    z -0.036090 0.000000 4.262360 
# 
# 
# High freq. dielectric constant tensor:
#      x y z
#    x 1.800400 0.000000 -0.004690 
#    y 0.000000 1.811410 0.000000 
#    z -0.004690 0.000000 1.849980 
# 
# From -- ./inp_files/23746.got.cif
#   From: 2010.06.25/outbox.cif.g09.slc.cpg/sg9_12_cif.got.tgz:23746.got - 2010.06.27 21:40:51.
