data_PCOD8054423
_publ_section_title
;
Structure prediction by ZEFSAII (Michael W. Deem and Ramdas Pophale) SiO2 
 PCOD8054423
Probable space group: C C
;
_chemical_formula_sum "Si O2"
_cell_formula_units_Z 32
_cell_length_a 8.853080
_cell_length_b 22.658520
_cell_length_c 12.845211
_cell_angle_alpha 90.000000
_cell_angle_beta 145.009566
_cell_angle_gamma 90.000000
_cell_volume 1477.593255
_symmetry_space_group_name_H-M "C C"
_symmetry_group_IT_number 9
_symmetry_cell_setting 'monoclinic'
loop_
_space_group_symop_operation_xyz
x,y,z
x,-y,1/2+z
1/2+x,1/2+y,z
1/2+x,1/2-y,1/2+z
loop_
_atom_site_type_symbol
_atom_site_label
_atom_site_fract_x
_atom_site_fract_y
_atom_site_fract_z
Si Si1 0.693510 0.821702 0.141080
Si Si2 0.186934 0.806640 0.973527
Si Si3 0.014622 0.611358 0.347830
Si Si4 0.690269 0.494986 0.722577
Si Si5 0.314527 0.320360 0.573656
Si Si6 0.952557 0.081236 0.438996
Si Si7 0.118574 0.193799 0.037066
Si Si8 0.712605 0.947188 0.583666
O O1 0.661142 0.763457 0.053130
O O2 0.986550 0.828206 0.354539
O O3 0.496156 0.819076 0.128956
O O4 0.636771 0.874681 0.030169
O O5 0.060222 0.815888 0.789548
O O6 0.076089 0.853503 0.994030
O O7 0.137419 0.739444 0.986981
O O8 0.765963 0.569292 0.224464
O O9 0.904584 0.665833 0.217880
O O10 0.235603 0.581058 0.405267
O O11 0.666805 0.536365 0.607106
O O12 0.418483 0.486101 0.632560
O O13 0.929820 0.520562 0.928138
O O14 0.423323 0.322983 0.519614
O O15 0.158748 0.380763 0.509901
O O16 0.831344 0.055422 0.265756
#
# Coordination Sequence:
#
# PCOD8054423 Si02
#       8
#     4   4   4   4   4   4   4   4
#     4  11  21  39  71  98 134 183 228 282 342 421
#     4  10  20  40  66 101 138 175 231 282 345 418
#     4  12  24  46  62 106 137 175 236 285 352 415
#     4  12  26  47  73  98 142 185 237 293 339 426
#     4  10  19  39  67 103 134 177 232 282 334 424
#     4  11  28  46  69 101 140 179 230 297 354 410
#     4  11  20  38  71  98 137 181 227 281 342 411
#     4  11  26  47  71 103 136 187 241 284 346 417
#
# _framework density 21.656839999999999
#
# number of rings (size 3 to 8) (size 9 to 14) (size 15 to 20)
#    0.000    1.000    5.000    3.000    5.250    2.000 
#    4.500    0.000    0.000    0.000    0.000    0.000 
#    0.000    0.000    0.000    0.000    0.000    0.000 
#
# Total GULP energy -198387.395138 kJ/mol
# GULP energy per Si atom -12399.212196 kJ/mol
# Density = 2.160755 g / cm^3
# Si number density = 21.656840 Si / 1000 Ang^3
#
#
#
# Elastic Constant Matrix: (Units=GPa)
#
#
# Indices 1 2 3 4 5 6 
#
# 1 54.3761 29.6323 24.6994 0.0000 -15.9886 0.0000
# 2 29.6323 105.5045 46.3263 0.0000 -16.5487 0.0000
# 3 24.6994 46.3263 120.0023 0.0000 -11.2737 0.0000
# 4 0.0000 0.0000 0.0000 41.9782 0.0000 -1.0956
# 5 -15.9886 -16.5487 -11.2737 0.0000 15.2560 0.0000
# 6 0.0000 0.0000 0.0000 -1.0956 0.0000 27.2303
#
#
#
# Elastic Compliance Matrix: (Units=1/GPa)
#
#
# Indices 1 2 3 4 5 6 
#
# 1 0.028386 -0.003074 -0.002336 0.000000 0.024688 0.000000
# 2 -0.003074 0.013296 -0.003705 0.000000 0.008463 0.000000
# 3 -0.002336 -0.003705 0.010356 0.000000 0.001185 0.000000
# 4 0.000000 0.000000 0.000000 0.023847 0.000000 0.000959
# 5 0.024688 0.008463 0.001185 0.000000 0.101476 0.000000
# 6 0.000000 0.000000 0.000000 0.000959 0.000000 0.036762
#
#
# Mechanical properties :
#
#
# Convention : Reuss Voigt Hill
#
# Bulk Modulus (GPa) = 29.58031 53.46654 41.52342
# Shear Modulus (GPa) = 20.52341 28.84124 24.68232
#
# Velocity S-wave (km/s) = 3.08176 3.65326 3.37961
# Velocity P-wave (km/s) = 5.13335 6.52202 5.86890
#
# Compressibility (1/GPa) = 0.03380627
#
# Stress axis : x y z
#
# Youngs Moduli (GPa) = 35.22833 75.21059 96.56514
#
# Poissons Ratio (x) = 0.23123 0.22562
# Poissons Ratio (y) = 0.10831 0.35778
# Poissons Ratio (z) = 0.08231 0.27866
#
# Static dielectric constant tensor:
#      x y z
#    x 3.529790 0.000000 0.010790 
#    y 0.000000 4.212220 0.000000 
#    z 0.010790 0.000000 3.980270 
# 
# 
# High freq. dielectric constant tensor:
#      x y z
#    x 1.817130 0.000000 -0.004980 
#    y 0.000000 1.862830 0.000000 
#    z -0.004980 0.000000 1.862590 
# 
# From -- ./inp_files/15625.got.cif
#   From: 2010.06.25/outbox.cif.g09.slc.cpg/sg9_8_cif.got.tgz:15625.got - 2010.06.27 21:40:51.
