data_PCOD8054529
_publ_section_title
;
Structure prediction by ZEFSAII (Michael W. Deem and Ramdas Pophale) SiO2 
 PCOD8054529
Probable space group: C C
;
_chemical_formula_sum "Si O2"
_cell_formula_units_Z 32
_cell_length_a 9.137596
_cell_length_b 28.331706
_cell_length_c 11.112873
_cell_angle_alpha 90.000000
_cell_angle_beta 28.518106
_cell_angle_gamma 90.000000
_cell_volume 1373.556737
_symmetry_space_group_name_H-M "C C"
_symmetry_group_IT_number 9
_symmetry_cell_setting 'monoclinic'
loop_
_space_group_symop_operation_xyz
x,y,z
x,-y,1/2+z
1/2+x,1/2+y,z
1/2+x,1/2-y,1/2+z
loop_
_atom_site_type_symbol
_atom_site_label
_atom_site_fract_x
_atom_site_fract_y
_atom_site_fract_z
Si Si1 0.862070 0.500018 0.364550
Si Si2 0.754823 0.126353 0.251089
Si Si3 0.358682 0.266606 0.652650
Si Si4 0.660462 0.593335 0.584482
Si Si5 0.282037 0.378479 0.146835
Si Si6 0.478037 0.540395 0.940941
Si Si7 0.240129 0.272530 0.098950
Si Si8 0.615932 0.581221 0.188226
O O1 0.821907 0.556462 0.376936
O O2 0.782164 0.476714 0.293119
O O3 0.664528 0.473789 0.614611
O O4 0.226164 0.497765 0.133496
O O5 0.904114 0.177650 0.130519
O O6 0.388517 0.128400 0.491332
O O7 0.829121 0.105686 0.328195
O O8 0.894067 0.091237 0.054399
O O9 0.501032 0.248575 0.423045
O O10 0.533130 0.237659 0.631662
O O11 0.418759 0.624158 0.683722
O O12 0.524119 0.553182 0.769697
O O13 0.285820 0.327848 0.081839
O O14 0.932917 0.394897 0.414712
O O15 0.509272 0.412332 0.903450
O O16 0.076041 0.250526 0.335540
#
# Coordination Sequence:
#
# PCOD8054529 Si02
#       8
#     4   4   4   4   4   4   4   4
#     4  10  24  43  67 101 137 190 244 288 351 413
#     4  10  24  44  66 106 139 185 233 295 360 418
#     4  10  20  36  67  98 131 171 225 290 343 410
#     4  11  27  44  69  97 151 189 229 299 363 428
#     4  12  26  45  72 109 143 188 237 297 365 421
#     4  10  24  44  69  98 144 187 239 292 350 424
#     4  10  20  40  67 100 135 174 230 294 344 417
#     4  11  25  42  75 105 138 188 245 293 342 427
#
# _framework density 23.297180999999998
#
# number of rings (size 3 to 8) (size 9 to 14) (size 15 to 20)
#    0.000    1.500    0.000    4.500   12.250    2.000 
#    0.000    1.250    0.000    0.000    0.000    0.000 
#    0.000    0.000    0.000    0.000    0.000    0.000 
#
# Total GULP energy -198213.565957 kJ/mol
# GULP energy per Si atom -12388.347872 kJ/mol
# Density = 2.324416 g / cm^3
# Si number density = 23.297181 Si / 1000 Ang^3
#
#
#
# Elastic Constant Matrix: (Units=GPa)
#
#
# Indices 1 2 3 4 5 6 
#
# 1 107.2983 31.1444 35.7585 0.0000 -15.2459 0.0000
# 2 31.1444 102.6403 39.6222 0.0000 -8.8529 0.0000
# 3 35.7585 39.6222 123.2020 0.0000 7.4172 0.0000
# 4 0.0000 0.0000 0.0000 25.2239 0.0000 -5.9755
# 5 -15.2459 -8.8529 7.4172 0.0000 27.5557 0.0000
# 6 0.0000 0.0000 0.0000 -5.9755 0.0000 30.7914
#
#
#
# Elastic Compliance Matrix: (Units=1/GPa)
#
#
# Indices 1 2 3 4 5 6 
#
# 1 0.011913 -0.001737 -0.003316 0.000000 0.006926 0.000000
# 2 -0.001737 0.011985 -0.003582 0.000000 0.003853 0.000000
# 3 -0.003316 -0.003582 0.010582 0.000000 -0.005834 0.000000
# 4 0.000000 0.000000 0.000000 0.041555 0.000000 0.008064
# 5 0.006926 0.003853 -0.005834 0.000000 0.042930 0.000000
# 6 0.000000 0.000000 0.000000 0.008064 0.000000 0.034042
#
#
# Mechanical properties :
#
#
# Convention : Reuss Voigt Hill
#
# Bulk Modulus (GPa) = 58.10665 60.68786 59.39726
# Shear Modulus (GPa) = 28.40656 31.82190 30.11423
#
# Velocity S-wave (km/s) = 3.49565 3.69983 3.59919
# Velocity P-wave (km/s) = 6.42561 6.66016 6.54393
#
# Compressibility (1/GPa) = 0.01720973
#
# Stress axis : x y z
#
# Youngs Moduli (GPa) = 83.94009 83.43653 94.49626
#
# Poissons Ratio (x) = 0.14497 0.31334
# Poissons Ratio (y) = 0.14585 0.33850
# Poissons Ratio (z) = 0.27834 0.29888
#
# Static dielectric constant tensor:
#      x y z
#    x 4.082760 0.000000 0.032490 
#    y 0.000000 4.113440 0.000000 
#    z 0.032490 0.000000 4.915630 
# 
# 
# High freq. dielectric constant tensor:
#      x y z
#    x 1.893500 0.000000 0.003070 
#    y 0.000000 1.927420 0.000000 
#    z 0.003070 0.000000 1.926670 
# 
# From -- ./inp_files/15737.got.cif
#   From: 2010.06.25/outbox.cif.g09.slc.cpg/sg9_8_cif.got.tgz:15737.got - 2010.06.27 21:40:51.
