data_PCOD8054997
_publ_section_title
;
Structure prediction by ZEFSAII (Michael W. Deem and Ramdas Pophale) SiO2 
 PCOD8054997
Probable space group: C C
;
_chemical_formula_sum "Si O2"
_cell_formula_units_Z 32
_cell_length_a 4.954674
_cell_length_b 12.705093
_cell_length_c 22.790450
_cell_angle_alpha 90.000000
_cell_angle_beta 109.697203
_cell_angle_gamma 90.000000
_cell_volume 1350.703923
_symmetry_space_group_name_H-M "C C"
_symmetry_group_IT_number 9
_symmetry_cell_setting 'monoclinic'
loop_
_space_group_symop_operation_xyz
x,y,z
x,-y,1/2+z
1/2+x,1/2+y,z
1/2+x,1/2-y,1/2+z
loop_
_atom_site_type_symbol
_atom_site_label
_atom_site_fract_x
_atom_site_fract_y
_atom_site_fract_z
Si Si1 0.056960 0.191405 0.663820
Si Si2 0.940491 0.577122 0.531096
Si Si3 0.018330 0.070027 0.278808
Si Si4 0.181481 0.287247 0.247329
Si Si5 0.375107 0.481610 0.473541
Si Si6 0.118023 0.527790 0.831014
Si Si7 0.076809 0.808481 0.573937
Si Si8 0.306014 0.469347 0.638938
O O1 0.397596 0.201351 0.686805
O O2 0.948932 0.209448 0.722717
O O3 0.915326 0.282928 0.611726
O O4 0.978912 0.076040 0.633904
O O5 0.192651 0.553526 0.503818
O O6 0.926366 0.695244 0.554508
O O7 0.987369 0.493823 0.589367
O O8 0.644744 0.553759 0.476191
O O9 0.173705 0.181179 0.284362
O O10 0.277682 0.986412 0.300356
O O11 0.813736 0.069107 0.321162
O O12 0.804554 0.044806 0.208735
O O13 0.220837 0.377336 0.297869
O O14 0.190926 0.449626 0.403761
O O15 0.505145 0.374994 0.510852
O O16 0.954976 0.867436 0.622131
#
# Coordination Sequence:
#
# PCOD8054997 Si02
#       8
#     4   4   4   4   4   4   4   4
#     4  11  23  39  68 101 139 167 221 271 343 410
#     4  10  25  44  69 102 129 176 228 279 334 401
#     4  12  25  42  69  99 137 178 219 279 346 399
#     4  12  24  42  65 101 132 179 218 275 337 403
#     4  11  26  46  69  94 135 186 233 272 332 399
#     4  12  26  46  66  97 138 182 231 278 326 407
#     4  10  24  44  70 102 136 178 216 289 340 398
#     4  10  21  41  68 102 138 168 216 277 348 403
#
# _framework density 23.691348000000001
#
# number of rings (size 3 to 8) (size 9 to 14) (size 15 to 20)
#    0.000    1.000    3.750    1.500    1.750   11.000 
#    0.000    0.000    0.000    0.000    0.000    0.000 
#    0.000    0.000    0.000    0.000    0.000    0.000 
#
# Total GULP energy -198403.385586 kJ/mol
# GULP energy per Si atom -12400.211599 kJ/mol
# Density = 2.363743 g / cm^3
# Si number density = 23.691348 Si / 1000 Ang^3
#
#
#
# Elastic Constant Matrix: (Units=GPa)
#
#
# Indices 1 2 3 4 5 6 
#
# 1 71.7671 7.3105 13.3290 0.0000 5.9235 0.0000
# 2 7.3105 109.0558 30.9006 0.0000 -4.8896 0.0000
# 3 13.3290 30.9006 137.3918 0.0000 4.5749 0.0000
# 4 0.0000 0.0000 0.0000 32.6943 0.0000 -5.7853
# 5 5.9235 -4.8896 4.5749 0.0000 27.2726 0.0000
# 6 0.0000 0.0000 0.0000 -5.7853 0.0000 22.2312
#
#
#
# Elastic Compliance Matrix: (Units=1/GPa)
#
#
# Indices 1 2 3 4 5 6 
#
# 1 0.014479 -0.000791 -0.001124 0.000000 -0.003098 0.000000
# 2 -0.000791 0.009962 -0.002242 0.000000 0.002334 0.000000
# 3 -0.001124 -0.002242 0.007941 0.000000 -0.001490 0.000000
# 4 0.000000 0.000000 0.000000 0.032063 0.000000 0.008344
# 5 -0.003098 0.002334 -0.001490 0.000000 0.038008 0.000000
# 6 0.000000 0.000000 0.000000 0.008344 0.000000 0.047153
#
#
# Mechanical properties :
#
#
# Convention : Reuss Voigt Hill
#
# Bulk Modulus (GPa) = 41.54549 46.81053 44.17801
# Shear Modulus (GPa) = 30.13084 34.21791 32.17438
#
# Velocity S-wave (km/s) = 3.57011 3.80455 3.68919
# Velocity P-wave (km/s) = 5.87950 6.25306 6.06915
#
# Compressibility (1/GPa) = 0.02407000
#
# Stress axis : x y z
#
# Youngs Moduli (GPa) = 69.06578 100.37690 125.92515
#
# Poissons Ratio (x) = 0.07941 0.14149
# Poissons Ratio (y) = 0.05464 0.28227
# Poissons Ratio (z) = 0.07760 0.22501
#
# Static dielectric constant tensor:
#      x y z
#    x 4.063910 0.000000 0.134790 
#    y 0.000000 4.532460 0.000000 
#    z 0.134790 0.000000 4.168440 
# 
# 
# High freq. dielectric constant tensor:
#      x y z
#    x 1.938760 0.000000 0.007240 
#    y 0.000000 1.952380 0.000000 
#    z 0.007240 0.000000 1.925830 
# 
# From -- ./inp_files/32010.got.cif
#   From: 2010.06.25/outbox.cif.g09.slc.cpg/sg9_17_cif.got.tgz:32010.got - 2010.06.27 21:40:51.
