data_PCOD8054853
_publ_section_title
;
Structure prediction by ZEFSAII (Michael W. Deem and Ramdas Pophale) SiO2 
 PCOD8054853
Probable space group: C C
;
_chemical_formula_sum "Si O2"
_cell_formula_units_Z 28
_cell_length_a 24.207884
_cell_length_b 4.926605
_cell_length_c 13.713396
_cell_angle_alpha 90.000000
_cell_angle_beta 42.383338
_cell_angle_gamma 90.000000
_cell_volume 1102.467856
_symmetry_space_group_name_H-M "C C"
_symmetry_group_IT_number 9
_symmetry_cell_setting 'monoclinic'
loop_
_space_group_symop_operation_xyz
x,y,z
x,-y,1/2+z
1/2+x,1/2+y,z
1/2+x,1/2-y,1/2+z
loop_
_atom_site_type_symbol
_atom_site_label
_atom_site_fract_x
_atom_site_fract_y
_atom_site_fract_z
Si Si1 0.480500 0.099120 0.754290
Si Si2 0.878994 0.380052 0.725297
Si Si3 0.329259 0.109684 0.081166
Si Si4 0.183223 0.550443 0.853159
Si Si5 0.702231 0.777535 0.648345
Si Si6 0.779511 0.861999 0.897292
Si Si7 0.087958 0.876947 0.129499
O O1 0.462560 0.970576 0.670000
O O2 0.545728 0.338992 0.660862
O O3 0.523564 0.847577 0.753708
O O4 0.398570 0.208928 0.913922
O O5 0.880973 0.477092 0.610389
O O6 0.855943 0.063391 0.770570
O O7 0.807583 0.552392 0.873298
O O8 0.267696 0.339117 0.197479
O O9 0.279032 0.867449 0.098767
O O10 0.143004 0.382616 0.815020
O O11 0.209082 0.349984 0.906809
O O12 0.126603 0.781313 0.975126
O O13 0.738457 0.048730 0.551412
O O14 0.654288 0.592731 0.631181
#
# Coordination Sequence:
#
# PCOD8054853 Si02
#       7
#     4   4   4   4   4   4   4
#     4  12  27  50  70 110 155 197 240 316 372 455
#     4  11  22  42  70 105 142 186 243 309 368 425
#     4  11  25  44  82 106 138 194 268 301 361 443
#     4  10  24  44  73 108 144 190 250 306 363 450
#     4  11  23  44  76 109 141 195 255 308 363 458
#     4  10  21  38  70 107 139 177 242 316 358 416
#     4  11  30  48  73 107 161 197 234 306 405 431
#
# _framework density 25.397566000000001
#
# number of rings (size 3 to 8) (size 9 to 14) (size 15 to 20)
#    0.000    1.143    2.857    1.714    6.000    3.429 
#    0.000    0.000    0.000    0.000    0.000    0.000 
#    0.000    0.000    0.000    0.000    0.000    0.000 
#
# Total GULP energy -173502.086428 kJ/mol
# GULP energy per Si atom -12393.006173 kJ/mol
# Density = 2.533976 g / cm^3
# Si number density = 25.397566 Si / 1000 Ang^3
#
#
#
# Elastic Constant Matrix: (Units=GPa)
#
#
# Indices 1 2 3 4 5 6 
#
# 1 138.2805 17.0468 55.1195 -0.0280 25.7855 -0.0118
# 2 17.0468 51.4992 -3.8859 -0.1474 -3.6349 0.0172
# 3 55.1195 -3.8859 96.4262 -0.1373 14.0134 0.0643
# 4 -0.0280 -0.1474 -0.1373 32.8527 0.0228 -8.9138
# 5 25.7855 -3.6349 14.0134 0.0228 46.3797 -0.0029
# 6 -0.0118 0.0172 0.0643 -8.9138 -0.0029 31.0920
#
#
#
# Elastic Compliance Matrix: (Units=1/GPa)
#
#
# Indices 1 2 3 4 5 6 
#
# 1 0.010937 -0.004385 -0.005748 -0.000028 -0.004688 0.000010
# 2 -0.004385 0.021316 0.002896 0.000105 0.003234 0.000011
# 3 -0.005748 0.002896 0.013885 0.000063 -0.000773 -0.000015
# 4 -0.000028 0.000105 0.000063 0.033007 -0.000011 0.009463
# 5 -0.004688 0.003234 -0.000773 -0.000011 0.024654 -0.000003
# 6 0.000010 0.000011 -0.000015 0.009463 -0.000003 0.034875
#
#
# Mechanical properties :
#
#
# Convention : Reuss Voigt Hill
#
# Bulk Modulus (GPa) = 31.58023 46.97406 39.27715
# Shear Modulus (GPa) = 30.54282 36.59326 33.56804
#
# Velocity S-wave (km/s) = 3.47160 3.79993 3.63947
# Velocity P-wave (km/s) = 5.34141 6.14722 5.75843
#
# Compressibility (1/GPa) = 0.03166538
#
# Stress axis : x y z
#
# Youngs Moduli (GPa) = 91.42917 46.91247 72.01908
#
# Poissons Ratio (x) = 0.20571 0.41393
# Poissons Ratio (y) = 0.40092 -0.20856
# Poissons Ratio (z) = 0.52550 -0.13585
#
# Static dielectric constant tensor:
#      x y z
#    x 5.234430 -0.000080 0.406330 
#    y -0.000080 4.277750 0.000140 
#    z 0.406330 0.000140 4.630690 
# 
# 
# High freq. dielectric constant tensor:
#      x y z
#    x 2.031720 0.000000 0.019350 
#    y 0.000000 2.011180 0.000010 
#    z 0.019350 0.000010 1.998220 
# 
# From -- ./inp_files/26427.got.cif
#   From: 2010.06.25/outbox.cif.g09.slc.cpg/sg9_14_cif.got.tgz:26427.got - 2010.06.27 21:40:51.
