data_PCOD8054472
_publ_section_title
;
Structure prediction by ZEFSAII (Michael W. Deem and Ramdas Pophale) SiO2 
 PCOD8054472
Probable space group: C C
;
_chemical_formula_sum "Si O2"
_cell_formula_units_Z 28
_cell_length_a 8.440370
_cell_length_b 17.364565
_cell_length_c 14.499555
_cell_angle_alpha 90.000000
_cell_angle_beta 138.194391
_cell_angle_gamma 90.000000
_cell_volume 1416.605503
_symmetry_space_group_name_H-M "C C"
_symmetry_group_IT_number 9
_symmetry_cell_setting 'monoclinic'
loop_
_space_group_symop_operation_xyz
x,y,z
x,-y,1/2+z
1/2+x,1/2+y,z
1/2+x,1/2-y,1/2+z
loop_
_atom_site_type_symbol
_atom_site_label
_atom_site_fract_x
_atom_site_fract_y
_atom_site_fract_z
Si Si1 0.435540 0.188360 0.162430
Si Si2 0.752929 0.056791 0.220570
Si Si3 0.857344 0.261395 0.431725
Si Si4 0.602064 0.914475 0.261502
Si Si5 0.192442 0.849750 0.964968
Si Si6 0.403256 0.297226 0.483697
Si Si7 0.602580 0.899442 0.464613
O O1 0.557008 0.107128 0.190054
O O2 0.586816 0.233935 0.304234
O O3 0.428134 0.240973 0.068706
O O4 0.174717 0.178877 0.089630
O O5 0.015817 0.094297 0.332077
O O6 0.764883 0.975613 0.278123
O O7 0.673525 0.043855 0.079287
O O8 0.030824 0.202648 0.458040
O O9 0.878010 0.347314 0.398129
O O10 0.748730 0.833967 0.331989
O O11 0.546348 0.943603 0.343334
O O12 0.359722 0.902341 0.100885
O O13 0.350339 0.794703 0.966103
O O14 0.320503 0.339137 0.542468
#
# Coordination Sequence:
#
# PCOD8054472 Si02
#       7
#     4   4   4   4   4   4   4
#     4  10  20  33  60  88 126 144 209 261 307 350
#     4  10  22  40  62  91 124 168 202 259 317 382
#     4   9  18  34  58  88 115 161 197 256 302 365
#     4  10  22  38  65  86 125 165 214 251 312 369
#     4  10  21  38  64  87 121 168 214 239 323 378
#     4   9  22  35  64  86 122 159 213 255 301 359
#     4   8  19  38  61  82 121 163 205 245 318 367
#
# _framework density 19.765557999999999
#
# number of rings (size 3 to 8) (size 9 to 14) (size 15 to 20)
#    0.857    1.714    0.000    0.857   10.000    0.000 
#    0.000    5.714    0.000    0.000    0.000    0.000 
#    0.000    0.000    0.000    0.000    0.000    0.000 
#
# Total GULP energy -173477.959465 kJ/mol
# GULP energy per Si atom -12391.282819 kJ/mol
# Density = 1.972057 g / cm^3
# Si number density = 19.765558 Si / 1000 Ang^3
#
#
#
# Elastic Constant Matrix: (Units=GPa)
#
#
# Indices 1 2 3 4 5 6 
#
# 1 53.1516 23.3624 31.2079 0.0001 8.3390 0.0000
# 2 23.3624 64.6281 47.9650 0.0000 -16.6193 0.0000
# 3 31.2079 47.9650 100.7094 0.0003 4.7650 0.0002
# 4 0.0001 0.0000 0.0003 22.2696 0.0002 -5.4266
# 5 8.3390 -16.6193 4.7650 0.0002 35.4776 0.0002
# 6 0.0000 0.0000 0.0002 -5.4266 0.0002 11.6669
#
#
#
# Elastic Compliance Matrix: (Units=1/GPa)
#
#
# Indices 1 2 3 4 5 6 
#
# 1 0.026693 -0.010265 -0.002877 0.000000 -0.010696 0.000000
# 2 -0.010265 0.035530 -0.014736 0.000000 0.021036 0.000000
# 3 -0.002877 -0.014736 0.018250 0.000000 -0.008678 0.000000
# 4 0.000000 0.000000 0.000000 0.050644 0.000000 0.023556
# 5 -0.010696 0.021036 -0.008678 0.000000 0.041721 -0.000001
# 6 0.000000 0.000000 0.000000 0.023556 -0.000001 0.096669
#
#
# Mechanical properties :
#
#
# Convention : Reuss Voigt Hill
#
# Bulk Modulus (GPa) = 40.45731 47.06219 43.75975
# Shear Modulus (GPa) = 14.99237 21.61308 18.30273
#
# Velocity S-wave (km/s) = 2.75709 3.31036 3.04631
# Velocity P-wave (km/s) = 5.53610 6.20267 5.87884
#
# Compressibility (1/GPa) = 0.02471741
#
# Stress axis : x y z
#
# Youngs Moduli (GPa) = 37.46272 28.14508 54.79407
#
# Poissons Ratio (x) = 0.28891 0.15763
# Poissons Ratio (y) = 0.38455 0.80747
# Poissons Ratio (z) = 0.10777 0.41476
#
# Static dielectric constant tensor:
#      x y z
#    x 3.482060 0.000000 -0.015830 
#    y 0.000000 3.369520 0.000000 
#    z -0.015830 0.000000 3.634200 
# 
# 
# High freq. dielectric constant tensor:
#      x y z
#    x 1.759890 0.000000 -0.000350 
#    y 0.000000 1.743070 0.000000 
#    z -0.000350 0.000000 1.773340 
# 
# From -- ./inp_files/10983.got.cif
#   From: 2010.06.25/outbox.cif.g09.slc.cpg/sg9_6_cif.got.tgz:10983.got - 2010.06.27 21:40:51.
