data_PCOD8054202
_publ_section_title
;
Structure prediction by ZEFSAII (Michael W. Deem and Ramdas Pophale) SiO2 
 PCOD8054202
Probable space group: C C
;
_chemical_formula_sum "Si O2"
_cell_formula_units_Z 32
_cell_length_a 9.398488
_cell_length_b 16.531523
_cell_length_c 12.123908
_cell_angle_alpha 90.000000
_cell_angle_beta 122.069322
_cell_angle_gamma 90.000000
_cell_volume 1596.265737
_symmetry_space_group_name_H-M "C C"
_symmetry_group_IT_number 9
_symmetry_cell_setting 'monoclinic'
loop_
_space_group_symop_operation_xyz
x,y,z
x,-y,1/2+z
1/2+x,1/2+y,z
1/2+x,1/2-y,1/2+z
loop_
_atom_site_type_symbol
_atom_site_label
_atom_site_fract_x
_atom_site_fract_y
_atom_site_fract_z
Si Si1 0.663980 0.450410 0.708750
Si Si2 0.430423 0.745927 0.760823
Si Si3 0.153872 0.377615 0.929390
Si Si4 0.020237 0.120749 0.630251
Si Si5 0.943118 0.462684 0.001437
Si Si6 0.920758 0.403706 0.650341
Si Si7 0.791306 0.320797 0.072014
Si Si8 0.615660 0.278141 0.773457
O O1 0.536955 0.524939 0.655937
O O2 0.740183 0.436601 0.618287
O O3 0.575965 0.369665 0.718314
O O4 0.821217 0.470206 0.849086
O O5 0.561323 0.789325 0.898697
O O6 0.501965 0.661698 0.744013
O O7 0.408154 0.805579 0.643894
O O8 0.254575 0.735393 0.752327
O O9 0.074850 0.427936 0.795511
O O10 0.350121 0.365707 0.991634
O O11 0.118179 0.424941 0.029645
O O12 0.169002 0.161095 0.623462
O O13 0.966641 0.554490 0.053975
O O14 0.868362 0.405993 0.065984
O O15 0.939299 0.267099 0.186322
O O16 0.689345 0.277637 0.929459
#
# Coordination Sequence:
#
# PCOD8054202 Si02
#       8
#     4   4   4   4   4   4   4   4
#     4   9  20  39  62  90 122 160 209 256 312 371
#     4   9  21  39  63  87 127 164 211 253 316 375
#     4   9  21  39  58  90 125 164 201 262 304 389
#     4  12  23  39  62  97 128 157 208 267 326 363
#     4  10  17  42  66  82 122 171 209 251 308 374
#     4   8  17  39  61  84 115 164 202 253 302 361
#     4  11  23  40  69  91 131 162 213 264 319 372
#     4  10  22  47  65  91 124 176 211 258 315 389
#
# _framework density 20.046786000000001
#
# number of rings (size 3 to 8) (size 9 to 14) (size 15 to 20)
#    0.750    1.500    3.750    0.750    1.750    1.000 
#   11.250    0.000    0.000    0.000    0.000    0.000 
#    0.000    0.000    0.000    0.000    0.000    0.000 
#
# Total GULP energy -198220.583471 kJ/mol
# GULP energy per Si atom -12388.786467 kJ/mol
# Density = 2.000116 g / cm^3
# Si number density = 20.046786 Si / 1000 Ang^3
#
#
#
# Elastic Constant Matrix: (Units=GPa)
#
#
# Indices 1 2 3 4 5 6 
#
# 1 106.8425 28.5325 21.8397 0.0000 13.3002 0.0000
# 2 28.5325 45.4247 15.5267 0.0000 10.9200 0.0000
# 3 21.8397 15.5267 39.5054 0.0000 9.2190 0.0000
# 4 0.0000 0.0000 0.0000 29.2895 0.0000 -1.7483
# 5 13.3002 10.9200 9.2190 0.0000 31.7200 0.0000
# 6 0.0000 0.0000 0.0000 -1.7483 0.0000 31.5577
#
#
#
# Elastic Compliance Matrix: (Units=1/GPa)
#
#
# Indices 1 2 3 4 5 6 
#
# 1 0.011915 -0.005692 -0.003906 0.000000 -0.001901 0.000000
# 2 -0.005692 0.029370 -0.007074 0.000000 -0.005669 0.000000
# 3 -0.003906 -0.007074 0.031434 0.000000 -0.005063 0.000000
# 4 0.000000 0.000000 0.000000 0.034255 0.000000 0.001898
# 5 -0.001901 -0.005669 -0.005063 0.000000 0.035746 0.000000
# 6 0.000000 0.000000 0.000000 0.001898 0.000000 0.031793
#
#
# Mechanical properties :
#
#
# Convention : Reuss Voigt Hill
#
# Bulk Modulus (GPa) = 25.39649 35.95226 30.67438
# Shear Modulus (GPa) = 22.62626 26.90500 24.76563
#
# Velocity S-wave (km/s) = 3.36322 3.66746 3.51863
# Velocity P-wave (km/s) = 5.27046 5.99223 5.64289
#
# Compressibility (1/GPa) = 0.03937552
#
# Stress axis : x y z
#
# Youngs Moduli (GPa) = 83.93006 34.04798 31.81256
#
# Poissons Ratio (x) = 0.19379 0.12426
# Poissons Ratio (y) = 0.47771 0.22504
# Poissons Ratio (z) = 0.32784 0.24085
#
# Static dielectric constant tensor:
#      x y z
#    x 3.598150 0.000000 0.006830 
#    y 0.000000 3.681860 0.000000 
#    z 0.006830 0.000000 3.415340 
# 
# 
# High freq. dielectric constant tensor:
#      x y z
#    x 1.776580 0.000000 0.000530 
#    y 0.000000 1.773360 0.000000 
#    z 0.000530 0.000000 1.764760 
# 
# From -- ./inp_files/15209.got.cif
#   From: 2010.06.25/outbox.cif.g09.slc.cpg/sg9_8_cif.got.tgz:15209.got - 2010.06.27 21:40:51.
