data_PCOD8054315
_publ_section_title
;
Structure prediction by ZEFSAII (Michael W. Deem and Ramdas Pophale) SiO2 
 PCOD8054315
Probable space group: C C
;
_chemical_formula_sum "Si O2"
_cell_formula_units_Z 28
_cell_length_a 12.180465
_cell_length_b 17.706965
_cell_length_c 9.169327
_cell_angle_alpha 90.000000
_cell_angle_beta 137.582377
_cell_angle_gamma 90.000000
_cell_volume 1333.971033
_symmetry_space_group_name_H-M "C C"
_symmetry_group_IT_number 9
_symmetry_cell_setting 'monoclinic'
loop_
_space_group_symop_operation_xyz
x,y,z
x,-y,1/2+z
1/2+x,1/2+y,z
1/2+x,1/2-y,1/2+z
loop_
_atom_site_type_symbol
_atom_site_label
_atom_site_fract_x
_atom_site_fract_y
_atom_site_fract_z
Si Si1 0.426210 0.612526 0.799000
Si Si2 0.714116 0.480317 0.459917
Si Si3 0.870316 0.832915 0.956956
Si Si4 0.266731 0.545097 0.168954
Si Si5 0.395673 0.067186 0.870559
Si Si6 0.186220 0.794492 0.119217
Si Si7 0.011503 0.877431 0.699373
O O1 0.587168 0.585704 0.870820
O O2 0.339800 0.673023 0.602756
O O3 0.305075 0.542994 0.706380
O O4 0.466694 0.652469 0.993259
O O5 0.778164 0.508268 0.677129
O O6 0.865166 0.448645 0.512104
O O7 0.632069 0.551886 0.299344
O O8 0.843472 0.921336 0.892915
O O9 0.750165 0.788359 0.727417
O O10 0.057843 0.813714 0.117677
O O11 0.346736 0.593013 0.115415
O O12 0.074596 0.555581 0.985730
O O13 0.344960 0.152825 0.784722
O O14 0.097095 0.807951 0.874003
#
# Coordination Sequence:
#
# PCOD8054315 Si02
#       7
#     4   4   4   4   4   4   4
#     4  11  20  38  61  92 125 162 205 259 310 357
#     4  10  19  34  59  88 124 163 201 252 311 355
#     4  11  22  41  64  87 121 168 212 253 302 382
#     4  10  22  35  61  92 129 163 204 250 312 363
#     4  11  21  35  59  95 128 160 205 257 302 368
#     4  10  22  41  63  85 122 172 210 241 314 379
#     4   9  20  38  57  87 125 168 199 254 307 370
#
# _framework density 20.989961000000001
#
# number of rings (size 3 to 8) (size 9 to 14) (size 15 to 20)
#    0.000    1.714    2.857    3.429    4.000    0.000 
#    0.000    2.857    0.000    0.000    0.000    0.000 
#    0.000    0.000    0.000    0.000    0.000    0.000 
#
# Total GULP energy -173454.531617 kJ/mol
# GULP energy per Si atom -12389.609401 kJ/mol
# Density = 2.094219 g / cm^3
# Si number density = 20.989961 Si / 1000 Ang^3
#
#
#
# Elastic Constant Matrix: (Units=GPa)
#
#
# Indices 1 2 3 4 5 6 
#
# 1 89.7217 31.1694 65.6778 0.0000 -6.4866 0.0000
# 2 31.1694 63.6550 44.0354 0.0000 -9.7852 0.0000
# 3 65.6778 44.0354 100.2282 0.0000 -19.6103 0.0000
# 4 0.0000 0.0000 0.0000 26.5360 0.0000 -1.6991
# 5 -6.4866 -9.7852 -19.6103 0.0000 56.3686 0.0000
# 6 0.0000 0.0000 0.0000 -1.6991 0.0000 6.8849
#
#
#
# Elastic Compliance Matrix: (Units=1/GPa)
#
#
# Indices 1 2 3 4 5 6 
#
# 1 0.021845 -0.001211 -0.014305 0.000000 -0.002673 0.000000
# 2 -0.001211 0.022650 -0.009030 0.000000 0.000651 0.000000
# 3 -0.014305 -0.009030 0.024347 0.000000 0.005256 0.000000
# 4 0.000000 0.000000 0.000000 0.038290 0.000000 0.009449
# 5 -0.002673 0.000651 0.005256 0.000000 0.019374 0.000000
# 6 0.000000 0.000000 0.000000 0.009449 0.000000 0.147577
#
#
# Mechanical properties :
#
#
# Convention : Reuss Voigt Hill
#
# Bulk Modulus (GPa) = 50.63763 59.48556 55.06159
# Shear Modulus (GPa) = 15.16255 25.47271 20.31763
#
# Velocity S-wave (km/s) = 2.69061 3.48741 3.11460
# Velocity P-wave (km/s) = 5.81632 6.67964 6.26287
#
# Compressibility (1/GPa) = 0.01974816
#
# Stress axis : x y z
#
# Youngs Moduli (GPa) = 45.77709 44.15068 41.07246
#
# Poissons Ratio (x) = 0.05348 0.58756
# Poissons Ratio (y) = 0.05545 0.37089
# Poissons Ratio (z) = 0.65486 0.39868
#
# Static dielectric constant tensor:
#      x y z
#    x 3.805290 0.000000 -0.034200 
#    y 0.000000 3.735400 0.000000 
#    z -0.034200 0.000000 3.842240 
# 
# 
# High freq. dielectric constant tensor:
#      x y z
#    x 1.823630 0.000000 -0.003570 
#    y 0.000000 1.791270 0.000000 
#    z -0.003570 0.000000 1.821740 
# 
# From -- ./inp_files/7853.got.cif
#   From: 2010.06.25/outbox.cif.g09.slc.cpg/sg9_4_cif.got.tgz:7853.got - 2010.06.27 21:40:51.
