data_PCOD8054581
_publ_section_title
;
Structure prediction by ZEFSAII (Michael W. Deem and Ramdas Pophale) SiO2 
 PCOD8054581
Probable space group: C C
;
_chemical_formula_sum "Si O2"
_cell_formula_units_Z 32
_cell_length_a 23.109939
_cell_length_b 15.262110
_cell_length_c 8.819508
_cell_angle_alpha 90.000000
_cell_angle_beta 30.331070
_cell_angle_gamma 90.000000
_cell_volume 1570.888850
_symmetry_space_group_name_H-M "C C"
_symmetry_group_IT_number 9
_symmetry_cell_setting 'monoclinic'
loop_
_space_group_symop_operation_xyz
x,y,z
x,-y,1/2+z
1/2+x,1/2+y,z
1/2+x,1/2-y,1/2+z
loop_
_atom_site_type_symbol
_atom_site_label
_atom_site_fract_x
_atom_site_fract_y
_atom_site_fract_z
Si Si1 0.690290 0.226643 0.736760
Si Si2 0.385925 0.824935 0.380503
Si Si3 0.305164 0.770950 0.883883
Si Si4 0.567341 0.711447 0.810513
Si Si5 0.001871 0.623267 0.048930
Si Si6 0.362253 0.587005 0.245816
Si Si7 0.785398 0.082973 0.072876
Si Si8 0.530190 0.030881 0.678180
O O1 0.770435 0.314534 0.535660
O O2 0.782332 0.146931 0.535467
O O3 0.613142 0.239508 0.058568
O O4 0.598204 0.201172 0.813932
O O5 0.360946 0.770772 0.591000
O O6 0.421651 0.924007 0.337731
O O7 0.495009 0.784025 0.057131
O O8 0.376558 0.835162 0.831413
O O9 0.176738 0.810683 0.168833
O O10 0.314657 0.674549 0.929737
O O11 0.492406 0.624515 0.946536
O O12 0.019392 0.572912 0.169471
O O13 0.020005 0.550009 0.879147
O O14 0.312202 0.585848 0.190006
O O15 0.363762 0.490296 0.313895
O O16 0.652313 0.064039 0.342077
#
# Coordination Sequence:
#
# PCOD8054581 Si02
#       8
#     4   4   4   4   4   4   4   4
#     4  10  20  38  62  89 129 160 212 263 313 385
#     4   9  21  36  63  90 121 169 212 260 331 375
#     4  10  23  41  64  90 131 171 213 265 324 390
#     4  10  21  40  64  91 128 170 209 264 328 386
#     4  11  23  39  61  94 126 159 217 265 318 379
#     4  11  25  38  64 103 128 166 222 268 329 375
#     4  12  22  40  64  98 129 167 216 270 319 383
#     4  11  21  38  60  93 122 160 213 265 316 375
#
# _framework density 20.370633000000002
#
# number of rings (size 3 to 8) (size 9 to 14) (size 15 to 20)
#    0.000    1.500    3.750    0.750    7.000    0.000 
#    0.000    5.000    0.000    0.000    0.000    0.000 
#    0.000    0.000    0.000    0.000    0.000    0.000 
#
# Total GULP energy -198250.206793 kJ/mol
# GULP energy per Si atom -12390.637925 kJ/mol
# Density = 2.032427 g / cm^3
# Si number density = 20.370633 Si / 1000 Ang^3
#
#
#
# Elastic Constant Matrix: (Units=GPa)
#
#
# Indices 1 2 3 4 5 6 
#
# 1 95.0128 50.8498 45.9640 0.0000 -27.6998 0.0000
# 2 50.8498 99.3468 50.1454 0.0000 -6.9083 0.0000
# 3 45.9640 50.1454 122.1621 0.0000 -14.4402 0.0000
# 4 0.0000 0.0000 0.0000 14.9776 0.0000 7.7352
# 5 -27.6998 -6.9083 -14.4402 0.0000 32.9153 0.0000
# 6 0.0000 0.0000 0.0000 7.7352 0.0000 33.4997
#
#
#
# Elastic Compliance Matrix: (Units=1/GPa)
#
#
# Indices 1 2 3 4 5 6 
#
# 1 0.020242 -0.008043 -0.002637 0.000000 0.014189 0.000000
# 2 -0.008043 0.015897 -0.004119 0.000000 -0.005239 0.000000
# 3 -0.002637 -0.004119 0.011079 0.000000 0.001776 0.000000
# 4 0.000000 0.000000 0.000000 0.075806 0.000000 -0.017504
# 5 0.014189 -0.005239 0.001776 0.000000 0.042002 0.000000
# 6 0.000000 0.000000 0.000000 -0.017504 0.000000 0.033893
#
#
# Mechanical properties :
#
#
# Convention : Reuss Voigt Hill
#
# Bulk Modulus (GPa) = 56.75305 67.82667 62.28986
# Shear Modulus (GPa) = 21.33206 27.58270 24.45738
#
# Velocity S-wave (km/s) = 3.23955 3.68372 3.46875
# Velocity P-wave (km/s) = 6.47407 7.17368 6.83284
#
# Compressibility (1/GPa) = 0.01762020
#
# Stress axis : x y z
#
# Youngs Moduli (GPa) = 49.40239 62.90537 90.26279
#
# Poissons Ratio (x) = 0.50593 0.23806
# Poissons Ratio (y) = 0.39733 0.37175
# Poissons Ratio (z) = 0.13030 0.25908
#
# Static dielectric constant tensor:
#      x y z
#    x 3.970170 0.000000 -0.293330 
#    y 0.000000 3.712510 0.000000 
#    z -0.293330 0.000000 3.896710 
# 
# 
# High freq. dielectric constant tensor:
#      x y z
#    x 1.795660 0.000000 -0.008950 
#    y 0.000000 1.779530 0.000000 
#    z -0.008950 0.000000 1.802010 
# 
# From -- ./inp_files/7385.got.cif
#   From: 2010.06.25/outbox.cif.g09.slc.cpg/sg9_4_cif.got.tgz:7385.got - 2010.06.27 21:40:51.
