data_PCOD8054128
_publ_section_title
;
Structure prediction by ZEFSAII (Michael W. Deem and Ramdas Pophale) SiO2 
 PCOD8054128
Probable space group: C M
;
_chemical_formula_sum "Si O2"
_cell_formula_units_Z 32
_cell_length_a 10.711901
_cell_length_b 23.862007
_cell_length_c 6.680799
_cell_angle_alpha 90.000000
_cell_angle_beta 118.121183
_cell_angle_gamma 90.000000
_cell_volume 1506.077090
_symmetry_space_group_name_H-M "C M"
_symmetry_group_IT_number 8
_symmetry_cell_setting 'monoclinic'
loop_
_space_group_symop_operation_xyz
x,y,z
x,-y,z
1/2+x,1/2+y,z
1/2+x,1/2-y,z
loop_
_atom_site_type_symbol
_atom_site_label
_atom_site_fract_x
_atom_site_fract_y
_atom_site_fract_z
Si Si1 0.320310 0.211997 0.532390
Si Si2 0.147303 0.295513 0.192740
Si Si3 0.678708 0.634789 0.742839
Si Si4 0.303525 0.365890 0.989150
Si Si5 0.792988 0.434028 0.187599
Si Si6 0.485476 0.708680 0.867047
Si Si7 0.543624 0.435103 0.309258
Si Si8 0.045654 0.359577 0.498146
O O1 0.196615 0.230973 0.286887
O O2 0.278778 0.165223 0.660094
O O3 0.345832 0.275673 0.633701
O O4 0.460033 0.192284 0.523244
O O5 0.100152 0.338310 0.326862
O O6 0.257298 0.330017 0.144016
O O7 0.017960 0.273478 0.959607
O O8 0.604696 0.682304 0.817754
O O9 0.566894 0.597555 0.535345
O O10 0.771162 0.594952 0.955848
O O11 0.437469 0.333040 0.001448
O O12 0.175895 0.378449 0.739084
O O13 0.382240 0.423292 0.114064
O O14 0.805148 0.500000 0.163399
O O15 0.662885 0.417983 0.235450
O O16 0.940384 0.412374 0.393341
O O17 0.556825 0.500000 0.368371
#
# Coordination Sequence:
#
# PCOD8054128 Si02
#       8
#     4   4   4   4   4   4   4   4
#     4  12  22  40  64  98 136 178 215 260 328 402
#     4  12  24  42  67  96 141 184 218 266 326 400
#     4  12  23  44  70 100 132 176 229 276 328 396
#     4  12  25  44  65 101 139 176 223 273 335 401
#     4  11  25  47  73  97 127 176 232 288 337 387
#     4  12  22  40  64  98 136 178 215 260 328 402
#     4  11  25  47  73  97 127 176 232 288 337 387
#     4  12  25  44  65 101 139 176 223 273 335 401
#
# _framework density 21.247254000000002
#
# number of rings (size 3 to 8) (size 9 to 14) (size 15 to 20)
#    0.000    0.250    5.000    5.625    0.000    0.500 
#    0.000    0.625    0.000    0.000    0.000    0.000 
#    0.000    0.000    0.000    0.000    0.000    0.000 
#
# Total GULP energy -198342.783564 kJ/mol
# GULP energy per Si atom -12396.423973 kJ/mol
# Density = 2.119889 g / cm^3
# Si number density = 21.247254 Si / 1000 Ang^3
#
#
#
# Elastic Constant Matrix: (Units=GPa)
#
#
# Indices 1 2 3 4 5 6 
#
# 1 91.3990 35.2767 45.5282 0.0000 11.0615 0.0000
# 2 35.2767 95.9748 52.8729 0.0000 10.0253 0.0000
# 3 45.5282 52.8729 104.3239 0.0000 0.3119 0.0000
# 4 0.0000 0.0000 0.0000 31.3714 0.0000 11.6864
# 5 11.0615 10.0253 0.3119 0.0000 31.1525 0.0000
# 6 0.0000 0.0000 0.0000 11.6864 0.0000 32.5944
#
#
#
# Elastic Compliance Matrix: (Units=1/GPa)
#
#
# Indices 1 2 3 4 5 6 
#
# 1 0.015028 -0.001989 -0.005537 0.000000 -0.004641 0.000000
# 2 -0.001989 0.015403 -0.006926 0.000000 -0.004181 0.000000
# 3 -0.005537 -0.006926 0.015500 0.000000 0.004040 0.000000
# 4 0.000000 0.000000 0.000000 0.036790 0.000000 -0.013191
# 5 -0.004641 -0.004181 0.004040 0.000000 0.035053 0.000000
# 6 0.000000 0.000000 0.000000 -0.013191 0.000000 0.035409
#
#
# Mechanical properties :
#
#
# Convention : Reuss Voigt Hill
#
# Bulk Modulus (GPa) = 58.72672 62.11703 60.42187
# Shear Modulus (GPa) = 26.62949 29.55834 28.09392
#
# Velocity S-wave (km/s) = 3.54406 3.73387 3.64020
# Velocity P-wave (km/s) = 6.66684 6.92011 6.79466
#
# Compressibility (1/GPa) = 0.01702802
#
# Stress axis : x y z
#
# Youngs Moduli (GPa) = 66.54135 64.92387 64.51691
#
# Poissons Ratio (x) = 0.12913 0.35721
# Poissons Ratio (y) = 0.13234 0.44683
# Poissons Ratio (z) = 0.36841 0.44965
#
# Static dielectric constant tensor:
#      x y z
#    x 3.746850 0.000000 0.027820 
#    y 0.000000 3.622380 0.000000 
#    z 0.027820 0.000000 4.150370 
# 
# 
# High freq. dielectric constant tensor:
#      x y z
#    x 1.836970 0.000000 0.006200 
#    y 0.000000 1.824420 0.000000 
#    z 0.006200 0.000000 1.858110 
# 
# From -- ./inp_files/3170.got.cif
#   From: 2010.03.12/outbox.cif.g09.slc.cpg/sg8_2_cif.got.tgz:3170.got - 2010.03.31 10:45:26.
