data_PCOD8054192
_publ_section_title
;
Structure prediction by ZEFSAII (Michael W. Deem and Ramdas Pophale) SiO2 
 PCOD8054192
Probable space group: C C
;
_chemical_formula_sum "Si O2"
_cell_formula_units_Z 32
_cell_length_a 9.341900
_cell_length_b 13.877110
_cell_length_c 14.710914
_cell_angle_alpha 90.000000
_cell_angle_beta 36.012071
_cell_angle_gamma 90.000000
_cell_volume 1121.291405
_symmetry_space_group_name_H-M "C C"
_symmetry_group_IT_number 9
_symmetry_cell_setting 'monoclinic'
loop_
_space_group_symop_operation_xyz
x,y,z
x,-y,1/2+z
1/2+x,1/2+y,z
1/2+x,1/2-y,1/2+z
loop_
_atom_site_type_symbol
_atom_site_label
_atom_site_fract_x
_atom_site_fract_y
_atom_site_fract_z
Si Si1 0.745600 0.127737 0.156670
Si Si2 0.744698 0.447749 0.222378
Si Si3 0.316819 0.445592 0.009007
Si Si4 0.307628 0.379506 0.825368
Si Si5 0.401810 0.703844 0.814262
Si Si6 0.320074 0.158955 0.855453
Si Si7 0.007987 0.154888 0.570881
Si Si8 0.276272 0.986067 0.518987
O O1 0.649370 0.111671 0.311965
O O2 0.607436 0.217544 0.186755
O O3 0.029556 0.151330 0.015457
O O4 0.687631 0.036648 0.123393
O O5 0.605902 0.539074 0.337459
O O6 0.517600 0.373795 0.322775
O O7 0.911599 0.397819 0.216763
O O8 0.898553 0.467546 0.048532
O O9 0.180444 0.419701 0.983562
O O10 0.322642 0.359097 0.081000
O O11 0.390620 0.270102 0.807901
O O12 0.540021 0.444214 0.689819
O O13 0.344178 0.658319 0.745559
O O14 0.155351 0.746151 0.981815
O O15 0.423054 0.100165 0.891599
O O16 0.196975 0.065225 0.483960
#
# Coordination Sequence:
#
# PCOD8054192 Si02
#       8
#     4   4   4   4   4   4   4   4
#     4  10  20  39  62  93 117 163 213 259 313 375
#     4   9  17  34  60  83 113 161 200 247 304 360
#     4  10  20  39  61  84 131 168 196 256 327 374
#     4  10  19  35  63  89 118 164 207 255 317 373
#     4  11  23  37  68  93 121 159 225 260 299 378
#     4  10  17  34  60  91 117 152 212 251 312 367
#     4  11  21  41  62  92 125 169 207 260 314 375
#     4   9  19  35  58  85 118 162 202 250 314 366
#
# _framework density 28.538523999999999
#
# number of rings (size 3 to 8) (size 9 to 14) (size 15 to 20)
#    0.000    2.000    5.000    1.500    0.000    0.000 
#    6.750    3.750    2.750    0.000    0.000    0.000 
#    0.000    0.000    0.000    0.000    0.000    0.000 
#
# Total GULP energy -198293.288090 kJ/mol
# GULP energy per Si atom -12393.330506 kJ/mol
# Density = 2.847357 g / cm^3
# Si number density = 28.538524 Si / 1000 Ang^3
#
#
#
# Elastic Constant Matrix: (Units=GPa)
#
#
# Indices 1 2 3 4 5 6 
#
# 1 149.5533 43.6862 38.3276 0.0201 50.9688 -0.0101
# 2 43.6862 104.9031 23.2828 0.0018 38.4542 -0.0037
# 3 38.3276 23.2828 117.5791 0.0155 44.6309 -0.0112
# 4 0.0201 0.0018 0.0155 55.0604 -0.0136 17.3432
# 5 50.9688 38.4542 44.6309 -0.0136 54.7536 0.0081
# 6 -0.0101 -0.0037 -0.0112 17.3432 0.0081 30.0305
#
#
#
# Elastic Compliance Matrix: (Units=1/GPa)
#
#
# Indices 1 2 3 4 5 6 
#
# 1 0.009878 -0.000970 0.000295 -0.000009 -0.008754 0.000011
# 2 -0.000970 0.013066 0.001259 -0.000005 -0.009300 0.000007
# 3 0.000295 0.001259 0.012452 -0.000011 -0.011309 0.000014
# 4 -0.000009 -0.000005 -0.000011 0.022200 0.000028 -0.012821
# 5 -0.008754 -0.009300 -0.011309 0.000028 0.042162 -0.000036
# 6 0.000011 0.000007 0.000014 -0.012821 -0.000036 0.040704
#
#
# Mechanical properties :
#
#
# Convention : Reuss Voigt Hill
#
# Bulk Modulus (GPa) = 27.34917 64.73651 46.04284
# Shear Modulus (GPa) = 33.00712 45.75150 39.37931
#
# Velocity S-wave (km/s) = 3.40454 4.00828 3.71868
# Velocity P-wave (km/s) = 5.00586 6.64491 5.88275
#
# Compressibility (1/GPa) = 0.03656418
#
# Stress axis : x y z
#
# Youngs Moduli (GPa) = 101.23676 76.53366 80.30812
#
# Poissons Ratio (x) = 0.07424 -0.02371
# Poissons Ratio (y) = 0.09820 -0.10110
# Poissons Ratio (z) = -0.02988 -0.09635
#
# Static dielectric constant tensor:
#      x y z
#    x 5.240000 0.000010 0.668960 
#    y 0.000010 5.312140 0.000040 
#    z 0.668960 0.000040 5.608780 
# 
# 
# High freq. dielectric constant tensor:
#      x y z
#    x 2.160130 0.000000 0.021670 
#    y 0.000000 2.141080 0.000000 
#    z 0.021670 0.000000 2.199590 
# 
# From -- ./inp_files/24909.got.cif
#   From: 2010.06.25/outbox.cif.g09.slc.cpg/sg9_13_cif.got.tgz:24909.got - 2010.06.27 21:40:51.
