data_PCOD8054274
_publ_section_title
;
Structure prediction by ZEFSAII (Michael W. Deem and Ramdas Pophale) SiO2 
 PCOD8054274
Probable space group: C C
;
_chemical_formula_sum "Si O2"
_cell_formula_units_Z 28
_cell_length_a 12.949137
_cell_length_b 12.295566
_cell_length_c 13.683645
_cell_angle_alpha 90.000000
_cell_angle_beta 136.644573
_cell_angle_gamma 90.000000
_cell_volume 1495.703987
_symmetry_space_group_name_H-M "C C"
_symmetry_group_IT_number 9
_symmetry_cell_setting 'monoclinic'
loop_
_space_group_symop_operation_xyz
x,y,z
x,-y,1/2+z
1/2+x,1/2+y,z
1/2+x,1/2-y,1/2+z
loop_
_atom_site_type_symbol
_atom_site_label
_atom_site_fract_x
_atom_site_fract_y
_atom_site_fract_z
Si Si1 0.491830 0.531876 0.114550
Si Si2 0.933731 0.211669 0.568879
Si Si3 0.976108 0.940412 0.826522
Si Si4 0.275651 0.253192 0.770877
Si Si5 0.244578 0.954323 0.153847
Si Si6 0.957905 0.163364 0.910389
Si Si7 0.307148 0.816620 0.668735
O O1 0.403659 0.417669 0.052456
O O2 0.501768 0.580721 0.229671
O O3 0.657353 0.507853 0.186268
O O4 0.412824 0.620641 0.988164
O O5 0.814819 0.261492 0.411418
O O6 0.909907 0.260734 0.658503
O O7 0.096191 0.245096 0.638592
O O8 0.841577 0.863368 0.771303
O O9 0.931263 0.065151 0.815298
O O10 0.128808 0.914425 0.990332
O O11 0.341476 0.149403 0.755232
O O12 0.349023 0.054489 0.190961
O O13 0.853271 0.263661 0.805033
O O14 0.131154 0.202251 0.027576
#
# Coordination Sequence:
#
# PCOD8054274 Si02
#       7
#     4   4   4   4   4   4   4
#     4   9  18  36  59  83 108 159 186 220 294 342
#     4  11  20  34  65  85 108 150 196 236 268 341
#     4  10  18  38  60  81 113 154 186 232 287 339
#     4  11  20  39  55  89 114 144 193 235 284 333
#     4   9  22  37  59  83 115 149 193 232 283 343
#     4  10  20  38  59  86 115 147 191 238 278 341
#     4  10  20  38  59  87 115 149 191 231 288 331
#
# _framework density 18.720279999999999
#
# number of rings (size 3 to 8) (size 9 to 14) (size 15 to 20)
#    0.000    2.286    5.714    0.857    6.000    0.000 
#    7.714    0.000    3.143    0.000    0.000    0.000 
#    0.000    0.000    0.000    0.000    0.000    0.000 
#
# Total GULP energy -173511.351943 kJ/mol
# GULP energy per Si atom -12393.667996 kJ/mol
# Density = 1.867767 g / cm^3
# Si number density = 18.720280 Si / 1000 Ang^3
#
#
#
# Elastic Constant Matrix: (Units=GPa)
#
#
# Indices 1 2 3 4 5 6 
#
# 1 72.1371 30.8509 35.8179 0.0000 -25.7201 0.0000
# 2 30.8509 105.6050 52.4313 0.0000 3.3616 0.0000
# 3 35.8179 52.4313 87.4777 0.0000 -19.1441 0.0000
# 4 0.0000 0.0000 0.0000 39.1123 0.0000 -1.9136
# 5 -25.7201 3.3616 -19.1441 0.0000 30.8564 0.0000
# 6 0.0000 0.0000 0.0000 -1.9136 0.0000 24.0154
#
#
#
# Elastic Compliance Matrix: (Units=1/GPa)
#
#
# Indices 1 2 3 4 5 6 
#
# 1 0.025118 -0.007365 -0.001287 0.000000 0.020940 0.000000
# 2 -0.007365 0.017328 -0.010561 0.000000 -0.014579 0.000000
# 3 -0.001287 -0.010561 0.021181 0.000000 0.013219 0.000000
# 4 0.000000 0.000000 0.000000 0.025667 0.000000 0.002045
# 5 0.020940 -0.014579 0.013219 0.000000 0.059653 0.000000
# 6 0.000000 0.000000 0.000000 0.002045 0.000000 0.041803
#
#
# Mechanical properties :
#
#
# Convention : Reuss Voigt Hill
#
# Bulk Modulus (GPa) = 39.68176 55.93555 47.80866
# Shear Modulus (GPa) = 21.04575 28.53812 24.79193
#
# Velocity S-wave (km/s) = 3.35658 3.90866 3.64309
# Velocity P-wave (km/s) = 6.02208 7.09328 6.57951
#
# Compressibility (1/GPa) = 0.02520049
#
# Stress axis : x y z
#
# Youngs Moduli (GPa) = 39.81256 57.70895 47.21117
#
# Poissons Ratio (x) = 0.42504 0.06078
# Poissons Ratio (y) = 0.29323 0.49860
# Poissons Ratio (z) = 0.05125 0.60946
#
# Static dielectric constant tensor:
#      x y z
#    x 3.199780 0.000000 -0.269210 
#    y 0.000000 3.662650 0.000000 
#    z -0.269210 0.000000 3.355360 
# 
# 
# High freq. dielectric constant tensor:
#      x y z
#    x 1.700260 0.000000 -0.026280 
#    y 0.000000 1.731060 0.000000 
#    z -0.026280 0.000000 1.722060 
# 
# From -- ./inp_files/10613.got.cif
#   From: 2010.06.25/outbox.cif.g09.slc.cpg/sg9_6_cif.got.tgz:10613.got - 2010.06.27 21:40:51.
