data_PCOD8054011
_publ_section_title
;
Structure prediction by ZEFSAII (Michael W. Deem and Ramdas Pophale) SiO2 
 PCOD8054011
Probable space group: C M
;
_chemical_formula_sum "Si O2"
_cell_formula_units_Z 32
_cell_length_a 32.953075
_cell_length_b 8.631917
_cell_length_c 12.492918
_cell_angle_alpha 90.000000
_cell_angle_beta 26.327623
_cell_angle_gamma 90.000000
_cell_volume 1576.028233
_symmetry_space_group_name_H-M "C M"
_symmetry_group_IT_number 8
_symmetry_cell_setting 'monoclinic'
loop_
_space_group_symop_operation_xyz
x,y,z
x,-y,z
1/2+x,1/2+y,z
1/2+x,1/2-y,z
loop_
_atom_site_type_symbol
_atom_site_label
_atom_site_fract_x
_atom_site_fract_y
_atom_site_fract_z
Si Si1 0.599320 0.320198 0.395440
Si Si2 0.229610 0.321917 0.392897
Si Si3 0.780070 0.176871 0.041040
Si Si4 0.535396 0.816863 0.760545
Si Si5 0.288068 0.817594 0.669579
Si Si6 0.845498 0.318111 0.302015
Si Si7 0.097564 0.679465 0.176042
Si Si8 0.919442 0.822019 0.533847
O O1 0.582039 0.500000 0.413095
O O2 0.706397 0.292262 0.164273
O O3 0.538166 0.266411 0.639565
O O4 0.569485 0.222781 0.362871
O O5 0.235096 0.500000 0.414043
O O6 0.290546 0.289040 0.142708
O O7 0.124602 0.272214 0.619273
O O8 0.268176 0.222974 0.398898
O O9 0.744143 0.000000 0.110557
O O10 0.876015 0.202002 0.754819
O O11 0.532405 0.000000 0.747841
O O12 0.445342 0.752924 0.033424
O O13 0.317810 0.752570 0.483247
O O14 0.346408 0.726970 0.618690
O O15 0.304971 0.000000 0.641650
O O16 0.181781 0.782257 0.937465
O O17 0.851656 0.500000 0.294893
O O18 0.123191 0.500000 0.105354
O O19 0.010154 0.718175 0.308475
O O20 0.946336 0.000000 0.452529
#
# Coordination Sequence:
#
# PCOD8054011 Si02
#       8
#     4   4   4   4   4   4   4   4
#     4  11  21  35  60  92 126 160 203 255 306 365
#     4   9  19  36  59  88 122 159 200 244 298 365
#     4   9  19  37  60  88 127 162 195 247 313 371
#     4   9  20  40  60  85 122 164 200 244 309 369
#     4  11  24  44  64  90 127 165 211 260 308 364
#     4  10  23  41  63  89 121 160 205 254 301 361
#     4  12  25  41  62  90 124 166 210 255 311 370
#     4  11  23  40  64  94 125 160 206 257 314 371
#
# _framework density 20.304205
#
# number of rings (size 3 to 8) (size 9 to 14) (size 15 to 20)
#    0.000    1.750    1.250    3.750    1.750    5.000 
#    0.000    1.250    0.000    0.000    0.000    0.000 
#    0.000    0.000    0.000    0.000    0.000    0.000 
#
# Total GULP energy -198450.452638 kJ/mol
# GULP energy per Si atom -12403.153290 kJ/mol
# Density = 2.025799 g / cm^3
# Si number density = 20.304205 Si / 1000 Ang^3
#
#
#
# Elastic Constant Matrix: (Units=GPa)
#
#
# Indices 1 2 3 4 5 6 
#
# 1 83.4631 14.7658 58.2431 0.0000 9.3870 0.0000
# 2 14.7658 55.2843 16.7973 0.0000 5.5405 0.0000
# 3 58.2431 16.7973 115.9011 0.0000 2.9968 0.0000
# 4 0.0000 0.0000 0.0000 27.4313 0.0000 -3.9212
# 5 9.3870 5.5405 2.9968 0.0000 29.2647 0.0000
# 6 0.0000 0.0000 0.0000 -3.9212 0.0000 33.9229
#
#
#
# Elastic Compliance Matrix: (Units=1/GPa)
#
#
# Indices 1 2 3 4 5 6 
#
# 1 0.019381 -0.001845 -0.009345 0.000000 -0.004911 0.000000
# 2 -0.001845 0.019422 -0.001813 0.000000 -0.002900 0.000000
# 3 -0.009345 -0.001813 0.013536 0.000000 0.001955 0.000000
# 4 0.000000 0.000000 0.000000 0.037067 0.000000 0.004285
# 5 -0.004911 -0.002900 0.001955 0.000000 0.036095 0.000000
# 6 0.000000 0.000000 0.000000 0.004285 0.000000 0.029974
#
#
# Mechanical properties :
#
#
# Convention : Reuss Voigt Hill
#
# Bulk Modulus (GPa) = 37.97324 48.25121 43.11223
# Shear Modulus (GPa) = 26.27979 29.11327 27.69653
#
# Velocity S-wave (km/s) = 3.60154 3.79073 3.69735
# Velocity P-wave (km/s) = 6.00313 6.55555 6.28542
#
# Compressibility (1/GPa) = 0.02633433
#
# Stress axis : x y z
#
# Youngs Moduli (GPa) = 51.59576 51.48676 73.87462
#
# Poissons Ratio (x) = 0.09499 0.69038
# Poissons Ratio (y) = 0.09519 0.13391
# Poissons Ratio (z) = 0.48218 0.09333
#
# Static dielectric constant tensor:
#      x y z
#    x 3.651810 0.000000 0.150120 
#    y 0.000000 3.560140 0.000000 
#    z 0.150120 0.000000 3.895870 
# 
# 
# High freq. dielectric constant tensor:
#      x y z
#    x 1.790760 0.000000 -0.000590 
#    y 0.000000 1.786280 0.000000 
#    z -0.000590 0.000000 1.796770 
# 
# From -- ./inp_files/24373.got.cif
#   From: 2010.03.12/outbox.cif.g09.slc.cpg/sg8_13_cif.got.tgz:24373.got - 2010.03.31 10:45:26.
