data_PCOD8054783
_publ_section_title
;
Structure prediction by ZEFSAII (Michael W. Deem and Ramdas Pophale) SiO2 
 PCOD8054783
Probable space group: C C
;
_chemical_formula_sum "Si O2"
_cell_formula_units_Z 32
_cell_length_a 17.034964
_cell_length_b 17.039882
_cell_length_c 5.177975
_cell_angle_alpha 90.000000
_cell_angle_beta 100.605538
_cell_angle_gamma 90.000000
_cell_volume 1477.354938
_symmetry_space_group_name_H-M "C C"
_symmetry_group_IT_number 9
_symmetry_cell_setting 'monoclinic'
loop_
_space_group_symop_operation_xyz
x,y,z
x,-y,1/2+z
1/2+x,1/2+y,z
1/2+x,1/2-y,1/2+z
loop_
_atom_site_type_symbol
_atom_site_label
_atom_site_fract_x
_atom_site_fract_y
_atom_site_fract_z
Si Si1 0.363530 0.286373 0.036770
Si Si2 0.802944 0.534510 0.348901
Si Si3 0.126787 0.292015 0.264675
Si Si4 0.347843 0.465622 0.125249
Si Si5 0.023935 0.707410 0.206935
Si Si6 0.286464 0.213415 0.481063
Si Si7 0.169242 0.535469 0.663084
Si Si8 0.481338 0.964874 0.808863
O O1 0.349499 0.378735 0.010638
O O2 0.458128 0.270649 0.080971
O O3 0.336608 0.259632 0.301373
O O4 0.314329 0.242024 0.781741
O O5 0.760599 0.479161 0.543369
O O6 0.802327 0.621861 0.457181
O O7 0.892144 0.504337 0.325580
O O8 0.077413 0.307060 0.491277
O O9 0.192717 0.227310 0.375149
O O10 0.171139 0.372563 0.220273
O O11 0.073941 0.263484 0.987799
O O12 0.390031 0.478859 0.430908
O O13 0.258470 0.495296 0.148010
O O14 0.979330 0.626637 0.245849
O O15 0.126604 0.517889 0.361773
O O16 0.523849 0.018949 0.611350
#
# Coordination Sequence:
#
# PCOD8054783 Si02
#       8
#     4   4   4   4   4   4   4   4
#     4  12  24  42  69  94 123 170 218 264 309 371
#     4  10  21  38  64  94 123 157 211 269 312 362
#     4  12  26  41  60  91 132 169 206 259 318 373
#     4  10  21  38  64  94 123 157 211 269 312 362
#     4  12  26  41  60  91 132 169 206 259 318 373
#     4  12  24  42  69  94 123 170 218 264 309 371
#     4  10  21  36  59  88 126 168 206 242 302 380
#     4  10  21  36  59  88 126 168 206 242 302 380
#
# _framework density 21.660335
#
# number of rings (size 3 to 8) (size 9 to 14) (size 15 to 20)
#    0.000    1.000    2.500    4.500    7.000    3.000 
#    0.000    0.000    0.000    4.500    0.000    0.000 
#    0.000    0.000    0.000    0.000    0.000    0.000 
#
# Total GULP energy -198323.694845 kJ/mol
# GULP energy per Si atom -12395.230928 kJ/mol
# Density = 2.161103 g / cm^3
# Si number density = 21.660335 Si / 1000 Ang^3
#
#
#
# Elastic Constant Matrix: (Units=GPa)
#
#
# Indices 1 2 3 4 5 6 
#
# 1 55.8662 22.3969 39.4098 0.0000 3.9650 0.0000
# 2 22.3969 99.5521 54.8953 0.0000 -15.7942 0.0000
# 3 39.4098 54.8953 186.4771 0.0000 -8.0187 0.0000
# 4 0.0000 0.0000 0.0000 33.1727 0.0000 1.9462
# 5 3.9650 -15.7942 -8.0187 0.0000 28.5700 0.0000
# 6 0.0000 0.0000 0.0000 1.9462 0.0000 18.1809
#
#
#
# Elastic Compliance Matrix: (Units=1/GPa)
#
#
# Indices 1 2 3 4 5 6 
#
# 1 0.022707 -0.003978 -0.003905 0.000000 -0.006446 0.000000
# 2 -0.003978 0.013684 -0.002873 0.000000 0.007311 0.000000
# 3 -0.003905 -0.002873 0.007074 0.000000 0.000939 0.000000
# 4 0.000000 0.000000 0.000000 0.030336 0.000000 -0.003247
# 5 -0.006446 0.007311 0.000939 0.000000 0.040201 0.000000
# 6 0.000000 0.000000 0.000000 -0.003247 0.000000 0.055350
#
#
# Mechanical properties :
#
#
# Convention : Reuss Voigt Hill
#
# Bulk Modulus (GPa) = 45.55260 63.92216 54.73738
# Shear Modulus (GPa) = 25.22922 30.99761 28.11341
#
# Velocity S-wave (km/s) = 3.41657 3.78706 3.60658
# Velocity P-wave (km/s) = 6.05310 6.97837 6.53214
#
# Compressibility (1/GPa) = 0.02195264
#
# Stress axis : x y z
#
# Youngs Moduli (GPa) = 44.03941 73.07704 141.36085
#
# Poissons Ratio (x) = 0.29070 0.55202
# Poissons Ratio (y) = 0.17519 0.40617
# Poissons Ratio (z) = 0.17197 0.20997
#
# Static dielectric constant tensor:
#      x y z
#    x 3.903890 0.000000 0.068400 
#    y 0.000000 3.817380 0.000000 
#    z 0.068400 0.000000 4.928290 
# 
# 
# High freq. dielectric constant tensor:
#      x y z
#    x 1.828570 0.000000 -0.010010 
#    y 0.000000 1.827600 0.000000 
#    z -0.010010 0.000000 1.899350 
# 
# From -- ./inp_files/2935.got.cif
#   From: 2010.06.25/outbox.cif.g09.slc.cpg/sg9_2_cif.got.tgz:2935.got - 2010.06.27 21:40:51.
