data_PCOD8054508
_publ_section_title
;
Structure prediction by ZEFSAII (Michael W. Deem and Ramdas Pophale) SiO2 
 PCOD8054508
Probable space group: C C
;
_chemical_formula_sum "Si O2"
_cell_formula_units_Z 32
_cell_length_a 26.838829
_cell_length_b 9.332495
_cell_length_c 8.938483
_cell_angle_alpha 90.000000
_cell_angle_beta 48.233291
_cell_angle_gamma 90.000000
_cell_volume 1669.876301
_symmetry_space_group_name_H-M "C C"
_symmetry_group_IT_number 9
_symmetry_cell_setting 'monoclinic'
loop_
_space_group_symop_operation_xyz
x,y,z
x,-y,1/2+z
1/2+x,1/2+y,z
1/2+x,1/2-y,1/2+z
loop_
_atom_site_type_symbol
_atom_site_label
_atom_site_fract_x
_atom_site_fract_y
_atom_site_fract_z
Si Si1 0.538870 0.848146 0.804800
Si Si2 0.538894 0.849031 0.154249
Si Si3 0.769999 0.849702 0.194267
Si Si4 0.923380 0.853980 0.536648
Si Si5 0.923377 0.146948 0.385581
Si Si6 0.270004 0.350531 0.841343
Si Si7 0.664141 0.346881 0.406233
Si Si8 0.664125 0.652287 0.552705
O O1 0.600911 0.748839 0.637599
O O2 0.548894 0.999290 0.708922
O O3 0.535147 0.875722 0.986917
O O4 0.470639 0.773776 0.882995
O O5 0.470662 0.774970 0.349428
O O6 0.600954 0.749950 0.073722
O O7 0.729700 0.720936 0.348636
O O8 0.747786 0.999403 0.312649
O O9 0.847086 0.815726 0.077017
O O10 0.756167 0.858624 0.045491
O O11 0.934250 0.876744 0.689435
O O12 0.847100 0.816863 0.650019
O O13 0.946610 0.000705 0.415155
O O14 0.229760 0.222072 0.847364
O O15 0.651511 0.499365 0.505205
O O16 0.674614 0.363239 0.208548
#
# Coordination Sequence:
#
# PCOD8054508 Si02
#       8
#     4   4   4   4   4   4   4   4
#     4  10  22  38  56  80 109 142 181 224 271 322
#     4  10  22  38  56  80 109 142 181 224 271 322
#     4  10  20  36  58  83 113 146 182 224 270 323
#     4   9  19  36  57  82 110 142 180 221 267 319
#     4   9  19  36  57  82 110 142 180 221 267 319
#     4  10  20  36  58  83 113 146 182 224 270 323
#     4  11  23  38  57  81 110 144 183 227 275 326
#     4  11  23  38  57  81 110 144 183 227 275 326
#
# _framework density 19.163097
#
# number of rings (size 3 to 8) (size 9 to 14) (size 15 to 20)
#    0.000    2.000    0.000    3.000    0.000    7.000 
#    0.000    2.500    0.000    0.000    0.000    0.000 
#    0.000    0.000    0.000    0.000    0.000    0.000 
#
# Total GULP energy -198465.812148 kJ/mol
# GULP energy per Si atom -12404.113259 kJ/mol
# Density = 1.911948 g / cm^3
# Si number density = 19.163097 Si / 1000 Ang^3
#
#
#
# Elastic Constant Matrix: (Units=GPa)
#
#
# Indices 1 2 3 4 5 6 
#
# 1 105.4493 80.4594 46.8350 0.0000 -7.8197 0.0000
# 2 80.4594 177.1522 78.6972 0.0000 -6.0853 0.0000
# 3 46.8350 78.6972 100.2103 0.0000 -10.5126 0.0000
# 4 0.0000 0.0000 0.0000 30.3988 0.0000 11.3777
# 5 -7.8197 -6.0853 -10.5126 0.0000 18.9055 0.0000
# 6 0.0000 0.0000 0.0000 11.3777 0.0000 26.4807
#
#
#
# Elastic Compliance Matrix: (Units=1/GPa)
#
#
# Indices 1 2 3 4 5 6 
#
# 1 0.015097 -0.005776 -0.002187 0.000000 0.003169 0.000000
# 2 -0.005776 0.010899 -0.006098 0.000000 -0.002272 0.000000
# 3 -0.002187 -0.006098 0.016449 0.000000 0.006279 0.000000
# 4 0.000000 0.000000 0.000000 0.039200 0.000000 -0.016843
# 5 0.003169 -0.002272 0.006279 0.000000 0.056966 0.000000
# 6 0.000000 0.000000 0.000000 -0.016843 0.000000 0.045000
#
#
# Mechanical properties :
#
#
# Convention : Reuss Voigt Hill
#
# Bulk Modulus (GPa) = 69.82234 88.31056 79.06645
# Shear Modulus (GPa) = 23.09383 26.94503 25.01943
#
# Velocity S-wave (km/s) = 3.47525 3.75385 3.61724
# Velocity P-wave (km/s) = 7.25383 8.06054 7.66780
#
# Compressibility (1/GPa) = 0.01432206
#
# Stress axis : x y z
#
# Youngs Moduli (GPa) = 66.23793 91.74854 60.79437
#
# Poissons Ratio (x) = 0.52997 0.13297
# Poissons Ratio (y) = 0.38261 0.37073
# Poissons Ratio (z) = 0.14487 0.55949
#
# Static dielectric constant tensor:
#      x y z
#    x 3.631640 0.000000 -0.108780 
#    y 0.000000 3.642680 0.000000 
#    z -0.108780 0.000000 3.599560 
# 
# 
# High freq. dielectric constant tensor:
#      x y z
#    x 1.754430 0.000000 -0.005180 
#    y 0.000000 1.748660 0.000000 
#    z -0.005180 0.000000 1.752930 
# 
# From -- ./inp_files/11223.got.cif
#   From: 2010.06.25/outbox.cif.g09.slc.cpg/sg9_6_cif.got.tgz:11223.got - 2010.06.27 21:40:51.
