data_PCOD8054138
_publ_section_title
;
Structure prediction by ZEFSAII (Michael W. Deem and Ramdas Pophale) SiO2 
 PCOD8054138
Probable space group: C M
;
_chemical_formula_sum "Si O2"
_cell_formula_units_Z 24
_cell_length_a 18.193724
_cell_length_b 8.774942
_cell_length_c 11.899395
_cell_angle_alpha 90.000000
_cell_angle_beta 40.812438
_cell_angle_gamma 90.000000
_cell_volume 1241.631612
_symmetry_space_group_name_H-M "C M"
_symmetry_group_IT_number 8
_symmetry_cell_setting 'monoclinic'
loop_
_space_group_symop_operation_xyz
x,y,z
x,-y,z
1/2+x,1/2+y,z
1/2+x,1/2-y,z
loop_
_atom_site_type_symbol
_atom_site_label
_atom_site_fract_x
_atom_site_fract_y
_atom_site_fract_z
Si Si1 0.720210 0.176821 0.131750
Si Si2 0.608048 0.168215 0.613520
Si Si3 0.041399 0.176748 0.481439
Si Si4 0.918949 0.668286 0.996815
Si Si5 0.152795 0.676304 0.804040
Si Si6 0.305493 0.177630 0.806130
O O1 0.607581 0.268757 0.294132
O O2 0.817720 0.210818 0.111609
O O3 0.691895 0.000000 0.164373
O O4 0.761290 0.227201 0.962465
O O5 0.620364 0.290092 0.499255
O O6 0.684478 0.206714 0.635082
O O7 0.639359 0.000000 0.530557
O O8 0.477205 0.167041 0.805482
O O9 0.927392 0.271122 0.623473
O O10 0.012660 0.000000 0.505666
O O11 0.868255 0.500000 0.079481
O O12 0.017225 0.706692 0.974136
O O13 0.179680 0.500000 0.803454
O O14 0.219910 0.792327 0.802865
O O15 0.305356 0.000000 0.835482
#
# Coordination Sequence:
#
# PCOD8054138 Si02
#       6
#     4   4   4   4   4   4
#     4  12  24  38  60  87 117 153 196 240 288 343
#     4   8  16  34  59  84 113 145 185 232 279 334
#     4  12  24  38  60  87 117 153 196 240 288 343
#     4   8  16  34  59  84 113 145 185 232 279 334
#     4   8  17  34  59  85 113 153 191 230 285 342
#     4  12  23  38  59  85 121 155 191 238 289 346
#
# _framework density 19.329405000000001
#
# number of rings (size 3 to 8) (size 9 to 14) (size 15 to 20)
#    1.000    1.000    1.667    4.500    0.000    1.333 
#    0.000    1.667    0.000    8.000    0.000    0.000 
#    0.000    0.000    0.000    0.000    0.000    0.000 
#
# Total GULP energy -148683.123389 kJ/mol
# GULP energy per Si atom -12390.260282 kJ/mol
# Density = 1.928541 g / cm^3
# Si number density = 19.329405 Si / 1000 Ang^3
#
#
#
# Elastic Constant Matrix: (Units=GPa)
#
#
# Indices 1 2 3 4 5 6 
#
# 1 80.9699 26.0293 24.8481 0.0000 -0.8528 0.0000
# 2 26.0293 88.5456 7.5944 -0.0001 -1.6486 0.0000
# 3 24.8481 7.5944 68.7238 0.0000 -7.1186 0.0000
# 4 0.0000 -0.0001 0.0000 28.7715 0.0000 0.1565
# 5 -0.8528 -1.6486 -7.1186 0.0000 11.3887 0.0000
# 6 0.0000 0.0000 0.0000 0.1565 0.0000 35.6381
#
#
#
# Elastic Compliance Matrix: (Units=1/GPa)
#
#
# Indices 1 2 3 4 5 6 
#
# 1 0.015279 -0.004084 -0.005363 0.000000 -0.002799 0.000000
# 2 -0.004084 0.012502 0.000268 0.000000 0.001672 0.000000
# 3 -0.005363 0.000268 0.017560 0.000000 0.010613 0.000000
# 4 0.000000 0.000000 0.000000 0.034758 0.000000 -0.000153
# 5 -0.002799 0.001672 0.010613 0.000000 0.094473 0.000000
# 6 0.000000 0.000000 0.000000 -0.000153 0.000000 0.028061
#
#
# Mechanical properties :
#
#
# Convention : Reuss Voigt Hill
#
# Bulk Modulus (GPa) = 37.05917 39.46475 38.26196
# Shear Modulus (GPa) = 21.74059 27.14415 24.44237
#
# Velocity S-wave (km/s) = 3.35736 3.75146 3.55986
# Velocity P-wave (km/s) = 5.85177 6.26305 6.06090
#
# Compressibility (1/GPa) = 0.02698388
#
# Stress axis : x y z
#
# Youngs Moduli (GPa) = 65.44742 79.98585 56.94807
#
# Poissons Ratio (x) = 0.32664 0.30542
# Poissons Ratio (y) = 0.26727 -0.01527
# Poissons Ratio (z) = 0.35101 -0.02145
#
# Static dielectric constant tensor:
#      x y z
#    x 3.487970 0.000000 0.000150 
#    y 0.000000 3.364410 0.000000 
#    z 0.000150 0.000000 3.274690 
# 
# 
# High freq. dielectric constant tensor:
#      x y z
#    x 1.743370 0.000000 -0.000360 
#    y 0.000000 1.749510 0.000000 
#    z -0.000360 0.000000 1.728090 
# 
# From -- ./inp_files/22689.got.cif
#   From: 2010.03.12/outbox.cif.g09.slc.cpg/sg8_12_cif.got.tgz:22689.got - 2010.03.31 10:45:26.
