data_PCOD8054944
_publ_section_title
;
Structure prediction by ZEFSAII (Michael W. Deem and Ramdas Pophale) SiO2 
 PCOD8054944
Probable space group: C C
;
_chemical_formula_sum "Si O2"
_cell_formula_units_Z 32
_cell_length_a 8.199585
_cell_length_b 17.791459
_cell_length_c 11.223921
_cell_angle_alpha 90.000000
_cell_angle_beta 113.732905
_cell_angle_gamma 90.000000
_cell_volume 1498.904416
_symmetry_space_group_name_H-M "C C"
_symmetry_group_IT_number 9
_symmetry_cell_setting 'monoclinic'
loop_
_space_group_symop_operation_xyz
x,y,z
x,-y,1/2+z
1/2+x,1/2+y,z
1/2+x,1/2-y,1/2+z
loop_
_atom_site_type_symbol
_atom_site_label
_atom_site_fract_x
_atom_site_fract_y
_atom_site_fract_z
Si Si1 0.091570 0.653600 0.248460
Si Si2 0.079349 0.437126 0.520925
Si Si3 0.947936 0.191542 0.762463
Si Si4 0.849176 0.821361 0.507494
Si Si5 0.969308 0.797238 0.778845
Si Si6 0.769055 0.341354 0.008312
Si Si7 0.825092 0.358229 0.285122
Si Si8 0.641137 0.891706 0.023461
O O1 0.262453 0.686648 0.233968
O O2 0.161381 0.612625 0.387585
O O3 0.947508 0.719317 0.233041
O O4 0.011867 0.595466 0.128533
O O5 0.249964 0.397994 0.511988
O O6 0.133360 0.522471 0.561395
O O7 0.915190 0.428290 0.379857
O O8 0.804082 0.150291 0.636414
O O9 0.147244 0.162192 0.803187
O O10 0.906797 0.176501 0.887852
O O11 0.013755 0.809135 0.650481
O O12 0.729417 0.748118 0.500832
O O13 0.976162 0.708131 0.818835
O O14 0.090916 0.860508 0.880933
O O15 0.953713 0.353092 0.996326
O O16 0.767608 0.382774 0.134763
#
# Coordination Sequence:
#
# PCOD8054944 Si02
#       8
#     4   4   4   4   4   4   4   4
#     4  10  24  42  69  94 134 179 229 276 332 408
#     4  11  25  45  65  97 141 180 209 285 361 396
#     4  11  24  42  69 100 129 182 237 280 324 405
#     4  10  21  40  67  95 131 177 222 277 335 399
#     4   9  20  39  67  99 125 173 230 276 326 391
#     4  11  21  39  67  98 128 175 226 276 325 403
#     4  10  22  40  68  92 132 176 223 273 337 397
#     4  12  27  41  68 103 136 174 226 283 346 403
#
# _framework density 21.348928000000001
#
# number of rings (size 3 to 8) (size 9 to 14) (size 15 to 20)
#    0.000    1.500    2.500    2.250    8.750    1.000 
#    4.500    1.250    0.000    0.000    0.000    0.000 
#    0.000    0.000    0.000    0.000    0.000    0.000 
#
# Total GULP energy -198216.564478 kJ/mol
# GULP energy per Si atom -12388.535280 kJ/mol
# Density = 2.130034 g / cm^3
# Si number density = 21.348928 Si / 1000 Ang^3
#
#
#
# Elastic Constant Matrix: (Units=GPa)
#
#
# Indices 1 2 3 4 5 6 
#
# 1 70.2237 26.0679 60.7021 0.0000 -2.4873 0.0000
# 2 26.0679 103.0541 50.3125 0.0000 8.3972 0.0000
# 3 60.7021 50.3125 176.2543 0.0000 -21.1346 0.0000
# 4 0.0000 0.0000 0.0000 24.5331 0.0000 0.6859
# 5 -2.4873 8.3972 -21.1346 0.0000 37.3669 0.0000
# 6 0.0000 0.0000 0.0000 0.6859 0.0000 16.7683
#
#
#
# Elastic Compliance Matrix: (Units=1/GPa)
#
#
# Indices 1 2 3 4 5 6 
#
# 1 0.020787 -0.001698 -0.006933 0.000000 -0.002156 0.000000
# 2 -0.001698 0.012228 -0.003485 0.000000 -0.004832 0.000000
# 3 -0.006933 -0.003485 0.009757 0.000000 0.005840 0.000000
# 4 0.000000 0.000000 0.000000 0.040808 0.000000 -0.001669
# 5 -0.002156 -0.004832 0.005840 0.000000 0.031007 0.000000
# 6 0.000000 0.000000 0.000000 -0.001669 0.000000 0.059705
#
#
# Mechanical properties :
#
#
# Convention : Reuss Voigt Hill
#
# Bulk Modulus (GPa) = 53.93792 69.29967 61.61879
# Shear Modulus (GPa) = 24.42553 29.89697 27.16125
#
# Velocity S-wave (km/s) = 3.38614 3.74625 3.57074
# Velocity P-wave (km/s) = 6.37242 7.15845 6.77684
#
# Compressibility (1/GPa) = 0.01853983
#
# Stress axis : x y z
#
# Youngs Moduli (GPa) = 48.10708 81.77639 102.49517
#
# Poissons Ratio (x) = 0.13883 0.71060
# Poissons Ratio (y) = 0.08167 0.35724
# Poissons Ratio (z) = 0.33353 0.28503
#
# Static dielectric constant tensor:
#      x y z
#    x 3.720240 0.000000 -0.128870 
#    y 0.000000 3.593320 0.000000 
#    z -0.128870 0.000000 4.409680 
# 
# 
# High freq. dielectric constant tensor:
#      x y z
#    x 1.829720 0.000000 -0.006180 
#    y 0.000000 1.802810 0.000000 
#    z -0.006180 0.000000 1.867650 
# 
# From -- ./inp_files/15193.got.cif
#   From: 2010.06.25/outbox.cif.g09.slc.cpg/sg9_8_cif.got.tgz:15193.got - 2010.06.27 21:40:51.
