data_PCOD8054857
_publ_section_title
;
Structure prediction by ZEFSAII (Michael W. Deem and Ramdas Pophale) SiO2 
 PCOD8054857
Probable space group: C C
;
_chemical_formula_sum "Si O2"
_cell_formula_units_Z 32
_cell_length_a 9.212548
_cell_length_b 23.800556
_cell_length_c 9.353230
_cell_angle_alpha 90.000000
_cell_angle_beta 47.514217
_cell_angle_gamma 90.000000
_cell_volume 1512.370114
_symmetry_space_group_name_H-M "C C"
_symmetry_group_IT_number 9
_symmetry_cell_setting 'monoclinic'
loop_
_space_group_symop_operation_xyz
x,y,z
x,-y,1/2+z
1/2+x,1/2+y,z
1/2+x,1/2-y,1/2+z
loop_
_atom_site_type_symbol
_atom_site_label
_atom_site_fract_x
_atom_site_fract_y
_atom_site_fract_z
Si Si1 0.789340 0.816358 0.053780
Si Si2 0.907989 0.926523 0.102828
Si Si3 0.377478 0.528950 0.310593
Si Si4 0.340968 0.101836 0.255682
Si Si5 0.831973 0.535942 0.998295
Si Si6 0.005181 0.581690 0.418286
Si Si7 0.697862 0.308383 0.640432
Si Si8 0.898902 0.366108 0.259701
O O1 0.803989 0.864960 0.165908
O O2 0.768761 0.754211 0.131560
O O3 0.589453 0.827875 0.102047
O O4 0.969072 0.819648 0.823006
O O5 0.835399 0.964659 0.285608
O O6 0.861446 0.964057 0.991848
O O7 0.135742 0.912042 0.969986
O O8 0.599819 0.545930 0.117829
O O9 0.221743 0.571526 0.339471
O O10 0.390057 0.048061 0.124227
O O11 0.505429 0.116255 0.268074
O O12 0.330251 0.154819 0.157481
O O13 0.903145 0.473917 0.922166
O O14 0.950755 0.578459 0.817515
O O15 0.851720 0.611141 0.631719
O O16 0.737398 0.327221 0.448682
#
# Coordination Sequence:
#
# PCOD8054857 Si02
#       8
#     4   4   4   4   4   4   4   4
#     4  11  20  42  66  98 114 169 222 266 311 389
#     4  10  21  39  59  90 127 164 214 249 321 387
#     4  11  23  37  60  91 131 175 203 262 316 393
#     4   9  21  38  60  90 127 165 206 271 314 377
#     4  10  22  40  58  93 129 176 217 253 315 395
#     4  12  22  37  61  93 134 168 209 268 324 385
#     4  10  22  41  72  86 123 163 226 267 317 381
#     4  11  23  38  66  93 123 170 213 262 324 375
#
# _framework density 21.158843000000001
#
# number of rings (size 3 to 8) (size 9 to 14) (size 15 to 20)
#    0.000    1.500    3.750    2.250    3.500    0.000 
#    0.000    0.000    5.500    1.500    0.000    0.000 
#    0.000    0.000    0.000    0.000    0.000    0.000 
#
# Total GULP energy -198220.919197 kJ/mol
# GULP energy per Si atom -12388.807450 kJ/mol
# Density = 2.111068 g / cm^3
# Si number density = 21.158843 Si / 1000 Ang^3
#
#
#
# Elastic Constant Matrix: (Units=GPa)
#
#
# Indices 1 2 3 4 5 6 
#
# 1 98.7283 17.1786 38.3126 0.0000 8.7966 0.0000
# 2 17.1786 108.9746 30.9174 0.0000 7.6428 0.0000
# 3 38.3126 30.9174 73.5847 0.0000 -4.6560 0.0000
# 4 0.0000 0.0000 0.0000 32.9251 0.0000 -4.8093
# 5 8.7966 7.6428 -4.6560 0.0000 31.7095 0.0000
# 6 0.0000 0.0000 0.0000 -4.8093 0.0000 13.1492
#
#
#
# Elastic Compliance Matrix: (Units=1/GPa)
#
#
# Indices 1 2 3 4 5 6 
#
# 1 0.013384 0.000338 -0.007420 0.000000 -0.004884 0.000000
# 2 0.000338 0.010755 -0.004910 0.000000 -0.003407 0.000000
# 3 -0.007420 -0.004910 0.019906 0.000000 0.006165 0.000000
# 4 0.000000 0.000000 0.000000 0.032086 0.000000 0.011736
# 5 -0.004884 -0.003407 0.006165 0.000000 0.034617 0.000000
# 6 0.000000 0.000000 0.000000 0.011736 0.000000 0.080343
#
#
# Mechanical properties :
#
#
# Convention : Reuss Voigt Hill
#
# Bulk Modulus (GPa) = 49.84747 50.45611 50.15179
# Shear Modulus (GPa) = 22.54649 28.54869 25.54759
#
# Velocity S-wave (km/s) = 3.26787 3.67721 3.47856
# Velocity P-wave (km/s) = 6.15211 6.47513 6.31568
#
# Compressibility (1/GPa) = 0.02006120
#
# Stress axis : x y z
#
# Youngs Moduli (GPa) = 74.71342 92.97750 50.23590
#
# Poissons Ratio (x) = -0.03139 0.37273
# Poissons Ratio (y) = -0.02523 0.24667
# Poissons Ratio (z) = 0.55435 0.45655
#
# Static dielectric constant tensor:
#      x y z
#    x 3.739460 0.000000 -0.073170 
#    y 0.000000 3.960210 0.000000 
#    z -0.073170 0.000000 3.868920 
# 
# 
# High freq. dielectric constant tensor:
#      x y z
#    x 1.809840 0.000000 -0.010760 
#    y 0.000000 1.822050 0.000000 
#    z -0.010760 0.000000 1.827960 
# 
# From -- ./inp_files/6376.got.cif
#   From: 2010.06.25/outbox.cif.g09.slc.cpg/sg9_4_cif.got.tgz:6376.got - 2010.06.27 21:40:51.
