data_PCOD8054278
_publ_section_title
;
Structure prediction by ZEFSAII (Michael W. Deem and Ramdas Pophale) SiO2 
 PCOD8054278
Probable space group: C C
;
_chemical_formula_sum "Si O2"
_cell_formula_units_Z 32
_cell_length_a 9.007088
_cell_length_b 21.513418
_cell_length_c 15.567408
_cell_angle_alpha 90.000000
_cell_angle_beta 148.982099
_cell_angle_gamma 90.000000
_cell_volume 1554.444451
_symmetry_space_group_name_H-M "C C"
_symmetry_group_IT_number 9
_symmetry_cell_setting 'monoclinic'
loop_
_space_group_symop_operation_xyz
x,y,z
x,-y,1/2+z
1/2+x,1/2+y,z
1/2+x,1/2-y,1/2+z
loop_
_atom_site_type_symbol
_atom_site_label
_atom_site_fract_x
_atom_site_fract_y
_atom_site_fract_z
Si Si1 0.324820 0.304978 0.018630
Si Si2 0.483672 0.361782 0.829363
Si Si3 0.089846 0.640706 0.704146
Si Si4 0.921547 0.540219 0.752906
Si Si5 0.453576 0.218302 0.786240
Si Si6 0.589884 0.878208 0.486272
Si Si7 0.279186 0.577520 0.399711
Si Si8 0.562599 0.679964 0.817338
O O1 0.637561 0.312314 0.129471
O O2 0.350741 0.303245 0.133983
O O3 0.172778 0.367989 0.911192
O O4 0.158923 0.244547 0.905977
O O5 0.415921 0.288674 0.795771
O O6 0.375083 0.390288 0.684942
O O7 0.308005 0.394908 0.818273
O O8 0.825800 0.369375 0.007244
O O9 0.385280 0.640072 0.798451
O O10 0.090810 0.585240 0.772187
O O11 0.069946 0.706194 0.747408
O O12 0.577310 0.544751 0.575271
O O13 0.016693 0.559669 0.896569
O O14 0.019321 0.471214 0.777282
O O15 0.644159 0.181466 0.951416
O O16 0.329486 0.862342 0.422111
#
# Coordination Sequence:
#
# PCOD8054278 Si02
#       8
#     4   4   4   4   4   4   4   4
#     4  11  21  41  65  91 128 168 204 257 321 389
#     4  11  20  37  67  97 119 169 207 259 319 383
#     4  10  23  40  62  94 136 159 210 264 313 377
#     4  10  23  47  64  88 124 179 215 267 311 373
#     4  10  18  38  66  91 127 163 202 251 323 387
#     4  10  20  39  65  90 120 165 216 251 318 376
#     4  11  22  45  67  88 125 171 223 260 317 373
#     4  11  23  39  64  99 131 160 205 265 324 380
#
# _framework density 20.586133
#
# number of rings (size 3 to 8) (size 9 to 14) (size 15 to 20)
#    0.000    1.500    6.250    2.250    1.750    1.000 
#    4.500    1.250    0.000    0.000    0.000    0.000 
#    0.000    0.000    0.000    0.000    0.000    0.000 
#
# Total GULP energy -198394.456122 kJ/mol
# GULP energy per Si atom -12399.653508 kJ/mol
# Density = 2.053928 g / cm^3
# Si number density = 20.586133 Si / 1000 Ang^3
#
#
#
# Elastic Constant Matrix: (Units=GPa)
#
#
# Indices 1 2 3 4 5 6 
#
# 1 90.9604 13.8415 34.3506 -0.0017 -1.0841 -0.0099
# 2 13.8415 78.3090 22.8608 -0.0003 0.6966 -0.0004
# 3 34.3506 22.8608 100.4547 -0.0832 -23.4667 -0.0262
# 4 -0.0017 -0.0003 -0.0832 24.5137 -0.0186 3.7175
# 5 -1.0841 0.6966 -23.4667 -0.0186 28.3201 -0.0148
# 6 -0.0099 -0.0004 -0.0262 3.7175 -0.0148 22.9824
#
#
#
# Elastic Compliance Matrix: (Units=1/GPa)
#
#
# Indices 1 2 3 4 5 6 
#
# 1 0.013011 -0.000762 -0.005152 -0.000020 -0.003752 0.000000
# 2 -0.000762 0.014029 -0.003744 -0.000015 -0.003477 -0.000004
# 3 -0.005152 -0.003744 0.015555 0.000060 0.012784 0.000014
# 4 -0.000020 -0.000015 0.000060 0.041820 0.000073 -0.006764
# 5 -0.003752 -0.003477 0.012784 0.000073 0.045846 0.000030
# 6 0.000000 -0.000004 0.000014 -0.006764 0.000030 0.044606
#
#
# Mechanical properties :
#
#
# Convention : Reuss Voigt Hill
#
# Bulk Modulus (GPa) = 42.96004 45.75888 44.35946
# Shear Modulus (GPa) = 24.75965 28.40801 26.58383
#
# Velocity S-wave (km/s) = 3.47181 3.71881 3.59743
# Velocity P-wave (km/s) = 6.08153 6.38088 6.23300
#
# Compressibility (1/GPa) = 0.02327745
#
# Stress axis : x y z
#
# Youngs Moduli (GPa) = 76.85959 71.28305 64.28778
#
# Poissons Ratio (x) = 0.05434 0.33122
# Poissons Ratio (y) = 0.05859 0.24070
# Poissons Ratio (z) = 0.39599 0.26689
#
# Static dielectric constant tensor:
#      x y z
#    x 3.636110 0.000010 -0.271250 
#    y 0.000010 3.572590 -0.000030 
#    z -0.271250 -0.000030 3.850120 
# 
# 
# High freq. dielectric constant tensor:
#      x y z
#    x 1.794220 0.000000 -0.019310 
#    y 0.000000 1.791010 0.000000 
#    z -0.019310 0.000000 1.807340 
# 
# From -- ./inp_files/6040.got.cif
#   From: 2010.06.25/outbox.cif.g09.slc.cpg/sg9_4_cif.got.tgz:6040.got - 2010.06.27 21:40:51.
