data_PCOD8054892
_publ_section_title
;
Structure prediction by ZEFSAII (Michael W. Deem and Ramdas Pophale) SiO2 
 PCOD8054892
Probable space group: C C
;
_chemical_formula_sum "Si O2"
_cell_formula_units_Z 20
_cell_length_a 16.755174
_cell_length_b 12.869713
_cell_length_c 5.156774
_cell_angle_alpha 90.000000
_cell_angle_beta 47.527561
_cell_angle_gamma 90.000000
_cell_volume 820.196902
_symmetry_space_group_name_H-M "C C"
_symmetry_group_IT_number 9
_symmetry_cell_setting 'monoclinic'
loop_
_space_group_symop_operation_xyz
x,y,z
x,-y,1/2+z
1/2+x,1/2+y,z
1/2+x,1/2-y,1/2+z
loop_
_atom_site_type_symbol
_atom_site_label
_atom_site_fract_x
_atom_site_fract_y
_atom_site_fract_z
Si Si1 0.143120 0.070945 0.150050
Si Si2 0.251291 0.538290 0.628314
Si Si3 0.452292 0.731362 0.516440
Si Si4 0.811832 0.248685 0.321847
Si Si5 0.016118 0.453923 0.283628
O O1 0.033452 0.137428 0.394344
O O2 0.147091 0.984507 0.363604
O O3 0.247071 0.143944 0.969144
O O4 0.315951 0.470445 0.263166
O O5 0.231284 0.654737 0.573051
O O6 0.140051 0.488485 0.979273
O O7 0.407309 0.736366 0.322448
O O8 0.517283 0.839010 0.395211
O O9 0.356838 0.730066 0.935605
O O10 0.958444 0.527383 0.631561
#
# Coordination Sequence:
#
# PCOD8054892 Si02
#       5
#     4   4   4   4   4
#     4  12  28  50  72 104 152 198 238 296 368 438
#     4  10  21  39  67  98 130 170 224 289 346 401
#     4  12  27  46  72 106 143 188 243 297 358 434
#     4  12  27  46  72 106 143 188 243 297 358 434
#     4  10  21  39  67  98 130 170 224 289 346 401
#
# _framework density 24.384391000000001
#
# number of rings (size 3 to 8) (size 9 to 14) (size 15 to 20)
#    0.000    0.800    0.000    7.200    0.000   16.000 
#    0.000    0.000    0.000    0.000    0.000    0.000 
#    0.000    0.000    0.000    0.000    0.000    0.000 
#
# Total GULP energy -123891.187253 kJ/mol
# GULP energy per Si atom -12389.118725 kJ/mol
# Density = 2.432889 g / cm^3
# Si number density = 24.384391 Si / 1000 Ang^3
#
#
#
# Elastic Constant Matrix: (Units=GPa)
#
#
# Indices 1 2 3 4 5 6 
#
# 1 102.4602 29.8084 40.5653 0.0000 22.9606 0.0000
# 2 29.8084 138.4962 45.0967 0.0000 3.9182 0.0000
# 3 40.5653 45.0967 97.6747 0.0000 33.6179 0.0000
# 4 0.0000 0.0000 0.0000 44.7348 0.0000 16.7228
# 5 22.9606 3.9182 33.6179 0.0000 57.2266 0.0000
# 6 0.0000 0.0000 0.0000 16.7228 0.0000 31.7103
#
#
#
# Elastic Compliance Matrix: (Units=1/GPa)
#
#
# Indices 1 2 3 4 5 6 
#
# 1 0.012153 -0.001416 -0.003445 0.000000 -0.002755 0.000000
# 2 -0.001416 0.008881 -0.004385 0.000000 0.002536 0.000000
# 3 -0.003445 -0.004385 0.016438 0.000000 -0.007974 0.000000
# 4 0.000000 0.000000 0.000000 0.027843 0.000000 -0.014683
# 5 -0.002755 0.002536 -0.007974 0.000000 0.023091 0.000000
# 6 0.000000 0.000000 0.000000 -0.014683 0.000000 0.039279
#
#
# Mechanical properties :
#
#
# Convention : Reuss Voigt Hill
#
# Bulk Modulus (GPa) = 52.68837 63.28575 57.98706
# Shear Modulus (GPa) = 32.78575 41.61171 37.19873
#
# Velocity S-wave (km/s) = 3.67077 4.13545 3.91002
# Velocity P-wave (km/s) = 6.29448 6.98658 6.64954
#
# Compressibility (1/GPa) = 0.01897952
#
# Stress axis : x y z
#
# Youngs Moduli (GPa) = 82.28212 112.59504 60.83366
#
# Poissons Ratio (x) = 0.15943 0.20959
# Poissons Ratio (y) = 0.11651 0.26678
# Poissons Ratio (z) = 0.28349 0.49378
#
# Static dielectric constant tensor:
#      x y z
#    x 5.984890 0.000000 1.043890 
#    y 0.000000 4.762190 0.000000 
#    z 1.043890 0.000000 4.707400 
# 
# 
# High freq. dielectric constant tensor:
#      x y z
#    x 1.981200 0.000000 0.032340 
#    y 0.000000 1.986680 0.000000 
#    z 0.032340 0.000000 1.973430 
# 
# From -- ./inp_files/3123.got.cif
#   From: 2010.06.25/outbox.cif.g09.slc.cpg/sg9_2_cif.got.tgz:3123.got - 2010.06.27 21:40:51.
