data_PCOD8054292
_publ_section_title
;
Structure prediction by ZEFSAII (Michael W. Deem and Ramdas Pophale) SiO2 
 PCOD8054292
Probable space group: C C
;
_chemical_formula_sum "Si O2"
_cell_formula_units_Z 28
_cell_length_a 12.154218
_cell_length_b 9.301821
_cell_length_c 14.225404
_cell_angle_alpha 90.000000
_cell_angle_beta 57.241230
_cell_angle_gamma 90.000000
_cell_volume 1352.486643
_symmetry_space_group_name_H-M "C C"
_symmetry_group_IT_number 9
_symmetry_cell_setting 'monoclinic'
loop_
_space_group_symop_operation_xyz
x,y,z
x,-y,1/2+z
1/2+x,1/2+y,z
1/2+x,1/2-y,1/2+z
loop_
_atom_site_type_symbol
_atom_site_label
_atom_site_fract_x
_atom_site_fract_y
_atom_site_fract_z
Si Si1 0.993100 0.989427 0.893720
Si Si2 0.780787 0.795399 0.520130
Si Si3 0.665421 0.262031 0.259703
Si Si4 0.034763 0.697255 0.811853
Si Si5 0.990842 0.559658 0.456775
Si Si6 0.222868 0.171318 0.352006
Si Si7 0.917597 0.439314 0.194902
O O1 0.060091 0.110818 0.797848
O O2 0.863755 0.058970 0.997353
O O3 0.955243 0.849170 0.849474
O O4 0.101174 0.941582 0.923037
O O5 0.670743 0.805343 0.652028
O O6 0.861702 0.651433 0.500339
O O7 0.727786 0.779037 0.438449
O O8 0.617813 0.141854 0.356413
O O9 0.805177 0.321444 0.228943
O O10 0.184272 0.730976 0.777877
O O11 0.966530 0.591403 0.917746
O O12 0.026785 0.627623 0.713202
O O13 0.001813 0.527301 0.562917
O O14 0.356739 0.085115 0.268540
#
# Coordination Sequence:
#
# PCOD8054292 Si02
#       7
#     4   4   4   4   4   4   4
#     4   8  20  39  56  95 122 151 217 243 303 383
#     4  10  18  40  67  86 129 168 197 265 312 368
#     4   9  20  39  60  91 123 168 209 247 323 374
#     4  10  21  40  60  93 122 159 210 255 307 376
#     4  10  21  39  64  90 122 171 211 252 323 377
#     4   9  20  39  63  90 124 160 202 254 318 357
#     4  10  20  42  62  89 132 161 204 272 304 373
#
# _framework density 20.702605999999999
#
# number of rings (size 3 to 8) (size 9 to 14) (size 15 to 20)
#    0.857    1.714    1.429    0.000    0.000    2.286 
#   15.429    0.000    0.000    0.000    0.000    0.000 
#    0.000    0.000    0.000    0.000    0.000    0.000 
#
# Total GULP energy -173443.308519 kJ/mol
# GULP energy per Si atom -12388.807751 kJ/mol
# Density = 2.065549 g / cm^3
# Si number density = 20.702606 Si / 1000 Ang^3
#
#
#
# Elastic Constant Matrix: (Units=GPa)
#
#
# Indices 1 2 3 4 5 6 
#
# 1 68.1353 21.4922 37.9094 0.0000 19.8756 0.0000
# 2 21.4922 100.9312 45.5879 0.0000 5.3626 0.0000
# 3 37.9094 45.5879 138.8219 0.0000 17.0852 0.0000
# 4 0.0000 0.0000 0.0000 17.5257 0.0000 7.0913
# 5 19.8756 5.3626 17.0852 0.0000 30.7753 0.0000
# 6 0.0000 0.0000 0.0000 7.0913 0.0000 29.6218
#
#
#
# Elastic Compliance Matrix: (Units=1/GPa)
#
#
# Indices 1 2 3 4 5 6 
#
# 1 0.020519 -0.002190 -0.003542 0.000000 -0.010904 0.000000
# 2 -0.002190 0.011867 -0.003455 0.000000 0.001264 0.000000
# 3 -0.003542 -0.003455 0.009606 0.000000 -0.002443 0.000000
# 4 0.000000 0.000000 0.000000 0.063179 0.000000 -0.015125
# 5 -0.010904 0.001264 -0.002443 0.000000 0.040672 0.000000
# 6 0.000000 0.000000 0.000000 -0.015125 0.000000 0.037380
#
#
# Mechanical properties :
#
#
# Convention : Reuss Voigt Hill
#
# Bulk Modulus (GPa) = 42.33981 57.54082 49.94031
# Shear Modulus (GPa) = 23.86988 29.11115 26.49052
#
# Velocity S-wave (km/s) = 3.39925 3.75395 3.58099
# Velocity P-wave (km/s) = 5.99186 6.82963 6.42442
#
# Compressibility (1/GPa) = 0.02361843
#
# Stress axis : x y z
#
# Youngs Moduli (GPa) = 48.73526 84.26520 104.10221
#
# Poissons Ratio (x) = 0.18455 0.36875
# Poissons Ratio (y) = 0.10673 0.35964
# Poissons Ratio (z) = 0.17263 0.29111
#
# Static dielectric constant tensor:
#      x y z
#    x 3.557820 0.000000 0.093890 
#    y 0.000000 3.833060 0.000000 
#    z 0.093890 0.000000 3.687200 
# 
# 
# High freq. dielectric constant tensor:
#      x y z
#    x 1.792410 0.000000 0.006010 
#    y 0.000000 1.818170 0.000000 
#    z 0.006010 0.000000 1.789130 
# 
# From -- ./inp_files/25647.got.cif
#   From: 2010.06.25/outbox.cif.g09.slc.cpg/sg9_13_cif.got.tgz:25647.got - 2010.06.27 21:40:51.
