data_PCOD8054985
_publ_section_title
;
Structure prediction by ZEFSAII (Michael W. Deem and Ramdas Pophale) SiO2 
 PCOD8054985
Probable space group: C C
;
_chemical_formula_sum "Si O2"
_cell_formula_units_Z 32
_cell_length_a 14.606458
_cell_length_b 8.323024
_cell_length_c 12.296870
_cell_angle_alpha 90.000000
_cell_angle_beta 84.812953
_cell_angle_gamma 90.000000
_cell_volume 1488.807322
_symmetry_space_group_name_H-M "C C"
_symmetry_group_IT_number 9
_symmetry_cell_setting 'monoclinic'
loop_
_space_group_symop_operation_xyz
x,y,z
x,-y,1/2+z
1/2+x,1/2+y,z
1/2+x,1/2-y,1/2+z
loop_
_atom_site_type_symbol
_atom_site_label
_atom_site_fract_x
_atom_site_fract_y
_atom_site_fract_z
Si Si1 0.601420 0.379525 0.797070
Si Si2 0.669282 0.462686 0.575069
Si Si3 0.839168 0.688257 0.944435
Si Si4 0.993082 0.525431 0.527217
Si Si5 0.529765 0.653595 0.933830
Si Si6 0.659074 0.196739 0.005118
Si Si7 0.347346 0.536355 0.026668
Si Si8 0.915035 0.761577 0.713263
O O1 0.677600 0.383781 0.693519
O O2 0.586137 0.566466 0.832612
O O3 0.504346 0.313734 0.769359
O O4 0.639754 0.266332 0.887251
O O5 0.740869 0.386806 0.483489
O O6 0.566379 0.422665 0.543844
O O7 0.680503 0.654800 0.582957
O O8 0.840635 0.715717 0.814076
O O9 0.917672 0.562932 0.964738
O O10 0.855827 0.844976 0.016654
O O11 0.041973 0.654147 0.440179
O O12 0.071955 0.403455 0.559167
O O13 0.942201 0.610393 0.634159
O O14 0.421511 0.614739 0.936977
O O15 0.747122 0.083054 0.994173
O O16 0.368343 0.596791 0.147012
#
# Coordination Sequence:
#
# PCOD8054985 Si02
#       8
#     4   4   4   4   4   4   4   4
#     4  11  22  45  71  97 135 186 225 279 351 400
#     4  11  23  42  69  97 138 175 230 281 337 404
#     4  12  25  46  69 103 140 182 228 287 335 411
#     4  11  23  43  68 102 141 177 231 283 338 408
#     4  10  21  41  66  97 134 176 218 285 333 401
#     4  11  25  44  67 103 142 177 230 287 334 409
#     4  11  23  43  68  99 138 175 228 284 335 404
#     4  11  24  46  72  98 138 184 228 278 351 403
#
# _framework density 21.493715000000002
#
# number of rings (size 3 to 8) (size 9 to 14) (size 15 to 20)
#    0.000    1.000    5.000    3.000    0.000    6.000 
#    0.000    0.000    0.000    0.000    0.000    0.000 
#    0.000    0.000    0.000    0.000    0.000    0.000 
#
# Total GULP energy -198362.931617 kJ/mol
# GULP energy per Si atom -12397.683226 kJ/mol
# Density = 2.144479 g / cm^3
# Si number density = 21.493715 Si / 1000 Ang^3
#
#
#
# Elastic Constant Matrix: (Units=GPa)
#
#
# Indices 1 2 3 4 5 6 
#
# 1 80.6523 18.2609 34.6847 0.0000 -7.7799 0.0000
# 2 18.2609 122.5950 40.0538 0.0000 -9.7712 0.0000
# 3 34.6847 40.0538 105.7438 0.0000 -13.2891 0.0000
# 4 0.0000 0.0000 0.0000 32.3542 0.0000 3.3739
# 5 -7.7799 -9.7712 -13.2891 0.0000 32.8425 0.0000
# 6 0.0000 0.0000 0.0000 3.3739 0.0000 38.0030
#
#
#
# Elastic Compliance Matrix: (Units=1/GPa)
#
#
# Indices 1 2 3 4 5 6 
#
# 1 0.014556 -0.000628 -0.004348 0.000000 0.001502 0.000000
# 2 -0.000628 0.009399 -0.003183 0.000000 0.001360 0.000000
# 3 -0.004348 -0.003183 0.012475 0.000000 0.003071 0.000000
# 4 0.000000 0.000000 0.000000 0.031197 0.000000 -0.002770
# 5 0.001502 0.001360 0.003071 0.000000 0.032451 0.000000
# 6 0.000000 0.000000 0.000000 -0.002770 0.000000 0.026560
#
#
# Mechanical properties :
#
#
# Convention : Reuss Voigt Hill
#
# Bulk Modulus (GPa) = 49.72357 54.99888 52.36123
# Shear Modulus (GPa) = 33.40942 35.03937 34.22440
#
# Velocity S-wave (km/s) = 3.94684 4.04197 3.99469
# Velocity P-wave (km/s) = 6.62980 6.88675 6.75950
#
# Compressibility (1/GPa) = 0.02011118
#
# Stress axis : x y z
#
# Youngs Moduli (GPa) = 68.70148 106.39583 80.16299
#
# Poissons Ratio (x) = 0.06681 0.34853
# Poissons Ratio (y) = 0.04314 0.25518
# Poissons Ratio (z) = 0.29870 0.33869
#
# Static dielectric constant tensor:
#      x y z
#    x 3.949470 0.000000 -0.128300 
#    y 0.000000 4.055620 0.000000 
#    z -0.128300 0.000000 4.081150 
# 
# 
# High freq. dielectric constant tensor:
#      x y z
#    x 1.851600 0.000000 0.001000 
#    y 0.000000 1.851170 0.000000 
#    z 0.001000 0.000000 1.831310 
# 
# From -- ./inp_files/17781.got.cif
#   From: 2010.06.25/outbox.cif.g09.slc.cpg/sg9_9_cif.got.tgz:17781.got - 2010.06.27 21:40:51.
