data_PCOD8054618
_publ_section_title
;
Structure prediction by ZEFSAII (Michael W. Deem and Ramdas Pophale) SiO2 
 PCOD8054618
Probable space group: C C
;
_chemical_formula_sum "Si O2"
_cell_formula_units_Z 32
_cell_length_a 13.804554
_cell_length_b 15.546508
_cell_length_c 9.061516
_cell_angle_alpha 90.000000
_cell_angle_beta 47.948990
_cell_angle_gamma 90.000000
_cell_volume 1444.046247
_symmetry_space_group_name_H-M "C C"
_symmetry_group_IT_number 9
_symmetry_cell_setting 'monoclinic'
loop_
_space_group_symop_operation_xyz
x,y,z
x,-y,1/2+z
1/2+x,1/2+y,z
1/2+x,1/2-y,1/2+z
loop_
_atom_site_type_symbol
_atom_site_label
_atom_site_fract_x
_atom_site_fract_y
_atom_site_fract_z
Si Si1 0.506130 0.702219 0.329060
Si Si2 0.548966 0.224729 0.462009
Si Si3 0.552200 0.954370 0.511783
Si Si4 0.503666 0.467272 0.667010
Si Si5 0.909218 0.420173 0.943337
Si Si6 0.731599 0.187761 0.690252
Si Si7 0.235061 0.599391 0.383642
Si Si8 0.611154 0.592329 0.773629
O O1 0.526638 0.602358 0.272736
O O2 0.631763 0.732772 0.294543
O O3 0.381782 0.717562 0.569032
O O4 0.502452 0.755310 0.177377
O O5 0.435461 0.166314 0.509130
O O6 0.684155 0.168536 0.313985
O O7 0.570487 0.309272 0.342769
O O8 0.465020 0.907945 0.722136
O O9 0.668588 0.890458 0.344713
O O10 0.466394 0.993423 0.464459
O O11 0.620390 0.032276 0.528378
O O12 0.368536 0.451647 0.712842
O O13 0.514659 0.557610 0.742255
O O14 0.609115 0.459574 0.430220
O O15 0.756263 0.424355 0.070870
O O16 0.763070 0.155287 0.495870
#
# Coordination Sequence:
#
# PCOD8054618 Si02
#       8
#     4   4   4   4   4   4   4   4
#     4   9  21  38  63  93 122 172 215 257 328 396
#     4   9  22  41  68  92 129 179 219 269 329 405
#     4  11  22  42  65  94 121 173 211 273 321 393
#     4  10  23  38  66  96 129 167 217 271 333 390
#     4  11  24  42  65  92 131 167 222 269 334 394
#     4  10  20  39  63  91 124 165 213 265 315 396
#     4   9  20  40  68  92 125 168 223 260 322 399
#     4  11  24  42  64  98 131 173 216 278 334 395
#
# _framework density 22.159956000000001
#
# number of rings (size 3 to 8) (size 9 to 14) (size 15 to 20)
#    0.000    2.000    1.250    0.750   12.250    1.000 
#    4.500    0.000    0.000    0.000    0.000    0.000 
#    0.000    0.000    0.000    0.000    0.000    0.000 
#
# Total GULP energy -198215.109095 kJ/mol
# GULP energy per Si atom -12388.444318 kJ/mol
# Density = 2.210952 g / cm^3
# Si number density = 22.159956 Si / 1000 Ang^3
#
#
#
# Elastic Constant Matrix: (Units=GPa)
#
#
# Indices 1 2 3 4 5 6 
#
# 1 67.7699 37.9675 29.5001 0.0000 -18.2542 0.0000
# 2 37.9675 99.8205 42.8063 0.0000 -4.5480 0.0000
# 3 29.5001 42.8063 101.3428 0.0000 -27.5024 0.0000
# 4 0.0000 0.0000 0.0000 31.5294 0.0000 2.4534
# 5 -18.2542 -4.5480 -27.5024 0.0000 28.5142 0.0000
# 6 0.0000 0.0000 0.0000 2.4534 0.0000 29.7912
#
#
#
# Elastic Compliance Matrix: (Units=1/GPa)
#
#
# Indices 1 2 3 4 5 6 
#
# 1 0.022918 -0.008359 0.000649 0.000000 0.013964 0.000000
# 2 -0.008359 0.015649 -0.006707 0.000000 -0.009324 0.000000
# 3 0.000649 -0.006707 0.016707 0.000000 0.015460 0.000000
# 4 0.000000 0.000000 0.000000 0.031921 0.000000 -0.002629
# 5 0.013964 -0.009324 0.015460 0.000000 0.057434 0.000000
# 6 0.000000 0.000000 0.000000 -0.002629 0.000000 0.033783
#
#
# Mechanical properties :
#
#
# Convention : Reuss Voigt Hill
#
# Bulk Modulus (GPa) = 37.82186 54.38679 46.10432
# Shear Modulus (GPa) = 23.14177 28.54423 25.84300
#
# Velocity S-wave (km/s) = 3.23508 3.59290 3.41868
# Velocity P-wave (km/s) = 5.57306 6.46591 6.03602
#
# Compressibility (1/GPa) = 0.02643974
#
# Stress axis : x y z
#
# Youngs Moduli (GPa) = 43.63439 63.90248 59.85483
#
# Poissons Ratio (x) = 0.53417 -0.03886
# Poissons Ratio (y) = 0.36475 0.40145
# Poissons Ratio (z) = -0.02833 0.42860
#
# Static dielectric constant tensor:
#      x y z
#    x 4.030650 0.000000 -0.339900 
#    y 0.000000 4.054610 0.000000 
#    z -0.339900 0.000000 3.906060 
# 
# 
# High freq. dielectric constant tensor:
#      x y z
#    x 1.859490 0.000000 -0.018700 
#    y 0.000000 1.871630 0.000000 
#    z -0.018700 0.000000 1.864420 
# 
# From -- ./inp_files/7572.got.cif
#   From: 2010.06.25/outbox.cif.g09.slc.cpg/sg9_4_cif.got.tgz:7572.got - 2010.06.27 21:40:51.
