data_PCOD8054933
_publ_section_title
;
Structure prediction by ZEFSAII (Michael W. Deem and Ramdas Pophale) SiO2 
 PCOD8054933
Probable space group: C C
;
_chemical_formula_sum "Si O2"
_cell_formula_units_Z 32
_cell_length_a 14.186391
_cell_length_b 17.936796
_cell_length_c 5.514444
_cell_angle_alpha 90.000000
_cell_angle_beta 116.071592
_cell_angle_gamma 90.000000
_cell_volume 1260.415166
_symmetry_space_group_name_H-M "C C"
_symmetry_group_IT_number 9
_symmetry_cell_setting 'monoclinic'
loop_
_space_group_symop_operation_xyz
x,y,z
x,-y,1/2+z
1/2+x,1/2+y,z
1/2+x,1/2-y,1/2+z
loop_
_atom_site_type_symbol
_atom_site_label
_atom_site_fract_x
_atom_site_fract_y
_atom_site_fract_z
Si Si1 0.555040 0.529343 0.485940
Si Si2 0.535125 0.679146 0.262110
Si Si3 0.938442 0.693479 0.920906
Si Si4 0.773534 0.036554 0.441988
Si Si5 0.024886 0.463089 0.667068
Si Si6 0.292753 0.029369 0.195038
Si Si7 0.764337 0.684394 0.346469
Si Si8 0.363039 0.313766 0.201994
O O1 0.500842 0.499201 0.672113
O O2 0.541349 0.619009 0.488699
O O3 0.675705 0.503868 0.586522
O O4 0.515056 0.764532 0.316473
O O5 0.643068 0.672778 0.245874
O O6 0.445536 0.649845 0.979158
O O7 0.922791 0.754589 0.106880
O O8 0.996899 0.622856 0.094316
O O9 0.828820 0.672220 0.668372
O O10 0.649187 0.028213 0.306828
O O11 0.805073 0.123454 0.480604
O O12 0.818346 0.003829 0.237222
O O13 0.982175 0.513018 0.389407
O O14 0.298456 0.119173 0.197501
O O15 0.348387 0.996219 0.503567
O O16 0.777326 0.766947 0.256436
#
# Coordination Sequence:
#
# PCOD8054933 Si02
#       8
#     4   4   4   4   4   4   4   4
#     4  10  21  40  66 103 142 190 238 281 353 454
#     4  11  26  46  71 106 152 200 243 304 388 456
#     4  11  29  46  72 115 149 194 254 317 382 455
#     4  10  25  50  81 107 144 204 262 318 373 437
#     4  10  25  50  81 107 144 204 262 318 373 437
#     4  10  21  40  66 103 142 190 238 281 353 454
#     4  11  26  46  71 106 152 200 243 304 388 456
#     4  11  29  46  72 115 149 194 254 317 382 455
#
# _framework density 25.388459000000001
#
# number of rings (size 3 to 8) (size 9 to 14) (size 15 to 20)
#    0.000    1.500    2.500    0.000   14.000    3.000 
#    0.000    0.000    0.000    0.000    0.000    0.000 
#    0.000    0.000    0.000    0.000    0.000    0.000 
#
# Total GULP energy -198429.097211 kJ/mol
# GULP energy per Si atom -12401.818576 kJ/mol
# Density = 2.533067 g / cm^3
# Si number density = 25.388459 Si / 1000 Ang^3
#
#
#
# Elastic Constant Matrix: (Units=GPa)
#
#
# Indices 1 2 3 4 5 6 
#
# 1 45.3450 27.3222 41.3743 0.0000 -34.5726 0.0000
# 2 27.3222 154.3738 77.5083 0.0000 -4.3106 0.0000
# 3 41.3743 77.5083 142.4422 0.0000 -24.6059 0.0000
# 4 0.0000 0.0000 0.0000 54.3355 0.0000 3.7033
# 5 -34.5726 -4.3106 -24.6059 0.0000 41.6867 0.0000
# 6 0.0000 0.0000 0.0000 3.7033 0.0000 15.7616
#
#
#
# Elastic Compliance Matrix: (Units=1/GPa)
#
#
# Indices 1 2 3 4 5 6 
#
# 1 0.083045 -0.008652 -0.008542 0.000000 0.062936 0.000000
# 2 -0.008652 0.009993 -0.004438 0.000000 -0.008761 0.000000
# 3 -0.008542 -0.004438 0.011818 0.000000 -0.000567 0.000000
# 4 0.000000 0.000000 0.000000 0.018704 0.000000 -0.004395
# 5 0.062936 -0.008761 -0.000567 0.000000 0.074943 0.000000
# 6 0.000000 0.000000 0.000000 -0.004395 0.000000 0.064478
#
#
# Mechanical properties :
#
#
# Convention : Reuss Voigt Hill
#
# Bulk Modulus (GPa) = 16.23565 70.50782 43.37174
# Shear Modulus (GPa) = 15.30106 35.42051 25.36079
#
# Velocity S-wave (km/s) = 2.45761 3.73921 3.16398
# Velocity P-wave (km/s) = 3.80288 6.81720 5.51979
#
# Compressibility (1/GPa) = 0.06159285
#
# Stress axis : x y z
#
# Youngs Moduli (GPa) = 12.04165 100.07499 84.61464
#
# Poissons Ratio (x) = 0.86582 0.72278
# Poissons Ratio (y) = 0.10418 0.37550
# Poissons Ratio (z) = 0.10286 0.44411
#
# Static dielectric constant tensor:
#      x y z
#    x 4.722010 0.000000 -0.311280 
#    y 0.000000 5.097690 0.000000 
#    z -0.311280 0.000000 5.478390 
# 
# 
# High freq. dielectric constant tensor:
#      x y z
#    x 2.033160 0.000000 0.005600 
#    y 0.000000 2.015870 0.000000 
#    z 0.005600 0.000000 2.038750 
# 
# From -- ./inp_files/2957.got.cif
#   From: 2010.06.25/outbox.cif.g09.slc.cpg/sg9_2_cif.got.tgz:2957.got - 2010.06.27 21:40:51.
