data_PCOD8054345
_publ_section_title
;
Structure prediction by ZEFSAII (Michael W. Deem and Ramdas Pophale) SiO2 
 PCOD8054345
Probable space group: C C
;
_chemical_formula_sum "Si O2"
_cell_formula_units_Z 28
_cell_length_a 24.338510
_cell_length_b 11.929403
_cell_length_c 9.524722
_cell_angle_alpha 90.000000
_cell_angle_beta 147.818864
_cell_angle_gamma 90.000000
_cell_volume 1472.869436
_symmetry_space_group_name_H-M "C C"
_symmetry_group_IT_number 9
_symmetry_cell_setting 'monoclinic'
loop_
_space_group_symop_operation_xyz
x,y,z
x,-y,1/2+z
1/2+x,1/2+y,z
1/2+x,1/2-y,1/2+z
loop_
_atom_site_type_symbol
_atom_site_label
_atom_site_fract_x
_atom_site_fract_y
_atom_site_fract_z
Si Si1 0.079130 0.761456 0.458140
Si Si2 0.309915 0.744941 0.983435
Si Si3 0.936534 0.932406 0.265655
Si Si4 0.993904 0.376356 0.355141
Si Si5 0.310833 0.448733 0.268512
Si Si6 0.077423 0.471657 0.808112
Si Si7 0.503620 0.654929 0.512702
O O1 0.192619 0.771302 0.773313
O O2 0.056793 0.633558 0.367301
O O3 0.066725 0.839343 0.293538
O O4 0.996808 0.813282 0.390158
O O5 0.311202 0.669576 0.847269
O O6 0.369584 0.860753 0.074879
O O7 0.377295 0.679450 0.250584
O O8 0.847370 0.926190 0.189319
O O9 0.018628 0.031289 0.480518
O O10 0.885098 0.960576 0.003971
O O11 0.014301 0.460628 0.528020
O O12 0.038792 0.419056 0.305969
O O13 0.046183 0.254054 0.501700
O O14 0.194658 0.493691 0.016827
#
# Coordination Sequence:
#
# PCOD8054345 Si02
#       7
#     4   4   4   4   4   4   4
#     4  10  19  36  59  80 113 150 182 230 290 325
#     4   8  19  37  56  77 116 150 179 230 281 331
#     4  11  19  35  60  86 110 146 186 235 276 342
#     4   9  19  37  57  77 115 148 185 228 280 328
#     4  10  20  34  60  85 108 145 192 230 281 326
#     4  10  20  37  59  82 111 150 184 238 279 331
#     4   8  18  36  55  77 115 145 180 237 271 329
#
# _framework density 19.010511000000001
#
# number of rings (size 3 to 8) (size 9 to 14) (size 15 to 20)
#    0.857    1.714    1.429    0.857    0.000    1.143 
#    2.571    0.000    6.286    0.000    0.000    0.000 
#    0.000    0.000    0.000    0.000    0.000    0.000 
#
# Total GULP energy -173444.716405 kJ/mol
# GULP energy per Si atom -12388.908315 kJ/mol
# Density = 1.896724 g / cm^3
# Si number density = 19.010511 Si / 1000 Ang^3
#
#
#
# Elastic Constant Matrix: (Units=GPa)
#
#
# Indices 1 2 3 4 5 6 
#
# 1 69.6037 15.0982 9.0986 0.0000 11.4113 0.0000
# 2 15.0982 41.9972 0.0219 0.0000 9.6212 0.0000
# 3 9.0986 0.0219 80.9292 0.0000 8.9283 0.0000
# 4 0.0000 0.0000 0.0000 21.7730 0.0000 3.7633
# 5 11.4113 9.6212 8.9283 0.0000 23.8099 0.0000
# 6 0.0000 0.0000 0.0000 3.7633 0.0000 27.2061
#
#
#
# Elastic Compliance Matrix: (Units=1/GPa)
#
#
# Indices 1 2 3 4 5 6 
#
# 1 0.016444 -0.004641 -0.001236 0.000000 -0.005542 0.000000
# 2 -0.004641 0.027665 0.001567 0.000000 -0.009542 0.000000
# 3 -0.001236 0.001567 0.013039 0.000000 -0.004930 0.000000
# 4 0.000000 0.000000 0.000000 0.047053 0.000000 -0.006509
# 5 -0.005542 -0.009542 -0.004930 0.000000 0.050360 0.000000
# 6 0.000000 0.000000 0.000000 -0.006509 0.000000 0.037657
#
#
# Mechanical properties :
#
#
# Convention : Reuss Voigt Hill
#
# Bulk Modulus (GPa) = 20.60711 26.77416 23.69064
# Shear Modulus (GPa) = 23.03992 25.77857 24.40925
#
# Velocity S-wave (km/s) = 3.48509 3.68641 3.58716
# Velocity P-wave (km/s) = 5.20172 5.67749 5.44481
#
# Compressibility (1/GPa) = 0.04852694
#
# Stress axis : x y z
#
# Youngs Moduli (GPa) = 60.81239 36.14685 76.69340
#
# Poissons Ratio (x) = 0.16777 0.09480
# Poissons Ratio (y) = 0.28226 -0.12018
# Poissons Ratio (z) = 0.07517 -0.05664
#
# Static dielectric constant tensor:
#      x y z
#    x 3.136780 0.000000 -0.004680 
#    y 0.000000 3.453820 0.000000 
#    z -0.004680 0.000000 3.619980 
# 
# 
# High freq. dielectric constant tensor:
#      x y z
#    x 1.709340 0.000000 -0.011440 
#    y 0.000000 1.729900 0.000000 
#    z -0.011440 0.000000 1.737550 
# 
# From -- ./inp_files/8971.got.cif
#   From: 2010.06.25/outbox.cif.g09.slc.cpg/sg9_5_cif.got.tgz:8971.got - 2010.06.27 21:40:51.
